data_PCOD8102460
_publ_section_title
;
Structure prediction by ZEFSAII (Michael W. Deem and Ramdas Pophale) SiO2 
 PCOD8102460
Probable space group: C 2/M
;
_chemical_formula_sum "Si O2"
_cell_formula_units_Z 48
_cell_length_a 9.917634
_cell_length_b 22.837267
_cell_length_c 23.837445
_cell_angle_alpha 90.000000
_cell_angle_beta 151.405562
_cell_angle_gamma 90.000000
_cell_volume 2583.988739
_symmetry_space_group_name_H-M "C 2/M"
_symmetry_group_IT_number 12
_symmetry_cell_setting 'monoclinic'
loop_
_space_group_symop_operation_xyz
x,y,z
-x,y,-z
-x,-y,-z
x,-y,z
1/2+x,1/2+y,z
1/2-x,1/2+y,-z
1/2-x,1/2-y,-z
1/2+x,1/2-y,z
loop_
_atom_site_type_symbol
_atom_site_label
_atom_site_fract_x
_atom_site_fract_y
_atom_site_fract_z
Si Si1 0.683358 0.435130 0.402692
Si Si2 0.616403 0.937772 0.980561
Si Si3 0.047346 0.233330 0.083708
Si Si4 0.651152 0.649707 0.796568
Si Si5 0.852623 0.125334 0.804364
Si Si6 0.736308 0.067919 0.439869
O O1 0.543446 0.500000 0.339173
O O2 0.554312 0.379711 0.323469
O O3 0.668243 0.420041 0.462233
O O4 0.000000 0.440572 0.500000
O O5 0.445516 0.883863 0.892496
O O6 0.564669 0.000000 0.930102
O O7 0.500000 0.945053 0.000000
O O8 0.951759 0.926413 0.099867
O O9 0.279231 0.282171 0.185804
O O10 0.168594 0.174976 0.156121
O O11 0.000000 0.226130 0.000000
O O12 0.750000 0.250000 0.000000
O O13 0.514477 0.646143 0.807842
O O14 0.539986 0.104243 0.676726
O O15 0.000000 0.089908 0.500000
O O16 0.667718 0.000000 0.404123
#
# Coordination Sequence:
#
# PCOD8102460 Si02
#       6
#     8   8   8   8   8   8
#     4  10  20  36  64  94 121 158 200 246 301 361
#     4   9  17  29  54  89 117 144 189 247 300 354
#     4  12  23  41  61  88 122 166 205 245 303 362
#     4  11  20  36  61  91 120 153 203 251 298 357
#     4  11  21  38  62  87 120 159 203 247 304 359
#     4  10  22  41  63  90 126 163 197 243 309 367
#
# _framework density 18.575932000000002
#
# number of rings (size 3 to 8) (size 9 to 14) (size 15 to 20)
#    0.000    1.500    5.000    1.500    0.000    2.667 
#    0.000    1.667    0.000    1.000    0.000    0.000 
#    0.000    0.000    0.000    0.000    0.000    0.000 
#
# Total GULP energy -297367.185362 kJ/mol
# GULP energy per Si atom -12390.299390 kJ/mol
# Density = 1.853365 g / cm^3
# Si number density = 18.575932 Si / 1000 Ang^3
#
#
#
# Elastic Constant Matrix: (Units=GPa)
#
#
# Indices 1 2 3 4 5 6 
#
# 1 101.5424 38.5718 31.6285 0.0010 -3.9991 0.0004
# 2 38.5718 123.4925 50.0888 0.0073 -7.8732 0.0075
# 3 31.6285 50.0888 85.4603 0.0367 -0.8507 0.0162
# 4 0.0010 0.0073 0.0367 29.0812 0.0122 -19.6362
# 5 -3.9991 -7.8732 -0.8507 0.0122 29.2342 0.0083
# 6 0.0004 0.0075 0.0162 -19.6362 0.0083 -1.0550
#
#
#
# Elastic Compliance Matrix: (Units=1/GPa)
#
#
# Indices 1 2 3 4 5 6 
#
# 1 0.011707 -0.002424 -0.002904 -0.000002 0.000864 -0.000009
# 2 -0.002424 0.011339 -0.005723 0.000001 0.002556 -0.000004
# 3 -0.002904 -0.005723 0.016116 0.000008 -0.001470 0.000039
# 4 -0.000002 0.000001 0.000008 0.002534 0.000012 -0.047173
# 5 0.000864 0.002556 -0.001470 0.000012 0.034970 0.000038
# 6 -0.000009 -0.000004 0.000039 -0.047173 0.000038 -0.069863
#
#
# Mechanical properties :
#
#
# Convention : Reuss Voigt Hill
#
# Bulk Modulus (GPa) = 58.61490 61.23037 59.92264
# Shear Modulus (GPa) = 144.53969 24.13248 84.33609
#
# Velocity S-wave (km/s) = 8.83058 3.60825 6.74532
# Velocity P-wave (km/s) = 11.64452 7.09881 9.64334
#
# Compressibility (1/GPa) = 0.01706051
#
# Stress axis : x y z
#
# Youngs Moduli (GPa) = 85.41693 88.19043 62.05081
#
# Poissons Ratio (x) = 0.21376 0.18017
# Poissons Ratio (y) = 0.20704 0.35514
# Poissons Ratio (z) = 0.24801 0.50475
#
# Static dielectric constant tensor:
#      x y z
#    x 3.247330 -0.000120 0.138170 
#    y -0.000120 3.775290 0.000000 
#    z 0.138170 0.000000 3.286880 
# 
# 
# High freq. dielectric constant tensor:
#      x y z
#    x 1.711640 0.000000 0.007310 
#    y 0.000000 1.721640 0.000000 
#    z 0.007310 0.000000 1.717410 
# 
# From -- ./inp_files/301826.got.cif
#   From: 2010.06.25/outbox.cif.g09.slc.cpg/sg12_151_cif.got.tgz:301826.got - 2010.06.28 00:19:55.
