data_PCOD8102416
_publ_section_title
;
Structure prediction by ZEFSAII (Michael W. Deem and Ramdas Pophale) SiO2 
 PCOD8102416
Probable space group: C 2/M
;
_chemical_formula_sum "Si O2"
_cell_formula_units_Z 60
_cell_length_a 20.951975
_cell_length_b 14.572210
_cell_length_c 15.025590
_cell_angle_alpha 90.000000
_cell_angle_beta 41.146837
_cell_angle_gamma 90.000000
_cell_volume 3018.574496
_symmetry_space_group_name_H-M "C 2/M"
_symmetry_group_IT_number 12
_symmetry_cell_setting 'monoclinic'
loop_
_space_group_symop_operation_xyz
x,y,z
-x,y,-z
-x,-y,-z
x,-y,z
1/2+x,1/2+y,z
1/2-x,1/2+y,-z
1/2-x,1/2-y,-z
1/2+x,1/2-y,z
loop_
_atom_site_type_symbol
_atom_site_label
_atom_site_fract_x
_atom_site_fract_y
_atom_site_fract_z
Si Si1 0.089951 0.896301 0.059850
Si Si2 0.009899 0.296535 0.389831
Si Si3 0.818276 0.390070 0.542557
Si Si4 0.989050 0.898435 0.344954
Si Si5 0.000000 0.213328 0.000000
Si Si6 0.275683 0.789048 0.876560
Si Si7 0.771371 0.101467 0.547788
Si Si8 0.285545 0.761675 0.241193
O O1 0.065779 0.875268 0.187496
O O2 0.017101 0.844098 0.071203
O O3 0.074200 0.000000 0.050672
O O4 0.202500 0.871206 0.928682
O O5 0.113722 0.324423 0.239411
O O6 0.000000 0.332301 0.500000
O O7 0.927683 0.351346 0.422901
O O8 0.996421 0.185680 0.405873
O O9 0.814251 0.500000 0.563222
O O10 0.778724 0.360162 0.487860
O O11 0.753414 0.338631 0.685498
O O12 0.885000 0.901141 0.407596
O O13 0.010835 0.000000 0.365152
O O14 0.097692 0.271785 0.881068
O O15 0.258315 0.718002 0.811973
O O16 0.250000 0.750000 0.000000
O O17 0.754915 0.161860 0.651533
O O18 0.731311 0.000000 0.611236
#
# Coordination Sequence:
#
# PCOD8102416 Si02
#       8
#     8   8   8   8   4   8   8   8
#     4  10  21  37  57  87 119 154 196 248 297 353
#     4  12  23  41  61  87 122 165 207 249 297 361
#     4  11  24  38  62  92 122 159 202 251 311 368
#     4  10  20  36  63  91 116 151 198 254 308 354
#     4  10  23  34  59  88 114 154 192 240 312 362
#     4  11  23  40  60  85 124 166 207 240 298 364
#     4  10  21  39  64  94 120 151 202 259 314 368
#     4  11  22  40  62  89 121 161 198 256 308 359
#
# _framework density 19.876932
#
# number of rings (size 3 to 8) (size 9 to 14) (size 15 to 20)
#    0.000    1.333    4.000    1.400    1.867    4.800 
#    0.000    1.667    0.000    0.000    0.000    0.000 
#    0.000    0.000    0.000    0.000    0.000    0.000 
#
# Total GULP energy -371847.210712 kJ/mol
# GULP energy per Si atom -12394.907024 kJ/mol
# Density = 1.983169 g / cm^3
# Si number density = 19.876932 Si / 1000 Ang^3
#
#
#
# Elastic Constant Matrix: (Units=GPa)
#
#
# Indices 1 2 3 4 5 6 
#
# 1 92.6766 16.5773 43.9906 0.0000 0.9942 0.0000
# 2 16.5773 64.3459 20.7401 0.0000 8.4290 0.0000
# 3 43.9906 20.7401 115.6579 0.0000 -8.5883 0.0000
# 4 0.0000 0.0000 0.0000 16.1621 0.0000 0.4913
# 5 0.9942 8.4290 -8.5883 0.0000 47.4991 0.0000
# 6 0.0000 0.0000 0.0000 0.4913 0.0000 14.7628
#
#
#
# Elastic Compliance Matrix: (Units=1/GPa)
#
#
# Indices 1 2 3 4 5 6 
#
# 1 0.013419 -0.001785 -0.004846 0.000000 -0.000840 0.000000
# 2 -0.001785 0.017330 -0.002690 0.000000 -0.003524 0.000000
# 3 -0.004846 -0.002690 0.011165 0.000000 0.002598 0.000000
# 4 0.000000 0.000000 0.000000 0.061936 0.000000 -0.002061
# 5 -0.000840 -0.003524 0.002598 0.000000 0.022166 0.000000
# 6 0.000000 0.000000 0.000000 -0.002061 0.000000 0.067806
#
#
# Mechanical properties :
#
#
# Convention : Reuss Voigt Hill
#
# Bulk Modulus (GPa) = 42.97337 48.36628 45.66982
# Shear Modulus (GPa) = 22.70448 28.44298 25.57373
#
# Velocity S-wave (km/s) = 3.38339 3.78690 3.59082
# Velocity P-wave (km/s) = 6.07699 6.59595 6.34178
#
# Compressibility (1/GPa) = 0.02327023
#
# Stress axis : x y z
#
# Youngs Moduli (GPa) = 74.52212 57.70433 89.56740
#
# Poissons Ratio (x) = 0.10300 0.43406
# Poissons Ratio (y) = 0.13302 0.24097
# Poissons Ratio (z) = 0.36115 0.15525
#
# Static dielectric constant tensor:
#      x y z
#    x 3.813560 0.000000 -0.069840 
#    y 0.000000 3.494970 0.000000 
#    z -0.069840 0.000000 3.766220 
# 
# 
# High freq. dielectric constant tensor:
#      x y z
#    x 1.786130 0.000000 -0.005630 
#    y 0.000000 1.753910 0.000000 
#    z -0.005630 0.000000 1.784500 
# 
# From -- ./inp_files/233895.got.cif
#   From: 2010.06.25/outbox.cif.g09.slc.cpg/sg12_117_cif.got.tgz:233895.got - 2010.06.28 00:19:55.
