data_PCOD8102007
_publ_section_title
;
Structure prediction by ZEFSAII (Michael W. Deem and Ramdas Pophale) SiO2 
 PCOD8102007
Probable space group: C 2/M
;
_chemical_formula_sum "Si O2"
_cell_formula_units_Z 48
_cell_length_a 18.161794
_cell_length_b 8.770941
_cell_length_c 27.369675
_cell_angle_alpha 90.000000
_cell_angle_beta 146.431955
_cell_angle_gamma 90.000000
_cell_volume 2410.695267
_symmetry_space_group_name_H-M "C 2/M"
_symmetry_group_IT_number 12
_symmetry_cell_setting 'monoclinic'
loop_
_space_group_symop_operation_xyz
x,y,z
-x,y,-z
-x,-y,-z
x,-y,z
1/2+x,1/2+y,z
1/2-x,1/2+y,-z
1/2-x,1/2-y,-z
1/2+x,1/2-y,z
loop_
_atom_site_type_symbol
_atom_site_label
_atom_site_fract_x
_atom_site_fract_y
_atom_site_fract_z
Si Si1 0.847739 0.820328 0.914742
Si Si2 0.959996 0.323326 0.603826
Si Si3 0.387617 0.324203 0.752994
Si Si4 0.801061 0.824151 0.598413
Si Si5 0.236495 0.177842 0.756094
Si Si6 0.196402 0.177520 0.921314
O O1 0.780204 0.772149 0.827220
O O2 0.771989 0.744901 0.917303
O O3 0.837831 0.000000 0.915223
O O4 0.000000 0.764564 0.000000
O O5 0.999712 0.500000 0.626023
O O6 0.907449 0.278257 0.628397
O O7 0.847870 0.286502 0.501522
O O8 0.087105 0.224417 0.659057
O O9 0.366972 0.500000 0.757182
O O10 0.308504 0.286397 0.659664
O O11 0.333639 0.215249 0.765180
O O12 0.541319 0.286627 0.829344
O O13 0.837760 0.000000 0.608348
O O14 0.244151 0.000000 0.772310
O O15 0.225473 0.000000 0.939595
O O16 0.250000 0.250000 0.000000
#
# Coordination Sequence:
#
# PCOD8102007 Si02
#       6
#     8   8   8   8   8   8
#     4  11  24  42  64  89 118 152 192 240 293 347
#     4  10  20  36  60  87 117 153 193 241 295 349
#     4  10  22  40  59  82 115 153 194 240 291 343
#     4   9  19  37  61  87 115 151 196 244 294 348
#     4  12  25  39  58  85 118 155 196 240 287 346
#     4  11  23  39  62  90 121 156 193 238 289 345
#
# _framework density 19.911266999999999
#
# number of rings (size 3 to 8) (size 9 to 14) (size 15 to 20)
#    0.000    1.500    0.000    5.000    0.000   10.000 
#    0.000    3.333    0.000    0.000    0.000    0.000 
#    0.000    0.000    0.000    0.000    0.000    0.000 
#
# Total GULP energy -297761.143714 kJ/mol
# GULP energy per Si atom -12406.714321 kJ/mol
# Density = 1.986595 g / cm^3
# Si number density = 19.911267 Si / 1000 Ang^3
#
#
#
# Elastic Constant Matrix: (Units=GPa)
#
#
# Indices 1 2 3 4 5 6 
#
# 1 138.0125 39.7873 61.9149 0.0000 0.7137 0.0000
# 2 39.7873 61.0308 38.8919 0.0000 13.6253 0.0001
# 3 61.9149 38.8919 109.7684 0.0000 -1.4656 0.0000
# 4 0.0000 0.0000 0.0000 29.4599 0.0000 2.0393
# 5 0.7137 13.6253 -1.4656 0.0000 36.3079 0.0000
# 6 0.0000 0.0001 0.0000 2.0393 0.0000 41.7041
#
#
#
# Elastic Compliance Matrix: (Units=1/GPa)
#
#
# Indices 1 2 3 4 5 6 
#
# 1 0.010428 -0.004310 -0.004338 0.000000 0.001237 0.000000
# 2 -0.004310 0.025740 -0.006821 0.000000 -0.009850 0.000000
# 3 -0.004338 -0.006821 0.014017 0.000000 0.003211 0.000000
# 4 0.000000 0.000000 0.000000 0.034060 0.000000 -0.001665
# 5 0.001237 -0.009850 0.003211 0.000000 0.031344 0.000000
# 6 0.000000 0.000000 0.000000 -0.001665 0.000000 0.024060
#
#
# Mechanical properties :
#
#
# Convention : Reuss Voigt Hill
#
# Bulk Modulus (GPa) = 51.95513 65.55552 58.75533
# Shear Modulus (GPa) = 28.24822 32.70887 30.47855
#
# Velocity S-wave (km/s) = 3.77066 4.05746 3.91668
# Velocity P-wave (km/s) = 6.71618 7.41255 7.07294
#
# Compressibility (1/GPa) = 0.01924738
#
# Stress axis : x y z
#
# Youngs Moduli (GPa) = 95.89478 38.84949 71.34375
#
# Poissons Ratio (x) = 0.16744 0.30952
# Poissons Ratio (y) = 0.41329 0.48661
# Poissons Ratio (z) = 0.41603 0.26498
#
# Static dielectric constant tensor:
#      x y z
#    x 3.626770 0.000000 0.037870 
#    y 0.000000 3.749090 0.000000 
#    z 0.037870 0.000000 3.837010 
# 
# 
# High freq. dielectric constant tensor:
#      x y z
#    x 1.781530 0.000000 -0.000010 
#    y 0.000000 1.781650 0.000000 
#    z -0.000010 0.000000 1.793290 
# 
# From -- ./inp_files/360309.got.cif
#   From: 2010.06.25/outbox.cif.g09.slc.cpg/sg12_181_cif.got.tgz:360309.got - 2010.06.28 00:19:55.
