data_PCOD8102646
_publ_section_title
;
Structure prediction by ZEFSAII (Michael W. Deem and Ramdas Pophale) SiO2 
 PCOD8102646
Probable space group: C 2/M
;
_chemical_formula_sum "Si O2"
_cell_formula_units_Z 48
_cell_length_a 16.396713
_cell_length_b 33.194781
_cell_length_c 6.841281
_cell_angle_alpha 90.000000
_cell_angle_beta 46.108209
_cell_angle_gamma 90.000000
_cell_volume 2683.420261
_symmetry_space_group_name_H-M "C 2/M"
_symmetry_group_IT_number 12
_symmetry_cell_setting 'monoclinic'
loop_
_space_group_symop_operation_xyz
x,y,z
-x,y,-z
-x,-y,-z
x,-y,z
1/2+x,1/2+y,z
1/2-x,1/2+y,-z
1/2-x,1/2-y,-z
1/2+x,1/2-y,z
loop_
_atom_site_type_symbol
_atom_site_label
_atom_site_fract_x
_atom_site_fract_y
_atom_site_fract_z
Si Si1 0.000000 0.268766 0.500000
Si Si2 0.692786 0.171485 0.297475
Si Si3 0.623064 0.047092 0.380714
Si Si4 0.244830 0.105359 0.101256
Si Si5 0.500000 0.635838 0.500000
Si Si6 0.938651 0.798108 0.899797
Si Si7 0.374677 0.894255 0.281465
O O1 0.903737 0.295833 0.565429
O O2 0.945866 0.241815 0.758722
O O3 0.663005 0.143104 0.526586
O O4 0.703952 0.145925 0.079166
O O5 0.807651 0.194135 0.159030
O O6 0.500000 0.057594 0.500000
O O7 0.630096 0.064533 0.587291
O O8 0.646591 0.000000 0.351715
O O9 0.718338 0.066576 0.084697
O O10 0.288448 0.100861 0.247603
O O11 0.108961 0.107106 0.329896
O O12 0.503205 0.663781 0.302396
O O13 0.000000 0.789959 0.000000
O O14 0.500000 0.885729 0.000000
#
# Coordination Sequence:
#
# PCOD8102646 Si02
#       7
#     4   8   8   8   4   8   8
#     4  11  22  34  52  76 108 140 174 220 278 324
#     4  10  22  36  53  77 109 138 175 231 266 311
#     4  10  21  36  54  83 119 142 168 218 268 315
#     4  10  20  37  58  81 108 142 183 218 266 315
#     4   9  20  38  59  78 105 144 183 226 259 312
#     4  10  21  37  54  76 104 141 183 219 270 319
#     4  11  20  33  58  84 105 139 183 217 267 323
#
# _framework density 17.887619999999998
#
# number of rings (size 3 to 8) (size 9 to 14) (size 15 to 20)
#    0.000    1.833    1.667    2.500    2.333    3.667 
#    0.000    0.417    0.000    1.000    0.000    0.000 
#    0.000    0.000    0.000    0.000    0.000    0.000 
#
# Total GULP energy -297728.754542 kJ/mol
# GULP energy per Si atom -12405.364773 kJ/mol
# Density = 1.784691 g / cm^3
# Si number density = 17.887620 Si / 1000 Ang^3
#
#
#
# Elastic Constant Matrix: (Units=GPa)
#
#
# Indices 1 2 3 4 5 6 
#
# 1 89.3661 35.6613 43.0024 0.0000 -1.9150 0.0000
# 2 35.6613 83.4314 34.1053 0.0000 -14.5806 0.0000
# 3 43.0024 34.1053 92.6990 0.0000 -10.8593 0.0000
# 4 0.0000 0.0000 0.0000 39.1807 0.0000 -7.0641
# 5 -1.9150 -14.5806 -10.8593 0.0000 41.4685 0.0000
# 6 0.0000 0.0000 0.0000 -7.0641 0.0000 39.7679
#
#
#
# Elastic Compliance Matrix: (Units=1/GPa)
#
#
# Indices 1 2 3 4 5 6 
#
# 1 0.015897 -0.004824 -0.005893 0.000000 -0.002505 0.000000
# 2 -0.004824 0.016149 -0.003162 0.000000 0.004627 0.000000
# 3 -0.005893 -0.003162 0.014982 0.000000 0.002540 0.000000
# 4 0.000000 0.000000 0.000000 0.026367 0.000000 0.004684
# 5 -0.002505 0.004627 0.002540 0.000000 0.026291 0.000000
# 6 0.000000 0.000000 0.000000 0.004684 0.000000 0.025978
#
#
# Mechanical properties :
#
#
# Convention : Reuss Voigt Hill
#
# Bulk Modulus (GPa) = 51.89199 54.55939 53.22569
# Shear Modulus (GPa) = 31.28040 34.26526 32.77283
#
# Velocity S-wave (km/s) = 4.18630 4.38149 4.28501
# Velocity P-wave (km/s) = 7.24154 7.49426 7.36898
#
# Compressibility (1/GPa) = 0.01927080
#
# Stress axis : x y z
#
# Youngs Moduli (GPa) = 62.90543 61.92423 66.74603
#
# Poissons Ratio (x) = 0.29870 0.39335
# Poissons Ratio (y) = 0.30343 0.21103
# Poissons Ratio (z) = 0.37072 0.19578
#
# Static dielectric constant tensor:
#      x y z
#    x 3.295660 0.000000 0.027800 
#    y 0.000000 3.241740 0.000000 
#    z 0.027800 0.000000 3.408240 
# 
# 
# High freq. dielectric constant tensor:
#      x y z
#    x 1.696200 0.000000 0.000850 
#    y 0.000000 1.686570 0.000000 
#    z 0.000850 0.000000 1.706200 
# 
# From -- ./inp_files/13069.got.cif
#   From: 2010.06.25/outbox.cif.g09.slc.cpg/sg12_7_cif.got.tgz:13069.got - 2010.06.28 00:19:55.
