data_PCOD8102431
_publ_section_title
;
Structure prediction by ZEFSAII (Michael W. Deem and Ramdas Pophale) SiO2 
 PCOD8102431
Probable space group: C 2/M
;
_chemical_formula_sum "Si O2"
_cell_formula_units_Z 56
_cell_length_a 26.050124
_cell_length_b 26.886183
_cell_length_c 11.746425
_cell_angle_alpha 90.000000
_cell_angle_beta 159.645601
_cell_angle_gamma 90.000000
_cell_volume 2861.585030
_symmetry_space_group_name_H-M "C 2/M"
_symmetry_group_IT_number 12
_symmetry_cell_setting 'monoclinic'
loop_
_space_group_symop_operation_xyz
x,y,z
-x,y,-z
-x,-y,-z
x,-y,z
1/2+x,1/2+y,z
1/2-x,1/2+y,-z
1/2-x,1/2-y,-z
1/2+x,1/2-y,z
loop_
_atom_site_type_symbol
_atom_site_label
_atom_site_fract_x
_atom_site_fract_y
_atom_site_fract_z
Si Si1 0.333777 0.355774 0.176645
Si Si2 0.390558 0.138869 0.678363
Si Si3 0.657058 0.054233 0.877812
Si Si4 0.399764 0.057612 0.986611
Si Si5 0.725880 0.704936 0.167526
Si Si6 0.656563 0.385822 0.365909
Si Si7 0.385548 0.308642 0.519759
O O1 0.500000 0.371302 0.500000
O O2 0.321246 0.337835 0.279051
O O3 0.242222 0.406668 0.975299
O O4 0.277259 0.313644 0.970540
O O5 0.352458 0.172957 0.492480
O O6 0.233953 0.130898 0.411127
O O7 0.500000 0.164150 0.000000
O O8 0.466633 0.088408 0.791543
O O9 0.500000 0.045173 0.500000
O O10 0.738988 0.000000 0.050551
O O11 0.632335 0.075233 0.952610
O O12 0.246857 0.068013 0.603978
O O13 0.443557 0.000000 0.069052
O O14 0.784764 0.760013 0.307381
O O15 0.560676 0.701955 0.874957
O O16 0.645208 0.339497 0.429534
O O17 0.500000 0.406347 0.000000
#
# Coordination Sequence:
#
# PCOD8102431 Si02
#       7
#     8   8   8   8   8   8   8
#     4  10  22  41  62  89 126 158 201 259 310 370
#     4  10  23  39  61  90 122 162 206 251 309 358
#     4  10  20  36  63  94 124 161 204 251 311 373
#     4  10  22  41  65  93 126 164 209 256 312 374
#     4  11  24  40  62  90 123 163 210 257 312 370
#     4  11  22  41  63  88 128 161 206 261 306 367
#     4  11  24  40  62  91 122 164 210 255 314 371
#
# _framework density 19.569573999999999
#
# number of rings (size 3 to 8) (size 9 to 14) (size 15 to 20)
#    0.000    1.571    2.857    1.286    4.000    5.429 
#    0.000    0.000    0.000    0.857    0.000    0.000 
#    0.000    0.000    0.000    0.000    0.000    0.000 
#
# Total GULP energy -347027.783527 kJ/mol
# GULP energy per Si atom -12393.849412 kJ/mol
# Density = 1.952503 g / cm^3
# Si number density = 19.569574 Si / 1000 Ang^3
#
#
#
# Elastic Constant Matrix: (Units=GPa)
#
#
# Indices 1 2 3 4 5 6 
#
# 1 74.2843 35.3017 17.0845 0.0000 3.1189 0.0000
# 2 35.3017 94.1900 29.3872 0.0000 11.8351 0.0000
# 3 17.0845 29.3872 88.3840 0.0000 5.3418 0.0000
# 4 0.0000 0.0000 0.0000 31.7063 0.0000 4.5494
# 5 3.1189 11.8351 5.3418 0.0000 28.2778 0.0000
# 6 0.0000 0.0000 0.0000 4.5494 0.0000 26.4124
#
#
#
# Elastic Compliance Matrix: (Units=1/GPa)
#
#
# Indices 1 2 3 4 5 6 
#
# 1 0.016526 -0.005905 -0.001285 0.000000 0.000891 0.000000
# 2 -0.005905 0.014486 -0.003387 0.000000 -0.004772 0.000000
# 3 -0.001285 -0.003387 0.012740 0.000000 -0.000847 0.000000
# 4 0.000000 0.000000 0.000000 0.032339 0.000000 -0.005570
# 5 0.000891 -0.004772 -0.000847 0.000000 0.037422 0.000000
# 6 0.000000 0.000000 0.000000 -0.005570 0.000000 0.038820
#
#
# Mechanical properties :
#
#
# Convention : Reuss Voigt Hill
#
# Bulk Modulus (GPa) = 44.25002 46.71169 45.48086
# Shear Modulus (GPa) = 27.62123 28.95161 28.28642
#
# Velocity S-wave (km/s) = 3.76099 3.85050 3.80600
# Velocity P-wave (km/s) = 6.44366 6.60982 6.52727
#
# Compressibility (1/GPa) = 0.02259886
#
# Stress axis : x y z
#
# Youngs Moduli (GPa) = 60.51041 69.03102 78.49317
#
# Poissons Ratio (x) = 0.40762 0.10086
# Poissons Ratio (y) = 0.35731 0.26584
# Poissons Ratio (z) = 0.07776 0.23379
#
# Static dielectric constant tensor:
#      x y z
#    x 3.774280 0.000000 -0.144080 
#    y 0.000000 3.487590 0.000000 
#    z -0.144080 0.000000 3.688320 
# 
# 
# High freq. dielectric constant tensor:
#      x y z
#    x 1.773160 0.000000 -0.007800 
#    y 0.000000 1.753570 0.000000 
#    z -0.007800 0.000000 1.773400 
# 
# From -- ./inp_files/185161.got.cif
#   From: 2010.06.25/outbox.cif.g09.slc.cpg/sg12_93_cif.got.tgz:185161.got - 2010.06.28 00:19:55.
