data_PCOD8102844
_publ_section_title
;
Structure prediction by ZEFSAII (Michael W. Deem and Ramdas Pophale) SiO2 
 PCOD8102844
Probable space group: C 2/M
;
_chemical_formula_sum "Si O2"
_cell_formula_units_Z 48
_cell_length_a 31.207303
_cell_length_b 18.836289
_cell_length_c 10.010447
_cell_angle_alpha 90.000000
_cell_angle_beta 26.200732
_cell_angle_gamma 90.000000
_cell_volume 2598.081643
_symmetry_space_group_name_H-M "C 2/M"
_symmetry_group_IT_number 12
_symmetry_cell_setting 'monoclinic'
loop_
_space_group_symop_operation_xyz
x,y,z
-x,y,-z
-x,-y,-z
x,-y,z
1/2+x,1/2+y,z
1/2-x,1/2+y,-z
1/2-x,1/2-y,-z
1/2+x,1/2-y,z
loop_
_atom_site_type_symbol
_atom_site_label
_atom_site_fract_x
_atom_site_fract_y
_atom_site_fract_z
Si Si1 0.439014 0.919969 0.804823
Si Si2 0.712289 0.836947 0.918890
Si Si3 0.580910 0.717410 0.673308
Si Si4 0.563687 0.118953 0.703547
Si Si5 0.759602 0.920319 0.048021
Si Si6 0.907745 0.199574 0.663233
O O1 0.500000 0.919989 0.500000
O O2 0.502470 0.882271 0.739178
O O3 0.410975 0.000000 0.925663
O O4 0.343247 0.872809 0.049733
O O5 0.816102 0.814626 0.571156
O O6 0.724746 0.894204 0.000899
O O7 0.656367 0.769560 0.136265
O O8 0.589118 0.801012 0.669748
O O9 0.555479 0.696744 0.592201
O O10 0.500000 0.685621 0.000000
O O11 0.664803 0.077199 0.407827
O O12 0.500000 0.083866 0.000000
O O13 0.801587 0.000000 0.919461
O O14 0.842422 0.869498 0.877139
O O15 0.000000 0.199789 0.500000
#
# Coordination Sequence:
#
# PCOD8102844 Si02
#       6
#     8   8   8   8   8   8
#     4  11  21  34  57  85 112 145 187 233 277 329
#     4  11  19  37  61  86 107 146 190 238 268 329
#     4  10  20  37  59  85 112 145 186 231 281 323
#     4  11  21  37  55  85 119 147 179 226 287 336
#     4  11  21  36  58  83 112 151 188 225 275 336
#     4  11  21  38  60  82 112 146 190 234 270 325
#
# _framework density 18.475169999999999
#
# number of rings (size 3 to 8) (size 9 to 14) (size 15 to 20)
#    0.000    1.167    5.000    3.500    0.000    1.667 
#    3.000    2.500    0.000   12.500    0.000    0.000 
#    0.000    0.000    0.000    0.000    0.000    0.000 
#
# Total GULP energy -297652.047147 kJ/mol
# GULP energy per Si atom -12402.168631 kJ/mol
# Density = 1.843312 g / cm^3
# Si number density = 18.475170 Si / 1000 Ang^3
#
#
#
# Elastic Constant Matrix: (Units=GPa)
#
#
# Indices 1 2 3 4 5 6 
#
# 1 63.3678 9.1709 42.5525 0.0000 -12.8459 0.0000
# 2 9.1709 101.3892 37.1756 0.0000 -9.3673 0.0000
# 3 42.5525 37.1756 132.0023 0.0000 -3.6357 0.0000
# 4 0.0000 0.0000 0.0000 20.5280 0.0000 -7.0708
# 5 -12.8459 -9.3673 -3.6357 0.0000 26.7112 0.0000
# 6 0.0000 0.0000 0.0000 -7.0708 0.0000 9.7466
#
#
#
# Elastic Compliance Matrix: (Units=1/GPa)
#
#
# Indices 1 2 3 4 5 6 
#
# 1 0.022699 0.001664 -0.007497 0.000000 0.010480 0.000000
# 2 0.001664 0.011447 -0.003641 0.000000 0.004319 0.000000
# 3 -0.007497 -0.003641 0.010924 0.000000 -0.003396 0.000000
# 4 0.000000 0.000000 0.000000 0.064942 0.000000 0.047113
# 5 0.010480 0.004319 -0.003396 0.000000 0.043530 0.000000
# 6 0.000000 0.000000 0.000000 0.047113 0.000000 0.136778
#
#
# Mechanical properties :
#
#
# Convention : Reuss Voigt Hill
#
# Bulk Modulus (GPa) = 38.28320 52.72858 45.50589
# Shear Modulus (GPa) = 15.72447 25.25452 20.48949
#
# Velocity S-wave (km/s) = 2.92055 3.70123 3.33382
# Velocity P-wave (km/s) = 5.66915 6.84600 6.28518
#
# Compressibility (1/GPa) = 0.02612112
#
# Stress axis : x y z
#
# Youngs Moduli (GPa) = 44.05472 87.36252 91.53831
#
# Poissons Ratio (x) = -0.14537 0.68629
# Poissons Ratio (y) = -0.07331 0.33330
# Poissons Ratio (z) = 0.33029 0.31810
#
# Static dielectric constant tensor:
#      x y z
#    x 3.611590 0.000000 0.115420 
#    y 0.000000 3.451890 0.000000 
#    z 0.115420 0.000000 3.710630 
# 
# 
# High freq. dielectric constant tensor:
#      x y z
#    x 1.707970 0.000000 -0.008670 
#    y 0.000000 1.717800 0.000000 
#    z -0.008670 0.000000 1.710760 
# 
# From -- ./inp_files/112745.got.cif
#   From: 2010.06.25/outbox.cif.g09.slc.cpg/sg12_57_cif.got.tgz:112745.got - 2010.06.28 00:19:55.
