data_PCOD8102383
_publ_section_title
;
Structure prediction by ZEFSAII (Michael W. Deem and Ramdas Pophale) SiO2 
 PCOD8102383
Probable space group: C 2/M
;
_chemical_formula_sum "Si O2"
_cell_formula_units_Z 64
_cell_length_a 9.290269
_cell_length_b 27.911468
_cell_length_c 18.607693
_cell_angle_alpha 90.000000
_cell_angle_beta 139.352621
_cell_angle_gamma 90.000000
_cell_volume 3143.058674
_symmetry_space_group_name_H-M "C 2/M"
_symmetry_group_IT_number 12
_symmetry_cell_setting 'monoclinic'
loop_
_space_group_symop_operation_xyz
x,y,z
-x,y,-z
-x,-y,-z
x,-y,z
1/2+x,1/2+y,z
1/2-x,1/2+y,-z
1/2-x,1/2-y,-z
1/2+x,1/2-y,z
loop_
_atom_site_type_symbol
_atom_site_label
_atom_site_fract_x
_atom_site_fract_y
_atom_site_fract_z
Si Si1 0.590291 0.826337 0.613974
Si Si2 0.255188 0.218262 0.885070
Si Si3 0.746287 0.852468 0.387824
Si Si4 0.934614 0.446587 0.744226
Si Si5 0.037100 0.878567 0.812072
Si Si6 0.675348 0.769433 0.251244
Si Si7 0.141037 0.445417 0.123410
Si Si8 0.926260 0.946003 0.895128
O O1 0.500000 0.830397 0.500000
O O2 0.399783 0.841518 0.597242
O O3 0.793407 0.862803 0.697450
O O4 0.674313 0.772343 0.657980
O O5 0.223162 0.218545 0.787363
O O6 0.197745 0.165544 0.891355
O O7 0.081085 0.254747 0.854393
O O8 0.500000 0.234152 0.000000
O O9 0.722842 0.906828 0.350583
O O10 0.673696 0.816777 0.297934
O O11 0.000000 0.842762 0.500000
O O12 0.829948 0.500000 0.694258
O O13 0.984378 0.438186 0.848186
O O14 0.163294 0.443791 0.788254
O O15 0.039384 0.910587 0.883380
O O16 0.142371 0.911527 0.789431
O O17 0.218137 0.500000 0.142862
O O18 0.000000 0.429289 0.000000
O O19 0.014702 0.000000 0.914869
O O20 0.000000 0.927276 0.000000
#
# Coordination Sequence:
#
# PCOD8102383 Si02
#       8
#     8   8   8   8   8   8   8   8
#     4  11  26  45  64  94 125 163 219 278 328 379
#     4  11  24  42  64  97 135 176 203 256 319 394
#     4  12  26  43  71  94 121 170 218 274 331 380
#     4  10  22  41  62  95 136 166 211 266 322 394
#     4  11  22  39  61  93 131 166 214 265 317 391
#     4  11  24  45  69  96 132 163 218 268 318 384
#     4  10  20  36  62  94 129 169 213 261 313 378
#     4  10  20  37  64  94 129 173 215 264 319 382
#
# _framework density 20.36233
#
# number of rings (size 3 to 8) (size 9 to 14) (size 15 to 20)
#    0.000    1.250    2.500    3.000    5.250    4.250 
#    0.000    1.875    0.000    1.875    0.000    0.000 
#    0.000    0.000    0.000    0.000    0.000    0.000 
#
# Total GULP energy -396850.322582 kJ/mol
# GULP energy per Si atom -12401.572581 kJ/mol
# Density = 2.031598 g / cm^3
# Si number density = 20.362330 Si / 1000 Ang^3
#
#
#
# Elastic Constant Matrix: (Units=GPa)
#
#
# Indices 1 2 3 4 5 6 
#
# 1 99.0939 40.7337 15.8728 0.0001 1.0084 0.0000
# 2 40.7337 117.1639 30.6701 -0.0002 1.7247 0.0000
# 3 15.8728 30.6701 66.2996 0.0002 5.5031 0.0011
# 4 0.0001 -0.0002 0.0002 22.0229 0.0001 3.2959
# 5 1.0084 1.7247 5.5031 0.0001 39.8860 0.0003
# 6 0.0000 0.0000 0.0011 3.2959 0.0003 33.7082
#
#
#
# Elastic Compliance Matrix: (Units=1/GPa)
#
#
# Indices 1 2 3 4 5 6 
#
# 1 0.011839 -0.003839 -0.001060 0.000000 0.000013 0.000000
# 2 -0.003839 0.010957 -0.004166 0.000000 0.000198 0.000000
# 3 -0.001060 -0.004166 0.017447 0.000000 -0.002200 -0.000001
# 4 0.000000 0.000000 0.000000 0.046082 0.000000 -0.004506
# 5 0.000013 0.000198 -0.002200 0.000000 0.025366 0.000000
# 6 0.000000 0.000000 -0.000001 -0.004506 0.000000 0.030107
#
#
# Mechanical properties :
#
#
# Convention : Reuss Voigt Hill
#
# Bulk Modulus (GPa) = 45.22089 50.79006 48.00547
# Shear Modulus (GPa) = 29.88673 32.14214 31.01443
#
# Velocity S-wave (km/s) = 3.83527 3.97736 3.90696
# Velocity P-wave (km/s) = 6.47061 6.78895 6.63169
#
# Compressibility (1/GPa) = 0.02211367
#
# Stress axis : x y z
#
# Youngs Moduli (GPa) = 84.46637 91.26287 57.31758
#
# Poissons Ratio (x) = 0.35034 0.06073
# Poissons Ratio (y) = 0.32425 0.23880
# Poissons Ratio (z) = 0.08950 0.38022
#
# Static dielectric constant tensor:
#      x y z
#    x 3.955020 0.000000 0.069700 
#    y 0.000000 3.851940 0.000000 
#    z 0.069700 0.000000 3.417570 
# 
# 
# High freq. dielectric constant tensor:
#      x y z
#    x 1.816970 0.000000 0.004140 
#    y 0.000000 1.806340 0.000000 
#    z 0.004140 0.000000 1.774580 
# 
# From -- ./inp_files/260344.got.cif
#   From: 2010.06.25/outbox.cif.g09.slc.cpg/sg12_131_cif.got.tgz:260344.got - 2010.06.28 00:19:55.
