data_PCOD8102781
_publ_section_title
;
Structure prediction by ZEFSAII (Michael W. Deem and Ramdas Pophale) SiO2 
 PCOD8102781
Probable space group: C 2/M
;
_chemical_formula_sum "Si O2"
_cell_formula_units_Z 56
_cell_length_a 16.294674
_cell_length_b 9.291226
_cell_length_c 23.255382
_cell_angle_alpha 90.000000
_cell_angle_beta 127.792124
_cell_angle_gamma 90.000000
_cell_volume 2782.279642
_symmetry_space_group_name_H-M "C 2/M"
_symmetry_group_IT_number 12
_symmetry_cell_setting 'monoclinic'
loop_
_space_group_symop_operation_xyz
x,y,z
-x,y,-z
-x,-y,-z
x,-y,z
1/2+x,1/2+y,z
1/2-x,1/2+y,-z
1/2-x,1/2-y,-z
1/2+x,1/2-y,z
loop_
_atom_site_type_symbol
_atom_site_label
_atom_site_fract_x
_atom_site_fract_y
_atom_site_fract_z
Si Si1 0.485740 0.669666 0.667035
Si Si2 0.356888 0.662061 0.807326
Si Si3 0.018687 0.345243 0.944419
Si Si4 0.711293 0.332684 0.037350
Si Si5 0.336543 0.835601 0.202426
Si Si6 0.922350 0.168980 0.415820
Si Si7 0.209229 0.164952 0.346020
O O1 0.498912 0.500000 0.678114
O O2 0.561083 0.740939 0.746325
O O3 0.520900 0.723446 0.618560
O O4 0.365942 0.711361 0.632422
O O5 0.393244 0.500000 0.840859
O O6 0.422919 0.785101 0.866594
O O7 0.236809 0.682495 0.773592
O O8 0.362361 0.682510 0.741306
O O9 0.055436 0.500000 0.930628
O O10 0.092424 0.209880 0.986235
O O11 0.000000 0.397389 0.000000
O O12 0.723489 0.500000 0.034350
O O13 0.772772 0.279195 0.119857
O O14 0.750000 0.250000 0.000000
O O15 0.371482 0.000000 0.209085
O O16 0.812355 0.240471 0.384057
O O17 0.000000 0.209394 0.500000
O O18 0.901072 0.000000 0.402562
O O19 0.245201 0.000000 0.368920
#
# Coordination Sequence:
#
# PCOD8102781 Si02
#       7
#     8   8   8   8   8   8   8
#     4  10  22  39  61  90 124 160 201 249 300 356
#     4  10  20  37  59  82 112 150 195 248 305 361
#     4  11  23  37  55  81 110 148 199 248 300 362
#     4  11  24  40  56  79 115 155 200 254 309 361
#     4  10  21  38  60  84 113 154 202 250 301 361
#     4  10  22  41  64  92 127 163 197 240 297 357
#     4  10  22  40  62  91 121 155 200 246 297 357
#
# _framework density 20.127379999999999
#
# number of rings (size 3 to 8) (size 9 to 14) (size 15 to 20)
#    0.000    1.714    2.857    0.857    2.000    4.286 
#    0.000    0.000    0.000    0.000    0.000    0.000 
#    0.000    0.000    0.000    0.000    0.000    0.000 
#
# Total GULP energy -346888.152571 kJ/mol
# GULP energy per Si atom -12388.862592 kJ/mol
# Density = 2.008157 g / cm^3
# Si number density = 20.127380 Si / 1000 Ang^3
#
#
#
# Elastic Constant Matrix: (Units=GPa)
#
#
# Indices 1 2 3 4 5 6 
#
# 1 136.7330 46.0648 53.3653 0.0000 1.4078 0.0000
# 2 46.0648 73.2555 46.0129 0.0000 7.7014 0.0000
# 3 53.3653 46.0129 83.0019 0.0000 11.0574 0.0000
# 4 0.0000 0.0000 0.0000 34.4650 0.0000 7.8292
# 5 1.4078 7.7014 11.0574 0.0000 24.6803 0.0000
# 6 0.0000 0.0000 0.0000 7.8292 0.0000 33.2443
#
#
#
# Elastic Compliance Matrix: (Units=1/GPa)
#
#
# Indices 1 2 3 4 5 6 
#
# 1 0.010521 -0.003725 -0.005077 0.000000 0.002837 0.000000
# 2 -0.003725 0.022309 -0.009649 0.000000 -0.002426 0.000000
# 3 -0.005077 -0.009649 0.021505 0.000000 -0.006334 0.000000
# 4 0.000000 0.000000 0.000000 0.030655 0.000000 -0.007219
# 5 0.002837 -0.002426 -0.006334 0.000000 0.043951 0.000000
# 6 0.000000 0.000000 0.000000 -0.007219 0.000000 0.031781
#
#
# Mechanical properties :
#
#
# Convention : Reuss Voigt Hill
#
# Bulk Modulus (GPa) = 57.36433 64.87517 61.11975
# Shear Modulus (GPa) = 24.57787 28.31442 26.44614
#
# Velocity S-wave (km/s) = 3.49824 3.75475 3.62876
# Velocity P-wave (km/s) = 6.69921 7.14841 6.92745
#
# Compressibility (1/GPa) = 0.01743244
#
# Stress axis : x y z
#
# Youngs Moduli (GPa) = 95.04975 44.82506 46.50028
#
# Poissons Ratio (x) = 0.16697 0.23609
# Poissons Ratio (y) = 0.35405 0.44869
# Poissons Ratio (z) = 0.48259 0.43252
#
# Static dielectric constant tensor:
#      x y z
#    x 3.753540 0.000000 -0.214910 
#    y 0.000000 3.399660 0.000000 
#    z -0.214910 0.000000 3.528010 
# 
# 
# High freq. dielectric constant tensor:
#      x y z
#    x 1.790900 0.000000 -0.007170 
#    y 0.000000 1.787460 0.000000 
#    z -0.007170 0.000000 1.776520 
# 
# From -- ./inp_files/342499.got.cif
#   From: 2010.06.25/outbox.cif.g09.slc.cpg/sg12_172_cif.got.tgz:342499.got - 2010.06.28 00:19:55.
