data_PCOD8102093
_publ_section_title
;
Structure prediction by ZEFSAII (Michael W. Deem and Ramdas Pophale) SiO2 
 PCOD8102093
Probable space group: C 2/M
;
_chemical_formula_sum "Si O2"
_cell_formula_units_Z 56
_cell_length_a 11.576009
_cell_length_b 13.128717
_cell_length_c 17.501668
_cell_angle_alpha 90.000000
_cell_angle_beta 72.570991
_cell_angle_gamma 90.000000
_cell_volume 2537.753188
_symmetry_space_group_name_H-M "C 2/M"
_symmetry_group_IT_number 12
_symmetry_cell_setting 'monoclinic'
loop_
_space_group_symop_operation_xyz
x,y,z
-x,y,-z
-x,-y,-z
x,-y,z
1/2+x,1/2+y,z
1/2-x,1/2+y,-z
1/2-x,1/2-y,-z
1/2+x,1/2-y,z
loop_
_atom_site_type_symbol
_atom_site_label
_atom_site_fract_x
_atom_site_fract_y
_atom_site_fract_z
Si Si1 0.933025 0.260167 0.805290
Si Si2 0.642521 0.121657 0.693249
Si Si3 0.168580 0.880030 0.612389
Si Si4 0.091281 0.881725 0.323005
Si Si5 0.277256 0.614162 0.229610
Si Si6 0.518414 0.385848 0.084371
Si Si7 0.110915 0.621361 0.528976
O O1 0.059053 0.324652 0.774174
O O2 0.908182 0.211129 0.894444
O O3 0.937139 0.158058 0.755211
O O4 0.825717 0.329491 0.797104
O O5 0.782299 0.160073 0.669141
O O6 0.597491 0.161678 0.618727
O O7 0.631240 0.000000 0.704348
O O8 0.194298 0.834586 0.692846
O O9 0.264825 0.836911 0.532661
O O10 0.033093 0.854793 0.605840
O O11 0.183264 0.000000 0.617901
O O12 0.106849 0.000000 0.310895
O O13 0.228975 0.500000 0.252413
O O14 0.392526 0.615718 0.153391
O O15 0.577600 0.500000 0.080979
O O16 0.500000 0.359952 0.000000
O O17 0.112533 0.500000 0.531838
O O18 0.000000 0.661550 0.500000
#
# Coordination Sequence:
#
# PCOD8102093 Si02
#       7
#     8   8   8   8   8   8   8
#     4  12  21  36  63  87 119 153 191 239 295 349
#     4  10  22  38  57  87 121 157 201 244 293 349
#     4   9  17  33  58  82 111 156 203 247 293 342
#     4  10  21  36  56  82 115 154 198 246 297 349
#     4  10  20  36  60  89 118 152 198 241 289 352
#     4  10  22  41  64  90 119 152 193 238 287 353
#     4   9  17  32  56  84 115 155 203 250 295 340
#
# _framework density 22.066765
#
# number of rings (size 3 to 8) (size 9 to 14) (size 15 to 20)
#    0.000    2.000    1.429    2.571    0.000    3.429 
#    0.000    3.571    3.143    1.714    0.000    0.000 
#    0.000    0.000    0.000    0.000    0.000    0.000 
#
# Total GULP energy -346882.622706 kJ/mol
# GULP energy per Si atom -12388.665097 kJ/mol
# Density = 2.201654 g / cm^3
# Si number density = 22.066765 Si / 1000 Ang^3
#
#
#
# Elastic Constant Matrix: (Units=GPa)
#
#
# Indices 1 2 3 4 5 6 
#
# 1 121.5306 41.3960 18.9817 0.0000 17.7853 0.0000
# 2 41.3960 54.0408 25.4370 0.0000 13.0414 0.0000
# 3 18.9817 25.4370 97.2979 0.0000 24.3419 0.0000
# 4 0.0000 0.0000 0.0000 29.3059 0.0000 5.3906
# 5 17.7853 13.0414 24.3419 0.0000 22.0069 0.0000
# 6 0.0000 0.0000 0.0000 5.3906 0.0000 10.1560
#
#
#
# Elastic Compliance Matrix: (Units=1/GPa)
#
#
# Indices 1 2 3 4 5 6 
#
# 1 0.011676 -0.008108 0.001383 0.000000 -0.006161 0.000000
# 2 -0.008108 0.028057 -0.004470 0.000000 -0.005130 0.000000
# 3 0.001383 -0.004470 0.014923 0.000000 -0.014975 0.000000
# 4 0.000000 0.000000 0.000000 0.037815 0.000000 -0.020072
# 5 -0.006161 -0.005130 -0.014975 0.000000 0.070024 0.000000
# 6 0.000000 0.000000 0.000000 -0.020072 0.000000 0.109118
#
#
# Mechanical properties :
#
#
# Convention : Reuss Voigt Hill
#
# Bulk Modulus (GPa) = 30.99158 49.38873 40.19015
# Shear Modulus (GPa) = 16.40648 24.76406 20.58527
#
# Velocity S-wave (km/s) = 2.72966 3.35361 3.05759
# Velocity P-wave (km/s) = 4.89997 6.11765 5.54235
#
# Compressibility (1/GPa) = 0.03226683
#
# Stress axis : x y z
#
# Youngs Moduli (GPa) = 85.64758 35.64119 67.01086
#
# Poissons Ratio (x) = 0.28898 -0.09270
# Poissons Ratio (y) = 0.69443 0.29953
# Poissons Ratio (z) = -0.11848 0.15931
#
# Static dielectric constant tensor:
#      x y z
#    x 4.317090 0.000000 0.000320 
#    y 0.000000 4.245090 0.000000 
#    z 0.000320 0.000000 3.901640 
# 
# 
# High freq. dielectric constant tensor:
#      x y z
#    x 1.869790 0.000000 -0.001460 
#    y 0.000000 1.893850 0.000000 
#    z -0.001460 0.000000 1.834160 
# 
# From -- ./inp_files/262857.got.cif
#   From: 2010.06.25/outbox.cif.g09.slc.cpg/sg12_132_cif.got.tgz:262857.got - 2010.06.28 00:19:55.
