data_PCOD8102051
_publ_section_title
;
Structure prediction by ZEFSAII (Michael W. Deem and Ramdas Pophale) SiO2 
 PCOD8102051
Probable space group: C 2/M
;
_chemical_formula_sum "Si O2"
_cell_formula_units_Z 64
_cell_length_a 28.103582
_cell_length_b 13.688575
_cell_length_c 12.766584
_cell_angle_alpha 90.000000
_cell_angle_beta 139.525911
_cell_angle_gamma 90.000000
_cell_volume 3187.931476
_symmetry_space_group_name_H-M "C 2/M"
_symmetry_group_IT_number 12
_symmetry_cell_setting 'monoclinic'
loop_
_space_group_symop_operation_xyz
x,y,z
-x,y,-z
-x,-y,-z
x,-y,z
1/2+x,1/2+y,z
1/2-x,1/2+y,-z
1/2-x,1/2-y,-z
1/2+x,1/2-y,z
loop_
_atom_site_type_symbol
_atom_site_label
_atom_site_fract_x
_atom_site_fract_y
_atom_site_fract_z
Si Si1 0.114638 0.209732 0.443682
Si Si2 0.084566 0.111271 0.614563
Si Si3 0.379212 0.884948 0.014179
Si Si4 0.824079 0.771768 0.065744
Si Si5 0.764458 0.387458 0.642106
Si Si6 0.164346 0.113687 0.121228
Si Si7 0.022467 0.236571 0.920699
Si Si8 0.192057 0.611465 0.513384
O O1 0.101069 0.166932 0.535069
O O2 0.187497 0.167167 0.512983
O O3 0.130637 0.326148 0.472522
O O4 0.044185 0.187310 0.254435
O O5 0.121919 0.169274 0.770041
O O6 0.000000 0.109887 0.500000
O O7 0.114718 0.000000 0.656874
O O8 0.313711 0.859029 0.824140
O O9 0.389503 0.000000 0.049671
O O10 0.360163 0.831615 0.091723
O O11 0.454001 0.838651 0.094283
O O12 0.750000 0.750000 0.000000
O O13 0.807209 0.838641 0.937940
O O14 0.743698 0.500000 0.610046
O O15 0.810351 0.363098 0.614218
O O16 0.225524 0.134814 0.310851
O O17 0.151269 0.000000 0.080444
O O18 0.088219 0.159375 0.031332
O O19 0.000000 0.262114 0.000000
O O20 0.171147 0.500000 0.501180
#
# Coordination Sequence:
#
# PCOD8102051 Si02
#       8
#     8   8   8   8   8   8   8   8
#     4  12  22  36  60  86 116 149 194 242 282 337
#     4  11  24  42  62  84 113 150 192 240 292 342
#     4  10  22  40  60  85 118 154 195 238 281 338
#     4  11  22  38  60  86 114 146 193 245 295 343
#     4  10  20  36  60  88 117 152 192 235 284 339
#     4  10  21  38  57  81 116 152 190 239 292 346
#     4  11  23  37  58  88 121 157 191 230 284 342
#     4  10  21  37  58  85 119 156 190 229 282 343
#
# _framework density 20.075714000000001
#
# number of rings (size 3 to 8) (size 9 to 14) (size 15 to 20)
#    0.000    1.375    0.000    7.125    0.000    5.000 
#    0.000    0.625    0.000    1.500    0.000    0.000 
#    0.000    0.000    0.000    0.000    0.000    0.000 
#
# Total GULP energy -396885.449598 kJ/mol
# GULP energy per Si atom -12402.670300 kJ/mol
# Density = 2.003002 g / cm^3
# Si number density = 20.075714 Si / 1000 Ang^3
#
#
#
# Elastic Constant Matrix: (Units=GPa)
#
#
# Indices 1 2 3 4 5 6 
#
# 1 124.5374 65.0533 34.9770 0.0000 -8.9048 0.0000
# 2 65.0533 111.1483 44.9974 0.0000 -6.7409 0.0000
# 3 34.9770 44.9974 73.9621 0.0000 -6.9669 0.0000
# 4 0.0000 0.0000 0.0000 20.5656 0.0000 -5.0079
# 5 -8.9048 -6.7409 -6.9669 0.0000 33.2185 0.0000
# 6 0.0000 0.0000 0.0000 -5.0079 0.0000 28.9652
#
#
#
# Elastic Compliance Matrix: (Units=1/GPa)
#
#
# Indices 1 2 3 4 5 6 
#
# 1 0.011827 -0.006133 -0.001714 0.000000 0.001566 0.000000
# 2 -0.006133 0.015145 -0.006304 0.000000 0.000107 0.000000
# 3 -0.001714 -0.006304 0.018365 0.000000 0.002113 0.000000
# 4 0.000000 0.000000 0.000000 0.050762 0.000000 0.008776
# 5 0.001566 0.000107 0.002113 0.000000 0.030989 0.000000
# 6 0.000000 0.000000 0.000000 0.008776 0.000000 0.036042
#
#
# Mechanical properties :
#
#
# Convention : Reuss Voigt Hill
#
# Bulk Modulus (GPa) = 58.70132 66.63368 62.66750
# Shear Modulus (GPa) = 25.36667 27.52454 26.44561
#
# Velocity S-wave (km/s) = 3.55850 3.70677 3.63339
# Velocity P-wave (km/s) = 6.79613 7.18216 6.99181
#
# Compressibility (1/GPa) = 0.01703539
#
# Stress axis : x y z
#
# Youngs Moduli (GPa) = 84.55366 66.02833 54.45121
#
# Poissons Ratio (x) = 0.40496 0.09334
# Poissons Ratio (y) = 0.51858 0.34323
# Poissons Ratio (z) = 0.14494 0.41621
#
# Static dielectric constant tensor:
#      x y z
#    x 3.642790 0.000000 -0.076070 
#    y 0.000000 3.979610 0.000000 
#    z -0.076070 0.000000 3.798870 
# 
# 
# High freq. dielectric constant tensor:
#      x y z
#    x 1.784440 0.000000 -0.001610 
#    y 0.000000 1.798650 0.000000 
#    z -0.001610 0.000000 1.787490 
# 
# From -- ./inp_files/183835.got.cif
#   From: 2010.06.25/outbox.cif.g09.slc.cpg/sg12_92_cif.got.tgz:183835.got - 2010.06.28 00:19:55.
