data_PCOD8102209
_publ_section_title
;
Structure prediction by ZEFSAII (Michael W. Deem and Ramdas Pophale) SiO2 
 PCOD8102209
Probable space group: C 2/M
;
_chemical_formula_sum "Si O2"
_cell_formula_units_Z 64
_cell_length_a 33.097305
_cell_length_b 13.914395
_cell_length_c 14.107948
_cell_angle_alpha 90.000000
_cell_angle_beta 147.380238
_cell_angle_gamma 90.000000
_cell_volume 3502.345487
_symmetry_space_group_name_H-M "C 2/M"
_symmetry_group_IT_number 12
_symmetry_cell_setting 'monoclinic'
loop_
_space_group_symop_operation_xyz
x,y,z
-x,y,-z
-x,-y,-z
x,-y,z
1/2+x,1/2+y,z
1/2-x,1/2+y,-z
1/2-x,1/2-y,-z
1/2+x,1/2-y,z
loop_
_atom_site_type_symbol
_atom_site_label
_atom_site_fract_x
_atom_site_fract_y
_atom_site_fract_z
Si Si1 0.181601 0.280874 0.493524
Si Si2 0.229767 0.736075 0.149501
Si Si3 0.749360 0.392091 0.532409
Si Si4 0.009833 0.111958 0.280395
Si Si5 0.145255 0.889637 0.679942
Si Si6 0.512694 0.771651 0.136160
Si Si7 0.371242 0.609802 0.138916
Si Si8 0.124296 0.390514 0.065742
O O1 0.214623 0.280940 0.663355
O O2 0.233308 0.355908 0.538756
O O3 0.186337 0.174252 0.456399
O O4 0.095385 0.312754 0.320829
O O5 0.278151 0.669415 0.175905
O O6 0.162195 0.673691 0.059501
O O7 0.197989 0.823659 0.026247
O O8 0.717160 0.500000 0.465576
O O9 0.826178 0.385504 0.742139
O O10 0.086682 0.143425 0.483676
O O11 0.999689 0.170513 0.163447
O O12 0.943530 0.137792 0.221266
O O13 0.009829 0.000000 0.254099
O O14 0.108856 0.874453 0.711354
O O15 0.166483 0.000000 0.704776
O O16 0.500000 0.754462 0.000000
O O17 0.457134 0.851127 0.068546
O O18 0.347125 0.500000 0.072425
O O19 0.116668 0.500000 0.014319
#
# Coordination Sequence:
#
# PCOD8102209 Si02
#       8
#     8   8   8   8   8   8   8   8
#     4  10  21  34  53  81 109 146 186 224 280 331
#     4  11  20  36  58  82 116 143 181 232 284 334
#     4   9  19  36  55  77 105 143 188 233 273 321
#     4  10  21  38  58  83 115 149 186 230 278 331
#     4  10  20  36  61  88 110 143 190 233 274 332
#     4  12  22  37  56  81 117 148 189 232 272 327
#     4  10  21  37  59  86 115 146 182 227 285 340
#     4  10  21  36  56  79 106 148 192 232 274 320
#
# _framework density 18.273468999999999
#
# number of rings (size 3 to 8) (size 9 to 14) (size 15 to 20)
#    0.000    1.750    3.750    1.125    0.000    4.000 
#    0.000    1.250    0.000    0.000    0.000    0.875 
#    0.000    0.000    0.000    0.000    0.000    0.000 
#
# Total GULP energy -396889.173448 kJ/mol
# GULP energy per Si atom -12402.786670 kJ/mol
# Density = 1.823188 g / cm^3
# Si number density = 18.273469 Si / 1000 Ang^3
#
#
#
# Elastic Constant Matrix: (Units=GPa)
#
#
# Indices 1 2 3 4 5 6 
#
# 1 68.8221 23.2415 28.6771 0.0000 2.8392 0.0000
# 2 23.2415 81.3061 34.6199 0.0000 0.1619 0.0000
# 3 28.6771 34.6199 74.4267 0.0000 8.3499 0.0000
# 4 0.0000 0.0000 0.0000 29.6769 0.0000 2.7404
# 5 2.8392 0.1619 8.3499 0.0000 31.4320 0.0000
# 6 0.0000 0.0000 0.0000 2.7404 0.0000 28.4526
#
#
#
# Elastic Compliance Matrix: (Units=1/GPa)
#
#
# Indices 1 2 3 4 5 6 
#
# 1 0.017772 -0.002705 -0.005577 0.000000 -0.000110 0.000000
# 2 -0.002705 0.015856 -0.006547 0.000000 0.001902 0.000000
# 3 -0.005577 -0.006547 0.019140 0.000000 -0.004547 0.000000
# 4 0.000000 0.000000 0.000000 0.033999 0.000000 -0.003275
# 5 -0.000110 0.001902 -0.004547 0.000000 0.033023 0.000000
# 6 0.000000 0.000000 0.000000 -0.003275 0.000000 0.035462
#
#
# Mechanical properties :
#
#
# Convention : Reuss Voigt Hill
#
# Bulk Modulus (GPa) = 43.26983 44.18132 43.72558
# Shear Modulus (GPa) = 25.95877 27.11338 26.53607
#
# Velocity S-wave (km/s) = 3.77314 3.85613 3.81486
# Velocity P-wave (km/s) = 6.53548 6.63752 6.58670
#
# Compressibility (1/GPa) = 0.02311079
#
# Stress axis : x y z
#
# Youngs Moduli (GPa) = 56.26767 63.06659 52.24607
#
# Poissons Ratio (x) = 0.17062 0.29138
# Poissons Ratio (y) = 0.15222 0.34203
# Poissons Ratio (z) = 0.31381 0.41287
#
# Static dielectric constant tensor:
#      x y z
#    x 3.396620 0.000000 0.034400 
#    y 0.000000 3.353750 0.000000 
#    z 0.034400 0.000000 3.276730 
# 
# 
# High freq. dielectric constant tensor:
#      x y z
#    x 1.718060 0.000000 0.004630 
#    y 0.000000 1.703040 0.000000 
#    z 0.004630 0.000000 1.697270 
# 
# From -- ./inp_files/183863.got.cif
#   From: 2010.06.25/outbox.cif.g09.slc.cpg/sg12_92_cif.got.tgz:183863.got - 2010.06.28 00:19:55.
