data_PCOD8102614
_publ_section_title
;
Structure prediction by ZEFSAII (Michael W. Deem and Ramdas Pophale) SiO2 
 PCOD8102614
Probable space group: C 2/M
;
_chemical_formula_sum "Si O2"
_cell_formula_units_Z 56
_cell_length_a 19.131172
_cell_length_b 8.830049
_cell_length_c 21.111745
_cell_angle_alpha 90.000000
_cell_angle_beta 56.144591
_cell_angle_gamma 90.000000
_cell_volume 2961.694600
_symmetry_space_group_name_H-M "C 2/M"
_symmetry_group_IT_number 12
_symmetry_cell_setting 'monoclinic'
loop_
_space_group_symop_operation_xyz
x,y,z
-x,y,-z
-x,-y,-z
x,-y,z
1/2+x,1/2+y,z
1/2-x,1/2+y,-z
1/2-x,1/2-y,-z
1/2+x,1/2-y,z
loop_
_atom_site_type_symbol
_atom_site_label
_atom_site_fract_x
_atom_site_fract_y
_atom_site_fract_z
Si Si1 0.647689 0.831356 0.831337
Si Si2 0.127437 0.180352 0.436358
Si Si3 0.095510 0.168821 0.975309
Si Si4 0.457030 0.167043 0.881877
Si Si5 0.465312 0.177093 0.282451
Si Si6 0.498410 0.178098 0.593021
Si Si7 0.298650 0.321587 0.318662
O O1 0.654970 0.766321 0.898880
O O2 0.550973 0.835638 0.861050
O O3 0.698018 0.726343 0.756767
O O4 0.686579 0.000000 0.810407
O O5 0.081070 0.245384 0.521628
O O6 0.223208 0.234316 0.391255
O O7 0.084593 0.246990 0.394698
O O8 0.121375 0.000000 0.439213
O O9 0.131153 0.000000 0.956297
O O10 0.101051 0.227032 0.045024
O O11 0.000000 0.175222 0.000000
O O12 0.463551 0.223366 0.805575
O O13 0.417154 0.000000 0.905243
O O14 0.503840 0.211103 0.331295
O O15 0.382406 0.276645 0.314129
O O16 0.441297 0.000000 0.285609
O O17 0.499516 0.000000 0.577512
O O18 0.284211 0.500000 0.330190
#
# Coordination Sequence:
#
# PCOD8102614 Si02
#       7
#     8   8   8   8   8   8   8
#     4   9  16  27  42  62  92 128 163 201 246 293
#     4  11  22  37  55  75 101 132 167 205 248 299
#     4   9  15  22  35  59  90 125 163 200 238 282
#     4   8  14  25  40  61  91 127 161 194 239 290
#     4   9  19  34  52  75 104 134 164 204 253 301
#     4  10  20  37  58  78 100 128 166 208 249 295
#     4  11  21  33  51  75 103 133 167 208 251 296
#
# _framework density 18.908093000000001
#
# number of rings (size 3 to 8) (size 9 to 14) (size 15 to 20)
#    0.000    2.429    0.000    5.571    0.000    6.857 
#    0.000    0.000    0.000    0.000    0.000    1.000 
#    0.000    0.000    0.000    0.000    0.000    0.000 
#
# Total GULP energy -347131.531464 kJ/mol
# GULP energy per Si atom -12397.554695 kJ/mol
# Density = 1.886506 g / cm^3
# Si number density = 18.908093 Si / 1000 Ang^3
#
#
#
# Elastic Constant Matrix: (Units=GPa)
#
#
# Indices 1 2 3 4 5 6 
#
# 1 30.8896 20.7282 26.5863 -0.0001 23.0210 0.0000
# 2 20.7282 126.4355 29.7607 -0.0001 17.6084 -0.0003
# 3 26.5863 29.7607 66.5733 -0.0001 39.9254 0.0001
# 4 -0.0001 -0.0001 -0.0001 33.4767 0.0000 1.0344
# 5 23.0210 17.6084 39.9254 0.0000 31.1149 0.0000
# 6 0.0000 -0.0003 0.0001 1.0344 0.0000 19.8973
#
#
#
# Elastic Compliance Matrix: (Units=1/GPa)
#
#
# Indices 1 2 3 4 5 6 
#
# 1 0.079619 -0.006390 0.018310 0.000000 -0.078786 0.000000
# 2 -0.006390 0.009353 -0.005599 0.000000 0.006619 0.000000
# 3 0.018310 -0.005599 0.071317 0.000000 -0.101890 -0.000001
# 4 0.000000 0.000000 0.000000 0.029920 -0.000001 -0.001555
# 5 -0.078786 0.006619 -0.101890 -0.000001 0.217425 0.000001
# 6 0.000000 0.000000 -0.000001 -0.001555 0.000001 0.050339
#
#
# Mechanical properties :
#
#
# Convention : Reuss Voigt Hill
#
# Bulk Modulus (GPa) = 5.78267 42.00543 23.89405
# Shear Modulus (GPa) = 9.94090 26.68601 18.31345
#
# Velocity S-wave (km/s) = 2.29541 3.76087 3.11553
# Velocity P-wave (km/s) = 3.17650 6.41270 5.06028
#
# Compressibility (1/GPa) = 0.17293052
#
# Stress axis : x y z
#
# Youngs Moduli (GPa) = 12.55988 106.91951 14.02193
#
# Poissons Ratio (x) = 0.68327 -0.25674
# Poissons Ratio (y) = 0.08026 0.07850
# Poissons Ratio (z) = -0.22997 0.59860
#
# Static dielectric constant tensor:
#      x y z
#    x 2.991760 0.000000 0.270500 
#    y 0.000000 3.595810 0.000000 
#    z 0.270500 0.000000 3.700820 
# 
# 
# High freq. dielectric constant tensor:
#      x y z
#    x 1.678650 0.000000 0.022650 
#    y 0.000000 1.745260 0.000000 
#    z 0.022650 0.000000 1.743850 
# 
# From -- ./inp_files/345460.got.cif
#   From: 2010.06.25/outbox.cif.g09.slc.cpg/sg12_173_cif.got.tgz:345460.got - 2010.06.28 00:19:55.
