data_PCOD8102245
_publ_section_title
;
Structure prediction by ZEFSAII (Michael W. Deem and Ramdas Pophale) SiO2 
 PCOD8102245
Probable space group: C 2/M
;
_chemical_formula_sum "Si O2"
_cell_formula_units_Z 56
_cell_length_a 27.503338
_cell_length_b 9.016418
_cell_length_c 11.870008
_cell_angle_alpha 90.000000
_cell_angle_beta 108.544675
_cell_angle_gamma 90.000000
_cell_volume 2790.702798
_symmetry_space_group_name_H-M "C 2/M"
_symmetry_group_IT_number 12
_symmetry_cell_setting 'monoclinic'
loop_
_space_group_symop_operation_xyz
x,y,z
-x,y,-z
-x,-y,-z
x,-y,z
1/2+x,1/2+y,z
1/2-x,1/2+y,-z
1/2-x,1/2-y,-z
1/2+x,1/2-y,z
loop_
_atom_site_type_symbol
_atom_site_label
_atom_site_fract_x
_atom_site_fract_y
_atom_site_fract_z
Si Si1 0.997061 0.831297 0.128095
Si Si2 0.748559 0.174062 0.879569
Si Si3 0.152834 0.668818 0.065882
Si Si4 0.389371 0.330768 0.774894
Si Si5 0.658184 0.672452 0.686643
Si Si6 0.909614 0.670773 0.198336
Si Si7 0.305490 0.328089 0.534320
O O1 0.960557 0.729685 0.176602
O O2 0.052726 0.821423 0.230114
O O3 0.976060 0.000000 0.114868
O O4 0.000000 0.777675 0.000000
O O5 0.801527 0.222271 0.860895
O O6 0.703306 0.231879 0.770903
O O7 0.743682 0.000000 0.890371
O O8 0.750000 0.250000 0.000000
O O9 0.167889 0.500000 0.103257
O O10 0.107407 0.725164 0.112648
O O11 0.137818 0.686352 0.924045
O O12 0.377076 0.500000 0.799998
O O13 0.345886 0.269974 0.657289
O O14 0.663107 0.500000 0.722600
O O15 0.604960 0.736231 0.699828
O O16 0.662930 0.698451 0.557282
O O17 0.918396 0.500000 0.238014
O O18 0.293335 0.500000 0.542589
O O19 0.250000 0.250000 0.500000
#
# Coordination Sequence:
#
# PCOD8102245 Si02
#       7
#     8   8   8   8   8   8   8
#     4  10  20  36  61  90 120 157 200 247 302 362
#     4  12  23  35  54  82 116 153 193 240 297 359
#     4  11  22  35  54  85 121 155 194 242 298 359
#     4  10  21  39  62  88 119 156 202 250 302 360
#     4  11  23  40  61  85 119 159 203 250 301 359
#     4  11  23  37  57  86 122 158 196 244 302 359
#     4  10  23  42  64  90 119 158 203 250 299 357
#
# _framework density 20.06663
#
# number of rings (size 3 to 8) (size 9 to 14) (size 15 to 20)
#    0.000    1.286    2.857    3.429    0.000    6.000 
#    0.000    0.714    0.000    4.286    0.000    0.000 
#    0.000    0.000    0.000    0.000    0.000    0.000 
#
# Total GULP energy -347110.934538 kJ/mol
# GULP energy per Si atom -12396.819091 kJ/mol
# Density = 2.002096 g / cm^3
# Si number density = 20.066630 Si / 1000 Ang^3
#
#
#
# Elastic Constant Matrix: (Units=GPa)
#
#
# Indices 1 2 3 4 5 6 
#
# 1 110.3556 51.1347 31.1446 0.0000 -7.9958 0.0000
# 2 51.1347 125.5144 37.1531 0.0000 -11.0638 0.0000
# 3 31.1446 37.1531 66.0758 0.0000 -3.2082 0.0000
# 4 0.0000 0.0000 0.0000 23.9522 0.0000 -0.9254
# 5 -7.9958 -11.0638 -3.2082 0.0000 34.4170 0.0000
# 6 0.0000 0.0000 0.0000 -0.9254 0.0000 35.9793
#
#
#
# Elastic Compliance Matrix: (Units=1/GPa)
#
#
# Indices 1 2 3 4 5 6 
#
# 1 0.011834 -0.003693 -0.003441 0.000000 0.001241 0.000000
# 2 -0.003693 0.010945 -0.004304 0.000000 0.002259 0.000000
# 3 -0.003441 -0.004304 0.019157 0.000000 -0.000397 0.000000
# 4 0.000000 0.000000 0.000000 0.041791 0.000000 0.001075
# 5 0.001241 0.002259 -0.000397 0.000000 0.030033 0.000000
# 6 0.000000 0.000000 0.000000 0.001075 0.000000 0.027821
#
#
# Mechanical properties :
#
#
# Convention : Reuss Voigt Hill
#
# Bulk Modulus (GPa) = 52.46649 60.09006 56.27827
# Shear Modulus (GPa) = 29.27227 31.03726 30.15477
#
# Velocity S-wave (km/s) = 3.82351 3.93709 3.88071
# Velocity P-wave (km/s) = 6.75982 7.11884 6.94165
#
# Compressibility (1/GPa) = 0.01905978
#
# Stress axis : x y z
#
# Youngs Moduli (GPa) = 84.50254 91.36709 52.20130
#
# Poissons Ratio (x) = 0.33744 0.17963
# Poissons Ratio (y) = 0.31208 0.22465
# Poissons Ratio (z) = 0.29078 0.39321
#
# Static dielectric constant tensor:
#      x y z
#    x 4.034650 0.000000 0.103650 
#    y 0.000000 3.631790 0.000000 
#    z 0.103650 0.000000 3.870960 
# 
# 
# High freq. dielectric constant tensor:
#      x y z
#    x 1.796370 0.000000 -0.007100 
#    y 0.000000 1.785620 0.000000 
#    z -0.007100 0.000000 1.761900 
# 
# From -- ./inp_files/180667.got.cif
#   From: 2010.06.25/outbox.cif.g09.slc.cpg/sg12_91_cif.got.tgz:180667.got - 2010.06.28 00:19:55.
