data_PCOD8102226
_publ_section_title
;
Structure prediction by ZEFSAII (Michael W. Deem and Ramdas Pophale) SiO2 
 PCOD8102226
Probable space group: C 2/M
;
_chemical_formula_sum "Si O2"
_cell_formula_units_Z 40
_cell_length_a 20.378953
_cell_length_b 7.515593
_cell_length_c 28.626418
_cell_angle_alpha 90.000000
_cell_angle_beta 152.505291
_cell_angle_gamma 90.000000
_cell_volume 2024.140616
_symmetry_space_group_name_H-M "C 2/M"
_symmetry_group_IT_number 12
_symmetry_cell_setting 'monoclinic'
loop_
_space_group_symop_operation_xyz
x,y,z
-x,y,-z
-x,-y,-z
x,-y,z
1/2+x,1/2+y,z
1/2-x,1/2+y,-z
1/2-x,1/2-y,-z
1/2+x,1/2-y,z
loop_
_atom_site_type_symbol
_atom_site_label
_atom_site_fract_x
_atom_site_fract_y
_atom_site_fract_z
Si Si1 0.985420 0.209888 0.592426
Si Si2 0.296513 0.791628 0.633531
Si Si3 0.224588 0.708110 0.271072
Si Si4 0.574680 0.500000 0.120374
Si Si5 0.559963 0.700282 0.742087
Si Si6 0.279573 0.500000 0.887048
O O1 0.121313 0.274600 0.648880
O O2 0.998898 0.274248 0.654377
O O3 0.842117 0.290592 0.479611
O O4 0.974927 0.000000 0.582249
O O5 0.285157 0.749026 0.680723
O O6 0.435548 0.696537 0.701522
O O7 0.310527 0.000000 0.632694
O O8 0.199034 0.500000 0.243986
O O9 0.106000 0.821394 0.169280
O O10 0.667824 0.500000 0.132623
O O11 0.408254 0.500000 0.004540
O O12 0.619592 0.500000 0.773570
O O13 0.688094 0.824143 0.839844
#
# Coordination Sequence:
#
# PCOD8102226 Si02
#       6
#     8   8   8   4   8   4
#     4   9  18  35  59  90 122 165 196 235 293 356
#     4  10  20  36  61  88 130 163 193 236 297 355
#     4  10  21  39  61  89 125 157 197 247 296 354
#     4  11  24  42  68  89 110 152 205 261 299 355
#     4  11  22  39  61  88 123 159 199 247 292 358
#     4  11  24  44  65  88 114 151 203 259 311 339
#
# _framework density 19.761472000000001
#
# number of rings (size 3 to 8) (size 9 to 14) (size 15 to 20)
#    0.000    1.800    3.000    1.200    1.400    3.200 
#    3.600    4.000    0.000    0.000    0.000    0.000 
#    0.000    0.000    0.000    0.000    0.000    0.000 
#
# Total GULP energy -248066.179247 kJ/mol
# GULP energy per Si atom -12403.308962 kJ/mol
# Density = 1.971649 g / cm^3
# Si number density = 19.761472 Si / 1000 Ang^3
#
#
#
# Elastic Constant Matrix: (Units=GPa)
#
#
# Indices 1 2 3 4 5 6 
#
# 1 115.2753 27.1667 48.3364 0.0008 13.6060 0.0005
# 2 27.1667 88.6706 61.1919 0.0027 2.1461 -0.0006
# 3 48.3364 61.1919 155.9162 0.0025 9.5738 -0.0012
# 4 0.0008 0.0027 0.0025 6.1851 0.0001 -20.0312
# 5 13.6060 2.1461 9.5738 0.0001 21.2021 0.0005
# 6 0.0005 -0.0006 -0.0012 -20.0312 0.0005 11.8600
#
#
#
# Elastic Compliance Matrix: (Units=1/GPa)
#
#
# Indices 1 2 3 4 5 6 
#
# 1 0.010691 -0.001496 -0.002381 0.000000 -0.005634 0.000000
# 2 -0.001496 0.015706 -0.005823 0.000001 0.002000 0.000002
# 3 -0.002381 -0.005823 0.009573 0.000000 -0.002205 0.000000
# 4 0.000000 0.000001 0.000000 -0.036170 0.000002 -0.061090
# 5 -0.005634 0.002000 -0.002205 0.000002 0.051574 0.000001
# 6 0.000000 0.000002 0.000000 -0.061090 0.000001 -0.018863
#
#
# Mechanical properties :
#
#
# Convention : Reuss Voigt Hill
#
# Bulk Modulus (GPa) = 60.35287 70.36135 65.35711
# Shear Modulus (GPa) = 87.05639 22.72726 54.89183
#
# Velocity S-wave (km/s) = 6.64449 3.39496 5.27613
# Velocity P-wave (km/s) = 9.45900 7.14495 8.38221
#
# Compressibility (1/GPa) = 0.01656922
#
# Stress axis : x y z
#
# Youngs Moduli (GPa) = 93.53766 63.66914 104.46272
#
# Poissons Ratio (x) = 0.09523 0.24877
# Poissons Ratio (y) = 0.13990 0.60831
# Poissons Ratio (z) = 0.22275 0.37076
#
# Static dielectric constant tensor:
#      x y z
#    x 3.600810 0.000000 0.008570 
#    y 0.000000 3.482810 0.000000 
#    z 0.008570 0.000000 3.545460 
# 
# 
# High freq. dielectric constant tensor:
#      x y z
#    x 1.777160 0.000000 0.002000 
#    y 0.000000 1.770510 0.000000 
#    z 0.002000 0.000000 1.755420 
# 
# From -- ./inp_files/162424.got.cif
#   From: 2010.06.25/outbox.cif.g09.slc.cpg/sg12_82_cif.got.tgz:162424.got - 2010.06.28 00:19:55.
