data_PCOD8102222
_publ_section_title
;
Structure prediction by ZEFSAII (Michael W. Deem and Ramdas Pophale) SiO2 
 PCOD8102222
Probable space group: C 2/M
;
_chemical_formula_sum "Si O2"
_cell_formula_units_Z 64
_cell_length_a 19.621978
_cell_length_b 8.772331
_cell_length_c 20.739355
_cell_angle_alpha 90.000000
_cell_angle_beta 117.962422
_cell_angle_gamma 90.000000
_cell_volume 3153.111275
_symmetry_space_group_name_H-M "C 2/M"
_symmetry_group_IT_number 12
_symmetry_cell_setting 'monoclinic'
loop_
_space_group_symop_operation_xyz
x,y,z
-x,y,-z
-x,-y,-z
x,-y,z
1/2+x,1/2+y,z
1/2-x,1/2+y,-z
1/2-x,1/2-y,-z
1/2+x,1/2-y,z
loop_
_atom_site_type_symbol
_atom_site_label
_atom_site_fract_x
_atom_site_fract_y
_atom_site_fract_z
Si Si1 0.083145 0.679495 0.521804
Si Si2 0.826924 0.321645 0.560977
Si Si3 0.011774 0.820344 0.824912
Si Si4 0.274516 0.320770 0.943715
Si Si5 0.632701 0.823900 0.790924
Si Si6 0.803231 0.678678 0.318503
Si Si7 0.932945 0.680051 0.019018
Si Si8 0.146890 0.680402 0.283325
O O1 0.078786 0.500000 0.531835
O O2 0.103946 0.719591 0.457346
O O3 0.148424 0.742985 0.599187
O O4 0.000000 0.754207 0.500000
O O5 0.812566 0.500000 0.558255
O O6 0.750000 0.250000 0.500000
O O7 0.848314 0.258394 0.640905
O O8 0.925608 0.756535 0.783234
O O9 0.060526 0.775024 0.783258
O O10 0.054227 0.750856 0.905332
O O11 0.008433 0.000000 0.830342
O O12 0.286116 0.500000 0.957000
O O13 0.210505 0.279957 0.862703
O O14 0.250000 0.250000 0.000000
O O15 0.353850 0.245409 0.954627
O O16 0.645780 0.787702 0.721821
O O17 0.611274 0.000000 0.792506
O O18 0.783839 0.500000 0.316063
O O19 0.723320 0.770099 0.279022
O O20 0.926920 0.500000 0.024115
O O21 0.000000 0.729047 0.000000
O O22 0.136775 0.500000 0.275680
#
# Coordination Sequence:
#
# PCOD8102222 Si02
#       8
#     8   8   8   8   8   8   8   8
#     4   9  18  33  58  89 119 155 203 254 302 358
#     4  10  20  36  61  88 118 156 201 252 305 365
#     4  12  26  43  65  91 123 164 209 254 304 368
#     4  11  22  39  64  92 124 162 206 253 302 364
#     4  10  23  41  63  91 124 162 205 255 310 367
#     4  10  21  39  63  90 123 163 208 254 303 370
#     4  11  25  44  66  94 128 162 202 256 313 366
#     4  11  24  40  61  89 127 166 204 256 314 368
#
# _framework density 20.297412999999999
#
# number of rings (size 3 to 8) (size 9 to 14) (size 15 to 20)
#    0.000    1.500    2.500    2.250    3.500    2.500 
#    0.000    0.000    0.000    0.750    0.000    0.000 
#    0.000    0.000    0.000    0.000    0.000    0.000 
#
# Total GULP energy -396949.825904 kJ/mol
# GULP energy per Si atom -12404.682059 kJ/mol
# Density = 2.025122 g / cm^3
# Si number density = 20.297413 Si / 1000 Ang^3
#
#
#
# Elastic Constant Matrix: (Units=GPa)
#
#
# Indices 1 2 3 4 5 6 
#
# 1 113.8810 28.3987 6.1633 0.0000 11.4596 0.0000
# 2 28.3987 58.7126 11.3135 0.0000 2.7328 0.0000
# 3 6.1633 11.3135 51.2568 0.0000 1.9695 0.0000
# 4 0.0000 0.0000 0.0000 23.7267 0.0000 4.1127
# 5 11.4596 2.7328 1.9695 0.0000 38.8273 0.0000
# 6 0.0000 0.0000 0.0000 4.1127 0.0000 34.3424
#
#
#
# Elastic Compliance Matrix: (Units=1/GPa)
#
#
# Indices 1 2 3 4 5 6 
#
# 1 0.010258 -0.004824 -0.000066 0.000000 -0.002685 0.000000
# 2 -0.004824 0.020101 -0.003864 0.000000 0.000205 0.000000
# 3 -0.000066 -0.003864 0.020399 0.000000 -0.000743 0.000000
# 4 0.000000 0.000000 0.000000 0.043040 0.000000 -0.005154
# 5 -0.002685 0.000205 -0.000743 0.000000 0.026571 0.000000
# 6 0.000000 0.000000 0.000000 -0.005154 0.000000 0.029736
#
#
# Mechanical properties :
#
#
# Convention : Reuss Voigt Hill
#
# Bulk Modulus (GPa) = 30.07572 35.06682 32.57127
# Shear Modulus (GPa) = 27.98064 31.24426 29.61245
#
# Velocity S-wave (km/s) = 3.71689 3.92768 3.82373
# Velocity P-wave (km/s) = 5.76802 6.15490 5.96460
#
# Compressibility (1/GPa) = 0.03324941
#
# Stress axis : x y z
#
# Youngs Moduli (GPa) = 97.48715 49.74996 49.02196
#
# Poissons Ratio (x) = 0.23999 0.00321
# Poissons Ratio (y) = 0.47028 0.18944
# Poissons Ratio (z) = 0.00639 0.19226
#
# Static dielectric constant tensor:
#      x y z
#    x 3.781190 0.000000 0.059700 
#    y 0.000000 3.539650 0.000000 
#    z 0.059700 0.000000 3.921250 
# 
# 
# High freq. dielectric constant tensor:
#      x y z
#    x 1.808410 0.000000 0.000690 
#    y 0.000000 1.776710 0.000000 
#    z 0.000690 0.000000 1.798670 
# 
# From -- ./inp_files/320086.got.cif
#   From: 2010.06.25/outbox.cif.g09.slc.cpg/sg12_161_cif.got.tgz:320086.got - 2010.06.28 00:19:55.
