data_PCOD8102173
_publ_section_title
;
Structure prediction by ZEFSAII (Michael W. Deem and Ramdas Pophale) SiO2 
 PCOD8102173
Probable space group: C 2/M
;
_chemical_formula_sum "Si O2"
_cell_formula_units_Z 52
_cell_length_a 9.087872
_cell_length_b 18.402360
_cell_length_c 20.959465
_cell_angle_alpha 90.000000
_cell_angle_beta 128.534847
_cell_angle_gamma 90.000000
_cell_volume 2741.890158
_symmetry_space_group_name_H-M "C 2/M"
_symmetry_group_IT_number 12
_symmetry_cell_setting 'monoclinic'
loop_
_space_group_symop_operation_xyz
x,y,z
-x,y,-z
-x,-y,-z
x,-y,z
1/2+x,1/2+y,z
1/2-x,1/2+y,-z
1/2-x,1/2-y,-z
1/2+x,1/2-y,z
loop_
_atom_site_type_symbol
_atom_site_label
_atom_site_fract_x
_atom_site_fract_y
_atom_site_fract_z
Si Si1 0.958630 0.915976 0.159978
Si Si2 0.000000 0.231974 0.500000
Si Si3 0.088536 0.701383 0.390398
Si Si4 0.013047 0.329893 0.825206
Si Si5 0.611653 0.294890 0.763381
Si Si6 0.607073 0.918547 0.736124
Si Si7 0.327163 0.172413 0.000782
O O1 0.938308 0.873976 0.221842
O O2 0.171030 0.908988 0.193372
O O3 0.900412 0.000000 0.154755
O O4 0.829000 0.880498 0.070549
O O5 0.964495 0.282312 0.551518
O O6 0.811161 0.183574 0.441442
O O7 0.042132 0.768307 0.329749
O O8 0.965879 0.631194 0.340811
O O9 0.807502 0.297227 0.779805
O O10 0.132393 0.262828 0.827259
O O11 0.004202 0.396497 0.773733
O O12 0.099361 0.362409 0.913360
O O13 0.552222 0.000000 0.703349
O O14 0.500000 0.181801 0.000000
O O15 0.250000 0.250000 0.000000
#
# Coordination Sequence:
#
# PCOD8102173 Si02
#       7
#     8   4   8   8   8   8   8
#     4  11  24  39  57  84 119 158 204 249 294 341
#     4  10  20  36  60  96 114 142 182 238 290 350
#     4  10  20  36  63  87 120 145 188 235 289 350
#     4  11  21  36  60  84 114 155 205 245 291 338
#     4  11  20  38  60  87 112 157 194 242 289 347
#     4  10  23  41  60  85 118 158 199 241 287 348
#     4  12  24  38  58  85 116 157 199 254 298 340
#
# _framework density 18.965019000000002
#
# number of rings (size 3 to 8) (size 9 to 14) (size 15 to 20)
#    0.000    1.231    3.077    4.615    2.154    1.538 
#    0.000    2.308    0.000    3.692    0.000    0.000 
#    0.000    0.000    0.000    0.000    0.000    0.000 
#
# Total GULP energy -322402.061647 kJ/mol
# GULP energy per Si atom -12400.079294 kJ/mol
# Density = 1.892185 g / cm^3
# Si number density = 18.965019 Si / 1000 Ang^3
#
#
#
# Elastic Constant Matrix: (Units=GPa)
#
#
# Indices 1 2 3 4 5 6 
#
# 1 113.2277 38.9647 42.2484 0.0000 2.3790 0.0000
# 2 38.9647 123.9065 49.6422 0.0000 3.3648 0.0000
# 3 42.2484 49.6422 117.3599 0.0000 -1.6331 0.0000
# 4 0.0000 0.0000 0.0000 16.6725 0.0000 8.0880
# 5 2.3790 3.3648 -1.6331 0.0000 39.1325 0.0000
# 6 0.0000 0.0000 0.0000 8.0880 0.0000 17.2721
#
#
#
# Elastic Compliance Matrix: (Units=1/GPa)
#
#
# Indices 1 2 3 4 5 6 
#
# 1 0.010686 -0.002167 -0.002938 0.000000 -0.000586 0.000000
# 2 -0.002167 0.010197 -0.003545 0.000000 -0.000893 0.000000
# 3 -0.002938 -0.003545 0.011091 0.000000 0.000946 0.000000
# 4 0.000000 0.000000 0.000000 0.077609 0.000000 -0.036342
# 5 -0.000586 -0.000893 0.000946 0.000000 0.025706 0.000000
# 6 0.000000 0.000000 0.000000 -0.036342 0.000000 0.074915
#
#
# Mechanical properties :
#
#
# Convention : Reuss Voigt Hill
#
# Bulk Modulus (GPa) = 68.15524 68.46720 68.31122
# Shear Modulus (GPa) = 21.51490 29.52467 25.51979
#
# Velocity S-wave (km/s) = 3.37182 3.94991 3.67225
# Velocity P-wave (km/s) = 7.15362 7.54868 7.35380
#
# Compressibility (1/GPa) = 0.01467239
#
# Stress axis : x y z
#
# Youngs Moduli (GPa) = 93.57775 98.06957 90.15999
#
# Poissons Ratio (x) = 0.21255 0.26492
# Poissons Ratio (y) = 0.20282 0.31965
# Poissons Ratio (z) = 0.27496 0.34769
#
# Static dielectric constant tensor:
#      x y z
#    x 3.683930 0.000000 -0.005030 
#    y 0.000000 3.423550 0.000000 
#    z -0.005030 0.000000 3.748780 
# 
# 
# High freq. dielectric constant tensor:
#      x y z
#    x 1.755000 0.000000 -0.000010 
#    y 0.000000 1.712030 0.000000 
#    z -0.000010 0.000000 1.743970 
# 
# From -- ./inp_files/301198.got.cif
#   From: 2010.06.25/outbox.cif.g09.slc.cpg/sg12_151_cif.got.tgz:301198.got - 2010.06.28 00:19:55.
