data_PCOD8103479
_publ_section_title
;
Structure prediction by ZEFSAII (Michael W. Deem and Ramdas Pophale) SiO2 
 PCOD8103479
Probable space group: C 2/M
;
_chemical_formula_sum "Si O2"
_cell_formula_units_Z 48
_cell_length_a 14.150112
_cell_length_b 18.506593
_cell_length_c 11.853031
_cell_angle_alpha 90.000000
_cell_angle_beta 50.260752
_cell_angle_gamma 90.000000
_cell_volume 2386.824820
_symmetry_space_group_name_H-M "C 2/M"
_symmetry_group_IT_number 12
_symmetry_cell_setting 'monoclinic'
loop_
_space_group_symop_operation_xyz
x,y,z
-x,y,-z
-x,-y,-z
x,-y,z
1/2+x,1/2+y,z
1/2-x,1/2+y,-z
1/2-x,1/2-y,-z
1/2+x,1/2-y,z
loop_
_atom_site_type_symbol
_atom_site_label
_atom_site_fract_x
_atom_site_fract_y
_atom_site_fract_z
Si Si1 0.764637 0.695505 0.830797
Si Si2 0.525970 0.580318 0.604227
Si Si3 0.421590 0.304414 0.841858
Si Si4 0.803352 0.420619 0.365886
Si Si5 0.680919 0.762604 0.671497
Si Si6 0.533034 0.081958 0.352408
O O1 0.820583 0.767983 0.839614
O O2 0.738875 0.708411 0.718409
O O3 0.857227 0.629389 0.781859
O O4 0.636516 0.677930 0.991698
O O5 0.500000 0.615416 0.500000
O O6 0.469839 0.500000 0.645462
O O7 0.457223 0.621224 0.755649
O O8 0.669864 0.579643 0.525769
O O9 0.537580 0.252161 0.765284
O O10 0.819408 0.500000 0.290353
O O11 0.809111 0.346090 0.289386
O O12 0.908317 0.412504 0.377975
O O13 0.750000 0.750000 0.500000
O O14 0.500000 0.112671 0.500000
O O15 0.581558 0.000000 0.321233
#
# Coordination Sequence:
#
# PCOD8103479 Si02
#       6
#     8   8   8   8   8   8
#     4  11  25  40  59  90 130 161 208 260 320 376
#     4  10  21  38  63  94 124 160 208 260 316 380
#     4  11  24  40  59  91 124 167 203 262 320 379
#     4  10  20  37  62  92 120 152 208 265 307 360
#     4  12  22  38  66  93 119 166 211 258 309 378
#     4  10  21  38  62  90 120 160 210 256 306 373
#
# _framework density 20.110399000000001
#
# number of rings (size 3 to 8) (size 9 to 14) (size 15 to 20)
#    0.000    1.333    3.333    2.500    0.000    0.667 
#    0.000    0.000    0.000    5.000    0.000    0.000 
#    0.000    0.000    0.000    0.000    0.000    0.000 
#
# Total GULP energy -297474.626262 kJ/mol
# GULP energy per Si atom -12394.776094 kJ/mol
# Density = 2.006463 g / cm^3
# Si number density = 20.110399 Si / 1000 Ang^3
#
#
#
# Elastic Constant Matrix: (Units=GPa)
#
#
# Indices 1 2 3 4 5 6 
#
# 1 90.3188 27.1030 53.0781 0.0000 -5.0267 0.0000
# 2 27.1030 115.1527 53.0016 0.0000 -3.0644 0.0000
# 3 53.0781 53.0016 138.2378 0.0000 -9.1975 0.0000
# 4 0.0000 0.0000 0.0000 22.5193 0.0000 -0.6074
# 5 -5.0267 -3.0644 -9.1975 0.0000 29.7481 0.0000
# 6 0.0000 0.0000 0.0000 -0.6074 0.0000 27.7933
#
#
#
# Elastic Compliance Matrix: (Units=1/GPa)
#
#
# Indices 1 2 3 4 5 6 
#
# 1 0.014414 -0.001030 -0.005089 0.000000 0.000756 0.000000
# 2 -0.001030 0.010619 -0.003691 0.000000 -0.000221 0.000000
# 3 -0.005089 -0.003691 0.010742 0.000000 0.002081 0.000000
# 4 0.000000 0.000000 0.000000 0.044433 0.000000 0.000971
# 5 0.000756 -0.000221 0.002081 0.000000 0.034364 0.000000
# 6 0.000000 0.000000 0.000000 0.000971 0.000000 0.036001
#
#
# Mechanical properties :
#
#
# Convention : Reuss Voigt Hill
#
# Bulk Modulus (GPa) = 61.90109 67.78608 64.84358
# Shear Modulus (GPa) = 28.47750 30.04726 29.26238
#
# Velocity S-wave (km/s) = 3.76714 3.86957 3.81870
# Velocity P-wave (km/s) = 7.05473 7.33109 7.19424
#
# Compressibility (1/GPa) = 0.01615481
#
# Stress axis : x y z
#
# Youngs Moduli (GPa) = 69.37784 94.16682 93.09684
#
# Poissons Ratio (x) = 0.09699 0.47378
# Poissons Ratio (y) = 0.07146 0.34360
# Poissons Ratio (z) = 0.35307 0.34755
#
# Static dielectric constant tensor:
#      x y z
#    x 3.723230 0.000000 -0.117340 
#    y 0.000000 4.000450 0.000000 
#    z -0.117340 0.000000 3.506060 
# 
# 
# High freq. dielectric constant tensor:
#      x y z
#    x 1.794180 0.000000 -0.019760 
#    y 0.000000 1.796030 0.000000 
#    z -0.019760 0.000000 1.758870 
# 
# From -- ./inp_files/147921.got.cif
#   From: 2010.06.25/outbox.cif.g09.slc.cpg/sg12_74_cif.got.tgz:147921.got - 2010.06.28 00:19:55.
