data_PCOD8103938
_publ_section_title
;
Structure prediction by ZEFSAII (Michael W. Deem and Ramdas Pophale) SiO2 
 PCOD8103938
Probable space group: C 2/M
;
_chemical_formula_sum "Si O2"
_cell_formula_units_Z 64
_cell_length_a 24.526808
_cell_length_b 8.629588
_cell_length_c 15.404472
_cell_angle_alpha 90.000000
_cell_angle_beta 81.022332
_cell_angle_gamma 90.000000
_cell_volume 3220.509717
_symmetry_space_group_name_H-M "C 2/M"
_symmetry_group_IT_number 12
_symmetry_cell_setting 'monoclinic'
loop_
_space_group_symop_operation_xyz
x,y,z
-x,y,-z
-x,-y,-z
x,-y,z
1/2+x,1/2+y,z
1/2-x,1/2+y,-z
1/2-x,1/2-y,-z
1/2+x,1/2-y,z
loop_
_atom_site_type_symbol
_atom_site_label
_atom_site_fract_x
_atom_site_fract_y
_atom_site_fract_z
Si Si1 0.467905 0.819496 0.121312
Si Si2 0.700486 0.683550 0.069069
Si Si3 0.920578 0.817275 0.964612
Si Si4 0.908960 0.679632 0.480133
Si Si5 0.431245 0.322517 0.643288
Si Si6 0.044684 0.824209 0.700754
Si Si7 0.706550 0.681697 0.445139
Si Si8 0.684231 0.319694 0.263153
O O1 0.430391 0.727093 0.062157
O O2 0.441278 0.784899 0.221515
O O3 0.464525 0.000000 0.100521
O O4 0.531724 0.764961 0.103930
O O5 0.704858 0.500000 0.062959
O O6 0.708012 0.748240 0.166656
O O7 0.750000 0.750000 0.000000
O O8 0.640454 0.738741 0.049068
O O9 0.926945 0.000000 0.949565
O O10 0.915777 0.500000 0.457917
O O11 0.947680 0.728519 0.551700
O O12 0.920910 0.774207 0.390779
O O13 0.848005 0.722269 0.524561
O O14 0.420608 0.500000 0.617285
O O15 0.479894 0.307192 0.699358
O O16 0.376782 0.251379 0.702294
O O17 0.060344 0.000000 0.720031
O O18 0.697817 0.500000 0.464911
O O19 0.750000 0.750000 0.500000
O O20 0.722931 0.709726 0.338832
O O21 0.676354 0.500000 0.247771
#
# Coordination Sequence:
#
# PCOD8103938 Si02
#       8
#     8   8   8   8   8   8   8   8
#     4  11  22  36  57  86 116 149 191 241 295 347
#     4  10  21  38  60  86 115 150 192 242 295 347
#     4  10  20  38  61  82 111 152 196 237 287 354
#     4  11  22  35  52  80 116 148 184 231 283 337
#     4   9  18  34  57  80 107 147 190 230 278 337
#     4  11  21  35  55  81 114 152 191 228 277 341
#     4  10  20  38  61  82 108 147 192 239 286 339
#     4   8  16  34  58  82 107 141 186 229 279 339
#
# _framework density 19.872631999999999
#
# number of rings (size 3 to 8) (size 9 to 14) (size 15 to 20)
#    0.000    2.000    0.000    6.000    0.000    5.500 
#    2.250    3.125    0.000    0.000    0.000    0.000 
#    0.000    0.000    0.000    0.000    0.000    0.000 
#
# Total GULP energy -396660.559294 kJ/mol
# GULP energy per Si atom -12395.642478 kJ/mol
# Density = 1.982740 g / cm^3
# Si number density = 19.872632 Si / 1000 Ang^3
#
#
#
# Elastic Constant Matrix: (Units=GPa)
#
#
# Indices 1 2 3 4 5 6 
#
# 1 66.1392 18.3889 37.4753 0.0000 8.3277 0.0000
# 2 18.3889 56.0315 15.2987 0.0000 4.2018 0.0000
# 3 37.4753 15.2987 154.4742 0.0000 3.2669 0.0000
# 4 0.0000 0.0000 0.0000 30.3557 0.0000 -2.1468
# 5 8.3277 4.2018 3.2669 0.0000 24.7214 0.0000
# 6 0.0000 0.0000 0.0000 -2.1468 0.0000 26.6072
#
#
#
# Elastic Compliance Matrix: (Units=1/GPa)
#
#
# Indices 1 2 3 4 5 6 
#
# 1 0.019467 -0.004872 -0.004131 0.000000 -0.005184 0.000000
# 2 -0.004872 0.019770 -0.000742 0.000000 -0.001621 0.000000
# 3 -0.004131 -0.000742 0.007538 0.000000 0.000521 0.000000
# 4 0.000000 0.000000 0.000000 0.033132 0.000000 0.002673
# 5 -0.005184 -0.001621 0.000521 0.000000 0.042404 0.000000
# 6 0.000000 0.000000 0.000000 0.002673 0.000000 0.037799
#
#
# Mechanical properties :
#
#
# Convention : Reuss Voigt Hill
#
# Bulk Modulus (GPa) = 36.64831 46.55228 41.60030
# Shear Modulus (GPa) = 26.49772 30.03568 28.26670
#
# Velocity S-wave (km/s) = 3.65551 3.89190 3.77555
# Velocity P-wave (km/s) = 6.02483 6.60848 6.32339
#
# Compressibility (1/GPa) = 0.02728639
#
# Stress axis : x y z
#
# Youngs Moduli (GPa) = 51.36777 50.58104 132.65982
#
# Poissons Ratio (x) = 0.24645 0.54796
# Poissons Ratio (y) = 0.25029 0.09839
# Poissons Ratio (z) = 0.21218 0.03751
#
# Static dielectric constant tensor:
#      x y z
#    x 3.550980 0.000000 0.146600 
#    y 0.000000 3.318320 0.000000 
#    z 0.146600 0.000000 3.930850 
# 
# 
# High freq. dielectric constant tensor:
#      x y z
#    x 1.755560 0.000000 0.011010 
#    y 0.000000 1.762920 0.000000 
#    z 0.011010 0.000000 1.790590 
# 
# From -- ./inp_files/243806.got.cif
#   From: 2010.06.25/outbox.cif.g09.slc.cpg/sg12_122_cif.got.tgz:243806.got - 2010.06.28 00:19:55.
