data_PCOD8103810
_publ_section_title
;
Structure prediction by ZEFSAII (Michael W. Deem and Ramdas Pophale) SiO2 
 PCOD8103810
Probable space group: C 2/M
;
_chemical_formula_sum "Si O2"
_cell_formula_units_Z 64
_cell_length_a 13.723418
_cell_length_b 16.643615
_cell_length_c 13.817985
_cell_angle_alpha 90.000000
_cell_angle_beta 95.588773
_cell_angle_gamma 90.000000
_cell_volume 3141.125797
_symmetry_space_group_name_H-M "C 2/M"
_symmetry_group_IT_number 12
_symmetry_cell_setting 'monoclinic'
loop_
_space_group_symop_operation_xyz
x,y,z
-x,y,-z
-x,-y,-z
x,-y,z
1/2+x,1/2+y,z
1/2-x,1/2+y,-z
1/2-x,1/2-y,-z
1/2+x,1/2-y,z
loop_
_atom_site_type_symbol
_atom_site_label
_atom_site_fract_x
_atom_site_fract_y
_atom_site_fract_z
Si Si1 0.295833 0.305486 0.697828
Si Si2 0.606772 0.092363 0.019962
Si Si3 0.636752 0.317277 0.657446
Si Si4 0.478882 0.205527 0.708185
Si Si5 0.676488 0.591824 0.477177
Si Si6 0.646811 0.905166 0.808925
Si Si7 0.378758 0.913753 0.593420
Si Si8 0.224382 0.410642 0.209791
O O1 0.212797 0.253022 0.636207
O O2 0.378452 0.242668 0.748267
O O3 0.348208 0.360464 0.622467
O O4 0.242178 0.362827 0.771006
O O5 0.668285 0.131646 0.114005
O O6 0.589050 0.000000 0.048197
O O7 0.500000 0.134244 0.000000
O O8 0.665538 0.100084 0.925307
O O9 0.534172 0.284638 0.681928
O O10 0.617861 0.374258 0.563681
O O11 0.677096 0.362899 0.756245
O O12 0.545523 0.143832 0.777709
O O13 0.455879 0.159040 0.603284
O O14 0.644958 0.500000 0.460075
O O15 0.792472 0.599840 0.509237
O O16 0.637392 0.000000 0.776056
O O17 0.342738 0.912429 0.701478
O O18 0.428994 0.000000 0.576727
O O19 0.256579 0.500000 0.182958
#
# Coordination Sequence:
#
# PCOD8103810 Si02
#       8
#     8   8   8   8   8   8   8   8
#     4  11  22  38  56  82 120 156 188 238 302 347
#     4   9  17  30  59  93 114 141 190 243 287 335
#     4  10  21  35  56  83 116 150 192 235 292 347
#     4  11  21  35  57  82 118 153 192 235 295 344
#     4  10  20  38  59  80 108 149 198 242 284 339
#     4  10  22  40  60  87 119 153 196 240 287 351
#     4   9  17  32  59  84 108 144 188 235 288 340
#     4   9  16  32  57  83 111 143 186 236 280 333
#
# _framework density 20.374860000000002
#
# number of rings (size 3 to 8) (size 9 to 14) (size 15 to 20)
#    0.000    2.125    2.500    3.000    0.000    2.500 
#    2.250    5.625    2.750    3.750    0.000    2.625 
#    0.000    0.000    0.000    0.000    0.000    0.000 
#
# Total GULP energy -396426.335992 kJ/mol
# GULP energy per Si atom -12388.323000 kJ/mol
# Density = 2.032849 g / cm^3
# Si number density = 20.374860 Si / 1000 Ang^3
#
#
#
# Elastic Constant Matrix: (Units=GPa)
#
#
# Indices 1 2 3 4 5 6 
#
# 1 72.7790 31.0861 21.1614 0.0000 -0.6937 0.0000
# 2 31.0861 103.4242 34.0632 0.0000 3.6895 0.0000
# 3 21.1614 34.0632 79.1475 0.0000 6.1816 0.0000
# 4 0.0000 0.0000 0.0000 18.8318 0.0000 5.1516
# 5 -0.6937 3.6895 6.1816 0.0000 15.0018 0.0000
# 6 0.0000 0.0000 0.0000 5.1516 0.0000 34.9123
#
#
#
# Elastic Compliance Matrix: (Units=1/GPa)
#
#
# Indices 1 2 3 4 5 6 
#
# 1 0.016336 -0.004079 -0.002841 0.000000 0.002929 0.000000
# 2 -0.004079 0.012294 -0.004081 0.000000 -0.001531 0.000000
# 3 -0.002841 -0.004081 0.015584 0.000000 -0.005549 0.000000
# 4 0.000000 0.000000 0.000000 0.055335 0.000000 -0.008165
# 5 0.002929 -0.001531 -0.005549 0.000000 0.069457 0.000000
# 6 0.000000 0.000000 0.000000 -0.008165 0.000000 0.029848
#
#
# Mechanical properties :
#
#
# Convention : Reuss Voigt Hill
#
# Bulk Modulus (GPa) = 45.02015 47.55246 46.28631
# Shear Modulus (GPa) = 21.90482 25.01852 23.46167
#
# Velocity S-wave (km/s) = 3.28241 3.50796 3.39706
# Velocity P-wave (km/s) = 6.04231 6.30850 6.17684
#
# Compressibility (1/GPa) = 0.02221227
#
# Stress axis : x y z
#
# Youngs Moduli (GPa) = 61.21265 81.34358 64.16879
#
# Poissons Ratio (x) = 0.33180 0.18231
# Poissons Ratio (y) = 0.24969 0.26185
# Poissons Ratio (z) = 0.17391 0.33194
#
# Static dielectric constant tensor:
#      x y z
#    x 3.551330 0.000000 0.213940 
#    y 0.000000 4.084620 0.000000 
#    z 0.213940 0.000000 3.537440 
# 
# 
# High freq. dielectric constant tensor:
#      x y z
#    x 1.772940 0.000000 0.011220 
#    y 0.000000 1.806370 0.000000 
#    z 0.011220 0.000000 1.772120 
# 
# From -- ./inp_files/215920.got.cif
#   From: 2010.06.25/outbox.cif.g09.slc.cpg/sg12_108_cif.got.tgz:215920.got - 2010.06.28 00:19:55.
