data_PCOD8103397
_publ_section_title
;
Structure prediction by ZEFSAII (Michael W. Deem and Ramdas Pophale) SiO2 
 PCOD8103397
Probable space group: C 2/M
;
_chemical_formula_sum "Si O2"
_cell_formula_units_Z 56
_cell_length_a 14.796759
_cell_length_b 9.170711
_cell_length_c 24.071299
_cell_angle_alpha 90.000000
_cell_angle_beta 117.219159
_cell_angle_gamma 90.000000
_cell_volume 2904.688669
_symmetry_space_group_name_H-M "C 2/M"
_symmetry_group_IT_number 12
_symmetry_cell_setting 'monoclinic'
loop_
_space_group_symop_operation_xyz
x,y,z
-x,y,-z
-x,-y,-z
x,-y,z
1/2+x,1/2+y,z
1/2-x,1/2+y,-z
1/2-x,1/2-y,-z
1/2+x,1/2-y,z
loop_
_atom_site_type_symbol
_atom_site_label
_atom_site_fract_x
_atom_site_fract_y
_atom_site_fract_z
Si Si1 0.657836 0.832048 0.501951
Si Si2 0.681932 0.167133 0.937259
Si Si3 0.723009 0.333457 0.360025
Si Si4 0.732040 0.672416 0.155499
Si Si5 0.688278 0.671421 0.714797
Si Si6 0.963329 0.169543 0.613435
Si Si7 0.469698 0.831724 0.929421
O O1 0.750000 0.750000 0.500000
O O2 0.675507 0.817121 0.573107
O O3 0.555098 0.757648 0.449590
O O4 0.658185 0.000000 0.483979
O O5 0.706144 0.219074 0.881951
O O6 0.563657 0.194615 0.914871
O O7 0.711312 0.000000 0.953385
O O8 0.750000 0.250000 0.000000
O O9 0.712387 0.500000 0.336454
O O10 0.734872 0.228751 0.310702
O O11 0.621291 0.286673 0.364557
O O12 0.731020 0.500000 0.164907
O O13 0.788698 0.749645 0.221548
O O14 0.617480 0.728410 0.118221
O O15 0.705045 0.500000 0.726313
O O16 0.573033 0.711803 0.667261
O O17 0.954588 0.000000 0.596358
O O18 0.433575 0.000000 0.918901
O O19 0.500000 0.783903 0.000000
#
# Coordination Sequence:
#
# PCOD8103397 Si02
#       7
#     8   8   8   8   8   8   8
#     4   9  17  31  55  85 115 149 189 237 290 342
#     4  10  21  37  60  89 117 147 182 224 277 332
#     4   9  19  37  58  82 115 150 190 238 289 341
#     4  11  24  40  58  84 118 151 191 236 280 338
#     4  11  24  40  58  81 112 153 197 238 285 341
#     4   9  20  38  58  82 115 152 192 238 289 344
#     4  10  20  37  62  89 118 149 182 226 278 332
#
# _framework density 19.279174999999999
#
# number of rings (size 3 to 8) (size 9 to 14) (size 15 to 20)
#    0.000    2.143    1.429    2.143    0.000    7.143 
#    0.000    5.714    0.000    0.000    0.000    0.000 
#    0.000    0.000    0.000    0.000    0.000    0.000 
#
# Total GULP energy -347207.488409 kJ/mol
# GULP energy per Si atom -12400.267443 kJ/mol
# Density = 1.923529 g / cm^3
# Si number density = 19.279175 Si / 1000 Ang^3
#
#
#
# Elastic Constant Matrix: (Units=GPa)
#
#
# Indices 1 2 3 4 5 6 
#
# 1 66.4482 20.0820 19.9363 0.0000 -6.1923 0.0000
# 2 20.0820 74.0131 41.0328 0.0000 -2.8827 0.0000
# 3 19.9363 41.0328 85.0474 0.0000 -4.3192 0.0000
# 4 0.0000 0.0000 0.0000 40.4455 0.0000 1.7324
# 5 -6.1923 -2.8827 -4.3192 0.0000 29.6747 0.0000
# 6 0.0000 0.0000 0.0000 1.7324 0.0000 25.5223
#
#
#
# Elastic Compliance Matrix: (Units=1/GPa)
#
#
# Indices 1 2 3 4 5 6 
#
# 1 0.016979 -0.003234 -0.002273 0.000000 0.002898 0.000000
# 2 -0.003234 0.019068 -0.008444 0.000000 -0.000052 0.000000
# 3 -0.002273 -0.008444 0.016421 0.000000 0.001095 0.000000
# 4 0.000000 0.000000 0.000000 0.024797 0.000000 -0.001683
# 5 0.002898 -0.000052 0.001095 0.000000 0.034458 0.000000
# 6 0.000000 0.000000 0.000000 -0.001683 0.000000 0.039296
#
#
# Mechanical properties :
#
#
# Convention : Reuss Voigt Hill
#
# Bulk Modulus (GPa) = 40.70731 43.06786 41.88759
# Shear Modulus (GPa) = 26.72255 28.75901 27.74078
#
# Velocity S-wave (km/s) = 3.72705 3.86646 3.79740
# Velocity P-wave (km/s) = 6.29934 6.50540 6.40320
#
# Compressibility (1/GPa) = 0.02456561
#
# Stress axis : x y z
#
# Youngs Moduli (GPa) = 58.89766 52.44357 60.89912
#
# Poissons Ratio (x) = 0.16961 0.13839
# Poissons Ratio (y) = 0.19048 0.51425
# Poissons Ratio (z) = 0.13385 0.44285
#
# Static dielectric constant tensor:
#      x y z
#    x 3.525550 0.000000 -0.012290 
#    y 0.000000 3.598080 0.000000 
#    z -0.012290 0.000000 3.506520 
# 
# 
# High freq. dielectric constant tensor:
#      x y z
#    x 1.748580 0.000000 -0.000100 
#    y 0.000000 1.753720 0.000000 
#    z -0.000100 0.000000 1.750860 
# 
# From -- ./inp_files/338499.got.cif
#   From: 2010.06.25/outbox.cif.g09.slc.cpg/sg12_170_cif.got.tgz:338499.got - 2010.06.28 00:19:55.
