data_PCOD8103390
_publ_section_title
;
Structure prediction by ZEFSAII (Michael W. Deem and Ramdas Pophale) SiO2 
 PCOD8103390
Probable space group: C 2/M
;
_chemical_formula_sum "Si O2"
_cell_formula_units_Z 40
_cell_length_a 22.713029
_cell_length_b 10.807510
_cell_length_c 11.479566
_cell_angle_alpha 90.000000
_cell_angle_beta 43.398268
_cell_angle_gamma 90.000000
_cell_volume 1936.084651
_symmetry_space_group_name_H-M "C 2/M"
_symmetry_group_IT_number 12
_symmetry_cell_setting 'monoclinic'
loop_
_space_group_symop_operation_xyz
x,y,z
-x,y,-z
-x,-y,-z
x,-y,z
1/2+x,1/2+y,z
1/2-x,1/2+y,-z
1/2-x,1/2-y,-z
1/2+x,1/2-y,z
loop_
_atom_site_type_symbol
_atom_site_label
_atom_site_fract_x
_atom_site_fract_y
_atom_site_fract_z
Si Si1 0.903384 0.853473 0.639644
Si Si2 0.034931 0.862342 0.821354
Si Si3 0.661349 0.134341 0.628576
Si Si4 0.357942 0.640479 0.955845
Si Si5 0.260643 0.741760 0.684382
O O1 0.852582 0.812956 0.829985
O O2 0.851643 0.804246 0.602780
O O3 0.000000 0.798297 0.500000
O O4 0.908366 0.000000 0.625619
O O5 0.099969 0.751896 0.704366
O O6 0.957879 0.849941 0.842139
O O7 0.077322 0.000000 0.747003
O O8 0.000000 0.845405 0.000000
O O9 0.724086 0.142906 0.425712
O O10 0.714567 0.136716 0.672684
O O11 0.614492 0.000000 0.691770
O O12 0.324972 0.500000 0.015815
O O13 0.301150 0.725138 0.120327
#
# Coordination Sequence:
#
# PCOD8103390 Si02
#       5
#     8   8   8   8   8
#     4  10  21  38  61  86 114 152 203 255 300 353
#     4  10  20  38  63  89 118 158 202 243 293 359
#     4  11  24  38  59  90 126 163 199 249 302 353
#     4  10  20  37  62  89 116 154 201 247 296 359
#     4  11  22  38  58  85 122 160 202 246 299 361
#
# _framework density 20.660253000000001
#
# number of rings (size 3 to 8) (size 9 to 14) (size 15 to 20)
#    0.000    1.600    2.000    3.000    0.000    6.000 
#    0.000    0.000    0.000   13.200    0.000    0.000 
#    0.000    0.000    0.000    0.000    0.000    0.000 
#
# Total GULP energy -247891.540251 kJ/mol
# GULP energy per Si atom -12394.577013 kJ/mol
# Density = 2.061323 g / cm^3
# Si number density = 20.660253 Si / 1000 Ang^3
#
#
#
# Elastic Constant Matrix: (Units=GPa)
#
#
# Indices 1 2 3 4 5 6 
#
# 1 100.7656 17.7748 43.2682 0.0000 17.8023 0.0000
# 2 17.7748 111.6876 52.7089 0.0000 2.7003 0.0000
# 3 43.2682 52.7089 100.2949 0.0000 6.9250 0.0000
# 4 0.0000 0.0000 0.0000 39.8960 0.0000 -11.5146
# 5 17.8023 2.7003 6.9250 0.0000 31.1635 0.0000
# 6 0.0000 0.0000 0.0000 -11.5146 0.0000 19.0546
#
#
#
# Elastic Compliance Matrix: (Units=1/GPa)
#
#
# Indices 1 2 3 4 5 6 
#
# 1 0.013386 0.000719 -0.005708 0.000000 -0.006441 0.000000
# 2 0.000719 0.011949 -0.006591 0.000000 0.000018 0.000000
# 3 -0.005708 -0.006591 0.015876 0.000000 0.000304 0.000000
# 4 0.000000 0.000000 0.000000 0.030360 0.000000 0.018347
# 5 -0.006441 0.000018 0.000304 0.000000 0.035699 0.000000
# 6 0.000000 0.000000 0.000000 0.018347 0.000000 0.063568
#
#
# Mechanical properties :
#
#
# Convention : Reuss Voigt Hill
#
# Bulk Modulus (GPa) = 55.39874 60.02798 57.71336
# Shear Modulus (GPa) = 24.99799 31.28922 28.14360
#
# Velocity S-wave (km/s) = 3.48222 3.89583 3.69482
# Velocity P-wave (km/s) = 6.56050 7.02528 6.79686
#
# Compressibility (1/GPa) = 0.01805095
#
# Stress axis : x y z
#
# Youngs Moduli (GPa) = 74.70444 83.68678 62.98744
#
# Poissons Ratio (x) = -0.06019 0.35954
# Poissons Ratio (y) = -0.05373 0.41517
# Poissons Ratio (z) = 0.42642 0.55161
#
# Static dielectric constant tensor:
#      x y z
#    x 4.037970 0.000000 0.117250 
#    y 0.000000 3.456780 0.000000 
#    z 0.117250 0.000000 3.823960 
# 
# 
# High freq. dielectric constant tensor:
#      x y z
#    x 1.822810 0.000000 0.017720 
#    y 0.000000 1.780780 0.000000 
#    z 0.017720 0.000000 1.814200 
# 
# From -- ./inp_files/140804.got.cif
#   From: 2010.06.25/outbox.cif.g09.slc.cpg/sg12_71_cif.got.tgz:140804.got - 2010.06.28 00:19:55.
