data_PCOD8103515
_publ_section_title
;
Structure prediction by ZEFSAII (Michael W. Deem and Ramdas Pophale) SiO2 
 PCOD8103515
Probable space group: C 2/M
;
_chemical_formula_sum "Si O2"
_cell_formula_units_Z 56
_cell_length_a 25.082586
_cell_length_b 16.995769
_cell_length_c 5.377987
_cell_angle_alpha 90.000000
_cell_angle_beta 100.012571
_cell_angle_gamma 90.000000
_cell_volume 2257.706713
_symmetry_space_group_name_H-M "C 2/M"
_symmetry_group_IT_number 12
_symmetry_cell_setting 'monoclinic'
loop_
_space_group_symop_operation_xyz
x,y,z
-x,y,-z
-x,-y,-z
x,-y,z
1/2+x,1/2+y,z
1/2-x,1/2+y,-z
1/2-x,1/2-y,-z
1/2+x,1/2-y,z
loop_
_atom_site_type_symbol
_atom_site_label
_atom_site_fract_x
_atom_site_fract_y
_atom_site_fract_z
Si Si1 0.533267 0.137859 0.775510
Si Si2 0.378138 0.413472 0.917983
Si Si3 0.177157 0.803588 0.459028
Si Si4 0.184535 0.500000 0.398175
Si Si5 0.270405 0.586819 0.106463
Si Si6 0.117092 0.500000 0.849385
Si Si7 0.716022 0.153237 0.644849
Si Si8 0.966739 0.819149 0.223909
O O1 0.500000 0.118958 0.500000
O O2 0.583860 0.080545 0.810763
O O3 0.552595 0.228692 0.786308
O O4 0.500000 0.120651 0.000000
O O5 0.401714 0.500000 0.855308
O O6 0.376276 0.347096 0.693986
O O7 0.316095 0.430108 0.936285
O O8 0.414069 0.375991 0.169441
O O9 0.200439 0.850732 0.705062
O O10 0.227011 0.798344 0.303545
O O11 0.166165 0.713577 0.545402
O O12 0.154601 0.500000 0.638537
O O13 0.217772 0.584097 0.433864
O O14 0.144920 0.500000 0.137783
O O15 0.255895 0.500000 0.216813
O O16 0.214896 0.615851 0.922071
O O17 0.000000 0.840738 0.500000
O O18 0.000000 0.837554 0.000000
#
# Coordination Sequence:
#
# PCOD8103515 Si02
#       8
#     8   8   8   4   8   4   8   8
#     4  10  21  43  71  94 128 173 223 269 320 392
#     4  10  23  40  61  96 121 159 218 270 323 389
#     4  10  22  39  66  85 121 173 227 266 319 385
#     4  12  28  41  62 102 142 176 208 277 328 382
#     4  10  20  37  63  88 121 167 221 268 318 382
#     4  12  26  41  66 102 134 176 220 265 334 374
#     4  10  23  40  57  91 127 173 221 265 328 379
#     4  10  24  43  67  97 132 171 208 268 339 392
#
# _framework density 24.803930000000001
#
# number of rings (size 3 to 8) (size 9 to 14) (size 15 to 20)
#    0.000    1.714    0.714    2.143    8.000    1.714 
#    0.000    0.000    0.000    0.000    0.000    0.000 
#    0.000    0.000    0.000    0.000    0.000    0.000 
#
# Total GULP energy -346946.516821 kJ/mol
# GULP energy per Si atom -12390.947029 kJ/mol
# Density = 2.474748 g / cm^3
# Si number density = 24.803930 Si / 1000 Ang^3
#
#
#
# Elastic Constant Matrix: (Units=GPa)
#
#
# Indices 1 2 3 4 5 6 
#
# 1 35.9368 27.1159 19.7823 0.0000 12.9311 0.0000
# 2 27.1159 191.9635 82.2814 0.0000 30.7995 0.0000
# 3 19.7823 82.2814 191.2111 0.0000 23.6609 0.0000
# 4 0.0000 0.0000 0.0000 28.4559 0.0000 0.7231
# 5 12.9311 30.7995 23.6609 0.0000 36.0361 0.0000
# 6 0.0000 0.0000 0.0000 0.7231 0.0000 18.0507
#
#
#
# Elastic Compliance Matrix: (Units=1/GPa)
#
#
# Indices 1 2 3 4 5 6 
#
# 1 0.033834 -0.002843 -0.001171 0.000000 -0.008943 0.000000
# 2 -0.002843 0.007197 -0.002360 0.000000 -0.003582 0.000000
# 3 -0.001171 -0.002360 0.006601 0.000000 -0.001897 0.000000
# 4 0.000000 0.000000 0.000000 0.035178 0.000000 -0.001409
# 5 -0.008943 -0.003582 -0.001897 0.000000 0.035266 0.000000
# 6 0.000000 0.000000 0.000000 -0.001409 0.000000 0.055456
#
#
# Mechanical properties :
#
#
# Convention : Reuss Voigt Hill
#
# Bulk Modulus (GPa) = 28.66474 75.27450 51.96962
# Shear Modulus (GPa) = 25.26451 35.83734 30.55092
#
# Velocity S-wave (km/s) = 3.19496 3.80521 3.51336
# Velocity P-wave (km/s) = 5.01917 7.05123 6.12013
#
# Compressibility (1/GPa) = 0.03488606
#
# Stress axis : x y z
#
# Youngs Moduli (GPa) = 29.55631 138.94752 151.48952
#
# Poissons Ratio (x) = 0.39498 0.17732
# Poissons Ratio (y) = 0.08402 0.35746
# Poissons Ratio (z) = 0.03460 0.32787
#
# Static dielectric constant tensor:
#      x y z
#    x 4.597980 0.000000 -0.191350 
#    y 0.000000 5.280840 0.000000 
#    z -0.191350 0.000000 4.674230 
# 
# 
# High freq. dielectric constant tensor:
#      x y z
#    x 1.959580 0.000000 -0.010120 
#    y 0.000000 2.014860 0.000000 
#    z -0.010120 0.000000 2.004540 
# 
# From -- ./inp_files/32110.got.cif
#   From: 2010.06.25/outbox.cif.g09.slc.cpg/sg12_17_cif.got.tgz:32110.got - 2010.06.28 00:19:55.
