data_PCOD8103189
_publ_section_title
;
Structure prediction by ZEFSAII (Michael W. Deem and Ramdas Pophale) SiO2 
 PCOD8103189
Probable space group: C 2/M
;
_chemical_formula_sum "Si O2"
_cell_formula_units_Z 48
_cell_length_a 20.521128
_cell_length_b 13.769968
_cell_length_c 14.614390
_cell_angle_alpha 90.000000
_cell_angle_beta 142.024109
_cell_angle_gamma 90.000000
_cell_volume 2541.106282
_symmetry_space_group_name_H-M "C 2/M"
_symmetry_group_IT_number 12
_symmetry_cell_setting 'monoclinic'
loop_
_space_group_symop_operation_xyz
x,y,z
-x,y,-z
-x,-y,-z
x,-y,z
1/2+x,1/2+y,z
1/2-x,1/2+y,-z
1/2-x,1/2-y,-z
1/2+x,1/2-y,z
loop_
_atom_site_type_symbol
_atom_site_label
_atom_site_fract_x
_atom_site_fract_y
_atom_site_fract_z
Si Si1 0.497211 0.887051 0.105469
Si Si2 0.130094 0.275590 0.891102
Si Si3 0.205590 0.890202 0.207319
Si Si4 0.417431 0.889386 0.335139
Si Si5 0.471404 0.609384 0.133180
Si Si6 0.168837 0.766620 0.329393
O O1 0.394710 0.835426 0.041082
O O2 0.604256 0.833685 0.255424
O O3 0.499784 0.000000 0.136576
O O4 0.500000 0.874314 0.000000
O O5 0.069862 0.332323 0.744868
O O6 0.077246 0.170592 0.838170
O O7 0.250000 0.250000 0.000000
O O8 0.296665 0.880357 0.232715
O O9 0.228593 0.801655 0.303363
O O10 0.209326 0.000000 0.254166
O O11 0.092894 0.874175 0.032643
O O12 0.500000 0.845478 0.500000
O O13 0.449557 0.000000 0.350353
O O14 0.465953 0.500000 0.160351
O O15 0.592387 0.640476 0.255549
O O16 0.250000 0.750000 0.500000
#
# Coordination Sequence:
#
# PCOD8103189 Si02
#       6
#     8   8   8   8   8   8
#     4  10  23  41  61  86 121 161 200 243 296 364
#     4  11  21  37  63  90 120 158 199 253 296 358
#     4  10  20  37  61  87 116 153 201 251 302 356
#     4  10  22  37  59  90 122 153 196 253 306 354
#     4  10  21  38  59  86 116 152 199 245 297 355
#     4  11  23  36  58  86 116 156 195 249 301 356
#
# _framework density 18.889410999999999
#
# number of rings (size 3 to 8) (size 9 to 14) (size 15 to 20)
#    0.000    1.667    1.667    3.500    4.667    3.333 
#    0.000    0.000    0.000    0.500    0.000    0.000 
#    0.000    0.000    0.000    0.000    0.000    0.000 
#
# Total GULP energy -297409.856424 kJ/mol
# GULP energy per Si atom -12392.077351 kJ/mol
# Density = 1.884642 g / cm^3
# Si number density = 18.889411 Si / 1000 Ang^3
#
#
#
# Elastic Constant Matrix: (Units=GPa)
#
#
# Indices 1 2 3 4 5 6 
#
# 1 81.3151 50.2616 40.1014 0.0000 -12.7972 0.0000
# 2 50.2616 138.7828 49.1441 0.0000 -12.5223 0.0000
# 3 40.1014 49.1441 119.5720 0.0000 -3.4501 0.0000
# 4 0.0000 0.0000 0.0000 27.5949 0.0000 -3.2370
# 5 -12.7972 -12.5223 -3.4501 0.0000 25.6878 0.0000
# 6 0.0000 0.0000 0.0000 -3.2370 0.0000 34.5774
#
#
#
# Elastic Compliance Matrix: (Units=1/GPa)
#
#
# Indices 1 2 3 4 5 6 
#
# 1 0.018078 -0.004565 -0.004006 0.000000 0.006243 0.000000
# 2 -0.004565 0.009943 -0.002491 0.000000 0.002238 0.000000
# 3 -0.004006 -0.002491 0.010679 0.000000 -0.001776 0.000000
# 4 0.000000 0.000000 0.000000 0.036641 0.000000 0.003430
# 5 0.006243 0.002238 -0.001776 0.000000 0.042891 0.000000
# 6 0.000000 0.000000 0.000000 0.003430 0.000000 0.029242
#
#
# Mechanical properties :
#
#
# Convention : Reuss Voigt Hill
#
# Bulk Modulus (GPa) = 60.33160 68.74271 64.53715
# Shear Modulus (GPa) = 28.55119 30.91621 29.73370
#
# Velocity S-wave (km/s) = 3.89201 4.05000 3.97179
# Velocity P-wave (km/s) = 7.22535 7.63814 7.43461
#
# Compressibility (1/GPa) = 0.01657506
#
# Stress axis : x y z
#
# Youngs Moduli (GPa) = 55.31631 100.57542 93.63862
#
# Poissons Ratio (x) = 0.45914 0.37516
# Poissons Ratio (y) = 0.25252 0.23324
# Poissons Ratio (z) = 0.22162 0.25052
#
# Static dielectric constant tensor:
#      x y z
#    x 4.201300 0.000000 -0.141230 
#    y 0.000000 3.713770 0.000000 
#    z -0.141230 0.000000 3.299940 
# 
# 
# High freq. dielectric constant tensor:
#      x y z
#    x 1.744180 0.000000 0.001920 
#    y 0.000000 1.740740 0.000000 
#    z 0.001920 0.000000 1.714170 
# 
# From -- ./inp_files/167533.got.cif
#   From: 2010.06.25/outbox.cif.g09.slc.cpg/sg12_84_cif.got.tgz:167533.got - 2010.06.28 00:19:55.
