data_PCOD8103073
_publ_section_title
;
Structure prediction by ZEFSAII (Michael W. Deem and Ramdas Pophale) SiO2 
 PCOD8103073
Probable space group: C 2/M
;
_chemical_formula_sum "Si O2"
_cell_formula_units_Z 56
_cell_length_a 31.351992
_cell_length_b 8.916471
_cell_length_c 11.679514
_cell_angle_alpha 90.000000
_cell_angle_beta 56.507404
_cell_angle_gamma 90.000000
_cell_volume 2722.868346
_symmetry_space_group_name_H-M "C 2/M"
_symmetry_group_IT_number 12
_symmetry_cell_setting 'monoclinic'
loop_
_space_group_symop_operation_xyz
x,y,z
-x,y,-z
-x,-y,-z
x,-y,z
1/2+x,1/2+y,z
1/2-x,1/2+y,-z
1/2-x,1/2-y,-z
1/2+x,1/2-y,z
loop_
_atom_site_type_symbol
_atom_site_label
_atom_site_fract_x
_atom_site_fract_y
_atom_site_fract_z
Si Si1 0.318112 0.171433 0.144190
Si Si2 0.384855 0.175842 0.654705
Si Si3 0.195552 0.672025 0.577239
Si Si4 0.604456 0.322739 0.591164
Si Si5 0.512804 0.824559 0.849922
Si Si6 0.914285 0.322406 0.861516
Si Si7 0.732543 0.824445 0.142216
O O1 0.330948 0.181564 0.259168
O O2 0.266991 0.265637 0.195502
O O3 0.308065 0.000000 0.121226
O O4 0.365476 0.241797 0.003200
O O5 0.411220 0.265952 0.512231
O O6 0.411794 0.227295 0.732878
O O7 0.325562 0.219702 0.747269
O O8 0.393104 0.000000 0.621462
O O9 0.202045 0.500000 0.528080
O O10 0.250000 0.750000 0.500000
O O11 0.159760 0.755292 0.539557
O O12 0.607684 0.500000 0.589093
O O13 0.563182 0.266809 0.743635
O O14 0.466463 0.762672 0.840256
O O15 0.523192 0.000000 0.813259
O O16 0.500000 0.792023 0.000000
O O17 0.912227 0.500000 0.877114
O O18 0.739163 0.000000 0.119269
O O19 0.750000 0.750000 0.000000
#
# Coordination Sequence:
#
# PCOD8103073 Si02
#       7
#     8   8   8   8   8   8   8
#     4  10  20  37  60  88 119 153 199 252 302 358
#     4  10  21  39  61  85 119 162 209 254 300 364
#     4  11  23  40  64  91 123 160 204 252 302 366
#     4  12  26  42  61  88 127 165 201 251 309 367
#     4  10  21  41  69  94 117 154 206 255 309 373
#     4   9  18  36  62  89 115 150 201 254 302 359
#     4  11  21  34  56  86 123 163 201 246 297 356
#
# _framework density 20.566548000000001
#
# number of rings (size 3 to 8) (size 9 to 14) (size 15 to 20)
#    0.000    1.571    1.429    3.857    0.000    7.714 
#    0.000    4.286    0.000    0.000    0.000    0.000 
#    0.000    0.000    0.000    0.000    0.000    0.000 
#
# Total GULP energy -347338.599509 kJ/mol
# GULP energy per Si atom -12404.949982 kJ/mol
# Density = 2.051974 g / cm^3
# Si number density = 20.566548 Si / 1000 Ang^3
#
#
#
# Elastic Constant Matrix: (Units=GPa)
#
#
# Indices 1 2 3 4 5 6 
#
# 1 135.7439 42.0175 41.4717 0.0000 4.1375 0.0000
# 2 42.0175 88.5393 49.8222 0.0000 -1.5816 0.0000
# 3 41.4717 49.8222 105.0926 0.0000 6.8146 0.0000
# 4 0.0000 0.0000 0.0000 30.0115 0.0000 -3.4066
# 5 4.1375 -1.5816 6.8146 0.0000 33.3825 0.0000
# 6 0.0000 0.0000 0.0000 -3.4066 0.0000 26.4746
#
#
#
# Elastic Compliance Matrix: (Units=1/GPa)
#
#
# Indices 1 2 3 4 5 6 
#
# 1 0.008978 -0.003155 -0.001992 0.000000 -0.000856 0.000000
# 2 -0.003155 0.016681 -0.006830 0.000000 0.002576 0.000000
# 3 -0.001992 -0.006830 0.013726 0.000000 -0.002879 0.000000
# 4 0.000000 0.000000 0.000000 0.033814 0.000000 0.004351
# 5 -0.000856 0.002576 -0.002879 0.000000 0.030772 0.000000
# 6 0.000000 0.000000 0.000000 0.004351 0.000000 0.038332
#
#
# Mechanical properties :
#
#
# Convention : Reuss Voigt Hill
#
# Bulk Modulus (GPa) = 64.80308 66.22209 65.51258
# Shear Modulus (GPa) = 29.17143 31.04470 30.10807
#
# Velocity S-wave (km/s) = 3.77024 3.88941 3.83029
# Velocity P-wave (km/s) = 7.10847 7.24147 7.17528
#
# Compressibility (1/GPa) = 0.01543137
#
# Stress axis : x y z
#
# Youngs Moduli (GPa) = 111.38330 59.94788 72.85440
#
# Poissons Ratio (x) = 0.18915 0.14510
# Poissons Ratio (y) = 0.35144 0.49760
# Poissons Ratio (z) = 0.22183 0.40945
#
# Static dielectric constant tensor:
#      x y z
#    x 3.902310 0.000000 0.099900 
#    y 0.000000 3.539250 0.000000 
#    z 0.099900 0.000000 3.770810 
# 
# 
# High freq. dielectric constant tensor:
#      x y z
#    x 1.811520 0.000000 0.008680 
#    y 0.000000 1.778970 0.000000 
#    z 0.008680 0.000000 1.816090 
# 
# From -- ./inp_files/187180.got.cif
#   From: 2010.06.25/outbox.cif.g09.slc.cpg/sg12_94_cif.got.tgz:187180.got - 2010.06.28 00:19:55.
