data_PCOD8103991
_publ_section_title
;
Structure prediction by ZEFSAII (Michael W. Deem and Ramdas Pophale) SiO2 
 PCOD8103991
Probable space group: C 2/M
;
_chemical_formula_sum "Si O2"
_cell_formula_units_Z 64
_cell_length_a 25.604344
_cell_length_b 8.931789
_cell_length_c 14.080023
_cell_angle_alpha 90.000000
_cell_angle_beta 85.638577
_cell_angle_gamma 90.000000
_cell_volume 3210.672512
_symmetry_space_group_name_H-M "C 2/M"
_symmetry_group_IT_number 12
_symmetry_cell_setting 'monoclinic'
loop_
_space_group_symop_operation_xyz
x,y,z
-x,y,-z
-x,-y,-z
x,-y,z
1/2+x,1/2+y,z
1/2-x,1/2+y,-z
1/2-x,1/2-y,-z
1/2+x,1/2-y,z
loop_
_atom_site_type_symbol
_atom_site_label
_atom_site_fract_x
_atom_site_fract_y
_atom_site_fract_z
Si Si1 0.022980 0.175532 0.397166
Si Si2 0.130253 0.669924 0.395410
Si Si3 0.500525 0.172326 0.788201
Si Si4 0.090277 0.176746 0.892639
Si Si5 0.606136 0.173694 0.089216
Si Si6 0.297778 0.171303 0.441587
Si Si7 0.803297 0.675583 0.790731
Si Si8 0.690500 0.677747 0.759740
O O1 0.083823 0.214597 0.386371
O O2 0.000000 0.233035 0.500000
O O3 0.991961 0.256430 0.316628
O O4 0.014920 0.000000 0.385143
O O5 0.111010 0.500000 0.375741
O O6 0.151301 0.681825 0.499024
O O7 0.176210 0.717848 0.316866
O O8 0.538253 0.251534 0.857653
O O9 0.440826 0.193676 0.829516
O O10 0.516667 0.000000 0.780742
O O11 0.141282 0.231705 0.828072
O O12 0.084451 0.000000 0.888773
O O13 0.095598 0.226182 0.999869
O O14 0.658713 0.239529 0.132158
O O15 0.611372 0.000000 0.058389
O O16 0.250000 0.250000 0.500000
O O17 0.313861 0.251082 0.342801
O O18 0.282165 0.000000 0.423948
O O19 0.804543 0.500000 0.804294
O O20 0.743509 0.734533 0.805958
O O21 0.692091 0.500000 0.746479
#
# Coordination Sequence:
#
# PCOD8103991 Si02
#       8
#     8   8   8   8   8   8   8   8
#     4  11  25  41  59  90 128 161 194 244 309 361
#     4  10  20  38  61  86 117 159 205 245 295 359
#     4  11  23  42  67  91 118 160 209 251 298 363
#     4  11  25  41  60  90 126 161 198 250 316 365
#     4  10  21  40  66  90 113 151 206 258 306 364
#     4  11  22  36  59  89 120 158 203 245 291 351
#     4   9  17  37  64  87 116 156 200 247 295 353
#     4  10  22  41  61  85 124 166 201 246 305 364
#
# _framework density 19.933517999999999
#
# number of rings (size 3 to 8) (size 9 to 14) (size 15 to 20)
#    0.000    1.625    2.500    1.875    1.750    6.000 
#    0.000    0.625    0.000    0.000    0.000    0.000 
#    0.000    0.000    0.000    0.000    0.000    0.000 
#
# Total GULP energy -396885.074869 kJ/mol
# GULP energy per Si atom -12402.658590 kJ/mol
# Density = 1.988815 g / cm^3
# Si number density = 19.933518 Si / 1000 Ang^3
#
#
#
# Elastic Constant Matrix: (Units=GPa)
#
#
# Indices 1 2 3 4 5 6 
#
# 1 71.3405 19.7165 17.7527 0.0000 14.7332 0.0000
# 2 19.7165 59.4300 34.8018 0.0000 -0.6471 0.0000
# 3 17.7527 34.8018 111.2197 0.0000 12.7938 0.0000
# 4 0.0000 0.0000 0.0000 37.7460 0.0000 1.6012
# 5 14.7332 -0.6471 12.7938 0.0000 34.8284 0.0000
# 6 0.0000 0.0000 0.0000 1.6012 0.0000 23.6821
#
#
#
# Elastic Compliance Matrix: (Units=1/GPa)
#
#
# Indices 1 2 3 4 5 6 
#
# 1 0.017129 -0.005698 -0.000110 0.000000 -0.007312 0.000000
# 2 -0.005698 0.022776 -0.006832 0.000000 0.005343 0.000000
# 3 -0.000110 -0.006832 0.011648 0.000000 -0.004359 0.000000
# 4 0.000000 0.000000 0.000000 0.026569 0.000000 -0.001796
# 5 -0.007312 0.005343 -0.004359 0.000000 0.033506 0.000000
# 6 0.000000 0.000000 0.000000 -0.001796 0.000000 0.042347
#
#
# Mechanical properties :
#
#
# Convention : Reuss Voigt Hill
#
# Bulk Modulus (GPa) = 38.06167 42.94802 40.50484
# Shear Modulus (GPa) = 26.59386 30.56589 28.57988
#
# Velocity S-wave (km/s) = 3.65653 3.92010 3.79061
# Velocity P-wave (km/s) = 6.07970 6.48706 6.28668
#
# Compressibility (1/GPa) = 0.02627315
#
# Stress axis : x y z
#
# Youngs Moduli (GPa) = 58.37903 43.90630 85.85159
#
# Poissons Ratio (x) = 0.25018 0.00946
# Poissons Ratio (y) = 0.33264 0.58653
# Poissons Ratio (z) = 0.00643 0.29996
#
# Static dielectric constant tensor:
#      x y z
#    x 3.851100 0.000000 0.112830 
#    y 0.000000 3.507910 0.000000 
#    z 0.112830 0.000000 3.864450 
# 
# 
# High freq. dielectric constant tensor:
#      x y z
#    x 1.785210 0.000000 0.009740 
#    y 0.000000 1.765070 0.000000 
#    z 0.009740 0.000000 1.785600 
# 
# From -- ./inp_files/238739.got.cif
#   From: 2010.06.25/outbox.cif.g09.slc.cpg/sg12_120_cif.got.tgz:238739.got - 2010.06.28 00:19:55.
