data_PCOD8103086
_publ_section_title
;
Structure prediction by ZEFSAII (Michael W. Deem and Ramdas Pophale) SiO2 
 PCOD8103086
Probable space group: C 2/M
;
_chemical_formula_sum "Si O2"
_cell_formula_units_Z 48
_cell_length_a 12.161042
_cell_length_b 13.578906
_cell_length_c 21.384824
_cell_angle_alpha 90.000000
_cell_angle_beta 35.401307
_cell_angle_gamma 90.000000
_cell_volume 2045.712524
_symmetry_space_group_name_H-M "C 2/M"
_symmetry_group_IT_number 12
_symmetry_cell_setting 'monoclinic'
loop_
_space_group_symop_operation_xyz
x,y,z
-x,y,-z
-x,-y,-z
x,-y,z
1/2+x,1/2+y,z
1/2-x,1/2+y,-z
1/2-x,1/2-y,-z
1/2+x,1/2-y,z
loop_
_atom_site_type_symbol
_atom_site_label
_atom_site_fract_x
_atom_site_fract_y
_atom_site_fract_z
Si Si1 0.633055 0.806185 0.998185
Si Si2 0.466915 0.397305 0.942384
Si Si3 0.153280 0.282137 0.377982
Si Si4 0.201751 0.389082 0.771731
Si Si5 0.608154 0.886368 0.278608
Si Si6 0.543626 0.689852 0.240022
O O1 0.669089 0.694974 0.012051
O O2 0.509542 0.875699 0.100646
O O3 0.500000 0.782028 0.000000
O O4 0.835276 0.843145 0.877949
O O5 0.373885 0.500000 0.961454
O O6 0.666741 0.379633 0.816841
O O7 0.500000 0.407637 0.000000
O O8 0.258132 0.184991 0.303224
O O9 0.040354 0.346805 0.378148
O O10 0.325836 0.342819 0.330500
O O11 0.000000 0.249439 0.500000
O O12 0.214165 0.500000 0.740585
O O13 0.369673 0.371454 0.743417
O O14 0.548993 0.809185 0.251717
O O15 0.541038 0.000000 0.295756
#
# Coordination Sequence:
#
# PCOD8103086 Si02
#       6
#     8   8   8   8   8   8
#     4   9  15  32  57  87 121 153 187 235 296 363
#     4   9  13  25  53  86 118 147 178 229 293 351
#     4  11  25  43  60  84 120 160 206 256 294 338
#     4  10  22  41  62  89 123 158 197 244 296 359
#     4  10  20  37  60  89 119 150 194 247 295 350
#     4  10  21  38  64  88 119 158 196 236 303 362
#
# _framework density 23.463705999999998
#
# number of rings (size 3 to 8) (size 9 to 14) (size 15 to 20)
#    0.000    2.167    6.667    0.000    0.000    8.333 
#    0.000    1.667    0.000    0.000    0.000    0.000 
#    0.000    0.000    0.000    0.000    0.000    0.000 
#
# Total GULP energy -297387.067317 kJ/mol
# GULP energy per Si atom -12391.127805 kJ/mol
# Density = 2.341030 g / cm^3
# Si number density = 23.463706 Si / 1000 Ang^3
#
#
#
# Elastic Constant Matrix: (Units=GPa)
#
#
# Indices 1 2 3 4 5 6 
#
# 1 69.3825 -7.9559 32.3849 0.0000 -3.6552 0.0002
# 2 -7.9559 95.7159 10.1980 0.0005 5.8197 0.0000
# 3 32.3849 10.1980 142.4927 0.0033 9.2903 -0.0002
# 4 0.0000 0.0005 0.0033 13.6837 -0.0004 -1.7999
# 5 -3.6552 5.8197 9.2903 -0.0004 31.5934 -0.0003
# 6 0.0002 0.0000 -0.0002 -1.7999 -0.0003 19.5328
#
#
#
# Elastic Compliance Matrix: (Units=1/GPa)
#
#
# Indices 1 2 3 4 5 6 
#
# 1 0.016659 0.001648 -0.004088 0.000001 0.002826 0.000000
# 2 0.001648 0.010787 -0.001050 0.000000 -0.001488 0.000000
# 3 -0.004088 -0.001050 0.008198 -0.000002 -0.002690 0.000000
# 4 0.000001 0.000000 -0.000002 0.073976 0.000002 0.006817
# 5 0.002826 -0.001488 -0.002690 0.000002 0.033044 0.000001
# 6 0.000000 0.000000 0.000000 0.006817 0.000001 0.051824
#
#
# Mechanical properties :
#
#
# Convention : Reuss Voigt Hill
#
# Bulk Modulus (GPa) = 34.88654 41.87170 38.37912
# Shear Modulus (GPa) = 23.69420 31.15958 27.42689
#
# Velocity S-wave (km/s) = 3.18122 3.64811 3.42264
# Velocity P-wave (km/s) = 5.32861 5.96901 5.65788
#
# Compressibility (1/GPa) = 0.02866435
#
# Stress axis : x y z
#
# Youngs Moduli (GPa) = 60.02746 92.70515 121.98679
#
# Poissons Ratio (x) = -0.15282 0.49873
# Poissons Ratio (y) = -0.09895 0.12805
# Poissons Ratio (z) = 0.24542 0.09731
#
# Static dielectric constant tensor:
#      x y z
#    x 4.411430 0.000000 0.163770 
#    y 0.000000 4.409470 0.000000 
#    z 0.163770 0.000000 4.079510 
# 
# 
# High freq. dielectric constant tensor:
#      x y z
#    x 1.950940 0.000000 0.012880 
#    y 0.000000 1.917810 0.000000 
#    z 0.012880 0.000000 1.900060 
# 
# From -- ./inp_files/214998.got.cif
#   From: 2010.06.25/outbox.cif.g09.slc.cpg/sg12_108_cif.got.tgz:214998.got - 2010.06.28 00:19:55.
