data_PCOD8103696
_publ_section_title
;
Structure prediction by ZEFSAII (Michael W. Deem and Ramdas Pophale) SiO2 
 PCOD8103696
Probable space group: C 2/M
;
_chemical_formula_sum "Si O2"
_cell_formula_units_Z 40
_cell_length_a 19.072599
_cell_length_b 22.027041
_cell_length_c 8.660624
_cell_angle_alpha 90.000000
_cell_angle_beta 150.531961
_cell_angle_gamma 90.000000
_cell_volume 1789.886834
_symmetry_space_group_name_H-M "C 2/M"
_symmetry_group_IT_number 12
_symmetry_cell_setting 'monoclinic'
loop_
_space_group_symop_operation_xyz
x,y,z
-x,y,-z
-x,-y,-z
x,-y,z
1/2+x,1/2+y,z
1/2-x,1/2+y,-z
1/2-x,1/2-y,-z
1/2+x,1/2-y,z
loop_
_atom_site_type_symbol
_atom_site_label
_atom_site_fract_x
_atom_site_fract_y
_atom_site_fract_z
Si Si1 0.675770 0.571409 0.540682
Si Si2 0.742066 0.730881 0.306258
Si Si3 0.629944 0.112479 0.352403
Si Si4 0.468662 0.316945 0.620543
Si Si5 0.558423 0.932668 0.763059
O O1 0.633839 0.500000 0.475367
O O2 0.739881 0.582769 0.492961
O O3 0.542202 0.615637 0.320796
O O4 0.794978 0.594791 0.891046
O O5 0.750000 0.750000 0.500000
O O6 0.817284 0.666022 0.435765
O O7 0.819415 0.781750 0.352409
O O8 0.583668 0.723085 0.934382
O O9 0.562234 0.062688 0.336254
O O10 0.500000 0.138320 0.000000
O O11 0.500000 0.324227 0.500000
O O12 0.500000 0.896490 0.500000
O O13 0.598968 0.000000 0.787999
#
# Coordination Sequence:
#
# PCOD8103696 Si02
#       5
#     8   8   8   8   8
#     4  10  22  42  66  97 142 185 225 277 338 412
#     4  12  25  46  71  97 133 177 228 285 343 406
#     4  10  20  37  67  97 130 176 225 279 332 399
#     4  12  28  46  69 103 136 182 227 285 348 410
#     4   9  19  35  61  97 134 176 224 274 331 397
#
# _framework density 22.34778
#
# number of rings (size 3 to 8) (size 9 to 14) (size 15 to 20)
#    0.000    1.400    2.000    3.000    5.600    3.600 
#    0.000    3.000    0.000    0.000    0.000    0.000 
#    0.000    0.000    0.000    0.000    0.000    0.000 
#
# Total GULP energy -247867.334686 kJ/mol
# GULP energy per Si atom -12393.366734 kJ/mol
# Density = 2.229692 g / cm^3
# Si number density = 22.347780 Si / 1000 Ang^3
#
#
#
# Elastic Constant Matrix: (Units=GPa)
#
#
# Indices 1 2 3 4 5 6 
#
# 1 128.5191 32.4239 37.7033 0.0000 2.6524 0.0000
# 2 32.4239 118.9352 33.8579 0.0000 14.0613 0.0000
# 3 37.7033 33.8579 80.9386 0.0000 -1.0924 0.0000
# 4 0.0000 0.0000 0.0000 27.1478 0.0000 4.7576
# 5 2.6524 14.0613 -1.0924 0.0000 30.3108 0.0000
# 6 0.0000 0.0000 0.0000 4.7576 0.0000 32.3193
#
#
#
# Elastic Compliance Matrix: (Units=1/GPa)
#
#
# Indices 1 2 3 4 5 6 
#
# 1 0.009235 -0.001429 -0.003708 0.000000 -0.000279 0.000000
# 2 -0.001429 0.010445 -0.003769 0.000000 -0.004856 0.000000
# 3 -0.003708 -0.003769 0.015694 0.000000 0.002639 0.000000
# 4 0.000000 0.000000 0.000000 0.037811 0.000000 -0.005566
# 5 -0.000279 -0.004856 0.002639 0.000000 0.035364 0.000000
# 6 0.000000 0.000000 0.000000 -0.005566 0.000000 0.031761
#
#
# Mechanical properties :
#
#
# Convention : Reuss Voigt Hill
#
# Bulk Modulus (GPa) = 56.94041 59.59590 58.26816
# Shear Modulus (GPa) = 30.49241 32.91609 31.70425
#
# Velocity S-wave (km/s) = 3.69785 3.84200 3.77062
# Velocity P-wave (km/s) = 6.61564 6.81225 6.71466
#
# Compressibility (1/GPa) = 0.01756222
#
# Stress axis : x y z
#
# Youngs Moduli (GPa) = 108.28347 95.74328 63.71660
#
# Poissons Ratio (x) = 0.13683 0.23625
# Poissons Ratio (y) = 0.15475 0.24015
# Poissons Ratio (z) = 0.40150 0.36085
#
# Static dielectric constant tensor:
#      x y z
#    x 4.028840 0.000000 -0.147310 
#    y 0.000000 3.971740 0.000000 
#    z -0.147310 0.000000 4.114720 
# 
# 
# High freq. dielectric constant tensor:
#      x y z
#    x 1.877190 0.000000 -0.006280 
#    y 0.000000 1.877890 0.000000 
#    z -0.006280 0.000000 1.872430 
# 
# From -- ./inp_files/39217.got.cif
#   From: 2010.06.25/outbox.cif.g09.slc.cpg/sg12_20_cif.got.tgz:39217.got - 2010.06.28 00:19:55.
