data_PCOD8103608
_publ_section_title
;
Structure prediction by ZEFSAII (Michael W. Deem and Ramdas Pophale) SiO2 
 PCOD8103608
Probable space group: C 2/M
;
_chemical_formula_sum "Si O2"
_cell_formula_units_Z 40
_cell_length_a 11.614206
_cell_length_b 20.156647
_cell_length_c 8.112545
_cell_angle_alpha 90.000000
_cell_angle_beta 99.060312
_cell_angle_gamma 90.000000
_cell_volume 1875.479008
_symmetry_space_group_name_H-M "C 2/M"
_symmetry_group_IT_number 12
_symmetry_cell_setting 'monoclinic'
loop_
_space_group_symop_operation_xyz
x,y,z
-x,y,-z
-x,-y,-z
x,-y,z
1/2+x,1/2+y,z
1/2-x,1/2+y,-z
1/2-x,1/2-y,-z
1/2+x,1/2-y,z
loop_
_atom_site_type_symbol
_atom_site_label
_atom_site_fract_x
_atom_site_fract_y
_atom_site_fract_z
Si Si1 0.165049 0.736408 0.785213
Si Si2 0.500000 0.704379 0.500000
Si Si3 0.783485 0.370378 0.769824
Si Si4 0.500000 0.831682 0.000000
Si Si5 0.356182 0.500000 0.152204
Si Si6 0.200167 0.134806 0.387239
Si Si7 0.375348 0.500000 0.767240
O O1 0.090895 0.747947 0.605760
O O2 0.231435 0.804632 0.849111
O O3 0.251893 0.677719 0.754116
O O4 0.081483 0.716342 0.913732
O O5 0.567536 0.657906 0.386464
O O6 0.709274 0.434815 0.798344
O O7 0.778445 0.359701 0.571232
O O8 0.917569 0.377505 0.863451
O O9 0.488090 0.500000 0.251483
O O10 0.358572 0.500000 0.957639
O O11 0.195241 0.060203 0.326167
#
# Coordination Sequence:
#
# PCOD8103608 Si02
#       7
#     8   4   8   4   4   8   4
#     4  11  22  39  63  93 125 162 208 254 306 367
#     4  10  20  37  64  91 124 162 204 258 306 361
#     4  11  24  40  63  91 124 164 210 255 304 365
#     4  12  24  39  62  89 128 168 204 260 310 355
#     4  11  25  42  62  95 126 158 201 253 314 373
#     4  11  22  40  65  94 124 162 209 253 303 368
#     4  11  23  41  66  91 126 160 197 257 316 365
#
# _framework density 21.327885999999999
#
# number of rings (size 3 to 8) (size 9 to 14) (size 15 to 20)
#    0.000    1.000    0.000    9.600    0.000    4.800 
#    0.000    1.000    0.000    4.200    0.000    0.000 
#    0.000    0.000    0.000    0.000    0.000    0.000 
#
# Total GULP energy -248008.690127 kJ/mol
# GULP energy per Si atom -12400.434506 kJ/mol
# Density = 2.127934 g / cm^3
# Si number density = 21.327886 Si / 1000 Ang^3
#
#
#
# Elastic Constant Matrix: (Units=GPa)
#
#
# Indices 1 2 3 4 5 6 
#
# 1 114.6686 63.9192 54.6182 0.0000 -3.5535 0.0000
# 2 63.9192 159.0341 37.7222 0.0000 -13.9857 0.0000
# 3 54.6182 37.7222 68.9341 0.0000 -4.0395 0.0000
# 4 0.0000 0.0000 0.0000 263.0818 0.0000 61.6855
# 5 -3.5535 -13.9857 -4.0395 0.0000 51.6013 0.0000
# 6 0.0000 0.0000 0.0000 61.6855 0.0000 53.9941
#
#
#
# Elastic Compliance Matrix: (Units=1/GPa)
#
#
# Indices 1 2 3 4 5 6 
#
# 1 0.015899 -0.003978 -0.010468 0.000000 -0.000803 0.000000
# 2 -0.003978 0.008365 -0.001315 0.000000 0.001890 0.000000
# 3 -0.010468 -0.001315 0.023565 0.000000 0.000768 0.000000
# 4 0.000000 0.000000 0.000000 0.005192 0.000000 -0.005931
# 5 -0.000803 0.001890 0.000768 0.000000 0.019896 0.000000
# 6 0.000000 0.000000 0.000000 -0.005931 0.000000 0.025297
#
#
# Mechanical properties :
#
#
# Convention : Reuss Voigt Hill
#
# Bulk Modulus (GPa) = 61.31886 72.79510 67.05698
# Shear Modulus (GPa) = 36.99027 86.16060 61.57544
#
# Velocity S-wave (km/s) = 4.16909 6.36285 5.37899
# Velocity P-wave (km/s) = 7.21027 9.39077 8.37182
#
# Compressibility (1/GPa) = 0.01630820
#
# Stress axis : x y z
#
# Youngs Moduli (GPa) = 62.89652 119.54732 42.43625
#
# Poissons Ratio (x) = 0.47555 0.44420
# Poissons Ratio (y) = 0.25020 0.05580
# Poissons Ratio (z) = 0.65837 0.15719
#
# Static dielectric constant tensor:
#      x y z
#    x 4.023680 0.000000 0.152760 
#    y 0.000000 3.863500 0.000000 
#    z 0.152760 0.000000 4.044940 
# 
# 
# High freq. dielectric constant tensor:
#      x y z
#    x 1.838460 0.000000 0.006710 
#    y 0.000000 1.835110 0.000000 
#    z 0.006710 0.000000 1.851780 
# 
# From -- ./inp_files/48856.got.cif
#   From: 2010.06.25/outbox.cif.g09.slc.cpg/sg12_25_cif.got.tgz:48856.got - 2010.06.28 00:19:55.
