data_PCOD8103550
_publ_section_title
;
Structure prediction by ZEFSAII (Michael W. Deem and Ramdas Pophale) SiO2 
 PCOD8103550
Probable space group: C 2/M
;
_chemical_formula_sum "Si O2"
_cell_formula_units_Z 48
_cell_length_a 24.290887
_cell_length_b 8.651508
_cell_length_c 11.506064
_cell_angle_alpha 90.000000
_cell_angle_beta 75.742529
_cell_angle_gamma 90.000000
_cell_volume 2343.553340
_symmetry_space_group_name_H-M "C 2/M"
_symmetry_group_IT_number 12
_symmetry_cell_setting 'monoclinic'
loop_
_space_group_symop_operation_xyz
x,y,z
-x,y,-z
-x,-y,-z
x,-y,z
1/2+x,1/2+y,z
1/2-x,1/2+y,-z
1/2-x,1/2-y,-z
1/2+x,1/2-y,z
loop_
_atom_site_type_symbol
_atom_site_label
_atom_site_fract_x
_atom_site_fract_y
_atom_site_fract_z
Si Si1 0.187112 0.181334 0.027667
Si Si2 0.597802 0.823052 0.497899
Si Si3 0.305503 0.679380 0.417632
Si Si4 0.525624 0.820277 0.750275
Si Si5 0.596183 0.819605 0.230108
Si Si6 0.865460 0.683399 0.173758
O O1 0.149994 0.243677 0.940708
O O2 0.193906 0.000000 0.014768
O O3 0.250000 0.250000 0.000000
O O4 0.151652 0.225986 0.161161
O O5 0.645863 0.704536 0.512812
O O6 0.542819 0.791184 0.606765
O O7 0.584456 0.790914 0.371574
O O8 0.618654 0.000000 0.506556
O O9 0.297595 0.500000 0.393589
O O10 0.250000 0.750000 0.500000
O O11 0.318157 0.768180 0.291320
O O12 0.461500 0.756429 0.803466
O O13 0.572899 0.751215 0.814482
O O14 0.522991 0.000000 0.777202
O O15 0.606586 0.000000 0.198262
O O16 0.865979 0.500000 0.161133
#
# Coordination Sequence:
#
# PCOD8103550 Si02
#       6
#     8   8   8   8   8   8
#     4  12  27  45  62  84 118 160 206 252 305 360
#     4   9  18  34  58  90 125 158 199 245 295 353
#     4  11  22  36  57  85 119 159 202 246 302 358
#     4   8  16  34  63  95 123 155 196 245 297 357
#     4  10  20  37  63  92 123 161 204 246 295 354
#     4  10  21  41  65  89 118 153 200 252 301 355
#
# _framework density 20.481718999999998
#
# number of rings (size 3 to 8) (size 9 to 14) (size 15 to 20)
#    0.000    2.000    0.000    5.000    2.333    3.333 
#    0.000    7.500    0.000    5.000    0.000    0.000 
#    0.000    0.000    0.000    0.000    0.000    0.000 
#
# Total GULP energy -297510.208872 kJ/mol
# GULP energy per Si atom -12396.258703 kJ/mol
# Density = 2.043510 g / cm^3
# Si number density = 20.481719 Si / 1000 Ang^3
#
#
#
# Elastic Constant Matrix: (Units=GPa)
#
#
# Indices 1 2 3 4 5 6 
#
# 1 101.2608 36.9193 55.4710 0.0000 -10.5688 0.0000
# 2 36.9193 96.0421 30.9011 0.0000 0.9208 0.0000
# 3 55.4710 30.9011 77.8386 0.0000 0.3636 0.0000
# 4 0.0000 0.0000 0.0000 32.9331 0.0000 -0.3103
# 5 -10.5688 0.9208 0.3636 0.0000 33.0114 0.0000
# 6 0.0000 0.0000 0.0000 -0.3103 0.0000 24.8893
#
#
#
# Elastic Compliance Matrix: (Units=1/GPa)
#
#
# Indices 1 2 3 4 5 6 
#
# 1 0.018039 -0.003263 -0.011587 0.000000 0.005994 0.000000
# 2 -0.003263 0.012530 -0.002642 0.000000 -0.001365 0.000000
# 3 -0.011587 -0.002642 0.022172 0.000000 -0.003880 0.000000
# 4 0.000000 0.000000 0.000000 0.030368 0.000000 0.000379
# 5 0.005994 -0.001365 -0.003880 0.000000 0.032292 0.000000
# 6 0.000000 0.000000 0.000000 0.000379 0.000000 0.040183
#
#
# Mechanical properties :
#
#
# Convention : Reuss Voigt Hill
#
# Bulk Modulus (GPa) = 56.32511 57.96936 57.14723
# Shear Modulus (GPa) = 25.44692 28.29009 26.86850
#
# Velocity S-wave (km/s) = 3.52862 3.72053 3.62585
# Velocity P-wave (km/s) = 6.64541 6.84258 6.74471
#
# Compressibility (1/GPa) = 0.01775407
#
# Stress axis : x y z
#
# Youngs Moduli (GPa) = 55.43684 79.80992 45.10221
#
# Poissons Ratio (x) = 0.26045 0.52262
# Poissons Ratio (y) = 0.18091 0.11917
# Poissons Ratio (z) = 0.64237 0.21087
#
# Static dielectric constant tensor:
#      x y z
#    x 4.069940 0.000000 0.035960 
#    y 0.000000 3.572560 0.000000 
#    z 0.035960 0.000000 3.722840 
# 
# 
# High freq. dielectric constant tensor:
#      x y z
#    x 1.811340 0.000000 -0.003170 
#    y 0.000000 1.776330 0.000000 
#    z -0.003170 0.000000 1.802290 
# 
# From -- ./inp_files/172924.got.cif
#   From: 2010.06.25/outbox.cif.g09.slc.cpg/sg12_87_cif.got.tgz:172924.got - 2010.06.28 00:19:55.
