data_PCOD8103715
_publ_section_title
;
Structure prediction by ZEFSAII (Michael W. Deem and Ramdas Pophale) SiO2 
 PCOD8103715
Probable space group: C 2/M
;
_chemical_formula_sum "Si O2"
_cell_formula_units_Z 36
_cell_length_a 25.264313
_cell_length_b 10.131308
_cell_length_c 15.272451
_cell_angle_alpha 90.000000
_cell_angle_beta 25.976695
_cell_angle_gamma 90.000000
_cell_volume 1712.227006
_symmetry_space_group_name_H-M "C 2/M"
_symmetry_group_IT_number 12
_symmetry_cell_setting 'monoclinic'
loop_
_space_group_symop_operation_xyz
x,y,z
-x,y,-z
-x,-y,-z
x,-y,z
1/2+x,1/2+y,z
1/2-x,1/2+y,-z
1/2-x,1/2-y,-z
1/2+x,1/2-y,z
loop_
_atom_site_type_symbol
_atom_site_label
_atom_site_fract_x
_atom_site_fract_y
_atom_site_fract_z
Si Si1 0.135672 0.787860 0.912444
Si Si2 0.264797 0.000000 0.616112
Si Si3 0.687924 0.000000 0.839424
Si Si4 0.540842 0.500000 0.609545
Si Si5 0.559010 0.500000 0.787236
Si Si6 0.032990 0.500000 0.235621
Si Si7 0.626622 0.737508 0.132089
O O1 0.136926 0.637124 0.871967
O O2 0.242681 0.869202 0.707034
O O3 0.156680 0.786604 0.985284
O O4 0.011650 0.867483 0.076583
O O5 0.188399 0.000000 0.640631
O O6 0.403657 0.000000 0.379523
O O7 0.833176 0.000000 0.629437
O O8 0.643554 0.000000 0.004175
O O9 0.578394 0.500000 0.655354
O O10 0.458930 0.623202 0.704073
O O11 0.048738 0.368438 0.268671
O O12 0.750000 0.750000 0.000000
#
# Coordination Sequence:
#
# PCOD8103715 Si02
#       7
#     8   4   4   4   4   4   8
#     4   9  19  36  59  83 112 148 190 235 285 348
#     4  11  20  40  60  81 112 154 198 240 283 337
#     4  10  20  38  53  80 118 146 181 238 285 332
#     4  10  20  38  62  84 114 154 193 230 285 353
#     4   9  20  39  61  80 108 155 197 238 288 337
#     4  10  22  37  56  81 116 151 188 242 286 335
#     4  10  20  38  59  85 116 148 185 237 290 342
#
# _framework density 21.02525
#
# number of rings (size 3 to 8) (size 9 to 14) (size 15 to 20)
#    0.000    2.222    0.000    4.000    0.000    0.000 
#    0.000   40.556    0.000    0.000    0.000    0.000 
#    0.000    0.000    0.000    0.000    0.000    0.000 
#
# Total GULP energy -223078.077775 kJ/mol
# GULP energy per Si atom -12393.226543 kJ/mol
# Density = 2.097740 g / cm^3
# Si number density = 21.025250 Si / 1000 Ang^3
#
#
#
# Elastic Constant Matrix: (Units=GPa)
#
#
# Indices 1 2 3 4 5 6 
#
# 1 72.5277 31.1658 45.3198 0.0000 -30.1579 0.0000
# 2 31.1658 219.5324 65.2911 0.0000 -23.4838 0.0000
# 3 45.3198 65.2911 158.1294 0.0000 -29.5519 0.0000
# 4 0.0000 0.0000 0.0000 14.0722 0.0000 -6.9306
# 5 -30.1579 -23.4838 -29.5519 0.0000 40.7007 0.0000
# 6 0.0000 0.0000 0.0000 -6.9306 0.0000 6.7401
#
#
#
# Elastic Compliance Matrix: (Units=1/GPa)
#
#
# Indices 1 2 3 4 5 6 
#
# 1 0.021736 -0.000632 -0.003502 0.000000 0.013198 0.000000
# 2 -0.000632 0.005311 -0.001766 0.000000 0.001313 0.000000
# 3 -0.003502 -0.001766 0.008540 0.000000 0.002587 0.000000
# 4 0.000000 0.000000 0.000000 0.143972 0.000000 0.148040
# 5 0.013198 0.001313 0.002587 0.000000 0.036985 0.000000
# 6 0.000000 0.000000 0.000000 0.148040 0.000000 0.300588
#
#
# Mechanical properties :
#
#
# Convention : Reuss Voigt Hill
#
# Bulk Modulus (GPa) = 42.04178 81.52701 61.78440
# Shear Modulus (GPa) = 9.31340 32.86345 21.08843
#
# Velocity S-wave (km/s) = 2.10695 3.95783 3.17046
# Velocity P-wave (km/s) = 5.09492 7.72954 6.54615
#
# Compressibility (1/GPa) = 0.02378586
#
# Stress axis : x y z
#
# Youngs Moduli (GPa) = 46.00760 188.30103 117.09247
#
# Poissons Ratio (x) = 0.11908 0.41004
# Poissons Ratio (y) = 0.02910 0.20679
# Poissons Ratio (z) = 0.16111 0.33255
#
# Static dielectric constant tensor:
#      x y z
#    x 3.400590 0.000000 0.068490 
#    y 0.000000 4.757290 0.000000 
#    z 0.068490 0.000000 3.694720 
# 
# 
# High freq. dielectric constant tensor:
#      x y z
#    x 1.788650 0.000000 -0.002550 
#    y 0.000000 1.852260 0.000000 
#    z -0.002550 0.000000 1.819540 
# 
# From -- ./inp_files/293055.got.cif
#   From: 2010.06.25/outbox.cif.g09.slc.cpg/sg12_147_cif.got.tgz:293055.got - 2010.06.28 00:19:55.
