data_PCOD8103384
_publ_section_title
;
Structure prediction by ZEFSAII (Michael W. Deem and Ramdas Pophale) SiO2 
 PCOD8103384
Probable space group: C 2/M
;
_chemical_formula_sum "Si O2"
_cell_formula_units_Z 56
_cell_length_a 12.435056
_cell_length_b 14.438368
_cell_length_c 16.060550
_cell_angle_alpha 90.000000
_cell_angle_beta 71.682497
_cell_angle_gamma 90.000000
_cell_volume 2737.431426
_symmetry_space_group_name_H-M "C 2/M"
_symmetry_group_IT_number 12
_symmetry_cell_setting 'monoclinic'
loop_
_space_group_symop_operation_xyz
x,y,z
-x,y,-z
-x,-y,-z
x,-y,z
1/2+x,1/2+y,z
1/2-x,1/2+y,-z
1/2-x,1/2-y,-z
1/2+x,1/2-y,z
loop_
_atom_site_type_symbol
_atom_site_label
_atom_site_fract_x
_atom_site_fract_y
_atom_site_fract_z
Si Si1 0.734945 0.107329 0.536432
Si Si2 0.953315 0.100755 0.924765
Si Si3 0.742344 0.157097 0.051269
Si Si4 0.521751 0.104493 0.349958
Si Si5 0.220250 0.716143 0.377578
Si Si6 0.501683 0.104366 0.837837
Si Si7 0.629083 0.279190 0.819158
O O1 0.600306 0.112871 0.578753
O O2 0.793357 0.176570 0.589284
O O3 0.765986 0.147568 0.438312
O O4 0.776673 0.000000 0.537188
O O5 0.004746 0.170103 0.843015
O O6 0.003367 0.000000 0.891973
O O7 0.818545 0.091973 0.972444
O O8 0.000000 0.141806 0.000000
O O9 0.616658 0.116533 0.085065
O O10 0.790601 0.171124 0.132936
O O11 0.750000 0.250000 0.000000
O O12 0.599777 0.180638 0.374471
O O13 0.516001 0.127750 0.254314
O O14 0.569699 0.000000 0.351775
O O15 0.313538 0.711605 0.283527
O O16 0.599964 0.172185 0.848823
O O17 0.545731 0.000000 0.839991
#
# Coordination Sequence:
#
# PCOD8103384 Si02
#       7
#     8   8   8   8   8   8   8
#     4  10  22  39  60  89 122 156 195 241 295 354
#     4   9  19  34  54  78 108 145 186 234 288 340
#     4  11  21  38  61  82 118 156 198 242 293 353
#     4  10  20  37  62  89 115 151 203 247 286 347
#     4  11  21  35  61  90 119 154 195 247 294 346
#     4  11  22  38  62  89 118 156 200 246 294 349
#     4  11  22  37  58  89 118 151 195 247 297 348
#
# _framework density 20.457134
#
# number of rings (size 3 to 8) (size 9 to 14) (size 15 to 20)
#    0.000    1.571    4.286    1.286    0.000    2.857 
#    0.000    2.143    0.000    8.571    0.000    0.000 
#    0.000    0.000    0.000    0.000    0.000    0.000 
#
# Total GULP energy -346980.236345 kJ/mol
# GULP energy per Si atom -12392.151298 kJ/mol
# Density = 2.041057 g / cm^3
# Si number density = 20.457134 Si / 1000 Ang^3
#
#
#
# Elastic Constant Matrix: (Units=GPa)
#
#
# Indices 1 2 3 4 5 6 
#
# 1 35.7577 22.1572 -2.0036 0.0000 -11.4819 0.0000
# 2 22.1572 139.4966 23.4728 0.0000 0.6649 0.0000
# 3 -2.0036 23.4728 77.9194 0.0000 -14.4953 0.0000
# 4 0.0000 0.0000 0.0000 25.0801 0.0000 -2.0077
# 5 -11.4819 0.6649 -14.4953 0.0000 21.4372 0.0000
# 6 0.0000 0.0000 0.0000 -2.0077 0.0000 29.7657
#
#
#
# Elastic Compliance Matrix: (Units=1/GPa)
#
#
# Indices 1 2 3 4 5 6 
#
# 1 0.043342 -0.008579 0.009227 0.000000 0.029720 0.000000
# 2 -0.008579 0.009327 -0.004506 0.000000 -0.007931 0.000000
# 3 0.009227 -0.004506 0.017586 0.000000 0.016973 0.000000
# 4 0.000000 0.000000 0.000000 0.040089 0.000000 0.002704
# 5 0.029720 -0.007931 0.016973 0.000000 0.074289 0.000000
# 6 0.000000 0.000000 0.000000 0.002704 0.000000 0.033778
#
#
# Mechanical properties :
#
#
# Convention : Reuss Voigt Hill
#
# Bulk Modulus (GPa) = 15.98944 37.82515 26.90729
# Shear Modulus (GPa) = 20.24525 29.22640 24.73583
#
# Velocity S-wave (km/s) = 3.14927 3.78387 3.48106
# Velocity P-wave (km/s) = 4.58878 6.13354 5.41651
#
# Compressibility (1/GPa) = 0.06254129
#
# Stress axis : x y z
#
# Youngs Moduli (GPa) = 23.07238 107.21339 56.86380
#
# Poissons Ratio (x) = 0.91974 -0.52471
# Poissons Ratio (y) = 0.19793 0.25621
# Poissons Ratio (z) = -0.21290 0.48307
#
# Static dielectric constant tensor:
#      x y z
#    x 3.410880 0.000000 -0.012390 
#    y 0.000000 3.978300 0.000000 
#    z -0.012390 0.000000 3.792090 
# 
# 
# High freq. dielectric constant tensor:
#      x y z
#    x 1.764130 0.000000 -0.017410 
#    y 0.000000 1.810570 0.000000 
#    z -0.017410 0.000000 1.810610 
# 
# From -- ./inp_files/262967.got.cif
#   From: 2010.06.25/outbox.cif.g09.slc.cpg/sg12_132_cif.got.tgz:262967.got - 2010.06.28 00:19:55.
