data_PCOD8103976
_publ_section_title
;
Structure prediction by ZEFSAII (Michael W. Deem and Ramdas Pophale) SiO2 
 PCOD8103976
Probable space group: C 2/M
;
_chemical_formula_sum "Si O2"
_cell_formula_units_Z 48
_cell_length_a 27.634712
_cell_length_b 8.995968
_cell_length_c 17.080210
_cell_angle_alpha 90.000000
_cell_angle_beta 35.892911
_cell_angle_gamma 90.000000
_cell_volume 2489.403519
_symmetry_space_group_name_H-M "C 2/M"
_symmetry_group_IT_number 12
_symmetry_cell_setting 'monoclinic'
loop_
_space_group_symop_operation_xyz
x,y,z
-x,y,-z
-x,-y,-z
x,-y,z
1/2+x,1/2+y,z
1/2-x,1/2+y,-z
1/2-x,1/2-y,-z
1/2+x,1/2-y,z
loop_
_atom_site_type_symbol
_atom_site_label
_atom_site_fract_x
_atom_site_fract_y
_atom_site_fract_z
Si Si1 0.888433 0.175174 0.012567
Si Si2 0.835313 0.673754 0.536424
Si Si3 0.161969 0.674640 0.763640
Si Si4 0.260967 0.825079 0.902749
Si Si5 0.590560 0.823461 0.398015
Si Si6 0.052110 0.671732 0.758891
O O1 0.971417 0.226624 0.861156
O O2 0.889068 0.000000 0.025065
O O3 0.881955 0.253478 0.104485
O O4 0.811852 0.225029 0.059589
O O5 0.813474 0.500000 0.572013
O O6 0.751913 0.761237 0.629709
O O7 0.876644 0.734795 0.561681
O O8 0.897482 0.707289 0.385089
O O9 0.168578 0.500000 0.768298
O O10 0.106773 0.715295 0.761533
O O11 0.347330 0.771655 0.751763
O O12 0.259884 0.000000 0.916963
O O13 0.250000 0.750000 0.000000
O O14 0.500000 0.755422 0.500000
O O15 0.585597 0.000000 0.407334
O O16 0.025159 0.500000 0.797496
#
# Coordination Sequence:
#
# PCOD8103976 Si02
#       6
#     8   8   8   8   8   8
#     4  11  23  40  60  85 119 157 197 242 291 347
#     4  10  20  38  61  85 118 154 194 240 291 351
#     4  11  22  38  59  86 120 154 197 246 293 345
#     4  10  22  39  60  87 116 147 191 238 287 350
#     4   9  18  35  60  86 111 145 190 236 282 344
#     4  10  23  38  58  89 119 155 199 242 289 349
#
# _framework density 19.281728999999999
#
# number of rings (size 3 to 8) (size 9 to 14) (size 15 to 20)
#    0.000    1.833    1.667    2.000    2.333    5.333 
#    0.000    0.000    0.000    1.000    0.000    0.000 
#    0.000    0.000    0.000    0.000    0.000    0.000 
#
# Total GULP energy -297704.562382 kJ/mol
# GULP energy per Si atom -12404.356766 kJ/mol
# Density = 1.923784 g / cm^3
# Si number density = 19.281729 Si / 1000 Ang^3
#
#
#
# Elastic Constant Matrix: (Units=GPa)
#
#
# Indices 1 2 3 4 5 6 
#
# 1 100.3572 35.9188 78.5477 -0.0059 5.4217 0.0023
# 2 35.9188 46.0574 39.3305 0.0090 -3.2682 -0.0067
# 3 78.5477 39.3305 148.3325 0.0036 -4.0307 -0.0021
# 4 -0.0059 0.0090 0.0036 33.9748 -0.0029 2.4516
# 5 5.4217 -3.2682 -4.0307 -0.0029 45.1962 0.0013
# 6 0.0023 -0.0067 -0.0021 2.4516 0.0013 25.3639
#
#
#
# Elastic Compliance Matrix: (Units=1/GPa)
#
#
# Indices 1 2 3 4 5 6 
#
# 1 0.019697 -0.008573 -0.008258 0.000007 -0.003719 -0.000005
# 2 -0.008573 0.031883 -0.003833 -0.000010 0.002992 0.000010
# 3 -0.008258 -0.003833 0.012180 -0.000002 0.001800 0.000001
# 4 0.000007 -0.000010 -0.000002 0.029640 0.000000 -0.002865
# 5 -0.003719 0.002992 0.001800 0.000000 0.022949 0.000000
# 6 -0.000005 0.000010 0.000001 -0.002865 0.000000 0.039703
#
#
# Mechanical properties :
#
#
# Convention : Reuss Voigt Hill
#
# Bulk Modulus (GPa) = 44.57923 66.92678 55.75301
# Shear Modulus (GPa) = 24.40705 30.30365 27.35535
#
# Velocity S-wave (km/s) = 3.56169 3.96867 3.77067
# Velocity P-wave (km/s) = 6.33121 7.46899 6.92351
#
# Compressibility (1/GPa) = 0.02243197
#
# Stress axis : x y z
#
# Youngs Moduli (GPa) = 50.76794 31.36442 82.10220
#
# Poissons Ratio (x) = 0.26889 0.67804
# Poissons Ratio (y) = 0.43524 0.31468
# Poissons Ratio (z) = 0.41926 0.12021
#
# Static dielectric constant tensor:
#      x y z
#    x 3.739040 0.000000 -0.089850 
#    y 0.000000 3.347920 0.000010 
#    z -0.089850 0.000010 3.702090 
# 
# 
# High freq. dielectric constant tensor:
#      x y z
#    x 1.762920 0.000000 0.000380 
#    y 0.000000 1.729090 0.000000 
#    z 0.000380 0.000000 1.769060 
# 
# From -- ./inp_files/274106.got.cif
#   From: 2010.06.25/outbox.cif.g09.slc.cpg/sg12_138_cif.got.tgz:274106.got - 2010.06.28 00:19:55.
