data_PCOD8103516
_publ_section_title
;
Structure prediction by ZEFSAII (Michael W. Deem and Ramdas Pophale) SiO2 
 PCOD8103516
Probable space group: C 2/M
;
_chemical_formula_sum "Si O2"
_cell_formula_units_Z 56
_cell_length_a 22.224263
_cell_length_b 8.825924
_cell_length_c 14.732788
_cell_angle_alpha 90.000000
_cell_angle_beta 69.592351
_cell_angle_gamma 90.000000
_cell_volume 2708.452330
_symmetry_space_group_name_H-M "C 2/M"
_symmetry_group_IT_number 12
_symmetry_cell_setting 'monoclinic'
loop_
_space_group_symop_operation_xyz
x,y,z
-x,y,-z
-x,-y,-z
x,-y,z
1/2+x,1/2+y,z
1/2-x,1/2+y,-z
1/2-x,1/2-y,-z
1/2+x,1/2-y,z
loop_
_atom_site_type_symbol
_atom_site_label
_atom_site_fract_x
_atom_site_fract_y
_atom_site_fract_z
Si Si1 0.194117 0.323669 0.584852
Si Si2 0.951657 0.321786 0.947072
Si Si3 0.922254 0.173789 0.442098
Si Si4 0.303875 0.181279 0.037772
Si Si5 0.737961 0.823261 0.747771
Si Si6 0.383739 0.325997 0.661592
Si Si7 0.974865 0.675184 0.730817
O O1 0.208245 0.500000 0.578437
O O2 0.250000 0.250000 0.500000
O O3 0.126743 0.289606 0.576383
O O4 0.193741 0.262267 0.688791
O O5 0.947276 0.500000 0.964576
O O6 0.982731 0.283062 0.832627
O O7 0.877875 0.260206 0.985476
O O8 0.000000 0.254359 0.000000
O O9 0.925745 0.202887 0.548182
O O10 0.987542 0.210867 0.355665
O O11 0.902306 0.000000 0.434866
O O12 0.283928 0.249039 0.146213
O O13 0.300766 0.000000 0.030402
O O14 0.250000 0.250000 0.000000
O O15 0.810349 0.784676 0.680237
O O16 0.727936 0.000000 0.766255
O O17 0.390686 0.500000 0.689916
O O18 0.403156 0.212306 0.733366
O O19 0.992856 0.500000 0.705066
#
# Coordination Sequence:
#
# PCOD8103516 Si02
#       7
#     8   8   8   8   8   8   8
#     4  11  21  37  59  87 119 155 195 239 286 343
#     4   9  20  38  60  86 117 155 199 247 300 357
#     4  11  23  39  58  83 117 158 197 235 289 351
#     4  10  20  37  63  89 116 152 197 247 297 354
#     4   9  19  35  59  86 113 153 194 228 287 357
#     4  10  20  38  58  81 117 156 189 230 290 358
#     4  11  23  37  58  87 114 148 197 247 291 342
#
# _framework density 20.676015
#
# number of rings (size 3 to 8) (size 9 to 14) (size 15 to 20)
#    0.000    1.857    1.429    2.571    2.000    2.857 
#    0.000    2.143    0.000    2.143    0.000    0.000 
#    0.000    0.000    0.000    0.000    0.000    0.000 
#
# Total GULP energy -346990.681483 kJ/mol
# GULP energy per Si atom -12392.524339 kJ/mol
# Density = 2.062896 g / cm^3
# Si number density = 20.676015 Si / 1000 Ang^3
#
#
#
# Elastic Constant Matrix: (Units=GPa)
#
#
# Indices 1 2 3 4 5 6 
#
# 1 104.8331 23.1155 45.5944 0.0000 18.5227 0.0000
# 2 23.1155 41.7501 35.7113 0.0000 9.4371 0.0000
# 3 45.5944 35.7113 130.8021 0.0000 14.8362 0.0000
# 4 0.0000 0.0000 0.0000 23.7460 0.0000 1.3103
# 5 18.5227 9.4371 14.8362 0.0000 40.6177 0.0000
# 6 0.0000 0.0000 0.0000 1.3103 0.0000 33.8095
#
#
#
# Elastic Compliance Matrix: (Units=1/GPa)
#
#
# Indices 1 2 3 4 5 6 
#
# 1 0.012214 -0.003447 -0.002896 0.000000 -0.003711 0.000000
# 2 -0.003447 0.032967 -0.007416 0.000000 -0.003379 0.000000
# 3 -0.002896 -0.007416 0.010781 0.000000 -0.000894 0.000000
# 4 0.000000 0.000000 0.000000 0.042203 0.000000 -0.001636
# 5 -0.003711 -0.003379 -0.000894 0.000000 0.027424 0.000000
# 6 0.000000 0.000000 0.000000 -0.001636 0.000000 0.029641
#
#
# Mechanical properties :
#
#
# Convention : Reuss Voigt Hill
#
# Bulk Modulus (GPa) = 35.15494 54.02530 44.59012
# Shear Modulus (GPa) = 26.01076 31.16559 28.58817
#
# Velocity S-wave (km/s) = 3.55070 3.88665 3.72247
# Velocity P-wave (km/s) = 5.81804 6.80643 6.33156
#
# Compressibility (1/GPa) = 0.02844550
#
# Stress axis : x y z
#
# Youngs Moduli (GPa) = 81.87268 30.33290 92.75945
#
# Poissons Ratio (x) = 0.10455 0.26859
# Poissons Ratio (y) = 0.28220 0.68790
# Poissons Ratio (z) = 0.23706 0.22495
#
# Static dielectric constant tensor:
#      x y z
#    x -4.196320 0.000000 2.325860 
#    y 0.000000 3.375900 0.000000 
#    z 2.325860 0.000000 3.290120 
# 
# 
# High freq. dielectric constant tensor:
#      x y z
#    x 1.821360 0.000000 0.007040 
#    y 0.000000 1.770500 0.000000 
#    z 0.007040 0.000000 1.821660 
# 
# From -- ./inp_files/237497.got.cif
#   From: 2010.06.25/outbox.cif.g09.slc.cpg/sg12_119_cif.got.tgz:237497.got - 2010.06.28 00:19:55.
