data_PCOD8103970
_publ_section_title
;
Structure prediction by ZEFSAII (Michael W. Deem and Ramdas Pophale) SiO2 
 PCOD8103970
Probable space group: C 2/M
;
_chemical_formula_sum "Si O2"
_cell_formula_units_Z 48
_cell_length_a 20.156941
_cell_length_b 9.197235
_cell_length_c 13.819178
_cell_angle_alpha 90.000000
_cell_angle_beta 90.909197
_cell_angle_gamma 90.000000
_cell_volume 2561.588925
_symmetry_space_group_name_H-M "C 2/M"
_symmetry_group_IT_number 12
_symmetry_cell_setting 'monoclinic'
loop_
_space_group_symop_operation_xyz
x,y,z
-x,y,-z
-x,-y,-z
x,-y,z
1/2+x,1/2+y,z
1/2-x,1/2+y,-z
1/2-x,1/2-y,-z
1/2+x,1/2-y,z
loop_
_atom_site_type_symbol
_atom_site_label
_atom_site_fract_x
_atom_site_fract_y
_atom_site_fract_z
Si Si1 0.561466 0.162074 0.072089
Si Si2 0.065859 0.165099 0.447499
Si Si3 0.814061 0.670778 0.460962
Si Si4 0.633633 0.170033 0.746821
Si Si5 0.995858 0.834753 0.757407
Si Si6 0.812182 0.329156 0.046966
O O1 0.547847 0.272689 0.157242
O O2 0.573811 0.000000 0.114157
O O3 0.500000 0.159097 0.000000
O O4 0.624465 0.218318 0.013969
O O5 0.123672 0.274682 0.476455
O O6 0.053539 0.175277 0.333707
O O7 0.000000 0.217388 0.500000
O O8 0.084472 0.000000 0.479199
O O9 0.805788 0.500000 0.477029
O O10 0.750000 0.750000 0.500000
O O11 0.823747 0.707529 0.347589
O O12 0.563304 0.248918 0.740052
O O13 0.675724 0.220240 0.841525
O O14 0.617112 0.000000 0.753700
O O15 0.015753 0.000000 0.780742
O O16 0.799534 0.500000 0.041847
O O17 0.750000 0.250000 0.000000
#
# Coordination Sequence:
#
# PCOD8103970 Si02
#       6
#     8   8   8   8   8   8
#     4  10  20  38  61  84 117 157 196 240 291 350
#     4  10  21  39  60  86 122 157 195 247 299 349
#     4  11  24  40  63  90 121 160 201 249 300 360
#     4  10  21  40  62  84 115 158 200 240 298 360
#     4  11  22  35  60  93 121 153 196 251 298 343
#     4  10  22  40  61  85 117 156 194 241 294 348
#
# _framework density 18.738368999999999
#
# number of rings (size 3 to 8) (size 9 to 14) (size 15 to 20)
#    0.000    1.667    3.333    1.000    0.000    5.333 
#    0.000    5.000    0.000    0.000    0.000    0.000 
#    0.000    0.000    0.000    0.000    0.000    0.000 
#
# Total GULP energy -297664.870292 kJ/mol
# GULP energy per Si atom -12402.702929 kJ/mol
# Density = 1.869572 g / cm^3
# Si number density = 18.738369 Si / 1000 Ang^3
#
#
#
# Elastic Constant Matrix: (Units=GPa)
#
#
# Indices 1 2 3 4 5 6 
#
# 1 146.9123 64.8026 69.9794 0.0000 -9.4707 0.0000
# 2 64.8026 84.6055 65.8744 0.0000 -6.2963 0.0000
# 3 69.9794 65.8744 131.7868 0.0000 -12.3134 0.0000
# 4 0.0000 0.0000 0.0000 31.9021 0.0000 2.1191
# 5 -9.4707 -6.2963 -12.3134 0.0000 30.9324 0.0000
# 6 0.0000 0.0000 0.0000 2.1191 0.0000 36.0652
#
#
#
# Elastic Compliance Matrix: (Units=1/GPa)
#
#
# Indices 1 2 3 4 5 6 
#
# 1 0.010838 -0.006252 -0.002533 0.000000 0.001037 0.000000
# 2 -0.006252 0.022957 -0.008203 0.000000 -0.000507 0.000000
# 3 -0.002533 -0.008203 0.013300 0.000000 0.002849 0.000000
# 4 0.000000 0.000000 0.000000 0.031469 0.000000 -0.001849
# 5 0.001037 -0.000507 0.002849 0.000000 0.033677 0.000000
# 6 0.000000 0.000000 0.000000 -0.001849 0.000000 0.027836
#
#
# Mechanical properties :
#
#
# Convention : Reuss Voigt Hill
#
# Bulk Modulus (GPa) = 76.22418 84.95747 80.59083
# Shear Modulus (GPa) = 28.02299 30.62313 29.32306
#
# Velocity S-wave (km/s) = 3.87135 4.04697 3.96013
# Velocity P-wave (km/s) = 7.79420 8.20210 8.00075
#
# Compressibility (1/GPa) = 0.01311920
#
# Stress axis : x y z
#
# Youngs Moduli (GPa) = 92.26933 43.55958 75.19045
#
# Poissons Ratio (x) = 0.27232 0.19047
# Poissons Ratio (y) = 0.57683 0.61678
# Poissons Ratio (z) = 0.23373 0.35732
#
# Static dielectric constant tensor:
#      x y z
#    x 3.198760 0.000000 -0.092480 
#    y 0.000000 3.528140 0.000000 
#    z -0.092480 0.000000 3.620440 
# 
# 
# High freq. dielectric constant tensor:
#      x y z
#    x 1.725840 0.000000 -0.004480 
#    y 0.000000 1.729120 0.000000 
#    z -0.004480 0.000000 1.741070 
# 
# From -- ./inp_files/221679.got.cif
#   From: 2010.06.25/outbox.cif.g09.slc.cpg/sg12_111_cif.got.tgz:221679.got - 2010.06.28 00:19:55.
