data_PCOD8103781
_publ_section_title
;
Structure prediction by ZEFSAII (Michael W. Deem and Ramdas Pophale) SiO2 
 PCOD8103781
Probable space group: C 2/M
;
_chemical_formula_sum "Si O2"
_cell_formula_units_Z 56
_cell_length_a 9.532345
_cell_length_b 24.606393
_cell_length_c 16.502413
_cell_angle_alpha 90.000000
_cell_angle_beta 49.849151
_cell_angle_gamma 90.000000
_cell_volume 2958.605895
_symmetry_space_group_name_H-M "C 2/M"
_symmetry_group_IT_number 12
_symmetry_cell_setting 'monoclinic'
loop_
_space_group_symop_operation_xyz
x,y,z
-x,y,-z
-x,-y,-z
x,-y,z
1/2+x,1/2+y,z
1/2-x,1/2+y,-z
1/2-x,1/2-y,-z
1/2+x,1/2-y,z
loop_
_atom_site_type_symbol
_atom_site_label
_atom_site_fract_x
_atom_site_fract_y
_atom_site_fract_z
Si Si1 0.628462 0.348423 0.812834
Si Si2 0.812769 0.188762 0.548693
Si Si3 0.808896 0.063204 0.915041
Si Si4 0.800829 0.308374 0.586789
Si Si5 0.495121 0.149365 0.768666
Si Si6 0.566150 0.061649 0.855755
Si Si7 0.041749 0.264369 0.074562
O O1 0.474484 0.395651 0.874430
O O2 0.691726 0.340646 0.696712
O O3 0.793805 0.365009 0.810622
O O4 0.566491 0.291071 0.871210
O O5 0.829700 0.244630 0.595075
O O6 0.819022 0.192256 0.449788
O O7 0.618315 0.164126 0.645875
O O8 0.000000 0.155415 0.500000
O O9 0.740361 0.071808 0.848864
O O10 0.869409 0.000000 0.906328
O O11 0.631520 0.078627 0.034033
O O12 0.000000 0.336432 0.500000
O O13 0.593300 0.095675 0.764932
O O14 0.504053 0.193186 0.837772
O O15 0.558665 0.000000 0.832265
O O16 0.250000 0.250000 0.000000
O O17 0.000000 0.288486 0.000000
#
# Coordination Sequence:
#
# PCOD8103781 Si02
#       7
#     8   8   8   8   8   8   8
#     4  12  24  38  61  88 121 161 199 243 300 354
#     4  10  22  36  59  85 116 156 204 244 290 349
#     4   9  21  41  64  88 116 156 202 246 295 352
#     4  10  20  38  58  83 120 155 196 250 292 351
#     4  12  24  38  60  90 121 159 199 243 298 355
#     4   9  21  41  63  87 117 155 202 248 292 352
#     4  12  26  38  53  87 131 161 191 236 298 359
#
# _framework density 18.927834000000001
#
# number of rings (size 3 to 8) (size 9 to 14) (size 15 to 20)
#    0.000    1.429    4.286    1.714    6.000    0.571 
#    0.000    1.429    0.000    1.714    0.000    0.000 
#    0.000    0.000    0.000    0.000    0.000    0.000 
#
# Total GULP energy -346981.852724 kJ/mol
# GULP energy per Si atom -12392.209026 kJ/mol
# Density = 1.888475 g / cm^3
# Si number density = 18.927834 Si / 1000 Ang^3
#
#
#
# Elastic Constant Matrix: (Units=GPa)
#
#
# Indices 1 2 3 4 5 6 
#
# 1 107.3135 34.3900 21.5488 0.0000 -6.1799 0.0000
# 2 34.3900 69.1295 17.2245 0.0000 0.9580 0.0000
# 3 21.5488 17.2245 62.1228 0.0000 2.2426 0.0000
# 4 0.0000 0.0000 0.0000 16.5433 0.0000 0.1843
# 5 -6.1799 0.9580 2.2426 0.0000 35.9209 0.0000
# 6 0.0000 0.0000 0.0000 0.1843 0.0000 27.1848
#
#
#
# Elastic Compliance Matrix: (Units=1/GPa)
#
#
# Indices 1 2 3 4 5 6 
#
# 1 0.011644 -0.005153 -0.002693 0.000000 0.002309 0.000000
# 2 -0.005153 0.017821 -0.003111 0.000000 -0.001168 0.000000
# 3 -0.002693 -0.003111 0.017948 0.000000 -0.001501 0.000000
# 4 0.000000 0.000000 0.000000 0.060452 0.000000 -0.000410
# 5 0.002309 -0.001168 -0.001501 0.000000 0.028361 0.000000
# 6 0.000000 0.000000 0.000000 -0.000410 0.000000 0.036788
#
#
# Mechanical properties :
#
#
# Convention : Reuss Voigt Hill
#
# Bulk Modulus (GPa) = 39.22110 42.76583 40.99346
# Shear Modulus (GPa) = 24.57861 26.95661 25.76761
#
# Velocity S-wave (km/s) = 3.60744 3.77792 3.69366
# Velocity P-wave (km/s) = 6.17397 6.45550 6.31630
#
# Compressibility (1/GPa) = 0.02549648
#
# Stress axis : x y z
#
# Youngs Moduli (GPa) = 85.88294 56.11464 55.71560
#
# Poissons Ratio (x) = 0.28918 0.15007
# Poissons Ratio (y) = 0.44258 0.17335
# Poissons Ratio (z) = 0.23132 0.17459
#
# Static dielectric constant tensor:
#      x y z
#    x 3.510390 0.000000 -0.052690 
#    y 0.000000 3.365120 0.000000 
#    z -0.052690 0.000000 3.460270 
# 
# 
# High freq. dielectric constant tensor:
#      x y z
#    x 1.754480 0.000000 -0.002150 
#    y 0.000000 1.707660 0.000000 
#    z -0.002150 0.000000 1.729980 
# 
# From -- ./inp_files/259137.got.cif
#   From: 2010.06.25/outbox.cif.g09.slc.cpg/sg12_130_cif.got.tgz:259137.got - 2010.06.28 00:19:55.
