data_PCOD8103408
_publ_section_title
;
Structure prediction by ZEFSAII (Michael W. Deem and Ramdas Pophale) SiO2 
 PCOD8103408
Probable space group: C 2/M
;
_chemical_formula_sum "Si O2"
_cell_formula_units_Z 48
_cell_length_a 20.343571
_cell_length_b 8.323029
_cell_length_c 24.731512
_cell_angle_alpha 90.000000
_cell_angle_beta 34.561135
_cell_angle_gamma 90.000000
_cell_volume 2375.531353
_symmetry_space_group_name_H-M "C 2/M"
_symmetry_group_IT_number 12
_symmetry_cell_setting 'monoclinic'
loop_
_space_group_symop_operation_xyz
x,y,z
-x,y,-z
-x,-y,-z
x,-y,z
1/2+x,1/2+y,z
1/2-x,1/2+y,-z
1/2-x,1/2-y,-z
1/2+x,1/2-y,z
loop_
_atom_site_type_symbol
_atom_site_label
_atom_site_fract_x
_atom_site_fract_y
_atom_site_fract_z
Si Si1 0.637211 0.311286 0.749103
Si Si2 0.612982 0.189433 0.452725
Si Si3 0.973386 0.186739 0.763869
Si Si4 0.625384 0.188802 0.568737
Si Si5 0.506327 0.186576 0.056518
Si Si6 0.264649 0.314356 0.049672
O O1 0.644767 0.500000 0.735530
O O2 0.766638 0.238161 0.653167
O O3 0.550890 0.243947 0.761051
O O4 0.588891 0.271923 0.841159
O O5 0.500000 0.265135 0.500000
O O6 0.601736 0.233042 0.522958
O O7 0.614677 0.000000 0.442259
O O8 0.855812 0.287960 0.838138
O O9 0.035662 0.211068 0.664907
O O10 0.944521 0.000000 0.792759
O O11 0.750000 0.250000 0.500000
O O12 0.613300 0.000000 0.588140
O O13 0.475662 0.000000 0.077637
O O14 0.500000 0.257019 0.000000
O O15 0.635576 0.213297 0.989554
O O16 0.301121 0.500000 0.024944
O O17 0.250000 0.250000 0.000000
#
# Coordination Sequence:
#
# PCOD8103408 Si02
#       6
#     8   8   8   8   8   8
#     4  10  20  37  62  89 119 163 207 252 310 371
#     4   9  19  37  60  87 120 156 201 253 301 356
#     4  11  22  38  61  93 127 160 204 258 309 369
#     4  11  21  36  59  89 121 159 205 254 309 365
#     4  11  25  43  63  91 128 166 204 256 314 372
#     4  12  24  40  64  93 122 160 207 257 310 370
#
# _framework density 20.206005999999999
#
# number of rings (size 3 to 8) (size 9 to 14) (size 15 to 20)
#    0.000    1.333    3.333    3.000    0.000    3.333 
#    0.000    1.667    0.000    3.500    0.000    0.000 
#    0.000    0.000    0.000    0.000    0.000    0.000 
#
# Total GULP energy -297657.411031 kJ/mol
# GULP energy per Si atom -12402.392126 kJ/mol
# Density = 2.016002 g / cm^3
# Si number density = 20.206006 Si / 1000 Ang^3
#
#
#
# Elastic Constant Matrix: (Units=GPa)
#
#
# Indices 1 2 3 4 5 6 
#
# 1 135.4302 6.3725 54.7036 -0.0062 0.8246 0.0095
# 2 6.3725 32.2517 -0.0219 -0.0077 1.9936 0.0080
# 3 54.7036 -0.0219 148.5355 0.0002 2.1333 0.0019
# 4 -0.0062 -0.0077 0.0002 33.0406 0.0032 3.9209
# 5 0.8246 1.9936 2.1333 0.0032 36.3350 -0.0061
# 6 0.0095 0.0080 0.0019 3.9209 -0.0061 21.5271
#
#
#
# Elastic Compliance Matrix: (Units=1/GPa)
#
#
# Indices 1 2 3 4 5 6 
#
# 1 0.008771 -0.001740 -0.003232 0.000002 0.000086 -0.000003
# 2 -0.001740 0.031457 0.000670 0.000009 -0.001726 -0.000013
# 3 -0.003232 0.000670 0.007929 -0.000001 -0.000429 0.000000
# 4 0.000002 0.000009 -0.000001 0.030934 -0.000004 -0.005634
# 5 0.000086 -0.001726 -0.000429 -0.000004 0.027640 0.000009
# 6 -0.000003 -0.000013 0.000000 -0.005634 0.000009 0.047479
#
#
# Mechanical properties :
#
#
# Convention : Reuss Voigt Hill
#
# Bulk Modulus (GPa) = 25.28236 48.70287 36.99261
# Shear Modulus (GPa) = 28.40951 35.19143 31.80047
#
# Velocity S-wave (km/s) = 3.75373 4.17781 3.97143
# Velocity P-wave (km/s) = 5.59703 6.88677 6.27513
#
# Compressibility (1/GPa) = 0.03955328
#
# Stress axis : x y z
#
# Youngs Moduli (GPa) = 114.01774 31.78926 126.12245
#
# Poissons Ratio (x) = 0.05533 0.40757
# Poissons Ratio (y) = 0.19845 -0.08456
# Poissons Ratio (z) = 0.36846 -0.02131
#
# Static dielectric constant tensor:
#      x y z
#    x 3.398510 0.000150 0.220870 
#    y 0.000150 3.466620 -0.000110 
#    z 0.220870 -0.000110 3.411930 
# 
# 
# High freq. dielectric constant tensor:
#      x y z
#    x 1.787370 0.000000 -0.000050 
#    y 0.000000 1.771820 0.000000 
#    z -0.000050 0.000000 1.808070 
# 
# From -- ./inp_files/221556.got.cif
#   From: 2010.06.25/outbox.cif.g09.slc.cpg/sg12_111_cif.got.tgz:221556.got - 2010.06.28 00:19:55.
