data_PCOD8103623
_publ_section_title
;
Structure prediction by ZEFSAII (Michael W. Deem and Ramdas Pophale) SiO2 
 PCOD8103623
Probable space group: C 2/M
;
_chemical_formula_sum "Si O2"
_cell_formula_units_Z 52
_cell_length_a 8.881321
_cell_length_b 14.925297
_cell_length_c 28.755631
_cell_angle_alpha 90.000000
_cell_angle_beta 136.598901
_cell_angle_gamma 90.000000
_cell_volume 2619.053165
_symmetry_space_group_name_H-M "C 2/M"
_symmetry_group_IT_number 12
_symmetry_cell_setting 'monoclinic'
loop_
_space_group_symop_operation_xyz
x,y,z
-x,y,-z
-x,-y,-z
x,-y,z
1/2+x,1/2+y,z
1/2-x,1/2+y,-z
1/2-x,1/2-y,-z
1/2+x,1/2-y,z
loop_
_atom_site_type_symbol
_atom_site_label
_atom_site_fract_x
_atom_site_fract_y
_atom_site_fract_z
Si Si1 0.972383 0.278681 0.095996
Si Si2 0.856100 0.896352 0.817913
Si Si3 0.756645 0.500000 0.427645
Si Si4 0.717176 0.661650 0.349118
Si Si5 0.955571 0.346362 0.661207
Si Si6 0.000000 0.746623 0.000000
Si Si7 0.155632 0.899715 0.798131
Si Si8 0.892816 0.000000 0.425316
O O1 0.068064 0.176738 0.125964
O O2 0.115725 0.349414 0.155680
O O3 0.727520 0.299214 0.059356
O O4 0.968298 0.307810 0.040691
O O5 0.629904 0.866542 0.741804
O O6 0.057349 0.894999 0.827441
O O7 0.831045 0.000000 0.831218
O O8 0.728004 0.588381 0.391143
O O9 0.586338 0.500000 0.431377
O O10 0.000000 0.500000 0.500000
O O11 0.687617 0.757585 0.365375
O O12 0.498272 0.649914 0.271556
O O13 0.925779 0.654858 0.362081
O O14 0.764124 0.417139 0.617798
O O15 0.193256 0.000000 0.789588
O O16 0.000000 0.000000 0.500000
#
# Coordination Sequence:
#
# PCOD8103623 Si02
#       8
#     8   8   4   8   8   4   8   4
#     4  11  20  42  60  92 121 176 204 270 315 388
#     4  10  20  37  64  94 123 165 215 264 321 379
#     4  12  26  46  68  98 138 179 214 265 328 387
#     4  11  22  40  66 100 134 170 219 274 323 388
#     4  11  22  40  66 100 134 170 219 274 323 388
#     4  10  24  38  62  84 134 164 214 252 332 386
#     4  10  20  37  64  94 123 165 215 264 321 379
#     4  12  26  46  68  98 138 179 214 265 328 387
#
# _framework density 19.854503999999999
#
# number of rings (size 3 to 8) (size 9 to 14) (size 15 to 20)
#    0.000    1.231    4.615    2.308    0.000    0.615 
#    2.769    8.462    0.000    0.000    0.000    0.000 
#    0.000    0.000    0.000    0.000    0.000    0.000 
#
# Total GULP energy -322141.249015 kJ/mol
# GULP energy per Si atom -12390.048039 kJ/mol
# Density = 1.980931 g / cm^3
# Si number density = 19.854504 Si / 1000 Ang^3
#
#
#
# Elastic Constant Matrix: (Units=GPa)
#
#
# Indices 1 2 3 4 5 6 
#
# 1 130.1001 41.0634 55.8572 0.0000 16.0221 0.0000
# 2 41.0634 94.6351 -22.3428 0.0000 2.9910 0.0000
# 3 55.8572 -22.3428 3.9189 -0.0001 11.5566 0.0000
# 4 0.0000 0.0000 -0.0001 7.6173 0.0000 3.6103
# 5 16.0221 2.9910 11.5566 0.0000 41.1637 0.0000
# 6 0.0000 0.0000 0.0000 3.6103 0.0000 31.4535
#
#
#
# Elastic Compliance Matrix: (Units=1/GPa)
#
#
# Indices 1 2 3 4 5 6 
#
# 1 0.001173 0.003015 0.014299 0.000000 -0.004690 0.000000
# 2 0.003015 0.006325 -0.012185 0.000000 0.001788 0.000000
# 3 0.014299 -0.012185 -0.025019 0.000000 0.002344 0.000000
# 4 0.000000 0.000000 0.000000 0.138834 0.000000 -0.015936
# 5 -0.004690 0.001788 0.002344 0.000000 0.025331 0.000000
# 6 0.000000 0.000000 0.000000 -0.015936 0.000000 0.033622
#
#
# Mechanical properties :
#
#
# Convention : Reuss Voigt Hill
#
# Bulk Modulus (GPa) = -137.68433 41.97885 -47.85274
# Shear Modulus (GPa) = 29.83511 26.31865 28.07688
#
# Velocity S-wave (km/s) = 3.88066 3.64480 3.76457
# Velocity P-wave (km/s) = 7.02978 6.23714 2.29304
#
# Compressibility (1/GPa) = -0.00726299
#
# Stress axis : x y z
#
# Youngs Moduli (GPa) = 852.36939 158.09744 -39.96995
#
# Poissons Ratio (x) = -0.47668 0.57153
# Poissons Ratio (y) = -2.56997 -0.48705
# Poissons Ratio (z) = -12.18803 1.92648
#
# Static dielectric constant tensor:
#      x y z
#    x 3.720370 0.000000 0.145330 
#    y 0.000000 3.559460 0.000000 
#    z 0.145330 0.000000 3.744360 
# 
# 
# High freq. dielectric constant tensor:
#      x y z
#    x 1.777230 0.000000 0.010960 
#    y 0.000000 1.770590 0.000000 
#    z 0.010960 0.000000 1.785890 
# 
# From -- ./inp_files/372685.got.cif
#   From: 2010.06.25/outbox.cif.g09.slc.cpg/sg12_187_cif.got.tgz:372685.got - 2010.06.28 00:19:55.
