data_PCOD8103832
_publ_section_title
;
Structure prediction by ZEFSAII (Michael W. Deem and Ramdas Pophale) SiO2 
 PCOD8103832
Probable space group: C 2/M
;
_chemical_formula_sum "Si O2"
_cell_formula_units_Z 56
_cell_length_a 11.266223
_cell_length_b 27.481416
_cell_length_c 9.073318
_cell_angle_alpha 90.000000
_cell_angle_beta 112.351378
_cell_angle_gamma 90.000000
_cell_volume 2598.147742
_symmetry_space_group_name_H-M "C 2/M"
_symmetry_group_IT_number 12
_symmetry_cell_setting 'monoclinic'
loop_
_space_group_symop_operation_xyz
x,y,z
-x,y,-z
-x,-y,-z
x,-y,z
1/2+x,1/2+y,z
1/2-x,1/2+y,-z
1/2-x,1/2-y,-z
1/2+x,1/2-y,z
loop_
_atom_site_type_symbol
_atom_site_label
_atom_site_fract_x
_atom_site_fract_y
_atom_site_fract_z
Si Si1 0.819136 0.054589 0.390257
Si Si2 0.390803 0.444992 0.093456
Si Si3 0.033997 0.443133 0.181065
Si Si4 0.312668 0.773576 0.168955
Si Si5 0.186978 0.614529 0.822518
Si Si6 0.447394 0.282745 0.808357
Si Si7 0.607566 0.611391 0.299841
O O1 0.892501 0.055387 0.271582
O O2 0.675794 0.071985 0.290992
O O3 0.890638 0.091010 0.534286
O O4 0.821425 0.000000 0.458560
O O5 0.377971 0.500000 0.025135
O O6 0.533683 0.422207 0.139995
O O7 0.275426 0.411512 0.985854
O O8 0.007018 0.500000 0.185695
O O9 0.946254 0.413541 0.252537
O O10 0.000000 0.426097 0.000000
O O11 0.334248 0.829907 0.142666
O O12 0.458081 0.750546 0.250902
O O13 0.205481 0.765960 0.251638
O O14 0.250000 0.750000 0.000000
O O15 0.246879 0.612319 0.688275
O O16 0.454830 0.335196 0.733173
O O17 0.500000 0.286777 0.000000
#
# Coordination Sequence:
#
# PCOD8103832 Si02
#       7
#     8   8   8   8   8   8   8
#     4  10  22  39  58  84 122 163 200 239 289 353
#     4  11  21  36  57  85 125 163 200 242 287 349
#     4  10  20  38  59  84 118 153 200 251 288 344
#     4   9  18  34  56  88 117 149 196 251 304 355
#     4  11  22  36  60  92 116 153 199 253 298 346
#     4   9  18  36  58  88 121 153 197 254 303 358
#     4  11  22  36  56  88 122 157 196 244 299 355
#
# _framework density 21.553816999999999
#
# number of rings (size 3 to 8) (size 9 to 14) (size 15 to 20)
#    0.000    1.857    1.429    4.286    0.000    6.286 
#    2.571    1.429    0.000    0.857   11.143    0.000 
#    0.000    0.000    0.000    0.000    0.000    0.000 
#
# Total GULP energy -346930.670050 kJ/mol
# GULP energy per Si atom -12390.381073 kJ/mol
# Density = 2.150476 g / cm^3
# Si number density = 21.553817 Si / 1000 Ang^3
#
#
#
# Elastic Constant Matrix: (Units=GPa)
#
#
# Indices 1 2 3 4 5 6 
#
# 1 135.3596 42.8597 6.1263 0.0000 17.9405 0.0000
# 2 42.8597 100.8453 16.7057 0.0000 11.0323 0.0000
# 3 6.1263 16.7057 46.3374 0.0000 7.2203 0.0000
# 4 0.0000 0.0000 0.0000 20.8471 0.0000 5.1774
# 5 17.9405 11.0323 7.2203 0.0000 24.1092 0.0000
# 6 0.0000 0.0000 0.0000 5.1774 0.0000 37.8447
#
#
#
# Elastic Compliance Matrix: (Units=1/GPa)
#
#
# Indices 1 2 3 4 5 6 
#
# 1 0.009168 -0.003440 0.000887 0.000000 -0.005513 0.000000
# 2 -0.003440 0.012192 -0.003640 0.000000 -0.001929 0.000000
# 3 0.000887 -0.003640 0.023726 0.000000 -0.006100 0.000000
# 4 0.000000 0.000000 0.000000 0.049655 0.000000 -0.006793
# 5 -0.005513 -0.001929 -0.006100 0.000000 0.048290 0.000000
# 6 0.000000 0.000000 0.000000 -0.006793 0.000000 0.027353
#
#
# Mechanical properties :
#
#
# Convention : Reuss Voigt Hill
#
# Bulk Modulus (GPa) = 30.58075 45.99175 38.28625
# Shear Modulus (GPa) = 25.81696 31.01691 28.41693
#
# Velocity S-wave (km/s) = 3.46467 3.79759 3.63494
# Velocity P-wave (km/s) = 5.49765 6.37286 5.95136
#
# Compressibility (1/GPa) = 0.03270031
#
# Stress axis : x y z
#
# Youngs Moduli (GPa) = 109.08015 82.01910 42.14710
#
# Poissons Ratio (x) = 0.28215 -0.03740
# Poissons Ratio (y) = 0.37524 0.15342
# Poissons Ratio (z) = -0.09678 0.29856
#
# Static dielectric constant tensor:
#      x y z
#    x 4.504420 0.000000 -0.004170 
#    y 0.000000 9.533620 0.000000 
#    z -0.004170 0.000000 3.449420 
# 
# 
# High freq. dielectric constant tensor:
#      x y z
#    x 1.873870 0.000000 -0.000150 
#    y 0.000000 1.841080 0.000000 
#    z -0.000150 0.000000 1.811310 
# 
# From -- ./inp_files/53278.got.cif
#   From: 2010.06.25/outbox.cif.g09.slc.cpg/sg12_27_cif.got.tgz:53278.got - 2010.06.28 00:19:55.
