data_PCOD8103920
_publ_section_title
;
Structure prediction by ZEFSAII (Michael W. Deem and Ramdas Pophale) SiO2 
 PCOD8103920
Probable space group: C 2/M
;
_chemical_formula_sum "Si O2"
_cell_formula_units_Z 64
_cell_length_a 14.645695
_cell_length_b 18.558910
_cell_length_c 19.085633
_cell_angle_alpha 90.000000
_cell_angle_beta 144.290899
_cell_angle_gamma 90.000000
_cell_volume 3027.865212
_symmetry_space_group_name_H-M "C 2/M"
_symmetry_group_IT_number 12
_symmetry_cell_setting 'monoclinic'
loop_
_space_group_symop_operation_xyz
x,y,z
-x,y,-z
-x,-y,-z
x,-y,z
1/2+x,1/2+y,z
1/2-x,1/2+y,-z
1/2-x,1/2-y,-z
1/2+x,1/2-y,z
loop_
_atom_site_type_symbol
_atom_site_label
_atom_site_fract_x
_atom_site_fract_y
_atom_site_fract_z
Si Si1 0.590675 0.283390 0.121424
Si Si2 0.457877 0.776785 0.765519
Si Si3 0.827116 0.582442 0.918600
Si Si4 0.770803 0.079312 0.839227
Si Si5 0.116805 0.266219 0.507853
Si Si6 0.616882 0.918576 0.886466
Si Si7 0.885069 0.793143 0.262062
Si Si8 0.959031 0.578615 0.555580
O O1 0.504248 0.265853 0.139372
O O2 0.599255 0.369027 0.113666
O O3 0.766231 0.253770 0.234137
O O4 0.500000 0.245930 0.000000
O O5 0.283591 0.764652 0.631113
O O6 0.475435 0.862389 0.787970
O O7 0.589337 0.746156 0.795855
O O8 0.798246 0.500000 0.878451
O O9 0.688820 0.627723 0.794847
O O10 0.808873 0.592744 0.990668
O O11 0.000000 0.606612 0.000000
O O12 0.745721 0.095896 0.906353
O O13 0.608899 0.088495 0.697616
O O14 0.839678 0.000000 0.871287
O O15 0.000000 0.268446 0.500000
O O16 0.047736 0.210836 0.406524
O O17 0.142897 0.348654 0.494775
O O18 0.549319 0.000000 0.837116
O O19 0.878784 0.500000 0.524342
O O20 0.000000 0.575636 0.500000
#
# Coordination Sequence:
#
# PCOD8103920 Si02
#       8
#     8   8   8   8   8   8   8   8
#     4  12  24  38  60  93 127 166 208 258 326 381
#     4  12  24  39  65  95 128 172 213 271 326 378
#     4  10  23  43  67  93 127 172 217 266 329 396
#     4  10  20  38  60  89 127 164 204 257 313 380
#     4  11  21  39  62  90 128 166 214 273 326 382
#     4  10  21  40  66  92 123 167 216 261 320 390
#     4  12  23  41  63  92 127 164 217 271 320 384
#     4   9  16  31  57  83 117 166 209 245 299 374
#
# _framework density 21.137004000000001
#
# number of rings (size 3 to 8) (size 9 to 14) (size 15 to 20)
#    0.000    1.250    3.750    3.000    1.750    1.250 
#    0.000    1.875    0.000    0.750    0.000    0.000 
#    0.000    0.000    0.000    0.000    0.000    0.000 
#
# Total GULP energy -396624.750923 kJ/mol
# GULP energy per Si atom -12394.523466 kJ/mol
# Density = 2.108890 g / cm^3
# Si number density = 21.137004 Si / 1000 Ang^3
#
#
#
# Elastic Constant Matrix: (Units=GPa)
#
#
# Indices 1 2 3 4 5 6 
#
# 1 59.3211 31.9132 2.2872 0.0011 -22.8755 0.0006
# 2 31.9132 173.9458 52.3682 -0.0026 6.0792 -0.0018
# 3 2.2872 52.3682 85.3276 -0.0046 -12.6118 -0.0035
# 4 0.0011 -0.0026 -0.0046 35.3839 -0.0018 1.5030
# 5 -22.8755 6.0792 -12.6118 -0.0018 33.6832 -0.0012
# 6 0.0006 -0.0018 -0.0035 1.5030 -0.0012 22.3376
#
#
#
# Elastic Compliance Matrix: (Units=1/GPa)
#
#
# Indices 1 2 3 4 5 6 
#
# 1 0.031909 -0.009469 0.008904 0.000001 0.026714 0.000001
# 2 -0.009469 0.010173 -0.007634 -0.000001 -0.011125 -0.000001
# 3 0.008904 -0.007634 0.018275 0.000002 0.014268 0.000003
# 4 0.000001 -0.000001 0.000002 0.028342 0.000003 -0.001907
# 5 0.026714 -0.011125 0.014268 0.000003 0.055181 0.000004
# 6 0.000001 -0.000001 0.000003 -0.001907 0.000004 0.044896
#
#
# Mechanical properties :
#
#
# Convention : Reuss Voigt Hill
#
# Bulk Modulus (GPa) = 22.74764 54.63682 38.69223
# Shear Modulus (GPa) = 22.74515 33.74934 28.24725
#
# Velocity S-wave (km/s) = 3.28393 4.00020 3.65963
# Velocity P-wave (km/s) = 5.01640 6.87317 6.01684
#
# Compressibility (1/GPa) = 0.04396060
#
# Stress axis : x y z
#
# Youngs Moduli (GPa) = 31.33876 98.29713 54.71957
#
# Poissons Ratio (x) = 0.93074 -0.48724
# Poissons Ratio (y) = 0.29674 0.41774
# Poissons Ratio (z) = -0.27905 0.75041
#
# Static dielectric constant tensor:
#      x y z
#    x 3.808510 0.000000 -0.331320 
#    y 0.000000 4.237840 0.000000 
#    z -0.331320 0.000000 3.781560 
# 
# 
# High freq. dielectric constant tensor:
#      x y z
#    x 1.813980 0.000000 -0.025360 
#    y 0.000000 1.840720 0.000000 
#    z -0.025360 0.000000 1.824200 
# 
# From -- ./inp_files/271741.got.cif
#   From: 2010.06.25/outbox.cif.g09.slc.cpg/sg12_136_cif.got.tgz:271741.got - 2010.06.28 00:19:55.
