data_PCOD8104601
_publ_section_title
;
Structure prediction by ZEFSAII (Michael W. Deem and Ramdas Pophale) SiO2 
 PCOD8104601
Probable space group: C 2/M
;
_chemical_formula_sum "Si O2"
_cell_formula_units_Z 40
_cell_length_a 14.614710
_cell_length_b 17.921465
_cell_length_c 9.022349
_cell_angle_alpha 90.000000
_cell_angle_beta 52.691605
_cell_angle_gamma 90.000000
_cell_volume 1879.578878
_symmetry_space_group_name_H-M "C 2/M"
_symmetry_group_IT_number 12
_symmetry_cell_setting 'monoclinic'
loop_
_space_group_symop_operation_xyz
x,y,z
-x,y,-z
-x,-y,-z
x,-y,z
1/2+x,1/2+y,z
1/2-x,1/2+y,-z
1/2-x,1/2-y,-z
1/2+x,1/2-y,z
loop_
_atom_site_type_symbol
_atom_site_label
_atom_site_fract_x
_atom_site_fract_y
_atom_site_fract_z
Si Si1 0.983766 0.330455 0.843341
Si Si2 0.149247 0.769861 0.211222
Si Si3 0.197178 0.684447 0.459708
Si Si4 0.248127 0.915798 0.056900
Si Si5 0.372247 0.583793 0.140017
O O1 0.962553 0.251674 0.776564
O O2 0.100696 0.359947 0.651138
O O3 0.881712 0.390449 0.922408
O O4 0.000000 0.312976 0.000000
O O5 0.146774 0.718446 0.357649
O O6 0.167898 0.858035 0.231723
O O7 0.250000 0.750000 0.000000
O O8 0.250000 0.750000 0.500000
O O9 0.300469 0.627599 0.332417
O O10 0.240585 0.000000 0.130138
O O11 0.198880 0.913605 0.941100
O O12 0.385889 0.500000 0.185964
O O13 0.500000 0.619207 0.000000
#
# Coordination Sequence:
#
# PCOD8104601 Si02
#       5
#     8   8   8   8   8
#     4  11  24  41  67 101 133 177 222 281 339 392
#     4  10  20  39  62  94 131 165 216 270 326 395
#     4  12  24  38  67 102 131 176 224 277 338 398
#     4  10  22  41  67  95 133 180 221 274 340 400
#     4  10  23  42  65  95 134 181 225 273 334 409
#
# _framework density 21.281362000000001
#
# number of rings (size 3 to 8) (size 9 to 14) (size 15 to 20)
#    0.000    1.400    4.000    3.000    2.800    1.200 
#    0.000    5.000    0.000    2.400    0.000    0.000 
#    0.000    0.000    0.000    0.000    0.000    0.000 
#
# Total GULP energy -247810.882232 kJ/mol
# GULP energy per Si atom -12390.544112 kJ/mol
# Density = 2.123292 g / cm^3
# Si number density = 21.281362 Si / 1000 Ang^3
#
#
#
# Elastic Constant Matrix: (Units=GPa)
#
#
# Indices 1 2 3 4 5 6 
#
# 1 130.2813 38.9490 55.7514 0.0000 -5.3942 0.0000
# 2 38.9490 125.3848 41.1796 0.0000 -12.9330 0.0000
# 3 55.7514 41.1796 137.2033 0.0000 -9.5052 0.0000
# 4 0.0000 0.0000 0.0000 30.3819 0.0000 -3.1489
# 5 -5.3942 -12.9330 -9.5052 0.0000 37.6731 0.0000
# 6 0.0000 0.0000 0.0000 -3.1489 0.0000 29.1018
#
#
#
# Elastic Compliance Matrix: (Units=1/GPa)
#
#
# Indices 1 2 3 4 5 6 
#
# 1 0.009685 -0.001914 -0.003369 0.000000 -0.000121 0.000000
# 2 -0.001914 0.009446 -0.001885 0.000000 0.002493 0.000000
# 3 -0.003369 -0.001885 0.009308 0.000000 0.001219 0.000000
# 4 0.000000 0.000000 0.000000 0.033288 0.000000 0.003602
# 5 -0.000121 0.002493 0.001219 0.000000 0.027690 0.000000
# 6 0.000000 0.000000 0.000000 0.003602 0.000000 0.034752
#
#
# Mechanical properties :
#
#
# Convention : Reuss Voigt Hill
#
# Bulk Modulus (GPa) = 70.90935 73.84769 72.37852
# Shear Modulus (GPa) = 34.91490 36.56398 35.73944
#
# Velocity S-wave (km/s) = 4.05487 4.14952 4.10247
# Velocity P-wave (km/s) = 7.43740 7.59829 7.51827
#
# Compressibility (1/GPa) = 0.01410251
#
# Stress axis : x y z
#
# Youngs Moduli (GPa) = 103.25492 105.86252 107.43996
#
# Poissons Ratio (x) = 0.20266 0.36198
# Poissons Ratio (y) = 0.19767 0.20247
# Poissons Ratio (z) = 0.34788 0.19950
#
# Static dielectric constant tensor:
#      x y z
#    x 4.731640 0.000000 -0.378130 
#    y 0.000000 4.745650 0.000000 
#    z -0.378130 0.000000 4.369370 
# 
# 
# High freq. dielectric constant tensor:
#      x y z
#    x 1.850940 0.000000 -0.005210 
#    y 0.000000 1.823570 0.000000 
#    z -0.005210 0.000000 1.820880 
# 
# From -- ./inp_files/60827.got.cif
#   From: 2010.06.25/outbox.cif.g09.slc.cpg/sg12_31_cif.got.tgz:60827.got - 2010.06.28 00:19:55.
