data_PCOD8104497
_publ_section_title
;
Structure prediction by ZEFSAII (Michael W. Deem and Ramdas Pophale) SiO2 
 PCOD8104497
Probable space group: C 2/M
;
_chemical_formula_sum "Si O2"
_cell_formula_units_Z 56
_cell_length_a 24.704200
_cell_length_b 21.664851
_cell_length_c 7.745069
_cell_angle_alpha 90.000000
_cell_angle_beta 42.903318
_cell_angle_gamma 90.000000
_cell_volume 2821.940941
_symmetry_space_group_name_H-M "C 2/M"
_symmetry_group_IT_number 12
_symmetry_cell_setting 'monoclinic'
loop_
_space_group_symop_operation_xyz
x,y,z
-x,y,-z
-x,-y,-z
x,-y,z
1/2+x,1/2+y,z
1/2-x,1/2+y,-z
1/2-x,1/2-y,-z
1/2+x,1/2-y,z
loop_
_atom_site_type_symbol
_atom_site_label
_atom_site_fract_x
_atom_site_fract_y
_atom_site_fract_z
Si Si1 0.000000 0.380747 0.500000
Si Si2 0.353562 0.190625 0.713094
Si Si3 0.061440 0.429812 0.006570
Si Si4 0.674611 0.830073 0.607266
Si Si5 0.186028 0.826055 0.232819
Si Si6 0.000000 0.877726 0.000000
Si Si7 0.158594 0.193478 0.690408
Si Si8 0.062355 0.930179 0.505026
O O1 0.074507 0.336404 0.348390
O O2 0.017419 0.422830 0.293024
O O3 0.366762 0.174241 0.482095
O O4 0.350209 0.263609 0.764615
O O5 0.272964 0.158066 0.961741
O O6 0.091850 0.500000 0.918570
O O7 0.137850 0.385532 0.805717
O O8 0.000000 0.413054 0.000000
O O9 0.771063 0.838479 0.359964
O O10 0.654645 0.765605 0.752046
O O11 0.191340 0.814888 0.422402
O O12 0.133899 0.884217 0.300892
O O13 0.071378 0.836103 0.911107
O O14 0.027032 0.919960 0.778552
O O15 0.000000 0.917674 0.500000
O O16 0.094326 0.000000 0.421472
#
# Coordination Sequence:
#
# PCOD8104497 Si02
#       8
#     4   8   8   8   8   4   8   8
#     4  12  23  40  64  90 117 158 200 258 300 354
#     4  10  21  36  62  91 122 154 200 247 308 348
#     4  11  24  42  61  87 123 160 203 248 295 363
#     4  10  20  39  60  89 124 159 193 249 297 362
#     4   9  20  39  55  90 124 156 199 245 296 363
#     4  10  21  38  62  88 115 154 200 248 294 346
#     4   9  20  36  62  89 123 154 195 249 307 344
#     4  10  22  39  59  86 120 159 199 241 288 350
#
# _framework density 19.844498000000002
#
# number of rings (size 3 to 8) (size 9 to 14) (size 15 to 20)
#    0.000    2.000    1.429    1.286    4.000    2.286 
#    0.000    8.571    0.000    0.000    0.000    0.000 
#    0.000    0.000    0.000    0.000    0.000    0.000 
#
# Total GULP energy -347186.650316 kJ/mol
# GULP energy per Si atom -12399.523226 kJ/mol
# Density = 1.979933 g / cm^3
# Si number density = 19.844498 Si / 1000 Ang^3
#
#
#
# Elastic Constant Matrix: (Units=GPa)
#
#
# Indices 1 2 3 4 5 6 
#
# 1 98.0227 56.3778 32.7246 0.0000 -14.0751 0.0000
# 2 56.3778 130.7094 59.5935 0.0000 -25.1582 0.0000
# 3 32.7246 59.5935 98.5637 0.0000 -12.9147 0.0000
# 4 0.0000 0.0000 0.0000 36.4874 0.0000 3.0754
# 5 -14.0751 -25.1582 -12.9147 0.0000 28.7370 0.0000
# 6 0.0000 0.0000 0.0000 3.0754 0.0000 33.0694
#
#
#
# Elastic Compliance Matrix: (Units=1/GPa)
#
#
# Indices 1 2 3 4 5 6 
#
# 1 0.013771 -0.004996 -0.001318 0.000000 0.001778 0.000000
# 2 -0.004996 0.013782 -0.005752 0.000000 0.007033 0.000000
# 3 -0.001318 -0.005752 0.014150 0.000000 0.000678 0.000000
# 4 0.000000 0.000000 0.000000 0.027623 0.000000 -0.002569
# 5 0.001778 0.007033 0.000678 0.000000 0.042131 0.000000
# 6 0.000000 0.000000 0.000000 -0.002569 0.000000 0.030478
#
#
# Mechanical properties :
#
#
# Convention : Reuss Voigt Hill
#
# Bulk Modulus (GPa) = 56.91852 69.40973 63.16413
# Shear Modulus (GPa) = 29.08228 31.56544 30.32386
#
# Velocity S-wave (km/s) = 3.83235 3.99261 3.91330
# Velocity P-wave (km/s) = 6.95177 7.50382 7.23306
#
# Compressibility (1/GPa) = 0.01756897
#
# Stress axis : x y z
#
# Youngs Moduli (GPa) = 72.61748 72.55847 70.67043
#
# Poissons Ratio (x) = 0.36253 0.09316
# Poissons Ratio (y) = 0.36282 0.40653
# Poissons Ratio (z) = 0.09572 0.41739
#
# Static dielectric constant tensor:
#      x y z
#    x 3.663010 0.000000 0.015830 
#    y 0.000000 3.534110 0.000000 
#    z 0.015830 0.000000 3.517080 
# 
# 
# High freq. dielectric constant tensor:
#      x y z
#    x 1.783720 0.000000 0.002790 
#    y 0.000000 1.763230 0.000000 
#    z 0.002790 0.000000 1.770710 
# 
# From -- ./inp_files/106010.got.cif
#   From: 2010.06.25/outbox.cif.g09.slc.cpg/sg12_54_cif.got.tgz:106010.got - 2010.06.28 00:19:55.
