data_PCOD8104506
_publ_section_title
;
Structure prediction by ZEFSAII (Michael W. Deem and Ramdas Pophale) SiO2 
 PCOD8104506
Probable space group: C 2/M
;
_chemical_formula_sum "Si O2"
_cell_formula_units_Z 60
_cell_length_a 14.080418
_cell_length_b 9.728458
_cell_length_c 23.510970
_cell_angle_alpha 90.000000
_cell_angle_beta 106.274363
_cell_angle_gamma 90.000000
_cell_volume 3091.505482
_symmetry_space_group_name_H-M "C 2/M"
_symmetry_group_IT_number 12
_symmetry_cell_setting 'monoclinic'
loop_
_space_group_symop_operation_xyz
x,y,z
-x,y,-z
-x,-y,-z
x,-y,z
1/2+x,1/2+y,z
1/2-x,1/2+y,-z
1/2-x,1/2-y,-z
1/2+x,1/2-y,z
loop_
_atom_site_type_symbol
_atom_site_label
_atom_site_fract_x
_atom_site_fract_y
_atom_site_fract_z
Si Si1 0.000000 0.274866 0.000000
Si Si2 0.199947 0.842614 0.223801
Si Si3 0.455454 0.841574 0.404199
Si Si4 0.392088 0.151380 0.090251
Si Si5 0.632123 0.663790 0.707557
Si Si6 0.657664 0.843017 0.500529
Si Si7 0.683891 0.658553 0.094468
Si Si8 0.522986 0.346342 0.804026
O O1 0.920309 0.187036 0.952360
O O2 0.063739 0.362324 0.965810
O O3 0.262841 0.741492 0.274618
O O4 0.196349 0.776203 0.159420
O O5 0.091230 0.839516 0.232345
O O6 0.241408 0.000000 0.232104
O O7 0.435756 0.731149 0.351880
O O8 0.566989 0.813701 0.443016
O O9 0.377657 0.812434 0.441420
O O10 0.444458 0.000000 0.381525
O O11 0.277394 0.203072 0.070726
O O12 0.458006 0.251284 0.138752
O O13 0.396199 0.000000 0.118528
O O14 0.643082 0.500000 0.699285
O O15 0.584629 0.700619 0.760141
O O16 0.750000 0.750000 0.500000
O O17 0.692198 0.000000 0.500676
O O18 0.683509 0.500000 0.107044
O O19 0.552809 0.500000 0.827756
#
# Coordination Sequence:
#
# PCOD8104506 Si02
#       8
#     4   8   8   8   8   8   8   8
#     4  12  22  38  58  86 115 144 185 242 291 350
#     4  10  20  39  61  82 110 151 194 233 288 356
#     4   9  20  39  60  86 124 167 201 236 288 354
#     4  11  23  39  57  84 114 143 182 233 294 352
#     4  11  23  38  59  90 119 150 196 250 295 337
#     4   9  19  37  62  91 124 163 205 244 291 338
#     4  10  21  37  60  84 109 146 189 229 284 358
#     4  10  22  40  60  82 110 149 192 236 288 346
#
# _framework density 19.40802
#
# number of rings (size 3 to 8) (size 9 to 14) (size 15 to 20)
#    0.000    1.867    2.667    2.000    0.000    3.733 
#    0.000    6.667    0.000    0.000    0.000    0.000 
#    0.000    0.000    0.000    0.000    0.000    0.000 
#
# Total GULP energy -371877.460244 kJ/mol
# GULP energy per Si atom -12395.915341 kJ/mol
# Density = 1.936385 g / cm^3
# Si number density = 19.408020 Si / 1000 Ang^3
#
#
#
# Elastic Constant Matrix: (Units=GPa)
#
#
# Indices 1 2 3 4 5 6 
#
# 1 103.7387 40.3791 19.4230 0.0000 9.6242 0.0000
# 2 40.3791 94.5140 46.9539 0.0000 8.6912 0.0000
# 3 19.4230 46.9539 77.9388 0.0000 14.5037 0.0000
# 4 0.0000 0.0000 0.0000 12.8828 0.0000 22.7593
# 5 9.6242 8.6912 14.5037 0.0000 22.0393 0.0000
# 6 0.0000 0.0000 0.0000 22.7593 0.0000 14.4227
#
#
#
# Elastic Compliance Matrix: (Units=1/GPa)
#
#
# Indices 1 2 3 4 5 6 
#
# 1 0.011820 -0.005121 0.000825 0.000000 -0.003685 0.000000
# 2 -0.005121 0.017318 -0.009461 0.000000 0.001633 0.000000
# 3 0.000825 -0.009461 0.020167 0.000000 -0.009901 0.000000
# 4 0.000000 0.000000 0.000000 -0.043418 0.000000 0.068515
# 5 -0.003685 0.001633 -0.009901 0.000000 0.052855 0.000000
# 6 0.000000 0.000000 0.000000 0.068515 0.000000 -0.038783
#
#
# Mechanical properties :
#
#
# Convention : Reuss Voigt Hill
#
# Bulk Modulus (GPa) = 45.88809 54.41152 50.14981
# Shear Modulus (GPa) = 91.34600 21.16467 56.25533
#
# Velocity S-wave (km/s) = 6.86792 3.30587 5.38967
# Velocity P-wave (km/s) = 9.30517 6.53209 8.03911
#
# Compressibility (1/GPa) = 0.02179215
#
# Stress axis : x y z
#
# Youngs Moduli (GPa) = 84.60017 57.74235 49.58554
#
# Poissons Ratio (x) = 0.29570 -0.04092
# Poissons Ratio (y) = 0.43324 0.46913
# Poissons Ratio (z) = -0.06982 0.54630
#
# Static dielectric constant tensor:
#      x y z
#    x 3.678970 0.000000 -0.058920 
#    y 0.000000 3.405670 0.000000 
#    z -0.058920 0.000000 3.425660 
# 
# 
# High freq. dielectric constant tensor:
#      x y z
#    x 1.768160 0.000000 0.000030 
#    y 0.000000 1.747170 0.000000 
#    z 0.000030 0.000000 1.746490 
# 
# From -- ./inp_files/338950.got.cif
#   From: 2010.06.25/outbox.cif.g09.slc.cpg/sg12_170_cif.got.tgz:338950.got - 2010.06.28 00:19:55.
