data_PCOD8104386
_publ_section_title
;
Structure prediction by ZEFSAII (Michael W. Deem and Ramdas Pophale) SiO2 
 PCOD8104386
Probable space group: C 2/M
;
_chemical_formula_sum "Si O2"
_cell_formula_units_Z 44
_cell_length_a 12.571923
_cell_length_b 29.628907
_cell_length_c 5.368336
_cell_angle_alpha 90.000000
_cell_angle_beta 101.512567
_cell_angle_gamma 90.000000
_cell_volume 1959.432689
_symmetry_space_group_name_H-M "C 2/M"
_symmetry_group_IT_number 12
_symmetry_cell_setting 'monoclinic'
loop_
_space_group_symop_operation_xyz
x,y,z
-x,y,-z
-x,-y,-z
x,-y,z
1/2+x,1/2+y,z
1/2-x,1/2+y,-z
1/2-x,1/2-y,-z
1/2+x,1/2-y,z
loop_
_atom_site_type_symbol
_atom_site_label
_atom_site_fract_x
_atom_site_fract_y
_atom_site_fract_z
Si Si1 0.000000 0.299838 0.000000
Si Si2 0.953295 0.551697 0.728052
Si Si3 0.797939 0.681259 0.631374
Si Si4 0.614166 0.257858 0.674840
Si Si5 0.118114 0.052842 0.969078
Si Si6 0.224326 0.916532 0.525820
O O1 0.084260 0.331063 0.190857
O O2 0.915101 0.265261 0.081756
O O3 0.993008 0.500000 0.746596
O O4 0.824333 0.554241 0.671267
O O5 0.000000 0.575841 0.500000
O O6 0.000000 0.575410 0.000000
O O7 0.698256 0.700713 0.754776
O O8 0.823790 0.718571 0.441296
O O9 0.754779 0.635393 0.491857
O O10 0.500000 0.274204 0.500000
O O11 0.193350 0.064915 0.239622
O O12 0.125590 0.000000 0.915333
O O13 0.139926 0.078599 0.716876
O O14 0.000000 0.068192 0.000000
#
# Coordination Sequence:
#
# PCOD8104386 Si02
#       6
#     4   8   8   8   8   8
#     4  10  20  38  66  90 125 182 217 268 334 406
#     4  10  21  37  59  88 126 169 211 257 319 390
#     4  10  23  38  63  93 135 169 223 275 335 400
#     4   9  20  41  62  90 127 176 220 271 337 399
#     4  11  25  47  71  96 132 178 226 278 340 402
#     4  12  25  41  69 101 134 172 222 284 333 396
#
# _framework density 22.455476999999998
#
# number of rings (size 3 to 8) (size 9 to 14) (size 15 to 20)
#    0.000    1.636    0.000    3.818    3.818    6.545 
#    1.636    0.000    0.000    0.000    0.000    0.000 
#    0.000    0.000    0.000    0.000    0.000    0.000 
#
# Total GULP energy -272563.732144 kJ/mol
# GULP energy per Si atom -12389.260552 kJ/mol
# Density = 2.240437 g / cm^3
# Si number density = 22.455477 Si / 1000 Ang^3
#
#
#
# Elastic Constant Matrix: (Units=GPa)
#
#
# Indices 1 2 3 4 5 6 
#
# 1 102.0045 27.4378 14.4012 0.0000 -7.8249 0.0000
# 2 27.4378 47.9427 4.9797 0.0000 4.6189 0.0000
# 3 14.4012 4.9797 87.9900 0.0000 -5.0075 0.0000
# 4 0.0000 0.0000 0.0000 4.7262 0.0000 4.1488
# 5 -7.8249 4.6189 -5.0075 0.0000 39.6665 0.0000
# 6 0.0000 0.0000 0.0000 4.1488 0.0000 11.5740
#
#
#
# Elastic Compliance Matrix: (Units=1/GPa)
#
#
# Indices 1 2 3 4 5 6 
#
# 1 0.012146 -0.007097 -0.001413 0.000000 0.003044 0.000000
# 2 -0.007097 0.025401 -0.000528 0.000000 -0.004425 0.000000
# 3 -0.001413 -0.000528 0.011698 0.000000 0.001259 0.000000
# 4 0.000000 0.000000 0.000000 0.308738 0.000000 -0.110671
# 5 0.003044 -0.004425 0.001259 0.000000 0.026485 0.000000
# 6 0.000000 0.000000 0.000000 -0.110671 0.000000 0.126072
#
#
# Mechanical properties :
#
#
# Convention : Reuss Voigt Hill
#
# Bulk Modulus (GPa) = 32.08391 36.84161 34.46276
# Shear Modulus (GPa) = 9.27634 23.93458 16.60546
#
# Velocity S-wave (km/s) = 2.03469 3.26831 2.72230
# Velocity P-wave (km/s) = 4.45407 5.53936 5.02610
#
# Compressibility (1/GPa) = 0.03116827
#
# Stress axis : x y z
#
# Youngs Moduli (GPa) = 82.33434 39.36818 85.48669
#
# Poissons Ratio (x) = 0.27941 0.12079
# Poissons Ratio (y) = 0.58437 0.04511
# Poissons Ratio (z) = 0.11633 0.02078
#
# Static dielectric constant tensor:
#      x y z
#    x 5.013110 0.000000 -0.090930 
#    y 0.000000 3.705840 0.000000 
#    z -0.090930 0.000000 4.144300 
# 
# 
# High freq. dielectric constant tensor:
#      x y z
#    x 1.905950 0.000000 -0.001630 
#    y 0.000000 1.865400 0.000000 
#    z -0.001630 0.000000 1.884050 
# 
# From -- ./inp_files/8491.got.cif
#   From: 2010.06.25/outbox.cif.g09.slc.cpg/sg12_5_cif.got.tgz:8491.got - 2010.06.28 00:19:55.
