data_PCOD8104994
_publ_section_title
;
Structure prediction by ZEFSAII (Michael W. Deem and Ramdas Pophale) SiO2 
 PCOD8104994
Probable space group: C 2/M
;
_chemical_formula_sum "Si O2"
_cell_formula_units_Z 40
_cell_length_a 17.670022
_cell_length_b 22.300364
_cell_length_c 14.661030
_cell_angle_alpha 90.000000
_cell_angle_beta 162.535252
_cell_angle_gamma 90.000000
_cell_volume 1733.831747
_symmetry_space_group_name_H-M "C 2/M"
_symmetry_group_IT_number 12
_symmetry_cell_setting 'monoclinic'
loop_
_space_group_symop_operation_xyz
x,y,z
-x,y,-z
-x,-y,-z
x,-y,z
1/2+x,1/2+y,z
1/2-x,1/2+y,-z
1/2-x,1/2-y,-z
1/2+x,1/2-y,z
loop_
_atom_site_type_symbol
_atom_site_label
_atom_site_fract_x
_atom_site_fract_y
_atom_site_fract_z
Si Si1 0.789707 0.931073 0.328873
Si Si2 0.346415 0.567395 0.600199
Si Si3 0.024076 0.677654 0.288782
Si Si4 0.222698 0.632301 0.819016
Si Si5 0.001773 0.246022 0.099855
O O1 0.913714 0.923495 0.571329
O O2 0.000000 0.902174 0.500000
O O3 0.757429 0.000000 0.262178
O O4 0.500000 0.903810 0.000000
O O5 0.246227 0.500000 0.502842
O O6 0.135385 0.614115 0.386624
O O7 0.590110 0.577663 0.944460
O O8 0.888222 0.708407 0.045068
O O9 0.220035 0.726468 0.551034
O O10 0.830624 0.663498 0.145677
O O11 0.000000 0.605748 0.500000
O O12 0.340206 0.686125 0.895947
O O13 0.000000 0.279948 0.000000
#
# Coordination Sequence:
#
# PCOD8104994 Si02
#       5
#     8   8   8   8   8
#     4   9  19  37  62  88 124 176 224 274 334 392
#     4  10  24  41  61  94 133 175 224 271 321 402
#     4  10  22  39  64  93 124 168 214 270 333 395
#     4  11  22  40  66  93 129 173 215 271 338 394
#     4  10  20  40  65  93 125 158 211 276 336 404
#
# _framework density 23.070288000000001
#
# number of rings (size 3 to 8) (size 9 to 14) (size 15 to 20)
#    0.000    2.000    2.000    0.600    2.800    2.000 
#    0.000    1.000    0.000    0.000    0.000    0.000 
#    0.000    0.000    0.000    0.000    0.000    0.000 
#
# Total GULP energy -247823.533849 kJ/mol
# GULP energy per Si atom -12391.176692 kJ/mol
# Density = 2.301778 g / cm^3
# Si number density = 23.070288 Si / 1000 Ang^3
#
#
#
# Elastic Constant Matrix: (Units=GPa)
#
#
# Indices 1 2 3 4 5 6 
#
# 1 120.9797 21.6810 25.5815 0.0162 -12.0536 0.0033
# 2 21.6810 68.0042 26.4362 0.0013 -18.9237 0.0002
# 3 25.5815 26.4362 90.6245 0.0474 -8.5762 0.0142
# 4 0.0162 0.0013 0.0474 -10.2630 0.0132 -13.2799
# 5 -12.0536 -18.9237 -8.5762 0.0132 42.4068 0.0032
# 6 0.0033 0.0002 0.0142 -13.2799 0.0032 29.2627
#
#
#
# Elastic Compliance Matrix: (Units=1/GPa)
#
#
# Indices 1 2 3 4 5 6 
#
# 1 0.009131 -0.001768 -0.001928 0.000005 0.001417 0.000002
# 2 -0.001768 0.018926 -0.004354 -0.000008 0.007063 -0.000002
# 3 -0.001928 -0.004354 0.012859 0.000040 0.000110 0.000012
# 4 0.000005 -0.000008 0.000040 -0.061389 0.000027 -0.027859
# 5 0.001417 0.007063 0.000110 0.000027 0.027158 0.000009
# 6 0.000002 -0.000002 0.000012 -0.027859 0.000009 0.021530
#
#
# Mechanical properties :
#
#
# Convention : Reuss Voigt Hill
#
# Bulk Modulus (GPa) = 40.29232 47.44508 43.86870
# Shear Modulus (GPa) = 95.07963 26.00863 60.54413
#
# Velocity S-wave (km/s) = 6.42670 3.36127 5.12838
# Velocity P-wave (km/s) = 8.51897 5.97279 7.35687
#
# Compressibility (1/GPa) = 0.02481863
#
# Stress axis : x y z
#
# Youngs Moduli (GPa) = 109.51169 52.83637 77.76567
#
# Poissons Ratio (x) = 0.09339 0.14993
# Poissons Ratio (y) = 0.19357 0.33857
# Poissons Ratio (z) = 0.21113 0.23003
#
# Static dielectric constant tensor:
#      x y z
#    x 4.490490 0.000000 -0.095880 
#    y 0.000000 3.975750 -0.000010 
#    z -0.095880 -0.000010 4.035810 
# 
# 
# High freq. dielectric constant tensor:
#      x y z
#    x 1.923340 0.000000 -0.013170 
#    y 0.000000 1.890520 0.000000 
#    z -0.013170 0.000000 1.898270 
# 
# From -- ./inp_files/7728.got.cif
#   From: 2010.06.25/outbox.cif.g09.slc.cpg/sg12_4_cif.got.tgz:7728.got - 2010.06.28 00:19:55.
