data_PCOD8104406
_publ_section_title
;
Structure prediction by ZEFSAII (Michael W. Deem and Ramdas Pophale) SiO2 
 PCOD8104406
Probable space group: C 2/M
;
_chemical_formula_sum "Si O2"
_cell_formula_units_Z 52
_cell_length_a 9.390649
_cell_length_b 14.789325
_cell_length_c 33.026242
_cell_angle_alpha 90.000000
_cell_angle_beta 144.715289
_cell_angle_gamma 90.000000
_cell_volume 2649.477561
_symmetry_space_group_name_H-M "C 2/M"
_symmetry_group_IT_number 12
_symmetry_cell_setting 'monoclinic'
loop_
_space_group_symop_operation_xyz
x,y,z
-x,y,-z
-x,-y,-z
x,-y,z
1/2+x,1/2+y,z
1/2-x,1/2+y,-z
1/2-x,1/2-y,-z
1/2+x,1/2-y,z
loop_
_atom_site_type_symbol
_atom_site_label
_atom_site_fract_x
_atom_site_fract_y
_atom_site_fract_z
Si Si1 0.024214 0.224172 0.094658
Si Si2 0.809437 0.899974 0.803070
Si Si3 0.969839 0.500000 0.445441
Si Si4 0.747197 0.656183 0.340727
Si Si5 0.889186 0.342675 0.649879
Si Si6 0.000000 0.749585 0.000000
Si Si7 0.180146 0.894777 0.819177
Si Si8 0.975003 0.000000 0.448086
O O1 0.214657 0.163807 0.163647
O O2 0.063689 0.197420 0.056503
O O3 0.081564 0.328884 0.120897
O O4 0.746152 0.194849 0.043715
O O5 0.558573 0.894266 0.720824
O O6 0.031750 0.871725 0.825397
O O7 0.849721 0.000000 0.829030
O O8 0.253093 0.500000 0.503310
O O9 0.000000 0.500000 0.500000
O O10 0.828302 0.585704 0.393855
O O11 0.696904 0.747076 0.353370
O O12 0.493164 0.625459 0.259846
O O13 0.968729 0.667902 0.359901
O O14 0.655327 0.407072 0.594317
O O15 0.264142 0.000000 0.836943
O O16 0.000000 0.000000 0.500000
#
# Coordination Sequence:
#
# PCOD8104406 Si02
#       8
#     8   8   4   8   8   4   8   4
#     4  11  20  42  62  96 122 173 200 261 311 376
#     4  10  20  38  66  96 121 163 217 261 305 370
#     4  12  28  46  64  92 138 171 206 262 324 385
#     4  11  23  42  66  97 126 164 215 268 312 377
#     4  11  23  40  68  96 126 164 216 266 315 376
#     4  10  24  38  62  88 142 162 200 246 328 384
#     4  10  20  38  68  94 122 163 214 261 312 362
#     4  12  24  46  64  90 134 175 198 254 336 381
#
# _framework density 19.626512000000002
#
# number of rings (size 3 to 8) (size 9 to 14) (size 15 to 20)
#    0.000    1.231    6.154    0.000    2.154    1.231 
#    0.000    5.385    0.000    0.000    0.000    0.000 
#    0.000    0.000    0.000    0.000    0.000    0.000 
#
# Total GULP energy -322090.273603 kJ/mol
# GULP energy per Si atom -12388.087446 kJ/mol
# Density = 1.958184 g / cm^3
# Si number density = 19.626512 Si / 1000 Ang^3
#
#
#
# Elastic Constant Matrix: (Units=GPa)
#
#
# Indices 1 2 3 4 5 6 
#
# 1 87.3824 30.7417 46.2243 -0.0001 -18.4191 0.0000
# 2 30.7417 120.9291 50.9915 -0.0001 -14.8916 0.0000
# 3 46.2243 50.9915 103.7817 -0.0003 -21.4825 0.0000
# 4 -0.0001 -0.0001 -0.0003 2.3573 -0.0001 -4.8547
# 5 -18.4191 -14.8916 -21.4825 -0.0001 44.5830 0.0000
# 6 0.0000 0.0000 0.0000 -4.8547 0.0000 30.7802
#
#
#
# Elastic Compliance Matrix: (Units=1/GPa)
#
#
# Indices 1 2 3 4 5 6 
#
# 1 0.015548 -0.001153 -0.005675 0.000000 0.003304 0.000000
# 2 -0.001153 0.010567 -0.004495 0.000000 0.000888 0.000000
# 3 -0.005675 -0.004495 0.015080 0.000002 0.003420 0.000000
# 4 0.000000 0.000000 0.000002 0.628302 0.000003 0.099096
# 5 0.003304 0.000888 0.003420 0.000003 0.025740 0.000001
# 6 0.000000 0.000000 0.000000 0.099096 0.000001 0.048118
#
#
# Mechanical properties :
#
#
# Convention : Reuss Voigt Hill
#
# Bulk Modulus (GPa) = 53.90867 63.11203 58.51035
# Shear Modulus (GPa) = 6.47516 27.81980 17.14748
#
# Velocity S-wave (km/s) = 1.81834 3.76900 2.95903
# Velocity P-wave (km/s) = 5.65114 7.15310 6.44601
#
# Compressibility (1/GPa) = 0.01854989
#
# Stress axis : x y z
#
# Youngs Moduli (GPa) = 64.31783 94.63494 66.31509
#
# Poissons Ratio (x) = 0.10909 0.37632
# Poissons Ratio (y) = 0.07414 0.29807
# Poissons Ratio (z) = 0.36498 0.42536
#
# Static dielectric constant tensor:
#      x y z
#    x 3.577860 0.000000 -0.084810 
#    y 0.000000 3.500710 0.000000 
#    z -0.084810 0.000000 3.964830 
# 
# 
# High freq. dielectric constant tensor:
#      x y z
#    x 1.760140 0.000000 -0.008030 
#    y 0.000000 1.754440 0.000000 
#    z -0.008030 0.000000 1.786350 
# 
# From -- ./inp_files/372530.got.cif
#   From: 2010.06.25/outbox.cif.g09.slc.cpg/sg12_187_cif.got.tgz:372530.got - 2010.06.28 00:19:55.
