data_PCOD8104434
_publ_section_title
;
Structure prediction by ZEFSAII (Michael W. Deem and Ramdas Pophale) SiO2 
 PCOD8104434
Probable space group: C 2/M
;
_chemical_formula_sum "Si O2"
_cell_formula_units_Z 32
_cell_length_a 7.430025
_cell_length_b 17.759198
_cell_length_c 17.520796
_cell_angle_alpha 90.000000
_cell_angle_beta 42.870468
_cell_angle_gamma 90.000000
_cell_volume 1572.879702
_symmetry_space_group_name_H-M "C 2/M"
_symmetry_group_IT_number 12
_symmetry_cell_setting 'monoclinic'
loop_
_space_group_symop_operation_xyz
x,y,z
-x,y,-z
-x,-y,-z
x,-y,z
1/2+x,1/2+y,z
1/2-x,1/2+y,-z
1/2-x,1/2-y,-z
1/2+x,1/2-y,z
loop_
_atom_site_type_symbol
_atom_site_label
_atom_site_fract_x
_atom_site_fract_y
_atom_site_fract_z
Si Si1 0.203700 0.152872 0.375777
Si Si2 0.424342 0.309787 0.309888
Si Si3 0.753655 0.412319 0.757724
Si Si4 0.215907 0.185672 0.073065
O O1 0.261454 0.237424 0.388161
O O2 0.079020 0.152215 0.330870
O O3 0.467717 0.102677 0.287890
O O4 0.000000 0.116675 0.500000
O O5 0.236553 0.373310 0.329592
O O6 0.628011 0.278140 0.182021
O O7 0.701256 0.500000 0.765274
O O8 0.505905 0.376235 0.882310
O O9 0.500000 0.146120 0.000000
O O10 0.250000 0.250000 0.000000
#
# Coordination Sequence:
#
# PCOD8104434 Si02
#       4
#     8   8   8   8
#     4  12  22  39  69  96 126 176 226 263 316 385
#     4  10  22  38  66  96 127 168 219 271 310 380
#     4  10  25  42  62  98 138 164 214 276 322 380
#     4  10  20  38  68  91 123 166 214 256 326 380
#
# _framework density 20.344847999999999
#
# number of rings (size 3 to 8) (size 9 to 14) (size 15 to 20)
#    1.500    0.000    2.500    3.750    0.000    2.000 
#    0.000    1.250    0.000    6.750    0.000    0.000 
#    0.000    0.000    0.000    0.000    0.000    0.000 
#
# Total GULP energy -198273.290008 kJ/mol
# GULP energy per Si atom -12392.080626 kJ/mol
# Density = 2.029854 g / cm^3
# Si number density = 20.344848 Si / 1000 Ang^3
#
#
#
# Elastic Constant Matrix: (Units=GPa)
#
#
# Indices 1 2 3 4 5 6 
#
# 1 104.9193 9.6089 24.0228 0.0001 9.1620 -0.0003
# 2 9.6089 102.8358 13.5858 0.0000 -5.9020 0.0000
# 3 24.0228 13.5858 94.0526 -0.0005 -1.4259 0.0002
# 4 0.0001 0.0000 -0.0005 12.7048 0.0002 -0.7210
# 5 9.1620 -5.9020 -1.4259 0.0002 36.1498 0.0000
# 6 -0.0003 0.0000 0.0002 -0.7210 0.0000 24.2509
#
#
#
# Elastic Compliance Matrix: (Units=1/GPa)
#
#
# Indices 1 2 3 4 5 6 
#
# 1 0.010451 -0.000799 -0.002598 0.000000 -0.002882 0.000000
# 2 -0.000799 0.010064 -0.001222 0.000000 0.001797 0.000000
# 3 -0.002598 -0.001222 0.011486 0.000000 0.000912 0.000000
# 4 0.000000 0.000000 0.000000 0.078844 0.000000 0.002344
# 5 -0.002882 0.001797 0.000912 0.000000 0.028722 0.000000
# 6 0.000000 0.000000 0.000000 0.002344 0.000000 0.041305
#
#
# Mechanical properties :
#
#
# Convention : Reuss Voigt Hill
#
# Bulk Modulus (GPa) = 43.93104 44.02697 43.97900
# Shear Modulus (GPa) = 25.29124 31.59376 28.44250
#
# Velocity S-wave (km/s) = 3.52963 3.94498 3.74307
# Velocity P-wave (km/s) = 6.18475 6.51443 6.35173
#
# Compressibility (1/GPa) = 0.02276295
#
# Stress axis : x y z
#
# Youngs Moduli (GPa) = 95.68761 99.36889 87.06083
#
# Poissons Ratio (x) = 0.07937 0.22615
# Poissons Ratio (y) = 0.07643 0.10642
# Poissons Ratio (z) = 0.24856 0.12147
#
# Static dielectric constant tensor:
#      x y z
#    x 3.798230 0.000000 -0.272980 
#    y 0.000000 3.199990 0.000000 
#    z -0.272980 0.000000 3.684810 
# 
# 
# High freq. dielectric constant tensor:
#      x y z
#    x 1.808240 0.000000 -0.016240 
#    y 0.000000 1.753140 0.000000 
#    z -0.016240 0.000000 1.792470 
# 
# From -- ./inp_files/256045.got.cif
#   From: 2010.06.25/outbox.cif.g09.slc.cpg/sg12_129_cif.got.tgz:256045.got - 2010.06.28 00:19:55.
