data_PCOD8104999
_publ_section_title
;
Structure prediction by ZEFSAII (Michael W. Deem and Ramdas Pophale) SiO2 
 PCOD8104999
Probable space group: C 2/M
;
_chemical_formula_sum "Si O2"
_cell_formula_units_Z 32
_cell_length_a 8.907953
_cell_length_b 26.891868
_cell_length_c 11.000449
_cell_angle_alpha 90.000000
_cell_angle_beta 150.270763
_cell_angle_gamma 90.000000
_cell_volume 1306.787672
_symmetry_space_group_name_H-M "C 2/M"
_symmetry_group_IT_number 12
_symmetry_cell_setting 'monoclinic'
loop_
_space_group_symop_operation_xyz
x,y,z
-x,y,-z
-x,-y,-z
x,-y,z
1/2+x,1/2+y,z
1/2-x,1/2+y,-z
1/2-x,1/2-y,-z
1/2+x,1/2-y,z
loop_
_atom_site_type_symbol
_atom_site_label
_atom_site_fract_x
_atom_site_fract_y
_atom_site_fract_z
Si Si1 0.967199 0.906293 0.281335
Si Si2 0.189003 0.724145 0.332252
Si Si3 0.417688 0.943049 0.772885
Si Si4 0.582226 0.676807 0.930041
O O1 0.754035 0.907697 0.250682
O O2 0.041575 0.851834 0.277349
O O3 0.289419 0.930945 0.546778
O O4 0.779925 0.933693 0.039651
O O5 0.500000 0.700763 0.500000
O O6 0.250000 0.750000 0.500000
O O7 0.063474 0.768435 0.158845
O O8 0.946680 0.679649 0.170565
O O9 0.343678 0.000000 0.753548
O O10 0.500000 0.649509 0.000000
#
# Coordination Sequence:
#
# PCOD8104999 Si02
#       4
#     8   8   8   8
#     4  10  21  36  65  98 130 177 221 285 343 417
#     4  11  24  44  69  90 134 188 231 292 348 410
#     4  10  20  40  66 100 137 175 225 293 353 412
#     4  11  25  43  62 100 136 181 240 285 350 414
#
# _framework density 24.487527
#
# number of rings (size 3 to 8) (size 9 to 14) (size 15 to 20)
#    0.000    1.500    2.500    3.750    3.500    4.000 
#    0.000    0.000    0.000    8.250    0.000    0.000 
#    0.000    0.000    0.000    0.000    0.000    0.000 
#
# Total GULP energy -198256.848654 kJ/mol
# GULP energy per Si atom -12391.053041 kJ/mol
# Density = 2.443179 g / cm^3
# Si number density = 24.487527 Si / 1000 Ang^3
#
#
#
# Elastic Constant Matrix: (Units=GPa)
#
#
# Indices 1 2 3 4 5 6 
#
# 1 106.3342 40.3892 44.1269 0.0000 -1.2411 0.0000
# 2 40.3892 79.9892 33.3469 0.0000 -2.1417 0.0000
# 3 44.1269 33.3469 209.7169 0.0000 -19.3248 0.0000
# 4 0.0000 0.0000 0.0000 32.1391 0.0000 -11.4710
# 5 -1.2411 -2.1417 -19.3248 0.0000 43.4346 0.0000
# 6 0.0000 0.0000 0.0000 -11.4710 0.0000 21.6083
#
#
#
# Elastic Compliance Matrix: (Units=1/GPa)
#
#
# Indices 1 2 3 4 5 6 
#
# 1 0.012195 -0.005441 -0.001766 0.000000 -0.000706 0.000000
# 2 -0.005441 0.015820 -0.001369 0.000000 0.000015 0.000000
# 3 -0.001766 -0.001369 0.005575 0.000000 0.002363 0.000000
# 4 0.000000 0.000000 0.000000 0.038388 0.000000 0.020379
# 5 -0.000706 0.000015 0.002363 0.000000 0.024055 0.000000
# 6 0.000000 0.000000 0.000000 0.020379 0.000000 0.057097
#
#
# Mechanical properties :
#
#
# Convention : Reuss Voigt Hill
#
# Bulk Modulus (GPa) = 60.83059 70.19627 65.51343
# Shear Modulus (GPa) = 28.44754 37.98156 33.21455
#
# Velocity S-wave (km/s) = 3.41209 3.94262 3.68691
# Velocity P-wave (km/s) = 6.35756 7.03236 6.70345
#
# Compressibility (1/GPa) = 0.01643910
#
# Stress axis : x y z
#
# Youngs Moduli (GPa) = 81.99795 63.21080 179.36049
#
# Poissons Ratio (x) = 0.34390 0.31675
# Poissons Ratio (y) = 0.44611 0.24561
# Poissons Ratio (z) = 0.14481 0.08656
#
# Static dielectric constant tensor:
#      x y z
#    x 3.713340 0.000000 -0.470080 
#    y 0.000000 4.439180 0.000000 
#    z -0.470080 0.000000 5.485370 
# 
# 
# High freq. dielectric constant tensor:
#      x y z
#    x 1.925660 0.000000 -0.028140 
#    y 0.000000 1.948810 0.000000 
#    z -0.028140 0.000000 2.006860 
# 
# From -- ./inp_files/125535.got.cif
#   From: 2010.06.25/outbox.cif.g09.slc.cpg/sg12_63_cif.got.tgz:125535.got - 2010.06.28 00:19:55.
