data_PCOD8104651
_publ_section_title
;
Structure prediction by ZEFSAII (Michael W. Deem and Ramdas Pophale) SiO2 
 PCOD8104651
Probable space group: C 2/M
;
_chemical_formula_sum "Si O2"
_cell_formula_units_Z 56
_cell_length_a 18.206957
_cell_length_b 17.486263
_cell_length_c 25.573405
_cell_angle_alpha 90.000000
_cell_angle_beta 159.808274
_cell_angle_gamma 90.000000
_cell_volume 2810.261590
_symmetry_space_group_name_H-M "C 2/M"
_symmetry_group_IT_number 12
_symmetry_cell_setting 'monoclinic'
loop_
_space_group_symop_operation_xyz
x,y,z
-x,y,-z
-x,-y,-z
x,-y,z
1/2+x,1/2+y,z
1/2-x,1/2+y,-z
1/2-x,1/2-y,-z
1/2+x,1/2-y,z
loop_
_atom_site_type_symbol
_atom_site_label
_atom_site_fract_x
_atom_site_fract_y
_atom_site_fract_z
Si Si1 0.318944 0.214754 0.837490
Si Si2 0.320006 0.412857 0.421535
Si Si3 0.867488 0.826467 0.557581
Si Si4 0.481022 0.839597 0.131768
Si Si5 0.137027 0.658441 0.641015
Si Si6 0.759275 0.415289 0.436579
Si Si7 0.500058 0.668528 0.815869
O O1 0.435684 0.161544 0.872511
O O2 0.193648 0.282045 0.724144
O O3 0.124947 0.173877 0.738746
O O4 0.500000 0.242187 0.000000
O O5 0.500000 0.393033 0.500000
O O6 0.342009 0.500000 0.457567
O O7 0.328794 0.346769 0.471162
O O8 0.098323 0.404927 0.242719
O O9 0.750000 0.750000 0.500000
O O10 0.759479 0.898505 0.514608
O O11 0.513505 0.758180 0.181333
O O12 0.236194 0.863652 0.971320
O O13 0.359510 0.625238 0.766647
O O14 0.000000 0.693503 0.500000
O O15 0.001122 0.591632 0.577358
O O16 0.677338 0.500000 0.368908
O O17 0.608582 0.349622 0.311886
#
# Coordination Sequence:
#
# PCOD8104651 Si02
#       7
#     8   8   8   8   8   8   8
#     4  11  22  36  61  93 125 155 205 265 318 364
#     4  11  24  41  64  90 124 171 216 255 312 387
#     4  12  23  39  65  92 121 165 209 263 315 367
#     4  10  20  39  63  89 125 157 212 260 314 364
#     4   9  20  37  60  89 124 162 206 247 306 369
#     4  11  22  38  59  90 127 162 206 254 312 372
#     4   9  20  36  62  91 123 161 205 261 303 374
#
# _framework density 19.926971000000002
#
# number of rings (size 3 to 8) (size 9 to 14) (size 15 to 20)
#    0.000    1.571    2.857    2.143    4.000    5.429 
#    0.000    0.000    0.000    2.571    0.000    0.000 
#    0.000    0.000    0.000    0.000    0.000    0.000 
#
# Total GULP energy -346921.217208 kJ/mol
# GULP energy per Si atom -12390.043472 kJ/mol
# Density = 1.988162 g / cm^3
# Si number density = 19.926971 Si / 1000 Ang^3
#
#
#
# Elastic Constant Matrix: (Units=GPa)
#
#
# Indices 1 2 3 4 5 6 
#
# 1 127.3120 48.6426 59.0439 -0.0237 19.9181 -0.0078
# 2 48.6426 65.3097 30.6683 0.1106 1.3431 -0.0322
# 3 59.0439 30.6683 119.7389 0.1652 18.4715 -0.0935
# 4 -0.0237 0.1106 0.1652 11.9890 -0.1055 -0.2724
# 5 19.9181 1.3431 18.4715 -0.1055 46.4064 -0.0126
# 6 -0.0078 -0.0322 -0.0935 -0.2724 -0.0126 22.9206
#
#
#
# Elastic Compliance Matrix: (Units=1/GPa)
#
#
# Indices 1 2 3 4 5 6 
#
# 1 0.013357 -0.008025 -0.003923 0.000119 -0.003939 -0.000023
# 2 -0.008025 0.022307 -0.002331 -0.000156 0.003726 0.000019
# 3 -0.003923 -0.002331 0.011308 -0.000165 -0.002750 0.000038
# 4 0.000119 -0.000156 -0.000165 0.083438 0.000209 0.000991
# 5 -0.003939 0.003726 -0.002750 0.000209 0.024226 0.000009
# 6 -0.000023 0.000019 0.000038 0.000991 0.000009 0.043641
#
#
# Mechanical properties :
#
#
# Convention : Reuss Voigt Hill
#
# Bulk Modulus (GPa) = 54.31028 65.45226 59.88127
# Shear Modulus (GPa) = 21.46179 27.86359 24.66269
#
# Velocity S-wave (km/s) = 3.28536 3.74342 3.52185
# Velocity P-wave (km/s) = 6.45796 7.18343 6.83033
#
# Compressibility (1/GPa) = 0.01841272
#
# Stress axis : x y z
#
# Youngs Moduli (GPa) = 74.86933 44.82956 88.43591
#
# Poissons Ratio (x) = 0.35975 0.34697
# Poissons Ratio (y) = 0.60081 0.20613
# Poissons Ratio (z) = 0.29375 0.10449
#
# Static dielectric constant tensor:
#      x y z
#    x 4.017590 0.000430 0.249900 
#    y 0.000430 3.197790 -0.000390 
#    z 0.249900 -0.000390 3.726660 
# 
# 
# High freq. dielectric constant tensor:
#      x y z
#    x 1.801760 0.000000 0.015550 
#    y 0.000000 1.738240 -0.000040 
#    z 0.015550 -0.000040 1.775200 
# 
# From -- ./inp_files/344814.got.cif
#   From: 2010.06.25/outbox.cif.g09.slc.cpg/sg12_173_cif.got.tgz:344814.got - 2010.06.28 00:19:55.
