data_PCOD8104474
_publ_section_title
;
Structure prediction by ZEFSAII (Michael W. Deem and Ramdas Pophale) SiO2 
 PCOD8104474
Probable space group: C 2/M
;
_chemical_formula_sum "Si O2"
_cell_formula_units_Z 64
_cell_length_a 24.667596
_cell_length_b 17.346960
_cell_length_c 14.755965
_cell_angle_alpha 90.000000
_cell_angle_beta 31.242787
_cell_angle_gamma 90.000000
_cell_volume 3274.954642
_symmetry_space_group_name_H-M "C 2/M"
_symmetry_group_IT_number 12
_symmetry_cell_setting 'monoclinic'
loop_
_space_group_symop_operation_xyz
x,y,z
-x,y,-z
-x,-y,-z
x,-y,z
1/2+x,1/2+y,z
1/2-x,1/2+y,-z
1/2-x,1/2-y,-z
1/2+x,1/2-y,z
loop_
_atom_site_type_symbol
_atom_site_label
_atom_site_fract_x
_atom_site_fract_y
_atom_site_fract_z
Si Si1 0.920897 0.830612 0.810544
Si Si2 0.839682 0.860096 0.272405
Si Si3 0.868220 0.589560 0.335737
Si Si4 0.618628 0.800917 0.844921
Si Si5 0.270296 0.411029 0.889113
Si Si6 0.576410 0.833718 0.106486
Si Si7 0.040956 0.087666 0.068728
Si Si8 0.923979 0.916109 0.523789
O O1 0.827006 0.852052 0.876667
O O2 0.927304 0.741040 0.824559
O O3 0.897748 0.879649 0.933104
O O4 0.034426 0.853396 0.606897
O O5 0.737031 0.900768 0.457135
O O6 0.811686 0.771516 0.287596
O O7 0.934393 0.862875 0.209584
O O8 0.879197 0.906885 0.128796
O O9 0.895741 0.500000 0.284764
O O10 0.853951 0.624628 0.255235
O O11 0.961587 0.631816 0.255642
O O12 0.500000 0.774147 0.000000
O O13 0.634351 0.817103 0.928414
O O14 0.290859 0.500000 0.888687
O O15 0.311922 0.394775 0.726915
O O16 0.146760 0.394475 0.061983
O O17 0.007863 0.000000 0.130650
O O18 0.000000 0.921373 0.500000
O O19 0.919790 0.000000 0.481046
#
# Coordination Sequence:
#
# PCOD8104474 Si02
#       8
#     8   8   8   8   8   8   8   8
#     4  11  20  37  57  89 117 147 193 235 296 345
#     4  11  20  39  57  86 118 148 196 239 293 342
#     4  11  24  39  59  85 118 158 195 234 284 346
#     4  10  20  39  59  83 113 151 192 241 290 341
#     4  10  21  38  61  86 116 151 191 242 290 339
#     4  11  23  38  58  83 118 157 196 230 282 349
#     4  11  20  33  59  86 118 152 188 242 296 346
#     4   8  16  32  55  82 109 137 177 232 288 331
#
# _framework density 19.542255999999998
#
# number of rings (size 3 to 8) (size 9 to 14) (size 15 to 20)
#    0.000    1.625    2.500    5.250    0.000    4.750 
#    0.000    1.250    0.000    0.000    0.000    2.625 
#    0.000    0.000    0.000    0.000    0.000    0.000 
#
# Total GULP energy -396719.476516 kJ/mol
# GULP energy per Si atom -12397.483641 kJ/mol
# Density = 1.949778 g / cm^3
# Si number density = 19.542256 Si / 1000 Ang^3
#
#
#
# Elastic Constant Matrix: (Units=GPa)
#
#
# Indices 1 2 3 4 5 6 
#
# 1 56.8558 31.3445 29.9272 0.0000 -0.2747 0.0000
# 2 31.3445 127.8045 37.4335 0.0000 -0.4730 0.0000
# 3 29.9272 37.4335 92.9200 0.0000 -3.1535 0.0000
# 4 0.0000 0.0000 0.0000 28.0977 0.0000 1.4974
# 5 -0.2747 -0.4730 -3.1535 0.0000 16.2634 0.0000
# 6 0.0000 0.0000 0.0000 1.4974 0.0000 17.8949
#
#
#
# Elastic Compliance Matrix: (Units=1/GPa)
#
#
# Indices 1 2 3 4 5 6 
#
# 1 0.022782 -0.003892 -0.005798 0.000000 -0.000853 0.000000
# 2 -0.003892 0.009539 -0.002599 0.000000 -0.000292 0.000000
# 3 -0.005798 -0.002599 0.013761 0.000000 0.002495 0.000000
# 4 0.000000 0.000000 0.000000 0.035750 0.000000 -0.002991
# 5 -0.000853 -0.000292 0.002495 0.000000 0.061948 0.000000
# 6 0.000000 0.000000 0.000000 -0.002991 0.000000 0.056132
#
#
# Mechanical properties :
#
#
# Convention : Reuss Voigt Hill
#
# Bulk Modulus (GPa) = 46.50570 52.77673 49.64121
# Shear Modulus (GPa) = 21.58331 24.37622 22.97976
#
# Velocity S-wave (km/s) = 3.32692 3.53563 3.43286
# Velocity P-wave (km/s) = 6.21346 6.61307 6.41637
#
# Compressibility (1/GPa) = 0.02150274
#
# Stress axis : x y z
#
# Youngs Moduli (GPa) = 43.89400 104.82984 72.66746
#
# Poissons Ratio (x) = 0.40802 0.42136
# Poissons Ratio (y) = 0.17084 0.18888
# Poissons Ratio (z) = 0.25452 0.27248
#
# Static dielectric constant tensor:
#      x y z
#    x 3.458480 0.000000 0.115610 
#    y 0.000000 3.541190 0.000000 
#    z 0.115610 0.000000 3.668510 
# 
# 
# High freq. dielectric constant tensor:
#      x y z
#    x 1.750790 0.000000 0.004770 
#    y 0.000000 1.766900 0.000000 
#    z 0.004770 0.000000 1.751610 
# 
# From -- ./inp_files/241467.got.cif
#   From: 2010.06.25/outbox.cif.g09.slc.cpg/sg12_121_cif.got.tgz:241467.got - 2010.06.28 00:19:55.
