data_PCOD8104767
_publ_section_title
;
Structure prediction by ZEFSAII (Michael W. Deem and Ramdas Pophale) SiO2 
 PCOD8104767
Probable space group: C 2/M
;
_chemical_formula_sum "Si O2"
_cell_formula_units_Z 64
_cell_length_a 18.258295
_cell_length_b 13.849852
_cell_length_c 15.798805
_cell_angle_alpha 90.000000
_cell_angle_beta 132.016085
_cell_angle_gamma 90.000000
_cell_volume 2968.200534
_symmetry_space_group_name_H-M "C 2/M"
_symmetry_group_IT_number 12
_symmetry_cell_setting 'monoclinic'
loop_
_space_group_symop_operation_xyz
x,y,z
-x,y,-z
-x,-y,-z
x,-y,z
1/2+x,1/2+y,z
1/2-x,1/2+y,-z
1/2-x,1/2-y,-z
1/2+x,1/2-y,z
loop_
_atom_site_type_symbol
_atom_site_label
_atom_site_fract_x
_atom_site_fract_y
_atom_site_fract_z
Si Si1 0.435958 0.736633 0.870393
Si Si2 0.399245 0.270075 0.117332
Si Si3 0.339709 0.391950 0.317857
Si Si4 0.730536 0.110819 0.060483
Si Si5 0.323603 0.888442 0.681028
Si Si6 0.064081 0.287832 0.667440
Si Si7 0.252737 0.888929 0.272293
Si Si8 0.363897 0.111745 0.523582
O O1 0.507794 0.682102 0.858970
O O2 0.402728 0.834238 0.799011
O O3 0.345053 0.669458 0.827260
O O4 0.500000 0.766429 0.000000
O O5 0.321299 0.355549 0.071429
O O6 0.434510 0.222291 0.231206
O O7 0.359321 0.182656 0.027480
O O8 0.384463 0.500000 0.349902
O O9 0.258570 0.378525 0.180838
O O10 0.285922 0.370669 0.365596
O O11 0.427890 0.316316 0.372578
O O12 0.703904 0.000000 0.017496
O O13 0.326296 0.851621 0.585971
O O14 0.351970 0.000000 0.708646
O O15 0.155552 0.355260 0.713164
O O16 0.959379 0.332772 0.561020
O O17 0.275468 0.871041 0.389094
O O18 0.232612 0.000000 0.236452
O O19 0.393816 0.000000 0.550709
#
# Coordination Sequence:
#
# PCOD8104767 Si02
#       8
#     8   8   8   8   8   8   8   8
#     4  12  25  42  63  95 132 166 209 256 314 381
#     4  10  22  36  57  92 126 160 210 256 302 383
#     4   9  18  35  60  90 124 164 208 252 310 380
#     4   9  19  35  58  85 123 170 207 254 310 361
#     4  10  20  39  65  95 128 164 208 260 314 372
#     4  11  20  39  65  91 124 162 206 266 318 366
#     4  11  26  45  65  91 126 171 215 261 315 367
#     4  10  22  42  67  95 124 161 216 268 311 367
#
# _framework density 21.561885
#
# number of rings (size 3 to 8) (size 9 to 14) (size 15 to 20)
#    0.000    1.750    2.500    1.500    3.500    4.000 
#    0.000    0.000    0.000    2.250    0.000    0.000 
#    0.000    0.000    0.000    0.000    0.000    0.000 
#
# Total GULP energy -396840.702057 kJ/mol
# GULP energy per Si atom -12401.271939 kJ/mol
# Density = 2.151281 g / cm^3
# Si number density = 21.561885 Si / 1000 Ang^3
#
#
#
# Elastic Constant Matrix: (Units=GPa)
#
#
# Indices 1 2 3 4 5 6 
#
# 1 108.7430 20.8429 15.1116 0.0000 -10.6293 0.0000
# 2 20.8429 82.2357 13.8142 0.0000 -0.2185 0.0000
# 3 15.1116 13.8142 58.6137 0.0000 -3.4652 0.0000
# 4 0.0000 0.0000 0.0000 21.9420 0.0000 -0.5519
# 5 -10.6293 -0.2185 -3.4652 0.0000 30.1149 0.0000
# 6 0.0000 0.0000 0.0000 -0.5519 0.0000 29.3877
#
#
#
# Elastic Compliance Matrix: (Units=1/GPa)
#
#
# Indices 1 2 3 4 5 6 
#
# 1 0.010224 -0.002263 -0.001903 0.000000 0.003373 0.000000
# 2 -0.002263 0.013164 -0.002578 0.000000 -0.001000 0.000000
# 3 -0.001903 -0.002578 0.018242 0.000000 0.001409 0.000000
# 4 0.000000 0.000000 0.000000 0.045596 0.000000 0.000856
# 5 0.003373 -0.001000 0.001409 0.000000 0.034552 0.000000
# 6 0.000000 0.000000 0.000000 0.000856 0.000000 0.034044
#
#
# Mechanical properties :
#
#
# Convention : Reuss Voigt Hill
#
# Bulk Modulus (GPa) = 35.53384 38.79220 37.16302
# Shear Modulus (GPa) = 27.98124 29.61050 28.79587
#
# Velocity S-wave (km/s) = 3.60629 3.70980 3.65841
# Velocity P-wave (km/s) = 5.81861 6.03161 5.92606
#
# Compressibility (1/GPa) = 0.02814219
#
# Stress axis : x y z
#
# Youngs Moduli (GPa) = 97.81038 75.96428 54.81714
#
# Poissons Ratio (x) = 0.17188 0.10433
# Poissons Ratio (y) = 0.22131 0.14134
# Poissons Ratio (z) = 0.18615 0.19586
#
# Static dielectric constant tensor:
#      x y z
#    x 4.043780 0.000000 -0.215770 
#    y 0.000000 3.906620 0.000000 
#    z -0.215770 0.000000 3.785730 
# 
# 
# High freq. dielectric constant tensor:
#      x y z
#    x 1.856560 0.000000 -0.015100 
#    y 0.000000 1.842490 0.000000 
#    z -0.015100 0.000000 1.838700 
# 
# From -- ./inp_files/225746.got.cif
#   From: 2010.06.25/outbox.cif.g09.slc.cpg/sg12_113_cif.got.tgz:225746.got - 2010.06.28 00:19:55.
