data_PCOD8104523
_publ_section_title
;
Structure prediction by ZEFSAII (Michael W. Deem and Ramdas Pophale) SiO2 
 PCOD8104523
Probable space group: C 2/M
;
_chemical_formula_sum "Si O2"
_cell_formula_units_Z 48
_cell_length_a 18.406503
_cell_length_b 13.527287
_cell_length_c 10.162664
_cell_angle_alpha 90.000000
_cell_angle_beta 88.489734
_cell_angle_gamma 90.000000
_cell_volume 2529.523190
_symmetry_space_group_name_H-M "C 2/M"
_symmetry_group_IT_number 12
_symmetry_cell_setting 'monoclinic'
loop_
_space_group_symop_operation_xyz
x,y,z
-x,y,-z
-x,-y,-z
x,-y,z
1/2+x,1/2+y,z
1/2-x,1/2+y,-z
1/2-x,1/2-y,-z
1/2+x,1/2-y,z
loop_
_atom_site_type_symbol
_atom_site_label
_atom_site_fract_x
_atom_site_fract_y
_atom_site_fract_z
Si Si1 0.486499 0.500000 0.652278
Si Si2 0.413930 0.000000 0.502834
Si Si3 0.594043 0.787507 0.399096
Si Si4 0.830940 0.000000 0.781267
Si Si5 0.678848 0.284980 0.150795
Si Si6 0.668531 0.000000 0.762798
Si Si7 0.843827 0.707274 0.116865
Si Si8 0.053373 0.792436 0.671406
O O1 0.500000 0.500000 0.500000
O O2 0.399996 0.500000 0.681117
O O3 0.524427 0.401898 0.706363
O O4 0.500000 0.000000 0.500000
O O5 0.384803 0.901302 0.575052
O O6 0.385137 0.000000 0.356591
O O7 0.651891 0.743493 0.296356
O O8 0.514109 0.783160 0.337904
O O9 0.597191 0.719270 0.531139
O O10 0.832684 0.097577 0.872249
O O11 0.752797 0.000000 0.708367
O O12 0.762740 0.252776 0.145091
O O13 0.635469 0.228651 0.036588
O O14 0.650537 0.091698 0.856695
O O15 0.897439 0.766085 0.208349
#
# Coordination Sequence:
#
# PCOD8104523 Si02
#       8
#     4   4   8   4   8   4   8   8
#     4  12  20  37  59  89 123 157 197 250 300 351
#     4  12  20  37  60  88 121 153 200 245 306 350
#     4  11  21  37  59  87 119 154 193 253 291 352
#     4  10  20  39  61  86 122 159 201 239 305 354
#     4  10  22  40  61  86 123 158 199 250 295 352
#     4  10  20  39  64  88 114 163 199 245 304 359
#     4  10  22  40  61  87 119 162 199 244 299 358
#     4  11  21  37  60  89 117 157 197 247 299 353
#
# _framework density 18.975909000000001
#
# number of rings (size 3 to 8) (size 9 to 14) (size 15 to 20)
#    0.000    1.333    6.667    0.000    0.000    2.667 
#    3.000    2.500    0.000    3.000    0.000    0.000 
#    0.000    0.000    0.000    0.000    0.000    0.000 
#
# Total GULP energy -297551.312740 kJ/mol
# GULP energy per Si atom -12397.971364 kJ/mol
# Density = 1.893272 g / cm^3
# Si number density = 18.975909 Si / 1000 Ang^3
#
#
#
# Elastic Constant Matrix: (Units=GPa)
#
#
# Indices 1 2 3 4 5 6 
#
# 1 57.8383 31.7651 27.6387 0.0000 14.8640 0.0000
# 2 31.7651 137.2425 35.8213 0.0000 12.1596 0.0000
# 3 27.6387 35.8213 67.8013 0.0000 17.6244 0.0000
# 4 0.0000 0.0000 0.0000 24.7865 0.0000 -2.2614
# 5 14.8640 12.1596 17.6244 0.0000 36.2455 0.0000
# 6 0.0000 0.0000 0.0000 -2.2614 0.0000 12.0427
#
#
#
# Elastic Compliance Matrix: (Units=1/GPa)
#
#
# Indices 1 2 3 4 5 6 
#
# 1 0.023579 -0.003290 -0.006464 0.000000 -0.005423 0.000000
# 2 -0.003290 0.008929 -0.003375 0.000000 -0.000005 0.000000
# 3 -0.006464 -0.003375 0.020815 0.000000 -0.006338 0.000000
# 4 0.000000 0.000000 0.000000 0.041048 0.000000 0.007708
# 5 -0.005423 -0.000005 -0.006338 0.000000 0.032897 0.000000
# 6 0.000000 0.000000 0.000000 0.007708 0.000000 0.084486
#
#
# Mechanical properties :
#
#
# Convention : Reuss Voigt Hill
#
# Bulk Modulus (GPa) = 36.94830 50.37027 43.65929
# Shear Modulus (GPa) = 20.24023 25.79206 23.01614
#
# Velocity S-wave (km/s) = 3.26947 3.69073 3.48647
# Velocity P-wave (km/s) = 5.81085 6.69059 6.26618
#
# Compressibility (1/GPa) = 0.02706484
#
# Stress axis : x y z
#
# Youngs Moduli (GPa) = 42.41083 111.99209 48.04298
#
# Poissons Ratio (x) = 0.36843 0.31055
# Poissons Ratio (y) = 0.13952 0.16215
# Poissons Ratio (z) = 0.27415 0.37799
#
# Static dielectric constant tensor:
#      x y z
#    x 3.496300 0.000000 -0.002410 
#    y 0.000000 3.215510 0.000000 
#    z -0.002410 0.000000 3.433060 
# 
# 
# High freq. dielectric constant tensor:
#      x y z
#    x 1.732670 0.000000 0.003120 
#    y 0.000000 1.751600 0.000000 
#    z 0.003120 0.000000 1.722800 
# 
# From -- ./inp_files/85213.got.cif
#   From: 2010.06.25/outbox.cif.g09.slc.cpg/sg12_43_cif.got.tgz:85213.got - 2010.06.28 00:19:55.
