data_PCOD8104959
_publ_section_title
;
Structure prediction by ZEFSAII (Michael W. Deem and Ramdas Pophale) SiO2 
 PCOD8104959
Probable space group: C 2/M
;
_chemical_formula_sum "Si O2"
_cell_formula_units_Z 56
_cell_length_a 12.519805
_cell_length_b 18.583503
_cell_length_c 16.826862
_cell_angle_alpha 90.000000
_cell_angle_beta 133.408694
_cell_angle_gamma 90.000000
_cell_volume 2844.108801
_symmetry_space_group_name_H-M "C 2/M"
_symmetry_group_IT_number 12
_symmetry_cell_setting 'monoclinic'
loop_
_space_group_symop_operation_xyz
x,y,z
-x,y,-z
-x,-y,-z
x,-y,z
1/2+x,1/2+y,z
1/2-x,1/2+y,-z
1/2-x,1/2-y,-z
1/2+x,1/2-y,z
loop_
_atom_site_type_symbol
_atom_site_label
_atom_site_fract_x
_atom_site_fract_y
_atom_site_fract_z
Si Si1 0.675109 0.419472 0.592317
Si Si2 0.177948 0.173413 0.447066
Si Si3 0.347859 0.807629 0.953657
Si Si4 0.346237 0.154486 0.382867
Si Si5 0.170232 0.915409 0.161654
Si Si6 0.158039 0.803558 0.704198
Si Si7 0.138549 0.151275 0.978826
O O1 0.500000 0.420759 0.500000
O O2 0.740116 0.500000 0.632848
O O3 0.733910 0.382081 0.542595
O O4 0.727601 0.372691 0.694889
O O5 0.250000 0.250000 0.500000
O O6 0.223877 0.141135 0.386446
O O7 0.004865 0.179239 0.352028
O O8 0.251901 0.784583 0.829062
O O9 0.391091 0.735853 0.023679
O O10 0.500000 0.844440 0.000000
O O11 0.254113 0.859658 0.964786
O O12 0.500000 0.131257 0.500000
O O13 0.307740 0.105025 0.287651
O O14 0.347052 0.238011 0.359761
O O15 0.204625 0.884784 0.091699
O O16 0.152873 0.000000 0.146550
O O17 0.019469 0.883499 0.121495
#
# Coordination Sequence:
#
# PCOD8104959 Si02
#       7
#     8   8   8   8   8   8   8
#     4   9  19  37  59  85 117 157 202 244 296 365
#     4  11  20  35  59  88 121 166 204 252 298 363
#     4  11  21  37  64  97 126 150 205 271 313 370
#     4  12  22  37  59  92 129 159 209 260 310 365
#     4  11  23  43  66  89 125 171 216 258 313 380
#     4  11  20  37  61  91 123 160 204 253 309 370
#     4  10  20  40  64  94 119 160 213 257 314 366
#
# _framework density 19.689824000000002
#
# number of rings (size 3 to 8) (size 9 to 14) (size 15 to 20)
#    0.000    1.286    5.714    2.143    0.000    2.000 
#    2.571    4.286    0.000    3.000    0.000    0.000 
#    0.000    0.000    0.000    0.000    0.000    0.000 
#
# Total GULP energy -347209.353507 kJ/mol
# GULP energy per Si atom -12400.334054 kJ/mol
# Density = 1.964501 g / cm^3
# Si number density = 19.689824 Si / 1000 Ang^3
#
#
#
# Elastic Constant Matrix: (Units=GPa)
#
#
# Indices 1 2 3 4 5 6 
#
# 1 139.7046 29.2339 44.9735 0.0000 -5.5265 0.0000
# 2 29.2339 90.0220 20.1137 0.0000 -2.0571 0.0000
# 3 44.9735 20.1137 113.3573 -0.0001 -2.0737 -0.0001
# 4 0.0000 0.0000 -0.0001 22.0152 -0.0001 -2.9711
# 5 -5.5265 -2.0571 -2.0737 -0.0001 22.3630 -0.0001
# 6 0.0000 0.0000 -0.0001 -2.9711 -0.0001 23.5832
#
#
#
# Elastic Compliance Matrix: (Units=1/GPa)
#
#
# Indices 1 2 3 4 5 6 
#
# 1 0.008635 -0.002090 -0.003024 0.000000 0.001661 0.000000
# 2 -0.002090 0.012090 -0.001307 0.000000 0.000474 0.000000
# 3 -0.003024 -0.001307 0.010255 0.000000 0.000083 0.000000
# 4 0.000000 0.000000 0.000000 0.046209 0.000000 0.005822
# 5 0.001661 0.000474 0.000083 0.000000 0.045179 0.000000
# 6 0.000000 0.000000 0.000000 0.005822 0.000000 0.043136
#
#
# Mechanical properties :
#
#
# Convention : Reuss Voigt Hill
#
# Bulk Modulus (GPa) = 55.13937 59.08067 57.11002
# Shear Modulus (GPa) = 27.11598 30.17648 28.64623
#
# Velocity S-wave (km/s) = 3.71503 3.91908 3.81842
# Velocity P-wave (km/s) = 6.81665 7.10984 6.96479
#
# Compressibility (1/GPa) = 0.01813586
#
# Stress axis : x y z
#
# Youngs Moduli (GPa) = 115.81169 82.71210 97.51282
#
# Poissons Ratio (x) = 0.17290 0.29492
# Poissons Ratio (y) = 0.24208 0.12747
# Poissons Ratio (z) = 0.35027 0.10812
#
# Static dielectric constant tensor:
#      x y z
#    x 3.704920 0.000000 -0.186650 
#    y 0.000000 3.529270 0.000000 
#    z -0.186650 0.000000 3.494700 
# 
# 
# High freq. dielectric constant tensor:
#      x y z
#    x 1.772300 0.000000 -0.012730 
#    y 0.000000 1.746690 0.000000 
#    z -0.012730 0.000000 1.764340 
# 
# From -- ./inp_files/264320.got.cif
#   From: 2010.06.25/outbox.cif.g09.slc.cpg/sg12_133_cif.got.tgz:264320.got - 2010.06.28 00:19:55.
