data_PCOD8104300
_publ_section_title
;
Structure prediction by ZEFSAII (Michael W. Deem and Ramdas Pophale) SiO2 
 PCOD8104300
Probable space group: C 2/M
;
_chemical_formula_sum "Si O2"
_cell_formula_units_Z 64
_cell_length_a 11.636043
_cell_length_b 28.112306
_cell_length_c 17.569750
_cell_angle_alpha 90.000000
_cell_angle_beta 32.785983
_cell_angle_gamma 90.000000
_cell_volume 3112.202745
_symmetry_space_group_name_H-M "C 2/M"
_symmetry_group_IT_number 12
_symmetry_cell_setting 'monoclinic'
loop_
_space_group_symop_operation_xyz
x,y,z
-x,y,-z
-x,-y,-z
x,-y,z
1/2+x,1/2+y,z
1/2-x,1/2+y,-z
1/2-x,1/2-y,-z
1/2+x,1/2-y,z
loop_
_atom_site_type_symbol
_atom_site_label
_atom_site_fract_x
_atom_site_fract_y
_atom_site_fract_z
Si Si1 0.117527 0.448520 0.800900
Si Si2 0.059596 0.552782 0.654856
Si Si3 0.680161 0.300230 0.266571
Si Si4 0.025742 0.106613 0.575666
Si Si5 0.138720 0.785604 0.121391
Si Si6 0.742954 0.630155 0.836624
Si Si7 0.414729 0.854907 0.901360
Si Si8 0.829241 0.295352 0.654814
O O1 0.063769 0.500000 0.868467
O O2 0.104714 0.453928 0.718125
O O3 0.351904 0.432713 0.696076
O O4 0.953468 0.407185 0.915960
O O5 0.058083 0.500000 0.617642
O O6 0.250640 0.586418 0.518837
O O7 0.833863 0.578203 0.761478
O O8 0.509723 0.343121 0.361592
O O9 0.735109 0.280699 0.151819
O O10 0.580445 0.254690 0.364544
O O11 0.896966 0.318368 0.184195
O O12 0.000000 0.116802 0.500000
O O13 0.887531 0.781318 0.266750
O O14 0.250000 0.750000 0.000000
O O15 0.194948 0.838566 0.060874
O O16 0.895474 0.645952 0.820930
O O17 0.774934 0.667386 0.751308
O O18 0.500000 0.626155 0.000000
O O19 0.000000 0.316621 0.500000
#
# Coordination Sequence:
#
# PCOD8104300 Si02
#       8
#     8   8   8   8   8   8   8   8
#     4   8  15  29  54  90 124 150 192 254 317 376
#     4   9  18  33  59  90 121 159 205 260 315 365
#     4  11  24  39  64  92 125 160 207 260 312 377
#     4   9  17  33  57  91 127 161 195 250 324 383
#     4  12  24  42  65  87 120 173 219 259 310 381
#     4  11  23  41  64  89 127 169 215 263 310 373
#     4  10  20  38  64  91 118 163 210 255 314 371
#     4  12  28  42  61  93 129 170 213 262 314 373
#
# _framework density 20.564214
#
# number of rings (size 3 to 8) (size 9 to 14) (size 15 to 20)
#    0.000    1.750    2.500    2.625    1.750    2.250 
#    0.000    0.000    0.000    7.125    0.000    0.000 
#    0.000    0.000    0.000    0.000    0.000    0.000 
#
# Total GULP energy -396559.722371 kJ/mol
# GULP energy per Si atom -12392.491324 kJ/mol
# Density = 2.051741 g / cm^3
# Si number density = 20.564214 Si / 1000 Ang^3
#
#
#
# Elastic Constant Matrix: (Units=GPa)
#
#
# Indices 1 2 3 4 5 6 
#
# 1 75.6100 36.2467 35.2205 -0.0016 -4.0068 0.0007
# 2 36.2467 149.5476 71.2537 0.0017 -10.9012 -0.0007
# 3 35.2205 71.2537 118.3297 -0.0059 -15.2806 0.0026
# 4 -0.0016 0.0017 -0.0059 27.8789 0.0038 -6.1698
# 5 -4.0068 -10.9012 -15.2806 0.0038 26.0500 -0.0017
# 6 0.0007 -0.0007 0.0026 -6.1698 -0.0017 10.3552
#
#
#
# Elastic Compliance Matrix: (Units=1/GPa)
#
#
# Indices 1 2 3 4 5 6 
#
# 1 0.015878 -0.002247 -0.003439 0.000000 -0.000516 0.000000
# 2 -0.002247 0.009706 -0.005081 -0.000002 0.000736 0.000001
# 3 -0.003439 -0.005081 0.013190 0.000002 0.005082 -0.000001
# 4 0.000000 -0.000002 0.000002 0.041317 -0.000004 0.024617
# 5 -0.000516 0.000736 0.005082 -0.000004 0.041597 0.000003
# 6 0.000000 0.000001 -0.000001 0.024617 0.000003 0.111237
#
#
# Mechanical properties :
#
#
# Convention : Reuss Voigt Hill
#
# Bulk Modulus (GPa) = 58.00610 69.88102 63.94356
# Shear Modulus (GPa) = 19.21547 26.24125 22.72836
#
# Velocity S-wave (km/s) = 3.06013 3.57608 3.32812
# Velocity P-wave (km/s) = 6.38392 7.14890 6.77721
#
# Compressibility (1/GPa) = 0.01723957
#
# Stress axis : x y z
#
# Youngs Moduli (GPa) = 62.98068 103.03057 75.81315
#
# Poissons Ratio (x) = 0.23154 0.26075
# Poissons Ratio (y) = 0.14153 0.38518
# Poissons Ratio (z) = 0.21661 0.52346
#
# Static dielectric constant tensor:
#      x y z
#    x 3.507910 0.000000 -0.170290 
#    y 0.000000 4.185010 -0.000010 
#    z -0.170290 -0.000010 3.746740 
# 
# 
# High freq. dielectric constant tensor:
#      x y z
#    x 1.777280 0.000000 -0.014390 
#    y 0.000000 1.814040 0.000000 
#    z -0.014390 0.000000 1.790720 
# 
# From -- ./inp_files/266263.got.cif
#   From: 2010.06.25/outbox.cif.g09.slc.cpg/sg12_134_cif.got.tgz:266263.got - 2010.06.28 00:19:55.
