data_PCOD8104658
_publ_section_title
;
Structure prediction by ZEFSAII (Michael W. Deem and Ramdas Pophale) SiO2 
 PCOD8104658
Probable space group: C 2/M
;
_chemical_formula_sum "Si O2"
_cell_formula_units_Z 48
_cell_length_a 29.617441
_cell_length_b 18.492788
_cell_length_c 12.383586
_cell_angle_alpha 90.000000
_cell_angle_beta 160.109588
_cell_angle_gamma 90.000000
_cell_volume 2307.591818
_symmetry_space_group_name_H-M "C 2/M"
_symmetry_group_IT_number 12
_symmetry_cell_setting 'monoclinic'
loop_
_space_group_symop_operation_xyz
x,y,z
-x,y,-z
-x,-y,-z
x,-y,z
1/2+x,1/2+y,z
1/2-x,1/2+y,-z
1/2-x,1/2-y,-z
1/2+x,1/2-y,z
loop_
_atom_site_type_symbol
_atom_site_label
_atom_site_fract_x
_atom_site_fract_y
_atom_site_fract_z
Si Si1 0.645044 0.668091 0.860323
Si Si2 0.603177 0.225248 0.140058
Si Si3 0.100255 0.144310 0.996321
Si Si4 0.272461 0.082100 0.576396
Si Si5 0.178945 0.918552 0.598884
Si Si6 0.351517 0.160823 0.148516
O O1 0.500000 0.639173 0.500000
O O2 0.676304 0.643922 0.053224
O O3 0.648497 0.753713 0.859177
O O4 0.757916 0.634289 0.036974
O O5 0.750000 0.250000 0.500000
O O6 0.604456 0.137973 0.127819
O O7 0.500000 0.247396 0.000000
O O8 0.565455 0.271985 0.949556
O O9 0.962649 0.103281 0.672579
O O10 0.191244 0.103367 0.287309
O O11 0.175849 0.089277 0.462125
O O12 0.327174 0.000000 0.688251
O O13 0.209307 0.000000 0.702282
O O14 0.295155 0.869591 0.909519
O O15 0.500000 0.130765 0.500000
#
# Coordination Sequence:
#
# PCOD8104658 Si02
#       6
#     8   8   8   8   8   8
#     4  10  20  39  63  92 123 158 206 270 315 356
#     4  10  21  38  61  92 123 161 204 254 302 364
#     4  11  20  37  65  95 124 160 213 261 308 367
#     4  10  22  40  59  91 131 168 202 251 321 378
#     4  11  22  39  64  91 128 169 209 256 309 377
#     4  10  22  41  63  91 125 163 209 258 315 372
#
# _framework density 20.800906999999999
#
# number of rings (size 3 to 8) (size 9 to 14) (size 15 to 20)
#    0.000    1.667    1.667    4.000    0.000    3.333 
#    6.000    2.500    0.000    0.000    0.000    0.000 
#    0.000    0.000    0.000    0.000    0.000    0.167 
#
# Total GULP energy -297559.665493 kJ/mol
# GULP energy per Si atom -12398.319396 kJ/mol
# Density = 2.075356 g / cm^3
# Si number density = 20.800907 Si / 1000 Ang^3
#
#
#
# Elastic Constant Matrix: (Units=GPa)
#
#
# Indices 1 2 3 4 5 6 
#
# 1 150.4192 28.4343 53.8373 0.0000 -1.4037 0.0000
# 2 28.4343 80.5479 16.3314 0.0000 -3.0366 0.0000
# 3 53.8373 16.3314 81.5553 0.0000 3.9630 0.0000
# 4 0.0000 0.0000 0.0000 22.7630 0.0000 -1.7292
# 5 -1.4037 -3.0366 3.9630 0.0000 36.9579 0.0000
# 6 0.0000 0.0000 0.0000 -1.7292 0.0000 26.2113
#
#
#
# Elastic Compliance Matrix: (Units=1/GPa)
#
#
# Indices 1 2 3 4 5 6 
#
# 1 0.009044 -0.002027 -0.005602 0.000000 0.000778 0.000000
# 2 -0.002027 0.013462 -0.001415 0.000000 0.001181 0.000000
# 3 -0.005602 -0.001415 0.016344 0.000000 -0.002082 0.000000
# 4 0.000000 0.000000 0.000000 0.044152 0.000000 0.002913
# 5 0.000778 0.001181 -0.002082 0.000000 0.027408 0.000000
# 6 0.000000 0.000000 0.000000 0.002913 0.000000 0.038344
#
#
# Mechanical properties :
#
#
# Convention : Reuss Voigt Hill
#
# Bulk Modulus (GPa) = 48.16564 56.63650 52.40107
# Shear Modulus (GPa) = 28.77511 31.44774 30.11142
#
# Velocity S-wave (km/s) = 3.72339 3.89246 3.80886
# Velocity P-wave (km/s) = 6.45683 6.89120 6.67755
#
# Compressibility (1/GPa) = 0.02076169
#
# Stress axis : x y z
#
# Youngs Moduli (GPa) = 110.57627 74.28302 61.18469
#
# Poissons Ratio (x) = 0.15060 0.34274
# Poissons Ratio (y) = 0.22418 0.08656
# Poissons Ratio (z) = 0.61942 0.10510
#
# Static dielectric constant tensor:
#      x y z
#    x 3.881190 0.000000 0.057620 
#    y 0.000000 4.050950 0.000000 
#    z 0.057620 0.000000 3.687510 
# 
# 
# High freq. dielectric constant tensor:
#      x y z
#    x 1.822780 0.000000 -0.001010 
#    y 0.000000 1.804820 0.000000 
#    z -0.001010 0.000000 1.796800 
# 
# From -- ./inp_files/190287.got.cif
#   From: 2010.06.25/outbox.cif.g09.slc.cpg/sg12_96_cif.got.tgz:190287.got - 2010.06.28 00:19:55.
