data_PCOD8104565
_publ_section_title
;
Structure prediction by ZEFSAII (Michael W. Deem and Ramdas Pophale) SiO2 
 PCOD8104565
Probable space group: C 2/M
;
_chemical_formula_sum "Si O2"
_cell_formula_units_Z 64
_cell_length_a 27.926198
_cell_length_b 14.966703
_cell_length_c 11.976673
_cell_angle_alpha 90.000000
_cell_angle_beta 142.730174
_cell_angle_gamma 90.000000
_cell_volume 3031.363809
_symmetry_space_group_name_H-M "C 2/M"
_symmetry_group_IT_number 12
_symmetry_cell_setting 'monoclinic'
loop_
_space_group_symop_operation_xyz
x,y,z
-x,y,-z
-x,-y,-z
x,-y,z
1/2+x,1/2+y,z
1/2-x,1/2+y,-z
1/2-x,1/2-y,-z
1/2+x,1/2-y,z
loop_
_atom_site_type_symbol
_atom_site_label
_atom_site_fract_x
_atom_site_fract_y
_atom_site_fract_z
Si Si1 0.992386 0.723225 0.852543
Si Si2 0.729011 0.396091 0.854686
Si Si3 0.060962 0.904344 0.210040
Si Si4 0.851710 0.732034 0.970225
Si Si5 0.790123 0.170649 0.640373
Si Si6 0.089761 0.782676 0.685462
Si Si7 0.649937 0.900842 0.731495
Si Si8 0.645430 0.096305 0.470766
O O1 0.974175 0.825296 0.777423
O O2 0.917221 0.668315 0.679744
O O3 0.069337 0.684444 0.933241
O O4 0.000000 0.722165 0.000000
O O5 0.716584 0.500000 0.794276
O O6 0.786259 0.344368 0.873425
O O7 0.645754 0.343502 0.709766
O O8 0.769170 0.391204 0.050081
O O9 0.143970 0.873914 0.312953
O O10 0.072156 0.000000 0.295291
O O11 0.000000 0.922752 0.000000
O O12 0.822681 0.798566 0.820727
O O13 0.877928 0.788878 0.127753
O O14 0.750000 0.250000 0.500000
O O15 0.722150 0.098199 0.535170
O O16 0.089633 0.677539 0.652608
O O17 0.000000 0.816956 0.500000
O O18 0.674914 0.887000 0.650798
O O19 0.612108 0.000000 0.682408
O O20 0.604602 0.000000 0.382152
#
# Coordination Sequence:
#
# PCOD8104565 Si02
#       8
#     8   8   8   8   8   8   8   8
#     4  11  21  41  59  90 128 165 206 265 313 368
#     4  10  22  42  64  92 129 163 207 257 313 386
#     4  10  20  39  62  85 120 163 209 260 309 359
#     4  11  22  39  68  89 118 172 211 253 323 368
#     4  12  21  38  62  86 124 164 209 264 306 364
#     4  11  22  39  64  95 127 164 202 259 320 383
#     4   9  19  38  63  91 121 155 206 264 309 367
#     4  11  22  35  59  90 120 160 208 257 313 370
#
# _framework density 21.112608999999999
#
# number of rings (size 3 to 8) (size 9 to 14) (size 15 to 20)
#    0.000    1.375    3.750    4.125    0.000    1.250 
#    0.000    6.250    0.000    0.000    0.000    0.000 
#    0.000    0.000    0.000    0.000    0.000    0.000 
#
# Total GULP energy -396556.414897 kJ/mol
# GULP energy per Si atom -12392.387966 kJ/mol
# Density = 2.106456 g / cm^3
# Si number density = 21.112609 Si / 1000 Ang^3
#
#
#
# Elastic Constant Matrix: (Units=GPa)
#
#
# Indices 1 2 3 4 5 6 
#
# 1 100.1778 24.3243 23.7996 0.0000 26.7621 0.0000
# 2 24.3243 105.6629 33.8525 0.0000 10.3942 0.0000
# 3 23.7996 33.8525 66.7729 0.0000 19.2017 0.0000
# 4 0.0000 0.0000 0.0000 36.8384 0.0000 -4.5395
# 5 26.7621 10.3942 19.2017 0.0000 40.7970 0.0000
# 6 0.0000 0.0000 0.0000 -4.5395 0.0000 47.3823
#
#
#
# Elastic Compliance Matrix: (Units=1/GPa)
#
#
# Indices 1 2 3 4 5 6 
#
# 1 0.012682 -0.001704 -0.001606 0.000000 -0.007129 0.000000
# 2 -0.001704 0.011530 -0.005453 0.000000 0.000746 0.000000
# 3 -0.001606 -0.005453 0.020367 0.000000 -0.007143 0.000000
# 4 0.000000 0.000000 0.000000 0.027470 0.000000 0.002632
# 5 -0.007129 0.000746 -0.007143 0.000000 0.032360 0.000000
# 6 0.000000 0.000000 0.000000 0.002632 0.000000 0.021357
#
#
# Mechanical properties :
#
#
# Convention : Reuss Voigt Hill
#
# Bulk Modulus (GPa) = 36.96380 48.50737 42.73559
# Shear Modulus (GPa) = 32.82789 37.71268 35.27029
#
# Velocity S-wave (km/s) = 3.94749 4.23101 4.09171
# Velocity P-wave (km/s) = 6.19055 6.84792 6.52751
#
# Compressibility (1/GPa) = 0.02705349
#
# Stress axis : x y z
#
# Youngs Moduli (GPa) = 78.85163 86.73191 49.09833
#
# Poissons Ratio (x) = 0.14775 0.07888
# Poissons Ratio (y) = 0.13432 0.26772
# Poissons Ratio (z) = 0.12667 0.47293
#
# Static dielectric constant tensor:
#      x y z
#    x 3.803810 0.000000 0.129050 
#    y 0.000000 4.526430 0.000000 
#    z 0.129050 0.000000 3.739220 
# 
# 
# High freq. dielectric constant tensor:
#      x y z
#    x 1.823100 0.000000 0.009750 
#    y 0.000000 1.827620 0.000000 
#    z 0.009750 0.000000 1.826250 
# 
# From -- ./inp_files/183830.got.cif
#   From: 2010.06.25/outbox.cif.g09.slc.cpg/sg12_92_cif.got.tgz:183830.got - 2010.06.28 00:19:55.
