data_PCOD8104560
_publ_section_title
;
Structure prediction by ZEFSAII (Michael W. Deem and Ramdas Pophale) SiO2 
 PCOD8104560
Probable space group: C 2/M
;
_chemical_formula_sum "Si O2"
_cell_formula_units_Z 64
_cell_length_a 29.805640
_cell_length_b 8.924893
_cell_length_c 11.846990
_cell_angle_alpha 90.000000
_cell_angle_beta 93.781738
_cell_angle_gamma 90.000000
_cell_volume 3144.581117
_symmetry_space_group_name_H-M "C 2/M"
_symmetry_group_IT_number 12
_symmetry_cell_setting 'monoclinic'
loop_
_space_group_symop_operation_xyz
x,y,z
-x,y,-z
-x,-y,-z
x,-y,z
1/2+x,1/2+y,z
1/2-x,1/2+y,-z
1/2-x,1/2-y,-z
1/2+x,1/2-y,z
loop_
_atom_site_type_symbol
_atom_site_label
_atom_site_fract_x
_atom_site_fract_y
_atom_site_fract_z
Si Si1 0.333157 0.327469 0.081902
Si Si2 0.084524 0.172765 0.748781
Si Si3 0.337527 0.177819 0.854620
Si Si4 0.390654 0.822205 0.473401
Si Si5 0.244006 0.329090 0.811708
Si Si6 0.289851 0.168847 0.442753
Si Si7 0.579724 0.823169 0.278479
Si Si8 0.993922 0.677912 0.128733
O O1 0.328825 0.500000 0.045199
O O2 0.365576 0.306729 0.193781
O O3 0.283790 0.264857 0.101257
O O4 0.352163 0.231917 0.980922
O O5 0.082966 0.248085 0.625852
O O6 0.051018 0.250962 0.829880
O O7 0.071173 0.000000 0.734386
O O8 0.292300 0.255232 0.804444
O O9 0.375979 0.235999 0.776812
O O10 0.331692 0.000000 0.851570
O O11 0.339237 0.762089 0.476291
O O12 0.418072 0.775146 0.590067
O O13 0.390156 0.000000 0.454079
O O14 0.249047 0.500000 0.854485
O O15 0.217382 0.321725 0.691087
O O16 0.250000 0.250000 0.500000
O O17 0.289000 0.000000 0.487807
O O18 0.535352 0.758588 0.210355
O O19 0.578578 0.000000 0.267096
O O20 0.989796 0.500000 0.136420
O O21 0.000000 0.728618 0.000000
#
# Coordination Sequence:
#
# PCOD8104560 Si02
#       8
#     8   8   8   8   8   8   8   8
#     4  11  23  39  58  83 118 157 200 247 297 357
#     4  11  24  40  61  90 122 158 198 248 307 358
#     4  11  22  38  61  87 119 156 197 247 302 356
#     4  10  20  39  62  85 117 157 203 247 293 355
#     4  11  22  37  56  84 118 155 202 245 297 358
#     4  10  21  35  56  83 115 158 203 250 299 352
#     4   9  20  38  62  90 117 152 199 247 295 351
#     4  10  21  40  66  93 120 155 200 246 296 361
#
# _framework density 20.352474000000001
#
# number of rings (size 3 to 8) (size 9 to 14) (size 15 to 20)
#    0.000    1.625    1.250    3.375    0.000    5.750 
#    0.000    5.625    0.000    0.000    0.000    0.000 
#    0.000    0.000    0.000    0.000    0.000    0.000 
#
# Total GULP energy -396892.148839 kJ/mol
# GULP energy per Si atom -12402.879651 kJ/mol
# Density = 2.030615 g / cm^3
# Si number density = 20.352474 Si / 1000 Ang^3
#
#
#
# Elastic Constant Matrix: (Units=GPa)
#
#
# Indices 1 2 3 4 5 6 
#
# 1 105.9482 39.5966 45.1061 0.0000 -4.5929 0.0000
# 2 39.5966 69.6679 32.5274 0.0000 -5.1007 0.0000
# 3 45.1061 32.5274 117.9647 0.0000 -1.6809 0.0000
# 4 0.0000 0.0000 0.0000 26.3865 0.0000 -3.7973
# 5 -4.5929 -5.1007 -1.6809 0.0000 42.8800 0.0000
# 6 0.0000 0.0000 0.0000 -3.7973 0.0000 29.7125
#
#
#
# Elastic Compliance Matrix: (Units=1/GPa)
#
#
# Indices 1 2 3 4 5 6 
#
# 1 0.013078 -0.005807 -0.003391 0.000000 0.000577 0.000000
# 2 -0.005807 0.019191 -0.003049 0.000000 0.001541 0.000000
# 3 -0.003391 -0.003049 0.010610 0.000000 -0.000310 0.000000
# 4 0.000000 0.000000 0.000000 0.038608 0.000000 0.004934
# 5 0.000577 0.001541 -0.000310 0.000000 0.023554 0.000000
# 6 0.000000 0.000000 0.000000 0.004934 0.000000 0.034286
#
#
# Mechanical properties :
#
#
# Convention : Reuss Voigt Hill
#
# Bulk Modulus (GPa) = 54.39600 58.67120 56.53360
# Shear Modulus (GPa) = 29.42037 31.55252 30.48644
#
# Velocity S-wave (km/s) = 3.80615 3.94166 3.87450
# Velocity P-wave (km/s) = 6.78975 7.04313 6.91760
#
# Compressibility (1/GPa) = 0.01838370
#
# Stress axis : x y z
#
# Youngs Moduli (GPa) = 76.46616 52.10777 94.25019
#
# Poissons Ratio (x) = 0.30261 0.31960
# Poissons Ratio (y) = 0.44407 0.28738
# Poissons Ratio (z) = 0.25929 0.15888
#
# Static dielectric constant tensor:
#      x y z
#    x 3.725630 0.000000 0.103970 
#    y 0.000000 3.567900 0.000000 
#    z 0.103970 0.000000 3.806610 
# 
# 
# High freq. dielectric constant tensor:
#      x y z
#    x 1.800190 0.000000 0.002800 
#    y 0.000000 1.779090 0.000000 
#    z 0.002800 0.000000 1.808780 
# 
# From -- ./inp_files/187501.got.cif
#   From: 2010.06.25/outbox.cif.g09.slc.cpg/sg12_94_cif.got.tgz:187501.got - 2010.06.28 00:19:55.
