data_PCOD8104322
_publ_section_title
;
Structure prediction by ZEFSAII (Michael W. Deem and Ramdas Pophale) SiO2 
 PCOD8104322
Probable space group: C 2/M
;
_chemical_formula_sum "Si O2"
_cell_formula_units_Z 48
_cell_length_a 17.661489
_cell_length_b 15.361515
_cell_length_c 15.391575
_cell_angle_alpha 90.000000
_cell_angle_beta 145.109593
_cell_angle_gamma 90.000000
_cell_volume 2388.619350
_symmetry_space_group_name_H-M "C 2/M"
_symmetry_group_IT_number 12
_symmetry_cell_setting 'monoclinic'
loop_
_space_group_symop_operation_xyz
x,y,z
-x,y,-z
-x,-y,-z
x,-y,z
1/2+x,1/2+y,z
1/2-x,1/2+y,-z
1/2-x,1/2-y,-z
1/2+x,1/2-y,z
loop_
_atom_site_type_symbol
_atom_site_label
_atom_site_fract_x
_atom_site_fract_y
_atom_site_fract_z
Si Si1 0.652816 0.278661 0.656502
Si Si2 0.323669 0.745721 0.660055
Si Si3 0.364920 0.095403 0.901780
Si Si4 0.987478 0.101459 0.090647
Si Si5 0.781105 0.318457 0.105913
Si Si6 0.513886 0.902920 0.810459
O O1 0.500000 0.297904 0.500000
O O2 0.711492 0.231922 0.627133
O O3 0.728665 0.369180 0.737109
O O4 0.683576 0.225837 0.771039
O O5 0.250000 0.750000 0.500000
O O6 0.419501 0.662564 0.761971
O O7 0.402181 0.837065 0.740614
O O8 0.374511 0.000000 0.868701
O O9 0.500000 0.147024 0.000000
O O10 0.365304 0.094541 0.006550
O O11 0.025291 0.000000 0.139914
O O12 0.000000 0.126374 0.000000
O O13 0.840451 0.117247 0.988920
O O14 0.914480 0.371866 0.209769
O O15 0.750000 0.250000 0.000000
O O16 0.452977 0.000000 0.740157
#
# Coordination Sequence:
#
# PCOD8104322 Si02
#       6
#     8   8   8   8   8   8
#     4  12  25  40  62  97 137 177 218 273 346 404
#     4  12  25  43  68  95 136 181 225 283 343 406
#     4  10  20  38  64  93 125 169 222 272 327 401
#     4  11  24  45  73 101 131 180 241 290 335 399
#     4  12  22  40  69  97 134 174 221 281 334 404
#     4  11  23  40  68  99 127 172 226 276 331 402
#
# _framework density 20.095291
#
# number of rings (size 3 to 8) (size 9 to 14) (size 15 to 20)
#    0.000    0.667    6.667    1.500    0.000    1.000 
#    0.000    0.000    0.000    2.500    0.000    0.000 
#    0.000    0.000    0.000    0.000    0.000    0.000 
#
# Total GULP energy -297430.745330 kJ/mol
# GULP energy per Si atom -12392.947722 kJ/mol
# Density = 2.004955 g / cm^3
# Si number density = 20.095291 Si / 1000 Ang^3
#
#
#
# Elastic Constant Matrix: (Units=GPa)
#
#
# Indices 1 2 3 4 5 6 
#
# 1 136.6509 40.0693 45.0259 -0.0001 2.7217 0.0000
# 2 40.0693 128.1999 58.1270 0.0000 3.7496 0.0000
# 3 45.0259 58.1270 132.0047 -0.0001 2.2112 -0.0001
# 4 -0.0001 0.0000 -0.0001 14.5776 -0.0001 1.8817
# 5 2.7217 3.7496 2.2112 -0.0001 46.3766 0.0000
# 6 0.0000 0.0000 -0.0001 1.8817 0.0000 28.5678
#
#
#
# Elastic Compliance Matrix: (Units=1/GPa)
#
#
# Indices 1 2 3 4 5 6 
#
# 1 0.008528 -0.001675 -0.002167 0.000000 -0.000262 0.000000
# 2 -0.001675 0.010091 -0.003863 0.000000 -0.000533 0.000000
# 3 -0.002167 -0.003863 0.010016 0.000000 -0.000038 0.000000
# 4 0.000000 0.000000 0.000000 0.069187 0.000000 -0.004557
# 5 -0.000262 -0.000533 -0.000038 0.000000 0.021623 0.000000
# 6 0.000000 0.000000 0.000000 -0.004557 0.000000 0.035305
#
#
# Mechanical properties :
#
#
# Convention : Reuss Voigt Hill
#
# Bulk Modulus (GPa) = 75.61417 75.92224 75.76820
# Shear Modulus (GPa) = 28.64194 34.81330 31.72762
#
# Velocity S-wave (km/s) = 3.77942 4.16674 3.97780
# Velocity P-wave (km/s) = 7.53358 7.81102 7.67356
#
# Compressibility (1/GPa) = 0.01322503
#
# Stress axis : x y z
#
# Youngs Moduli (GPa) = 117.25569 99.09658 99.83726
#
# Poissons Ratio (x) = 0.16603 0.21633
# Poissons Ratio (y) = 0.19646 0.38568
# Poissons Ratio (z) = 0.25407 0.38282
#
# Static dielectric constant tensor:
#      x y z
#    x 5.490120 0.000000 1.904310 
#    y 0.000000 3.883020 0.000000 
#    z 1.904310 0.000000 6.196250 
# 
# 
# High freq. dielectric constant tensor:
#      x y z
#    x 1.808480 0.000000 -0.003560 
#    y 0.000000 1.780450 0.000000 
#    z -0.003560 0.000000 1.768450 
# 
# From -- ./inp_files/226924.got.cif
#   From: 2010.06.25/outbox.cif.g09.slc.cpg/sg12_114_cif.got.tgz:226924.got - 2010.06.28 00:19:55.
