data_PCOD8104736
_publ_section_title
;
Structure prediction by ZEFSAII (Michael W. Deem and Ramdas Pophale) SiO2 
 PCOD8104736
Probable space group: C 2/M
;
_chemical_formula_sum "Si O2"
_cell_formula_units_Z 48
_cell_length_a 18.149478
_cell_length_b 14.165295
_cell_length_c 18.138935
_cell_angle_alpha 90.000000
_cell_angle_beta 150.851693
_cell_angle_gamma 90.000000
_cell_volume 2271.405227
_symmetry_space_group_name_H-M "C 2/M"
_symmetry_group_IT_number 12
_symmetry_cell_setting 'monoclinic'
loop_
_space_group_symop_operation_xyz
x,y,z
-x,y,-z
-x,-y,-z
x,-y,z
1/2+x,1/2+y,z
1/2-x,1/2+y,-z
1/2-x,1/2-y,-z
1/2+x,1/2-y,z
loop_
_atom_site_type_symbol
_atom_site_label
_atom_site_fract_x
_atom_site_fract_y
_atom_site_fract_z
Si Si1 0.217835 0.606876 0.873190
Si Si2 0.603283 0.605633 0.689767
Si Si3 0.475684 0.397172 0.215326
Si Si4 0.810980 0.775963 0.430994
Si Si5 0.819958 0.241199 0.834616
Si Si6 0.925543 0.303872 0.670630
O O1 0.176144 0.500000 0.814547
O O2 0.238085 0.666017 0.816198
O O3 0.088602 0.647858 0.815002
O O4 0.369634 0.611631 0.052036
O O5 0.598987 0.500000 0.654255
O O6 0.618832 0.606897 0.791624
O O7 0.451944 0.659267 0.528509
O O8 0.757176 0.654616 0.796736
O O9 0.560410 0.500000 0.285428
O O10 0.582518 0.306482 0.309511
O O11 0.730309 0.721113 0.293301
O O12 0.870803 0.693574 0.538129
O O13 0.693002 0.845837 0.373045
O O14 0.000000 0.237070 0.000000
#
# Coordination Sequence:
#
# PCOD8104736 Si02
#       6
#     8   8   8   8   8   8
#     4  11  23  39  63  94 130 170 211 259 311 371
#     4  10  22  41  65  92 125 163 206 260 322 376
#     4   9  18  35  63  92 122 161 206 256 314 367
#     4  10  22  39  64  91 125 162 208 255 314 378
#     4  12  25  40  62  92 129 167 209 258 316 373
#     4  10  20  39  65  89 121 163 216 259 307 369
#
# _framework density 21.132292
#
# number of rings (size 3 to 8) (size 9 to 14) (size 15 to 20)
#    0.000    1.667    3.333    2.000    2.333    2.667 
#    0.000    5.000    0.000    0.000    0.000    0.000 
#    0.000    0.000    0.000    0.000    0.000    0.000 
#
# Total GULP energy -297380.146586 kJ/mol
# GULP energy per Si atom -12390.839441 kJ/mol
# Density = 2.108419 g / cm^3
# Si number density = 21.132292 Si / 1000 Ang^3
#
#
#
# Elastic Constant Matrix: (Units=GPa)
#
#
# Indices 1 2 3 4 5 6 
#
# 1 80.5333 23.6422 32.0311 0.0005 5.7232 0.0002
# 2 23.6422 92.0128 34.8747 0.0010 4.6586 0.0007
# 3 32.0311 34.8747 83.6000 0.0007 -11.4216 0.0005
# 4 0.0005 0.0010 0.0007 16.6050 0.0005 -3.0438
# 5 5.7232 4.6586 -11.4216 0.0005 47.9835 0.0004
# 6 0.0002 0.0007 0.0005 -3.0438 0.0004 12.4805
#
#
#
# Elastic Compliance Matrix: (Units=1/GPa)
#
#
# Indices 1 2 3 4 5 6 
#
# 1 0.015345 -0.001672 -0.005592 0.000000 -0.002999 0.000000
# 2 -0.001672 0.013418 -0.005279 -0.000001 -0.002360 -0.000001
# 3 -0.005592 -0.005279 0.017021 0.000000 0.005231 -0.000001
# 4 0.000000 -0.000001 0.000000 0.063041 -0.000001 0.015375
# 5 -0.002999 -0.002360 0.005231 -0.000001 0.022673 -0.000001
# 6 0.000000 -0.000001 -0.000001 0.015375 -0.000001 0.083875
#
#
# Mechanical properties :
#
#
# Convention : Reuss Voigt Hill
#
# Bulk Modulus (GPa) = 48.31221 48.58246 48.44733
# Shear Modulus (GPa) = 20.21355 26.45366 23.33361
#
# Velocity S-wave (km/s) = 3.09613 3.54193 3.32651
# Velocity P-wave (km/s) = 5.97434 6.30608 6.14245
#
# Compressibility (1/GPa) = 0.02069870
#
# Stress axis : x y z
#
# Youngs Moduli (GPa) = 65.16700 74.52639 58.74989
#
# Poissons Ratio (x) = 0.12458 0.32852
# Poissons Ratio (y) = 0.10893 0.31017
# Poissons Ratio (z) = 0.36441 0.39346
#
# Static dielectric constant tensor:
#      x y z
#    x 3.903900 0.000000 -0.077540 
#    y 0.000000 3.887210 0.000000 
#    z -0.077540 0.000000 3.835440 
# 
# 
# High freq. dielectric constant tensor:
#      x y z
#    x 1.837050 0.000000 -0.006880 
#    y 0.000000 1.803840 0.000000 
#    z -0.006880 0.000000 1.831420 
# 
# From -- ./inp_files/278220.got.cif
#   From: 2010.06.25/outbox.cif.g09.slc.cpg/sg12_140_cif.got.tgz:278220.got - 2010.06.28 00:19:55.
