data_PCOD8104207
_publ_section_title
;
Structure prediction by ZEFSAII (Michael W. Deem and Ramdas Pophale) SiO2 
 PCOD8104207
Probable space group: C 2/M
;
_chemical_formula_sum "Si O2"
_cell_formula_units_Z 48
_cell_length_a 20.184042
_cell_length_b 8.987195
_cell_length_c 13.823368
_cell_angle_alpha 90.000000
_cell_angle_beta 90.200028
_cell_angle_gamma 90.000000
_cell_volume 2507.514940
_symmetry_space_group_name_H-M "C 2/M"
_symmetry_group_IT_number 12
_symmetry_cell_setting 'monoclinic'
loop_
_space_group_symop_operation_xyz
x,y,z
-x,y,-z
-x,-y,-z
x,-y,z
1/2+x,1/2+y,z
1/2-x,1/2+y,-z
1/2-x,1/2-y,-z
1/2+x,1/2-y,z
loop_
_atom_site_type_symbol
_atom_site_label
_atom_site_fract_x
_atom_site_fract_y
_atom_site_fract_z
Si Si1 0.809833 0.675626 0.056202
Si Si2 0.928943 0.327501 0.543918
Si Si3 0.070764 0.172800 0.048885
Si Si4 0.261934 0.668175 0.235515
Si Si5 0.107843 0.325490 0.242096
Si Si6 0.190654 0.831822 0.550337
O O1 0.807669 0.500000 0.042550
O O2 0.801974 0.719120 0.167846
O O3 0.750000 0.750000 0.000000
O O4 0.878372 0.735415 0.015518
O O5 0.910058 0.500000 0.537046
O O6 0.924563 0.277163 0.655920
O O7 0.878759 0.239424 0.476719
O O8 0.000000 0.292076 0.500000
O O9 0.070573 0.234123 0.158375
O O10 0.090953 0.000000 0.050609
O O11 0.000000 0.197295 0.000000
O O12 0.265162 0.500000 0.194115
O O13 0.185438 0.717029 0.244969
O O14 0.300034 0.678578 0.335730
O O15 0.097815 0.500000 0.222460
O O16 0.250000 0.750000 0.500000
O O17 0.191262 0.000000 0.513450
#
# Coordination Sequence:
#
# PCOD8104207 Si02
#       6
#     8   8   8   8   8   8
#     4  12  24  39  63  92 121 157 203 252 301 362
#     4  10  22  41  63  90 127 164 203 253 305 360
#     4  11  25  43  63  90 125 162 202 253 307 364
#     4  10  21  38  61  91 126 161 201 255 305 354
#     4  10  20  38  63  89 122 164 204 249 306 363
#     4  11  22  38  62  90 123 159 203 252 301 358
#
# _framework density 19.14246
#
# number of rings (size 3 to 8) (size 9 to 14) (size 15 to 20)
#    0.000    1.333    3.333    2.500    0.000    5.000 
#    0.000    3.333    0.000    0.000    0.000    0.000 
#    0.000    0.000    0.000    0.000    0.000    0.000 
#
# Total GULP energy -297696.310998 kJ/mol
# GULP energy per Si atom -12404.012958 kJ/mol
# Density = 1.909889 g / cm^3
# Si number density = 19.142460 Si / 1000 Ang^3
#
#
#
# Elastic Constant Matrix: (Units=GPa)
#
#
# Indices 1 2 3 4 5 6 
#
# 1 111.4489 80.4342 71.6775 0.0000 0.6121 0.0000
# 2 80.4342 123.4386 64.4294 0.0000 2.0607 0.0000
# 3 71.6775 64.4294 129.4431 0.0000 -4.9245 0.0000
# 4 0.0000 0.0000 0.0000 34.9663 0.0000 3.5438
# 5 0.6121 2.0607 -4.9245 0.0000 38.0665 0.0000
# 6 0.0000 0.0000 0.0000 3.5438 0.0000 29.7324
#
#
#
# Elastic Compliance Matrix: (Units=1/GPa)
#
#
# Indices 1 2 3 4 5 6 
#
# 1 0.020080 -0.009807 -0.006261 0.000000 -0.000602 0.000000
# 2 -0.009807 0.015799 -0.002472 0.000000 -0.001017 0.000000
# 3 -0.006261 -0.002472 0.012493 0.000000 0.001851 0.000000
# 4 0.000000 0.000000 0.000000 0.028949 0.000000 -0.003450
# 5 -0.000602 -0.001017 0.001851 0.000000 0.026574 0.000000
# 6 0.000000 0.000000 0.000000 -0.003450 0.000000 0.034045
#
#
# Mechanical properties :
#
#
# Convention : Reuss Voigt Hill
#
# Bulk Modulus (GPa) = 88.55160 88.60142 88.57651
# Shear Modulus (GPa) = 27.96694 30.40569 29.18631
#
# Velocity S-wave (km/s) = 3.82644 3.98978 3.90896
# Velocity P-wave (km/s) = 8.11676 8.22255 8.16983
#
# Compressibility (1/GPa) = 0.01129285
#
# Stress axis : x y z
#
# Youngs Moduli (GPa) = 49.80025 63.29682 80.04372
#
# Poissons Ratio (x) = 0.62072 0.50115
# Poissons Ratio (y) = 0.48837 0.19787
# Poissons Ratio (z) = 0.31180 0.15647
#
# Static dielectric constant tensor:
#      x y z
#    x 3.049940 0.000000 0.024190 
#    y 0.000000 3.715450 0.000000 
#    z 0.024190 0.000000 3.607520 
# 
# 
# High freq. dielectric constant tensor:
#      x y z
#    x 1.743040 0.000000 -0.001010 
#    y 0.000000 1.749490 0.000000 
#    z -0.001010 0.000000 1.759320 
# 
# From -- ./inp_files/221570.got.cif
#   From: 2010.06.25/outbox.cif.g09.slc.cpg/sg12_111_cif.got.tgz:221570.got - 2010.06.28 00:19:55.
