data_PCOD8104811
_publ_section_title
;
Structure prediction by ZEFSAII (Michael W. Deem and Ramdas Pophale) SiO2 
 PCOD8104811
Probable space group: C 2/M
;
_chemical_formula_sum "Si O2"
_cell_formula_units_Z 56
_cell_length_a 9.868124
_cell_length_b 17.557749
_cell_length_c 17.187629
_cell_angle_alpha 90.000000
_cell_angle_beta 115.962731
_cell_angle_gamma 90.000000
_cell_volume 2677.424665
_symmetry_space_group_name_H-M "C 2/M"
_symmetry_group_IT_number 12
_symmetry_cell_setting 'monoclinic'
loop_
_space_group_symop_operation_xyz
x,y,z
-x,y,-z
-x,-y,-z
x,-y,z
1/2+x,1/2+y,z
1/2-x,1/2+y,-z
1/2-x,1/2-y,-z
1/2+x,1/2-y,z
loop_
_atom_site_type_symbol
_atom_site_label
_atom_site_fract_x
_atom_site_fract_y
_atom_site_fract_z
Si Si1 0.665727 0.910330 0.062561
Si Si2 0.325081 0.323605 0.977821
Si Si3 0.703822 0.086693 0.804845
Si Si4 0.651609 0.180251 0.500749
Si Si5 0.177418 0.090822 0.745028
Si Si6 0.378083 0.913986 0.659206
Si Si7 0.339195 0.589646 0.673522
O O1 0.720980 0.876091 0.158921
O O2 0.651653 0.000000 0.063952
O O3 0.500000 0.875659 0.000000
O O4 0.794978 0.891067 0.031844
O O5 0.243576 0.349709 0.878324
O O6 0.500000 0.311187 0.000000
O O7 0.250000 0.250000 0.000000
O O8 0.525739 0.089355 0.749216
O O9 0.784090 0.111173 0.745365
O O10 0.751965 0.000000 0.841318
O O11 0.500000 0.213006 0.500000
O O12 0.750000 0.250000 0.500000
O O13 0.603869 0.133204 0.413653
O O14 0.737306 0.127427 0.582838
O O15 0.243814 0.118891 0.679341
O O16 0.008133 0.121921 0.708218
O O17 0.179592 0.000000 0.750626
O O18 0.342840 0.000000 0.624780
O O19 0.329971 0.500000 0.656973
#
# Coordination Sequence:
#
# PCOD8104811 Si02
#       7
#     8   8   8   8   8   8   8
#     4  10  20  39  67  96 130 171 217 276 331 385
#     4  12  26  43  60  93 133 175 223 266 334 401
#     4  10  21  42  70  97 122 164 226 281 327 384
#     4  12  27  45  62  96 133 171 217 260 335 396
#     4   9  19  35  60  98 126 157 207 260 324 378
#     4  10  21  41  70  97 126 168 222 272 320 383
#     4  10  21  41  69  95 127 168 220 279 325 376
#
# _framework density 20.915621000000002
#
# number of rings (size 3 to 8) (size 9 to 14) (size 15 to 20)
#    0.000    1.571    1.429    3.000    2.000    5.143 
#    7.714    2.143    0.000    0.000    0.000    0.000 
#    0.000    0.000    0.000    0.000    0.000    0.000 
#
# Total GULP energy -347155.849785 kJ/mol
# GULP energy per Si atom -12398.423207 kJ/mol
# Density = 2.086802 g / cm^3
# Si number density = 20.915621 Si / 1000 Ang^3
#
#
#
# Elastic Constant Matrix: (Units=GPa)
#
#
# Indices 1 2 3 4 5 6 
#
# 1 153.3047 26.3095 39.5794 0.0000 -6.3538 0.0000
# 2 26.3095 55.4192 44.7277 0.0000 -3.6660 0.0000
# 3 39.5794 44.7277 120.4470 0.0000 -5.9714 0.0000
# 4 0.0000 0.0000 0.0000 21.1863 0.0000 -6.2886
# 5 -6.3538 -3.6660 -5.9714 0.0000 33.8882 0.0000
# 6 0.0000 0.0000 0.0000 -6.2886 0.0000 28.4765
#
#
#
# Elastic Compliance Matrix: (Units=1/GPa)
#
#
# Indices 1 2 3 4 5 6 
#
# 1 0.007334 -0.002162 -0.001564 0.000000 0.000866 0.000000
# 2 -0.002162 0.026446 -0.009068 0.000000 0.000858 0.000000
# 3 -0.001564 -0.009068 0.012227 0.000000 0.000880 0.000000
# 4 0.000000 0.000000 0.000000 0.050511 0.000000 0.011155
# 5 0.000866 0.000858 0.000880 0.000000 0.029919 0.000000
# 6 0.000000 0.000000 0.000000 0.011155 0.000000 0.037580
#
#
# Mechanical properties :
#
#
# Convention : Reuss Voigt Hill
#
# Bulk Modulus (GPa) = 48.97335 61.15601 55.06468
# Shear Modulus (GPa) = 25.45691 31.28050 28.36870
#
# Velocity S-wave (km/s) = 3.49252 3.87144 3.68685
# Velocity P-wave (km/s) = 6.30310 7.02046 6.67143
#
# Compressibility (1/GPa) = 0.02041927
#
# Stress axis : x y z
#
# Youngs Moduli (GPa) = 136.35739 37.81348 81.78456
#
# Poissons Ratio (x) = 0.08175 0.12792
# Poissons Ratio (y) = 0.29479 0.74159
# Poissons Ratio (z) = 0.21328 0.34288
#
# Static dielectric constant tensor:
#      x y z
#    x 4.160810 0.000000 0.021330 
#    y 0.000000 3.624210 0.000000 
#    z 0.021330 0.000000 3.712760 
# 
# 
# High freq. dielectric constant tensor:
#      x y z
#    x 1.840520 0.000000 -0.006870 
#    y 0.000000 1.793620 0.000000 
#    z -0.006870 0.000000 1.827560 
# 
# From -- ./inp_files/257208.got.cif
#   From: 2010.06.25/outbox.cif.g09.slc.cpg/sg12_129_cif.got.tgz:257208.got - 2010.06.28 00:19:55.
