data_PCOD8104856
_publ_section_title
;
Structure prediction by ZEFSAII (Michael W. Deem and Ramdas Pophale) SiO2 
 PCOD8104856
Probable space group: C 2/M
;
_chemical_formula_sum "Si O2"
_cell_formula_units_Z 64
_cell_length_a 24.772200
_cell_length_b 19.877480
_cell_length_c 8.651335
_cell_angle_alpha 90.000000
_cell_angle_beta 49.394342
_cell_angle_gamma 90.000000
_cell_volume 3234.217764
_symmetry_space_group_name_H-M "C 2/M"
_symmetry_group_IT_number 12
_symmetry_cell_setting 'monoclinic'
loop_
_space_group_symop_operation_xyz
x,y,z
-x,y,-z
-x,-y,-z
x,-y,z
1/2+x,1/2+y,z
1/2-x,1/2+y,-z
1/2-x,1/2-y,-z
1/2+x,1/2-y,z
loop_
_atom_site_type_symbol
_atom_site_label
_atom_site_fract_x
_atom_site_fract_y
_atom_site_fract_z
Si Si1 0.604675 0.140689 0.215204
Si Si2 0.875136 0.791204 0.906192
Si Si3 0.159450 0.424118 0.612009
Si Si4 0.480874 0.708240 0.208348
Si Si5 0.160834 0.180792 0.366291
Si Si6 0.255836 0.795119 0.642768
Si Si7 0.780613 0.425218 0.172082
Si Si8 0.960417 0.359258 0.334298
O O1 0.628101 0.211414 0.101999
O O2 0.589533 0.149519 0.423259
O O3 0.536256 0.112233 0.249177
O O4 0.671946 0.091635 0.067079
O O5 0.855074 0.828207 0.785042
O O6 0.954692 0.813936 0.800858
O O7 0.821595 0.810258 0.143359
O O8 0.180582 0.500000 0.518915
O O9 0.210649 0.368361 0.442826
O O10 0.165331 0.418161 0.785209
O O11 0.077712 0.409811 0.714308
O O12 0.410103 0.671239 0.399729
O O13 0.468460 0.788014 0.235549
O O14 0.500000 0.685474 0.000000
O O15 0.195667 0.254152 0.326611
O O16 0.213992 0.122974 0.321844
O O17 0.250000 0.750000 0.500000
O O18 0.749800 0.500000 0.212474
#
# Coordination Sequence:
#
# PCOD8104856 Si02
#       8
#     8   8   8   8   8   8   8   8
#     4  10  20  40  59  90 126 164 209 250 303 362
#     4  11  22  36  61  94 124 158 203 265 312 365
#     4  11  24  40  57  89 131 167 203 251 304 365
#     4  11  23  37  63  96 126 156 203 259 318 377
#     4  12  22  40  64  90 125 160 210 262 321 360
#     4  12  21  37  62  91 119 165 212 254 304 366
#     4  11  26  42  61  87 124 168 212 260 311 368
#     4  10  22  36  61  89 128 168 204 247 296 371
#
# _framework density 19.788399999999999
#
# number of rings (size 3 to 8) (size 9 to 14) (size 15 to 20)
#    0.000    1.000    5.000    1.500    5.250    1.000 
#    0.000    2.500    0.000    2.625    0.000    0.000 
#    0.000    0.000    0.000    0.000    0.000    0.000 
#
# Total GULP energy -396847.584551 kJ/mol
# GULP energy per Si atom -12401.487017 kJ/mol
# Density = 1.974336 g / cm^3
# Si number density = 19.788400 Si / 1000 Ang^3
#
#
#
# Elastic Constant Matrix: (Units=GPa)
#
#
# Indices 1 2 3 4 5 6 
#
# 1 99.5540 26.8809 25.2648 0.0000 -2.2804 0.0000
# 2 26.8809 77.2374 22.3947 0.0000 -6.8607 0.0000
# 3 25.2648 22.3947 118.0055 0.0000 -11.5509 0.0000
# 4 0.0000 0.0000 0.0000 21.3808 0.0000 -1.4072
# 5 -2.2804 -6.8607 -11.5509 0.0000 34.0350 0.0000
# 6 0.0000 0.0000 0.0000 -1.4072 0.0000 14.8045
#
#
#
# Elastic Compliance Matrix: (Units=1/GPa)
#
#
# Indices 1 2 3 4 5 6 
#
# 1 0.011444 -0.003499 -0.001841 0.000000 -0.000563 0.000000
# 2 -0.003499 0.014896 -0.001869 0.000000 0.002134 0.000000
# 3 -0.001841 -0.001869 0.009489 0.000000 0.002720 0.000000
# 4 0.000000 0.000000 0.000000 0.047065 0.000000 0.004474
# 5 -0.000563 0.002134 0.002720 0.000000 0.030697 0.000000
# 6 0.000000 0.000000 0.000000 0.004474 0.000000 0.067972
#
#
# Mechanical properties :
#
#
# Convention : Reuss Voigt Hill
#
# Bulk Modulus (GPa) = 46.70459 49.31975 48.01217
# Shear Modulus (GPa) = 24.61598 28.72783 26.67190
#
# Velocity S-wave (km/s) = 3.53081 3.81432 3.67530
# Velocity P-wave (km/s) = 6.34629 6.66156 6.50583
#
# Compressibility (1/GPa) = 0.02141117
#
# Stress axis : x y z
#
# Youngs Moduli (GPa) = 87.38245 67.13070 105.38112
#
# Poissons Ratio (x) = 0.23489 0.19403
# Poissons Ratio (y) = 0.30575 0.19695
# Poissons Ratio (z) = 0.16089 0.12546
#
# Static dielectric constant tensor:
#      x y z
#    x 3.867540 0.000000 -0.050830 
#    y 0.000000 3.312560 0.000000 
#    z -0.050830 0.000000 3.598100 
# 
# 
# High freq. dielectric constant tensor:
#      x y z
#    x 1.787940 0.000000 0.000320 
#    y 0.000000 1.728620 0.000000 
#    z 0.000320 0.000000 1.778320 
# 
# From -- ./inp_files/99055.got.cif
#   From: 2010.06.25/outbox.cif.g09.slc.cpg/sg12_50_cif.got.tgz:99055.got - 2010.06.28 00:19:55.
