data_PCOD8104130
_publ_section_title
;
Structure prediction by ZEFSAII (Michael W. Deem and Ramdas Pophale) SiO2 
 PCOD8104130
Probable space group: C 2/M
;
_chemical_formula_sum "Si O2"
_cell_formula_units_Z 56
_cell_length_a 24.999625
_cell_length_b 18.773739
_cell_length_c 16.385644
_cell_angle_alpha 90.000000
_cell_angle_beta 21.676618
_cell_angle_gamma 90.000000
_cell_volume 2840.576754
_symmetry_space_group_name_H-M "C 2/M"
_symmetry_group_IT_number 12
_symmetry_cell_setting 'monoclinic'
loop_
_space_group_symop_operation_xyz
x,y,z
-x,y,-z
-x,-y,-z
x,-y,z
1/2+x,1/2+y,z
1/2-x,1/2+y,-z
1/2-x,1/2-y,-z
1/2+x,1/2-y,z
loop_
_atom_site_type_symbol
_atom_site_label
_atom_site_fract_x
_atom_site_fract_y
_atom_site_fract_z
Si Si1 0.418766 0.328239 0.271706
Si Si2 0.593548 0.081675 0.129659
Si Si3 0.054446 0.081804 0.618583
Si Si4 0.156765 0.153769 0.316992
Si Si5 0.724760 0.918376 0.113062
Si Si6 0.842460 0.314509 0.471978
Si Si7 0.748276 0.691362 0.786972
O O1 0.398648 0.398075 0.356097
O O2 0.310939 0.336418 0.348970
O O3 0.388306 0.261302 0.372605
O O4 0.579768 0.322403 0.007907
O O5 0.612496 0.096911 0.199381
O O6 0.464155 0.128220 0.275464
O O7 0.553312 0.000000 0.171519
O O8 0.742642 0.097903 0.872176
O O9 0.144455 0.130221 0.428408
O O10 0.091997 0.000000 0.548498
O O11 0.883837 0.097613 0.851509
O O12 0.228142 0.231335 0.207104
O O13 0.000000 0.152723 0.500000
O O14 0.687901 0.867327 0.241214
O O15 0.714309 0.000000 0.158642
O O16 0.833796 0.313006 0.581506
#
# Coordination Sequence:
#
# PCOD8104130 Si02
#       7
#     8   8   8   8   8   8   8
#     4  10  22  42  63  86 120 163 206 257 308 360
#     4  11  24  41  61  92 131 164 203 252 312 372
#     4  10  20  38  62  90 121 159 206 252 304 361
#     4  12  23  36  63  97 129 162 205 250 309 379
#     4   9  21  39  60  87 125 166 202 250 305 363
#     4  11  23  40  63  87 122 162 206 257 306 362
#     4  11  23  39  65  93 122 160 210 256 310 371
#
# _framework density 19.714307000000002
#
# number of rings (size 3 to 8) (size 9 to 14) (size 15 to 20)
#    0.000    1.429    4.286    0.857    2.000    2.286 
#    0.000    2.143    0.000    6.000    0.000    0.000 
#    0.000    0.000    0.000    0.000    0.000    0.000 
#
# Total GULP energy -347313.773568 kJ/mol
# GULP energy per Si atom -12404.063342 kJ/mol
# Density = 1.966944 g / cm^3
# Si number density = 19.714307 Si / 1000 Ang^3
#
#
#
# Elastic Constant Matrix: (Units=GPa)
#
#
# Indices 1 2 3 4 5 6 
#
# 1 54.3556 31.9349 32.1690 0.0043 6.8964 -0.0007
# 2 31.9349 91.9763 29.7537 0.0015 -0.6125 -0.0013
# 3 32.1690 29.7537 58.2244 0.0030 -6.1789 -0.0005
# 4 0.0043 0.0015 0.0030 27.1619 -0.0048 6.3602
# 5 6.8964 -0.6125 -6.1789 -0.0048 31.8258 0.0005
# 6 -0.0007 -0.0013 -0.0005 6.3602 0.0005 28.1593
#
#
#
# Elastic Compliance Matrix: (Units=1/GPa)
#
#
# Indices 1 2 3 4 5 6 
#
# 1 0.032930 -0.006303 -0.016075 -0.000005 -0.010378 0.000002
# 2 -0.006303 0.014267 -0.003711 0.000001 0.000920 0.000000
# 3 -0.016075 -0.003711 0.028910 0.000001 0.009025 0.000000
# 4 -0.000005 0.000001 0.000001 0.038872 0.000007 -0.008780
# 5 -0.010378 0.000920 0.009025 0.000007 0.035440 -0.000002
# 6 0.000002 0.000000 0.000000 -0.008780 -0.000002 0.037495
#
#
# Mechanical properties :
#
#
# Convention : Reuss Voigt Hill
#
# Bulk Modulus (GPa) = 41.78618 43.58573 42.68596
# Shear Modulus (GPa) = 20.15571 24.80931 22.48251
#
# Velocity S-wave (km/s) = 3.20095 3.55130 3.38067
# Velocity P-wave (km/s) = 5.90790 6.24278 6.07765
#
# Compressibility (1/GPa) = 0.02393136
#
# Stress axis : x y z
#
# Youngs Moduli (GPa) = 30.36709 70.09018 34.58993
#
# Poissons Ratio (x) = 0.44177 0.55602
# Poissons Ratio (y) = 0.19140 0.12836
# Poissons Ratio (z) = 0.48814 0.26010
#
# Static dielectric constant tensor:
#      x y z
#    x 3.486580 0.000000 -0.020880 
#    y 0.000000 3.612880 0.000000 
#    z -0.020880 0.000000 3.498210 
# 
# 
# High freq. dielectric constant tensor:
#      x y z
#    x 1.764020 0.000000 0.003380 
#    y 0.000000 1.772800 0.000000 
#    z 0.003380 0.000000 1.770370 
# 
# From -- ./inp_files/293855.got.cif
#   From: 2010.06.25/outbox.cif.g09.slc.cpg/sg12_147_cif.got.tgz:293855.got - 2010.06.28 00:19:55.
