data_PCOD8104693
_publ_section_title
;
Structure prediction by ZEFSAII (Michael W. Deem and Ramdas Pophale) SiO2 
 PCOD8104693
Probable space group: C 2/M
;
_chemical_formula_sum "Si O2"
_cell_formula_units_Z 56
_cell_length_a 19.878804
_cell_length_b 8.835740
_cell_length_c 18.599520
_cell_angle_alpha 90.000000
_cell_angle_beta 59.644553
_cell_angle_gamma 90.000000
_cell_volume 2819.024543
_symmetry_space_group_name_H-M "C 2/M"
_symmetry_group_IT_number 12
_symmetry_cell_setting 'monoclinic'
loop_
_space_group_symop_operation_xyz
x,y,z
-x,y,-z
-x,-y,-z
x,-y,z
1/2+x,1/2+y,z
1/2-x,1/2+y,-z
1/2-x,1/2-y,-z
1/2+x,1/2-y,z
loop_
_atom_site_type_symbol
_atom_site_label
_atom_site_fract_x
_atom_site_fract_y
_atom_site_fract_z
Si Si1 0.687205 0.177155 0.981693
Si Si2 0.539970 0.172112 0.148261
Si Si3 0.331846 0.821421 0.435881
Si Si4 0.881076 0.176439 0.260763
Si Si5 0.970312 0.176241 0.438171
Si Si6 0.095171 0.328668 0.276756
Si Si7 0.772279 0.175570 0.187730
O O1 0.695443 0.228572 0.895589
O O2 0.700634 0.000000 0.980071
O O3 0.750000 0.250000 0.000000
O O4 0.599433 0.219937 0.053259
O O5 0.466591 0.283286 0.185551
O O6 0.588435 0.188860 0.195282
O O7 0.510161 0.000000 0.154676
O O8 0.250000 0.750000 0.500000
O O9 0.362138 0.770593 0.341936
O O10 0.393131 0.771472 0.463315
O O11 0.323526 0.000000 0.441125
O O12 0.819000 0.220907 0.233699
O O13 0.877308 0.000000 0.282103
O O14 0.000000 0.225854 0.500000
O O15 0.037336 0.211078 0.344704
O O16 0.949358 0.000000 0.445673
O O17 0.074174 0.500000 0.312155
O O18 0.182543 0.285507 0.252186
O O19 0.782555 0.000000 0.162480
#
# Coordination Sequence:
#
# PCOD8104693 Si02
#       7
#     8   8   8   8   8   8   8
#     4  11  22  38  62  91 124 163 208 259 315 368
#     4  10  21  39  63  89 122 165 205 253 310 372
#     4  12  26  45  68  93 127 169 210 257 314 375
#     4  11  24  42  65  93 126 166 207 257 313 371
#     4  11  25  43  64  97 131 160 207 262 309 370
#     4  10  20  39  64  89 122 166 208 251 308 372
#     4  10  23  42  62  91 127 162 209 258 309 371
#
# _framework density 19.865026
#
# number of rings (size 3 to 8) (size 9 to 14) (size 15 to 20)
#    0.000    1.286    2.857    2.571    2.000    4.571 
#    0.000    2.857    0.000    0.000    0.000    0.000 
#    0.000    0.000    0.000    0.000    0.000    0.000 
#
# Total GULP energy -347369.438020 kJ/mol
# GULP energy per Si atom -12406.051358 kJ/mol
# Density = 1.981981 g / cm^3
# Si number density = 19.865026 Si / 1000 Ang^3
#
#
#
# Elastic Constant Matrix: (Units=GPa)
#
#
# Indices 1 2 3 4 5 6 
#
# 1 148.4717 57.1739 42.7092 0.0001 -8.2912 0.0001
# 2 57.1739 103.1709 45.4710 0.0004 -5.0572 0.0007
# 3 42.7092 45.4710 84.9477 0.0000 -11.2388 0.0000
# 4 0.0001 0.0004 0.0000 36.6727 0.0000 -2.8416
# 5 -8.2912 -5.0572 -11.2388 0.0000 30.9114 0.0001
# 6 0.0001 0.0007 0.0000 -2.8416 0.0001 32.0115
#
#
#
# Elastic Compliance Matrix: (Units=1/GPa)
#
#
# Indices 1 2 3 4 5 6 
#
# 1 0.008949 -0.003906 -0.002285 0.000000 0.000930 0.000000
# 2 -0.003906 0.014396 -0.005850 0.000000 -0.000820 0.000000
# 3 -0.002285 -0.005850 0.016645 0.000000 0.004482 0.000000
# 4 0.000000 0.000000 0.000000 0.027457 0.000000 0.002437
# 5 0.000930 -0.000820 0.004482 0.000000 0.034096 0.000000
# 6 0.000000 0.000000 0.000000 0.002437 0.000000 0.031455
#
#
# Mechanical properties :
#
#
# Convention : Reuss Voigt Hill
#
# Bulk Modulus (GPa) = 62.86756 69.69984 66.28370
# Shear Modulus (GPa) = 30.79138 32.66818 31.72978
#
# Velocity S-wave (km/s) = 3.94131 4.05965 4.00092
# Velocity P-wave (km/s) = 7.24072 7.55892 7.40153
#
# Compressibility (1/GPa) = 0.01590645
#
# Stress axis : x y z
#
# Youngs Moduli (GPa) = 111.74573 69.46532 60.07722
#
# Poissons Ratio (x) = 0.27136 0.13728
# Poissons Ratio (y) = 0.43653 0.35146
# Poissons Ratio (z) = 0.25535 0.40638
#
# Static dielectric constant tensor:
#      x y z
#    x 3.805730 0.000000 0.002060 
#    y 0.000000 3.641530 0.000000 
#    z 0.002060 0.000000 3.683340 
# 
# 
# High freq. dielectric constant tensor:
#      x y z
#    x 1.786500 0.000000 -0.004360 
#    y 0.000000 1.777810 0.000000 
#    z -0.004360 0.000000 1.779940 
# 
# From -- ./inp_files/280895.got.cif
#   From: 2010.06.25/outbox.cif.g09.slc.cpg/sg12_141_cif.got.tgz:280895.got - 2010.06.28 00:19:55.
