data_PCOD8104107
_publ_section_title
;
Structure prediction by ZEFSAII (Michael W. Deem and Ramdas Pophale) SiO2 
 PCOD8104107
Probable space group: C 2/M
;
_chemical_formula_sum "Si O2"
_cell_formula_units_Z 64
_cell_length_a 32.433042
_cell_length_b 21.539752
_cell_length_c 16.835464
_cell_angle_alpha 90.000000
_cell_angle_beta 163.057135
_cell_angle_gamma 90.000000
_cell_volume 3427.439164
_symmetry_space_group_name_H-M "C 2/M"
_symmetry_group_IT_number 12
_symmetry_cell_setting 'monoclinic'
loop_
_space_group_symop_operation_xyz
x,y,z
-x,y,-z
-x,-y,-z
x,-y,z
1/2+x,1/2+y,z
1/2-x,1/2+y,-z
1/2-x,1/2-y,-z
1/2+x,1/2-y,z
loop_
_atom_site_type_symbol
_atom_site_label
_atom_site_fract_x
_atom_site_fract_y
_atom_site_fract_z
Si Si1 0.595252 0.678941 0.363889
Si Si2 0.704370 0.571490 0.976564
Si Si3 0.417890 0.570389 0.534548
Si Si4 0.609578 0.858678 0.565105
Si Si5 0.653311 0.693951 0.301982
Si Si6 0.213812 0.379284 0.041500
Si Si7 0.721303 0.299503 0.259295
Si Si8 0.853901 0.762518 0.263449
O O1 0.599326 0.617977 0.425199
O O2 0.642726 0.653185 0.363336
O O3 0.702900 0.732063 0.593896
O O4 0.436941 0.708443 0.068848
O O5 0.711645 0.500000 0.966497
O O6 0.817011 0.584979 0.253312
O O7 0.550323 0.590737 0.724379
O O8 0.741306 0.610112 0.966689
O O9 0.437316 0.500000 0.602864
O O10 0.279628 0.571196 0.223502
O O11 0.689997 0.845685 0.631736
O O12 0.609892 0.798645 0.621000
O O13 0.453133 0.880548 0.255682
O O14 0.750000 0.750000 0.500000
O O15 0.713327 0.664395 0.330495
O O16 0.500000 0.721899 0.000000
O O17 0.279076 0.311781 0.184411
O O18 0.000000 0.790547 0.500000
O O19 0.750000 0.750000 0.000000
#
# Coordination Sequence:
#
# PCOD8104107 Si02
#       8
#     8   8   8   8   8   8   8   8
#     4  10  20  38  62  88 122 151 184 236 291 351
#     4  11  23  42  61  77 106 152 201 247 284 329
#     4  11  24  41  61  85 113 153 201 243 282 339
#     4  12  24  37  54  85 115 150 190 238 295 344
#     4   8  16  33  56  87 119 146 180 222 283 347
#     4  12  25  38  57  80 113 152 198 238 289 338
#     4  10  21  34  60  92 121 148 186 234 292 350
#     4  12  22  37  54  80 116 148 188 237 294 354
#
# _framework density 18.672833000000001
#
# number of rings (size 3 to 8) (size 9 to 14) (size 15 to 20)
#    0.000    1.250    3.750    2.625    3.500    2.500 
#    0.000    0.000    0.000    4.125    0.000    0.875 
#    0.000    0.000    0.000    0.000    0.000    0.000 
#
# Total GULP energy -396615.888339 kJ/mol
# GULP energy per Si atom -12394.246511 kJ/mol
# Density = 1.863033 g / cm^3
# Si number density = 18.672833 Si / 1000 Ang^3
#
#
#
# Elastic Constant Matrix: (Units=GPa)
#
#
# Indices 1 2 3 4 5 6 
#
# 1 133.2046 34.0949 50.9434 0.0000 1.4962 0.0000
# 2 34.0949 54.7631 27.0419 0.0000 2.8058 0.0000
# 3 50.9434 27.0419 132.2727 0.0000 5.9962 0.0000
# 4 0.0000 0.0000 0.0000 23.7410 0.0000 0.6571
# 5 1.4962 2.8058 5.9962 0.0000 22.6204 0.0000
# 6 0.0000 0.0000 0.0000 0.6571 0.0000 19.3466
#
#
#
# Elastic Compliance Matrix: (Units=1/GPa)
#
#
# Indices 1 2 3 4 5 6 
#
# 1 0.009796 -0.004734 -0.002836 0.000000 0.000691 0.000000
# 2 -0.004734 0.022644 -0.002726 0.000000 -0.001773 0.000000
# 3 -0.002836 -0.002726 0.009298 0.000000 -0.001939 0.000000
# 4 0.000000 0.000000 0.000000 0.042161 0.000000 -0.001432
# 5 0.000691 -0.001773 -0.001939 0.000000 0.044896 0.000000
# 6 0.000000 0.000000 0.000000 -0.001432 0.000000 0.051737
#
#
# Mechanical properties :
#
#
# Convention : Reuss Voigt Hill
#
# Bulk Modulus (GPa) = 47.28984 60.48897 53.88940
# Shear Modulus (GPa) = 24.01850 27.01895 25.51872
#
# Velocity S-wave (km/s) = 3.59037 3.80803 3.70080
# Velocity P-wave (km/s) = 6.52442 7.19717 6.86903
#
# Compressibility (1/GPa) = 0.02114619
#
# Stress axis : x y z
#
# Youngs Moduli (GPa) = 102.08415 44.16086 107.55329
#
# Poissons Ratio (x) = 0.20904 0.30506
# Poissons Ratio (y) = 0.48323 0.29319
# Poissons Ratio (z) = 0.28955 0.12038
#
# Static dielectric constant tensor:
#      x y z
#    x 4.126650 0.000000 -0.081620 
#    y 0.000000 3.371070 0.000000 
#    z -0.081620 0.000000 3.730440 
# 
# 
# High freq. dielectric constant tensor:
#      x y z
#    x 1.730790 0.000000 0.000170 
#    y 0.000000 1.690810 0.000000 
#    z 0.000170 0.000000 1.745590 
# 
# From -- ./inp_files/251946.got.cif
#   From: 2010.06.25/outbox.cif.g09.slc.cpg/sg12_126_cif.got.tgz:251946.got - 2010.06.28 00:19:55.
