data_PCOD8104004
_publ_section_title
;
Structure prediction by ZEFSAII (Michael W. Deem and Ramdas Pophale) SiO2 
 PCOD8104004
Probable space group: C 2/M
;
_chemical_formula_sum "Si O2"
_cell_formula_units_Z 40
_cell_length_a 15.637041
_cell_length_b 25.091323
_cell_length_c 15.214273
_cell_angle_alpha 90.000000
_cell_angle_beta 161.197816
_cell_angle_gamma 90.000000
_cell_volume 1923.942304
_symmetry_space_group_name_H-M "C 2/M"
_symmetry_group_IT_number 12
_symmetry_cell_setting 'monoclinic'
loop_
_space_group_symop_operation_xyz
x,y,z
-x,y,-z
-x,-y,-z
x,-y,z
1/2+x,1/2+y,z
1/2-x,1/2+y,-z
1/2-x,1/2-y,-z
1/2+x,1/2-y,z
loop_
_atom_site_type_symbol
_atom_site_label
_atom_site_fract_x
_atom_site_fract_y
_atom_site_fract_z
Si Si1 0.620572 0.937562 0.372098
Si Si2 0.516551 0.273040 0.717615
Si Si3 0.738282 0.062869 0.287539
Si Si4 0.769650 0.298851 0.214377
Si Si5 0.592184 0.375387 0.885618
O O1 0.725802 0.923625 0.377757
O O2 0.820264 0.908896 0.635397
O O3 0.617286 0.000000 0.389057
O O4 0.322935 0.916628 0.088669
O O5 0.574304 0.252303 0.675235
O O6 0.530627 0.336789 0.742229
O O7 0.250000 0.250000 0.500000
O O8 0.750000 0.250000 0.000000
O O9 0.000000 0.088480 0.500000
O O10 0.736849 0.000000 0.271811
O O11 0.500000 0.088820 0.000000
O O12 0.000000 0.324748 0.500000
O O13 0.500000 0.279371 0.000000
O O14 0.672407 0.342795 0.050143
#
# Coordination Sequence:
#
# PCOD8104004 Si02
#       5
#     8   8   8   8   8
#     4  11  22  37  59  86 120 167 213 247 286 349
#     4  10  20  38  61  87 117 149 188 241 306 369
#     4   9  17  31  50  73 104 144 192 243 290 333
#     4  11  22  39  64  91 120 154 198 252 313 376
#     4  11  22  39  62  87 120 160 201 246 300 360
#
# _framework density 20.790644
#
# number of rings (size 3 to 8) (size 9 to 14) (size 15 to 20)
#    0.000    1.600    0.000    7.800    0.000    3.200 
#    0.000    6.000    0.000   12.000    0.000    0.000 
#    0.000    0.000    0.000    0.000    0.000    0.000 
#
# Total GULP energy -247852.751652 kJ/mol
# GULP energy per Si atom -12392.637583 kJ/mol
# Density = 2.074332 g / cm^3
# Si number density = 20.790644 Si / 1000 Ang^3
#
#
#
# Elastic Constant Matrix: (Units=GPa)
#
#
# Indices 1 2 3 4 5 6 
#
# 1 88.9410 32.0718 35.9876 -0.0037 12.1276 -0.0018
# 2 32.0718 113.8568 45.7195 -0.0021 -4.9190 0.0000
# 3 35.9876 45.7195 160.9297 -0.0148 10.4797 -0.0033
# 4 -0.0037 -0.0021 -0.0148 36.4835 0.0002 4.3402
# 5 12.1276 -4.9190 10.4797 0.0002 39.8815 -0.0003
# 6 -0.0018 0.0000 -0.0033 4.3402 -0.0003 17.7067
#
#
#
# Elastic Compliance Matrix: (Units=1/GPa)
#
#
# Indices 1 2 3 4 5 6 
#
# 1 0.013748 -0.003299 -0.001871 0.000000 -0.004096 0.000001
# 2 -0.003299 0.010864 -0.002545 -0.000001 0.003012 -0.000001
# 3 -0.001871 -0.002545 0.007466 0.000003 -0.001707 0.000001
# 4 0.000000 -0.000001 0.000003 0.028233 -0.000001 -0.006920
# 5 -0.004096 0.003012 -0.001707 -0.000001 0.027140 0.000000
# 6 0.000001 -0.000001 0.000001 -0.006920 0.000000 0.058172
#
#
# Mechanical properties :
#
#
# Convention : Reuss Voigt Hill
#
# Bulk Modulus (GPa) = 60.05777 65.69839 62.87808
# Shear Modulus (GPa) = 30.01166 35.47758 32.74462
#
# Velocity S-wave (km/s) = 3.80349 4.13537 3.97289
# Velocity P-wave (km/s) = 6.94538 7.38040 7.16619
#
# Compressibility (1/GPa) = 0.01665064
#
# Stress axis : x y z
#
# Youngs Moduli (GPa) = 72.73657 92.04577 133.93375
#
# Poissons Ratio (x) = 0.30361 0.25054
# Poissons Ratio (y) = 0.23992 0.34086
# Poissons Ratio (z) = 0.13606 0.23425
#
# Static dielectric constant tensor:
#      x y z
#    x 3.699260 0.000610 0.052990 
#    y 0.000610 -1.473900 0.000090 
#    z 0.052990 0.000090 4.094310 
# 
# 
# High freq. dielectric constant tensor:
#      x y z
#    x 1.797050 0.000000 0.005440 
#    y 0.000000 1.793850 0.000000 
#    z 0.005440 0.000000 1.845850 
# 
# From -- ./inp_files/219028.got.cif
#   From: 2010.06.25/outbox.cif.g09.slc.cpg/sg12_110_cif.got.tgz:219028.got - 2010.06.28 00:19:55.
