data_PCOD8104220
_publ_section_title
;
Structure prediction by ZEFSAII (Michael W. Deem and Ramdas Pophale) SiO2 
 PCOD8104220
Probable space group: C 2/M
;
_chemical_formula_sum "Si O2"
_cell_formula_units_Z 64
_cell_length_a 14.214033
_cell_length_b 14.563670
_cell_length_c 17.726416
_cell_angle_alpha 90.000000
_cell_angle_beta 54.567207
_cell_angle_gamma 90.000000
_cell_volume 2989.909442
_symmetry_space_group_name_H-M "C 2/M"
_symmetry_group_IT_number 12
_symmetry_cell_setting 'monoclinic'
loop_
_space_group_symop_operation_xyz
x,y,z
-x,y,-z
-x,-y,-z
x,-y,z
1/2+x,1/2+y,z
1/2-x,1/2+y,-z
1/2-x,1/2-y,-z
1/2+x,1/2-y,z
loop_
_atom_site_type_symbol
_atom_site_label
_atom_site_fract_x
_atom_site_fract_y
_atom_site_fract_z
Si Si1 0.619036 0.896684 0.969726
Si Si2 0.834188 0.692187 0.907971
Si Si3 0.751479 0.608701 0.228901
Si Si4 0.412044 0.254206 0.219720
Si Si5 0.256341 0.611013 0.206337
Si Si6 0.018012 0.105997 0.409497
Si Si7 0.113873 0.395841 0.413292
Si Si8 0.690372 0.321337 0.582471
O O1 0.729627 0.860989 0.868371
O O2 0.604826 0.000000 0.949240
O O3 0.500000 0.844043 0.000000
O O4 0.636332 0.893291 0.051089
O O5 0.776414 0.651519 0.859792
O O6 0.949599 0.750842 0.841284
O O7 0.750000 0.750000 0.000000
O O8 0.758729 0.500000 0.239197
O O9 0.857150 0.656389 0.223166
O O10 0.629025 0.649535 0.314768
O O11 0.372195 0.338174 0.182894
O O12 0.373415 0.266855 0.322911
O O13 0.275359 0.500000 0.195225
O O14 0.155268 0.641350 0.312252
O O15 0.901706 0.116147 0.417073
O O16 0.000000 0.152907 0.500000
O O17 0.046327 0.000000 0.407567
O O18 0.079496 0.500000 0.415297
O O19 0.214887 0.389560 0.427496
O O20 0.000000 0.343938 0.500000
O O21 0.750000 0.250000 0.500000
#
# Coordination Sequence:
#
# PCOD8104220 Si02
#       8
#     8   8   8   8   8   8   8   8
#     4  10  20  38  63  90 124 162 210 268 328 382
#     4  12  26  40  67  96 130 174 227 276 333 392
#     4  10  21  39  66  94 128 171 211 270 339 395
#     4  11  25  43  66  95 135 172 222 279 333 399
#     4  10  24  46  69  97 138 181 225 281 342 406
#     4  10  22  41  64  91 127 164 210 270 330 398
#     4   9  20  41  66  90 124 171 219 267 321 392
#     4  11  24  37  61  94 127 169 211 262 330 395
#
# _framework density 21.405331
#
# number of rings (size 3 to 8) (size 9 to 14) (size 15 to 20)
#    0.000    1.625    1.250    2.250    5.250    2.500 
#    0.000    2.500    0.000    0.000    0.000    0.000 
#    0.000    0.000    0.000    0.000    0.000    0.000 
#
# Total GULP energy -396498.931884 kJ/mol
# GULP energy per Si atom -12390.591621 kJ/mol
# Density = 2.135661 g / cm^3
# Si number density = 21.405331 Si / 1000 Ang^3
#
#
#
# Elastic Constant Matrix: (Units=GPa)
#
#
# Indices 1 2 3 4 5 6 
#
# 1 118.3876 24.7753 73.3770 0.0000 4.8929 0.0000
# 2 24.7753 67.9271 30.4421 0.0000 -0.7042 0.0000
# 3 73.3770 30.4421 176.6604 0.0000 1.1693 0.0000
# 4 0.0000 0.0000 0.0000 19.2600 0.0000 -1.9485
# 5 4.8929 -0.7042 1.1693 0.0000 49.2687 0.0000
# 6 0.0000 0.0000 0.0000 -1.9485 0.0000 24.0111
#
#
#
# Elastic Compliance Matrix: (Units=1/GPa)
#
#
# Indices 1 2 3 4 5 6 
#
# 1 0.011746 -0.002289 -0.004477 0.000000 -0.001093 0.000000
# 2 -0.002289 0.016404 -0.001879 0.000000 0.000506 0.000000
# 3 -0.004477 -0.001879 0.007842 0.000000 0.000232 0.000000
# 4 0.000000 0.000000 0.000000 0.052351 0.000000 0.004248
# 5 -0.001093 0.000506 0.000232 0.000000 0.020407 0.000000
# 6 0.000000 0.000000 0.000000 0.004248 0.000000 0.041992
#
#
# Mechanical properties :
#
#
# Convention : Reuss Voigt Hill
#
# Bulk Modulus (GPa) = 53.47142 68.90711 61.18927
# Shear Modulus (GPa) = 28.69155 34.13333 31.41244
#
# Velocity S-wave (km/s) = 3.66511 3.99760 3.83496
# Velocity P-wave (km/s) = 6.55327 7.31910 6.94675
#
# Compressibility (1/GPa) = 0.01870158
#
# Stress axis : x y z
#
# Youngs Moduli (GPa) = 85.13582 60.96055 127.51084
#
# Poissons Ratio (x) = 0.13954 0.57087
# Poissons Ratio (y) = 0.19488 0.23963
# Poissons Ratio (z) = 0.38116 0.11456
#
# Static dielectric constant tensor:
#      x y z
#    x 4.006530 0.000000 0.004710 
#    y 0.000000 3.780090 0.000000 
#    z 0.004710 0.000000 4.607950 
# 
# 
# High freq. dielectric constant tensor:
#      x y z
#    x 1.833210 0.000000 0.000690 
#    y 0.000000 1.831000 0.000000 
#    z 0.000690 0.000000 1.866200 
# 
# From -- ./inp_files/270654.got.cif
#   From: 2010.06.25/outbox.cif.g09.slc.cpg/sg12_136_cif.got.tgz:270654.got - 2010.06.28 00:19:55.
