data_PCOD8105940
_publ_section_title
;
Structure prediction by ZEFSAII (Michael W. Deem and Ramdas Pophale) SiO2 
 PCOD8105940
Probable space group: C 2/M
;
_chemical_formula_sum "Si O2"
_cell_formula_units_Z 64
_cell_length_a 29.111279
_cell_length_b 8.958604
_cell_length_c 17.518969
_cell_angle_alpha 90.000000
_cell_angle_beta 130.386893
_cell_angle_gamma 90.000000
_cell_volume 3480.057808
_symmetry_space_group_name_H-M "C 2/M"
_symmetry_group_IT_number 12
_symmetry_cell_setting 'monoclinic'
loop_
_space_group_symop_operation_xyz
x,y,z
-x,y,-z
-x,-y,-z
x,-y,z
1/2+x,1/2+y,z
1/2-x,1/2+y,-z
1/2-x,1/2-y,-z
1/2+x,1/2-y,z
loop_
_atom_site_type_symbol
_atom_site_label
_atom_site_fract_x
_atom_site_fract_y
_atom_site_fract_z
Si Si1 0.064792 0.178816 0.238734
Si Si2 0.783655 0.175125 0.106136
Si Si3 0.602049 0.173230 0.583812
Si Si4 0.357827 0.322635 0.817762
Si Si5 0.763131 0.326697 0.239196
Si Si6 0.919904 0.824772 0.284772
Si Si7 0.963553 0.676202 0.641205
Si Si8 0.458325 0.338599 0.027745
O O1 0.118530 0.232394 0.239521
O O2 0.075364 0.255674 0.331409
O O3 0.999814 0.240738 0.136727
O O4 0.064136 0.000000 0.245920
O O5 0.754706 0.233496 0.153168
O O6 0.854506 0.216882 0.180270
O O7 0.773624 0.000000 0.090755
O O8 0.750000 0.250000 0.000000
O O9 0.673169 0.206540 0.652167
O O10 0.573567 0.267318 0.621690
O O11 0.570594 0.224766 0.472381
O O12 0.589580 0.000000 0.588125
O O13 0.366911 0.500000 0.830805
O O14 0.288449 0.276625 0.756104
O O15 0.398274 0.253576 0.931830
O O16 0.756675 0.500000 0.210519
O O17 0.969389 0.744340 0.285696
O O18 0.931567 0.000000 0.296377
O O19 0.967181 0.500000 0.653863
O O20 0.439056 0.500000 0.040773
O O21 0.500000 0.364919 0.000000
#
# Coordination Sequence:
#
# PCOD8105940 Si02
#       8
#     8   8   8   8   8   8   8   8
#     4   9  17  30  48  72 101 129 163 207 248 291
#     4  10  21  36  53  77 108 136 163 199 244 294
#     4   9  19  35  52  71  98 131 165 205 255 308
#     4   8  14  27  50  75  96 126 167 205 243 292
#     4   9  17  32  54  75  97 131 174 212 247 294
#     4  10  21  36  55  77  98 125 166 210 247 291
#     4  11  22  34  49  71 101 134 165 203 258 311
#     4   7  11  22  42  67  92 117 149 193 239 278
#
# _framework density 18.390498000000001
#
# number of rings (size 3 to 8) (size 9 to 14) (size 15 to 20)
#    0.000    2.875    0.000    3.000    0.000    5.000 
#    0.000    3.750    0.000    3.375    0.000    0.000 
#    0.000    0.000    0.000    0.000    0.000    0.000 
#
# Total GULP energy -396577.263008 kJ/mol
# GULP energy per Si atom -12393.039469 kJ/mol
# Density = 1.834864 g / cm^3
# Si number density = 18.390498 Si / 1000 Ang^3
#
#
#
# Elastic Constant Matrix: (Units=GPa)
#
#
# Indices 1 2 3 4 5 6 
#
# 1 120.5912 34.4289 47.3423 0.0000 -3.7864 0.0000
# 2 34.4289 51.1621 40.4777 0.0000 -4.9377 0.0000
# 3 47.3423 40.4777 104.2244 0.0000 -9.0904 0.0000
# 4 0.0000 0.0000 0.0000 24.5790 0.0000 -3.6122
# 5 -3.7864 -4.9377 -9.0904 0.0000 20.5888 0.0000
# 6 0.0000 0.0000 0.0000 -3.6122 0.0000 21.1487
#
#
#
# Elastic Compliance Matrix: (Units=1/GPa)
#
#
# Indices 1 2 3 4 5 6 
#
# 1 0.010896 -0.004954 -0.003073 0.000000 -0.000541 0.000000
# 2 -0.004954 0.030547 -0.009417 0.000000 0.002257 0.000000
# 3 -0.003073 -0.009417 0.014978 0.000000 0.003790 0.000000
# 4 0.000000 0.000000 0.000000 0.041733 0.000000 0.007128
# 5 -0.000541 0.002257 0.003790 0.000000 0.050685 0.000000
# 6 0.000000 0.000000 0.000000 0.007128 0.000000 0.048502
#
#
# Mechanical properties :
#
#
# Convention : Reuss Voigt Hill
#
# Bulk Modulus (GPa) = 46.43508 57.83063 52.13285
# Shear Modulus (GPa) = 20.88512 23.51190 22.19851
#
# Velocity S-wave (km/s) = 3.37359 3.57946 3.47805
# Velocity P-wave (km/s) = 6.36232 6.97120 6.67371
#
# Compressibility (1/GPa) = 0.02153544
#
# Stress axis : x y z
#
# Youngs Moduli (GPa) = 91.77640 32.73637 66.76410
#
# Poissons Ratio (x) = 0.16216 0.20515
# Poissons Ratio (y) = 0.45462 0.62869
# Poissons Ratio (z) = 0.28200 0.30827
#
# Static dielectric constant tensor:
#      x y z
#    x 3.491350 0.000000 0.128240 
#    y 0.000000 3.104990 0.000000 
#    z 0.128240 0.000000 3.513840 
# 
# 
# High freq. dielectric constant tensor:
#      x y z
#    x 1.711090 0.000000 0.004890 
#    y 0.000000 1.682770 0.000000 
#    z 0.004890 0.000000 1.710650 
# 
# From -- ./inp_files/249228.got.cif
#   From: 2010.06.25/outbox.cif.g09.slc.cpg/sg12_125_cif.got.tgz:249228.got - 2010.06.28 00:19:55.
