data_PCOD8105949
_publ_section_title
;
Structure prediction by ZEFSAII (Michael W. Deem and Ramdas Pophale) SiO2 
 PCOD8105949
Probable space group: C 2/M
;
_chemical_formula_sum "Si O2"
_cell_formula_units_Z 56
_cell_length_a 16.053532
_cell_length_b 8.737274
_cell_length_c 22.867839
_cell_angle_alpha 90.000000
_cell_angle_beta 58.168607
_cell_angle_gamma 90.000000
_cell_volume 2725.135782
_symmetry_space_group_name_H-M "C 2/M"
_symmetry_group_IT_number 12
_symmetry_cell_setting 'monoclinic'
loop_
_space_group_symop_operation_xyz
x,y,z
-x,y,-z
-x,-y,-z
x,-y,z
1/2+x,1/2+y,z
1/2-x,1/2+y,-z
1/2-x,1/2-y,-z
1/2+x,1/2-y,z
loop_
_atom_site_type_symbol
_atom_site_label
_atom_site_fract_x
_atom_site_fract_y
_atom_site_fract_z
Si Si1 0.546316 0.180147 0.212818
Si Si2 0.209727 0.177824 0.345095
Si Si3 0.127805 0.180357 0.784880
Si Si4 0.586594 0.318420 0.928435
Si Si5 0.771342 0.680190 0.929859
Si Si6 0.303691 0.680655 0.425012
Si Si7 0.529301 0.321397 0.337051
O O1 0.447869 0.275447 0.237788
O O2 0.625953 0.233673 0.135443
O O3 0.579084 0.225409 0.265926
O O4 0.526893 0.000000 0.215736
O O5 0.271282 0.232626 0.265843
O O6 0.245620 0.268965 0.388529
O O7 0.095006 0.208900 0.371171
O O8 0.228087 0.000000 0.350562
O O9 0.082487 0.238874 0.863118
O O10 0.148165 0.000000 0.777658
O O11 0.578014 0.500000 0.933005
O O12 0.688640 0.260474 0.916484
O O13 0.500000 0.245697 0.000000
O O14 0.767154 0.500000 0.937903
O O15 0.750000 0.750000 0.000000
O O16 0.298852 0.500000 0.430412
O O17 0.250000 0.750000 0.500000
O O18 0.417178 0.735364 0.386407
O O19 0.532741 0.500000 0.319635
#
# Coordination Sequence:
#
# PCOD8105949 Si02
#       7
#     8   8   8   8   8   8   8
#     4  11  22  36  58  87 121 159 206 260 312 368
#     4  11  23  41  65  95 128 165 209 261 314 371
#     4  11  21  36  60  87 118 159 205 256 316 376
#     4   9  18  33  53  77 108 150 199 249 305 370
#     4  10  21  36  53  79 112 151 199 253 313 374
#     4  11  24  44  68  96 131 171 211 258 313 374
#     4  10  23  42  65  93 128 168 211 254 312 379
#
# _framework density 20.549436
#
# number of rings (size 3 to 8) (size 9 to 14) (size 15 to 20)
#    0.000    1.571    1.429    3.429    0.000    5.714 
#    0.000    4.286    0.000    3.857    0.000    0.000 
#    0.000    0.000    0.000    0.000    0.000    0.000 
#
# Total GULP energy -347192.435953 kJ/mol
# GULP energy per Si atom -12399.729855 kJ/mol
# Density = 2.050267 g / cm^3
# Si number density = 20.549436 Si / 1000 Ang^3
#
#
#
# Elastic Constant Matrix: (Units=GPa)
#
#
# Indices 1 2 3 4 5 6 
#
# 1 134.8275 30.8984 51.3710 0.0000 -1.4915 0.0001
# 2 30.8984 47.4079 31.4569 0.0001 -4.1132 0.0004
# 3 51.3710 31.4569 133.6549 0.0000 0.8101 0.0000
# 4 0.0000 0.0001 0.0000 36.0247 0.0000 3.2162
# 5 -1.4915 -4.1132 0.8101 0.0000 29.1753 0.0000
# 6 0.0001 0.0004 0.0000 3.2162 0.0000 26.1427
#
#
#
# Elastic Compliance Matrix: (Units=1/GPa)
#
#
# Indices 1 2 3 4 5 6 
#
# 1 0.009413 -0.004433 -0.002574 0.000000 -0.000072 0.000000
# 2 -0.004433 0.027488 -0.004789 0.000000 0.003782 0.000000
# 3 -0.002574 -0.004789 0.009605 0.000000 -0.001073 0.000000
# 4 0.000000 0.000000 0.000000 0.028067 0.000000 -0.003453
# 5 -0.000072 0.003782 -0.001073 0.000000 0.034835 0.000000
# 6 0.000000 0.000000 0.000000 -0.003453 0.000000 0.038676
#
#
# Mechanical properties :
#
#
# Convention : Reuss Voigt Hill
#
# Bulk Modulus (GPa) = 43.64077 60.37146 52.00612
# Shear Modulus (GPa) = 27.88403 31.74612 29.81508
#
# Velocity S-wave (km/s) = 3.68764 3.93474 3.81319
# Velocity P-wave (km/s) = 6.27811 7.07710 6.68954
#
# Compressibility (1/GPa) = 0.02291435
#
# Stress axis : x y z
#
# Youngs Moduli (GPa) = 106.23874 36.37898 104.11389
#
# Poissons Ratio (x) = 0.16127 0.26799
# Poissons Ratio (y) = 0.47097 0.49857
# Poissons Ratio (z) = 0.27346 0.17421
#
# Static dielectric constant tensor:
#      x y z
#    x 3.948440 0.000000 -0.073010 
#    y 0.000000 3.537490 0.000000 
#    z -0.073010 0.000000 3.832000 
# 
# 
# High freq. dielectric constant tensor:
#      x y z
#    x 1.816510 0.000000 -0.000170 
#    y 0.000000 1.787800 0.000000 
#    z -0.000170 0.000000 1.808070 
# 
# From -- ./inp_files/338487.got.cif
#   From: 2010.06.25/outbox.cif.g09.slc.cpg/sg12_170_cif.got.tgz:338487.got - 2010.06.28 00:19:55.
