data_PCOD8105128
_publ_section_title
;
Structure prediction by ZEFSAII (Michael W. Deem and Ramdas Pophale) SiO2 
 PCOD8105128
Probable space group: C 2/M
;
_chemical_formula_sum "Si O2"
_cell_formula_units_Z 64
_cell_length_a 22.589518
_cell_length_b 17.725987
_cell_length_c 18.129291
_cell_angle_alpha 90.000000
_cell_angle_beta 155.465253
_cell_angle_gamma 90.000000
_cell_volume 3014.412175
_symmetry_space_group_name_H-M "C 2/M"
_symmetry_group_IT_number 12
_symmetry_cell_setting 'monoclinic'
loop_
_space_group_symop_operation_xyz
x,y,z
-x,y,-z
-x,-y,-z
x,-y,z
1/2+x,1/2+y,z
1/2-x,1/2+y,-z
1/2-x,1/2-y,-z
1/2+x,1/2-y,z
loop_
_atom_site_type_symbol
_atom_site_label
_atom_site_fract_x
_atom_site_fract_y
_atom_site_fract_z
Si Si1 0.505522 0.671016 0.674667
Si Si2 0.721446 0.831247 0.778376
Si Si3 0.201692 0.586364 0.484259
Si Si4 0.068906 0.670544 0.202973
Si Si5 0.513935 0.661930 0.175637
Si Si6 0.752217 0.842157 0.161917
Si Si7 0.946403 0.662654 0.554788
Si Si8 0.236050 0.913101 0.674903
O O1 0.531551 0.675605 0.791304
O O2 0.655678 0.648514 0.807582
O O3 0.442515 0.750109 0.574642
O O4 0.395032 0.605860 0.527691
O O5 0.732578 0.741646 0.790844
O O6 0.674606 0.854260 0.643397
O O7 0.602474 0.858718 0.701635
O O8 0.874133 0.866922 0.973105
O O9 0.180905 0.500000 0.438061
O O10 0.178792 0.639546 0.388119
O O11 0.363433 0.599829 0.695110
O O12 0.086306 0.607473 0.415078
O O13 0.125962 0.638284 0.189528
O O14 0.073941 0.760929 0.208141
O O15 0.911605 0.639434 0.042977
O O16 0.806784 0.897192 0.288717
O O17 0.276168 0.000000 0.709709
#
# Coordination Sequence:
#
# PCOD8105128 Si02
#       8
#     8   8   8   8   8   8   8   8
#     4  11  21  39  65  92 126 162 208 258 307 364
#     4   9  21  39  67  97 119 154 206 264 310 364
#     4  12  25  41  61  89 125 166 205 256 317 375
#     4  11  23  40  64  93 123 165 213 257 303 371
#     4  11  23  40  66  96 123 160 210 263 312 368
#     4  10  23  37  63  95 124 160 211 257 304 365
#     4  10  20  41  66  92 123 158 201 257 311 370
#     4  12  24  40  59  89 136 177 206 247 306 378
#
# _framework density 21.231337
#
# number of rings (size 3 to 8) (size 9 to 14) (size 15 to 20)
#    0.000    1.250    3.750    2.250    1.750    4.500 
#    0.000    3.125    0.000    0.000    0.000    0.000 
#    0.000    0.000    0.000    0.000    0.000    0.000 
#
# Total GULP energy -396917.469308 kJ/mol
# GULP energy per Si atom -12403.670916 kJ/mol
# Density = 2.118301 g / cm^3
# Si number density = 21.231337 Si / 1000 Ang^3
#
#
#
# Elastic Constant Matrix: (Units=GPa)
#
#
# Indices 1 2 3 4 5 6 
#
# 1 70.2114 13.0605 -0.2511 0.0019 12.2578 0.0002
# 2 13.0605 44.9851 12.6773 0.0021 6.6055 0.0013
# 3 -0.2511 12.6773 104.8549 0.0082 4.4402 0.0046
# 4 0.0019 0.0021 0.0082 11.2567 0.0055 -0.5779
# 5 12.2578 6.6055 4.4402 0.0055 35.0259 0.0028
# 6 0.0002 0.0013 0.0046 -0.5779 0.0028 18.7299
#
#
#
# Elastic Compliance Matrix: (Units=1/GPa)
#
#
# Indices 1 2 3 4 5 6 
#
# 1 0.015858 -0.004097 0.000740 0.000000 -0.004871 0.000001
# 2 -0.004097 0.024646 -0.002869 0.000000 -0.002850 -0.000001
# 3 0.000740 -0.002869 0.009927 -0.000006 -0.000976 -0.000002
# 4 0.000000 0.000000 -0.000006 0.088977 -0.000013 0.002746
# 5 -0.004871 -0.002850 -0.000976 -0.000013 0.030916 -0.000005
# 6 0.000001 -0.000001 -0.000002 0.002746 -0.000005 0.053475
#
#
# Mechanical properties :
#
#
# Convention : Reuss Voigt Hill
#
# Bulk Modulus (GPa) = 26.33109 30.11386 28.22248
# Shear Modulus (GPa) = 20.08744 25.97348 23.03046
#
# Velocity S-wave (km/s) = 3.07925 3.50144 3.29711
# Velocity P-wave (km/s) = 5.00712 5.52823 5.27411
#
# Compressibility (1/GPa) = 0.03797792
#
# Stress axis : x y z
#
# Youngs Moduli (GPa) = 63.06018 40.57429 100.73579
#
# Poissons Ratio (x) = 0.16624 -0.07450
# Poissons Ratio (y) = 0.25837 0.28900
# Poissons Ratio (z) = -0.04664 0.11640
#
# Static dielectric constant tensor:
#      x y z
#    x 3.959540 0.000000 0.144320 
#    y 0.000000 3.392540 -0.000010 
#    z 0.144320 -0.000010 4.069370 
# 
# 
# High freq. dielectric constant tensor:
#      x y z
#    x 1.843390 0.000000 0.007610 
#    y 0.000000 1.791650 0.000000 
#    z 0.007610 0.000000 1.841670 
# 
# From -- ./inp_files/326156.got.cif
#   From: 2010.06.25/outbox.cif.g09.slc.cpg/sg12_164_cif.got.tgz:326156.got - 2010.06.28 00:19:55.
