data_PCOD8105564
_publ_section_title
;
Structure prediction by ZEFSAII (Michael W. Deem and Ramdas Pophale) SiO2 
 PCOD8105564
Probable space group: C 2/M
;
_chemical_formula_sum "Si O2"
_cell_formula_units_Z 56
_cell_length_a 20.357231
_cell_length_b 9.125254
_cell_length_c 17.508660
_cell_angle_alpha 90.000000
_cell_angle_beta 123.258883
_cell_angle_gamma 90.000000
_cell_volume 2719.739639
_symmetry_space_group_name_H-M "C 2/M"
_symmetry_group_IT_number 12
_symmetry_cell_setting 'monoclinic'
loop_
_space_group_symop_operation_xyz
x,y,z
-x,y,-z
-x,-y,-z
x,-y,z
1/2+x,1/2+y,z
1/2-x,1/2+y,-z
1/2-x,1/2-y,-z
1/2+x,1/2-y,z
loop_
_atom_site_type_symbol
_atom_site_label
_atom_site_fract_x
_atom_site_fract_y
_atom_site_fract_z
Si Si1 0.564387 0.829446 0.101322
Si Si2 0.821786 0.826073 0.586592
Si Si3 0.978211 0.843271 0.160128
Si Si4 0.797597 0.169648 0.745777
Si Si5 0.640539 0.828493 0.725650
Si Si6 0.990209 0.162456 0.644178
Si Si7 0.811471 0.832572 0.090103
O O1 0.527024 0.793360 0.159835
O O2 0.650022 0.753492 0.156314
O O3 0.577066 0.000000 0.096429
O O4 0.500000 0.766194 0.000000
O O5 0.750000 0.750000 0.500000
O O6 0.822264 0.779208 0.676140
O O7 0.901102 0.774471 0.592414
O O8 0.813008 0.000000 0.575257
O O9 0.979942 0.848075 0.251434
O O10 0.886855 0.828683 0.082232
O O11 0.012090 0.000000 0.150410
O O12 0.705049 0.201467 0.700420
O O13 0.815453 0.000000 0.768591
O O14 0.555280 0.764391 0.643379
O O15 0.674220 0.753099 0.822456
O O16 0.629143 0.000000 0.734260
O O17 0.990816 0.000000 0.606738
O O18 0.785985 0.000000 0.092219
O O19 0.750000 0.750000 0.000000
#
# Coordination Sequence:
#
# PCOD8105564 Si02
#       7
#     8   8   8   8   8   8   8
#     4  11  24  36  51  82 117 150 194 248 294 336
#     4  10  21  40  65  92 118 150 194 240 292 353
#     4   9  18  35  55  74 102 149 194 231 283 342
#     4  10  22  42  62  83 118 159 197 239 291 358
#     4  10  21  36  58  85 112 151 196 239 291 346
#     4   9  18  37  61  83 114 152 188 233 286 343
#     4  10  21  35  52  76 110 150 195 244 289 341
#
# _framework density 20.590205000000001
#
# number of rings (size 3 to 8) (size 9 to 14) (size 15 to 20)
#    0.000    2.143    1.429    2.143    2.000    6.286 
#    0.000    0.714    0.000    4.286    0.000    0.000 
#    0.000    0.000    0.000    0.000    0.000    0.000 
#
# Total GULP energy -346907.910678 kJ/mol
# GULP energy per Si atom -12389.568239 kJ/mol
# Density = 2.054334 g / cm^3
# Si number density = 20.590205 Si / 1000 Ang^3
#
#
#
# Elastic Constant Matrix: (Units=GPa)
#
#
# Indices 1 2 3 4 5 6 
#
# 1 127.7653 46.4781 33.6116 0.0000 32.7323 0.0000
# 2 46.4781 87.0456 33.6503 0.0000 17.3172 0.0000
# 3 33.6116 33.6503 72.2499 0.0000 30.6979 0.0000
# 4 0.0000 0.0000 0.0000 27.8449 0.0000 7.5218
# 5 32.7323 17.3172 30.6979 0.0000 36.1744 0.0000
# 6 0.0000 0.0000 0.0000 7.5218 0.0000 31.4781
#
#
#
# Elastic Compliance Matrix: (Units=1/GPa)
#
#
# Indices 1 2 3 4 5 6 
#
# 1 0.011623 -0.004653 0.000441 0.000000 -0.008664 0.000000
# 2 -0.004653 0.015951 -0.005957 0.000000 0.001629 0.000000
# 3 0.000441 -0.005957 0.024034 0.000000 -0.017943 0.000000
# 4 0.000000 0.000000 0.000000 0.038391 0.000000 -0.009174
# 5 -0.008664 0.001629 -0.017943 0.000000 0.049930 0.000000
# 6 0.000000 0.000000 0.000000 -0.009174 0.000000 0.033960
#
#
# Mechanical properties :
#
#
# Convention : Reuss Voigt Hill
#
# Bulk Modulus (GPa) = 31.97902 57.17122 44.57512
# Shear Modulus (GPa) = 24.43185 30.65420 27.54302
#
# Velocity S-wave (km/s) = 3.44841 3.86265 3.66139
# Velocity P-wave (km/s) = 5.60538 6.90796 6.29048
#
# Compressibility (1/GPa) = 0.03127050
#
# Stress axis : x y z
#
# Youngs Moduli (GPa) = 86.03545 62.69011 41.60831
#
# Poissons Ratio (x) = 0.29170 -0.01836
# Poissons Ratio (y) = 0.40033 0.24786
# Poissons Ratio (z) = -0.03795 0.37344
#
# Static dielectric constant tensor:
#      x y z
#    x 4.285050 0.000000 0.261480 
#    y 0.000000 3.869790 0.000000 
#    z 0.261480 0.000000 3.609700 
# 
# 
# High freq. dielectric constant tensor:
#      x y z
#    x 1.817870 0.000000 0.024920 
#    y 0.000000 1.797870 0.000000 
#    z 0.024920 0.000000 1.779980 
# 
# From -- ./inp_files/281712.got.cif
#   From: 2010.06.25/outbox.cif.g09.slc.cpg/sg12_141_cif.got.tgz:281712.got - 2010.06.28 00:19:55.
