data_PCOD8105075
_publ_section_title
;
Structure prediction by ZEFSAII (Michael W. Deem and Ramdas Pophale) SiO2 
 PCOD8105075
Probable space group: C 2/M
;
_chemical_formula_sum "Si O2"
_cell_formula_units_Z 48
_cell_length_a 9.896885
_cell_length_b 28.079868
_cell_length_c 9.369576
_cell_angle_alpha 90.000000
_cell_angle_beta 88.640185
_cell_angle_gamma 90.000000
_cell_volume 2603.102089
_symmetry_space_group_name_H-M "C 2/M"
_symmetry_group_IT_number 12
_symmetry_cell_setting 'monoclinic'
loop_
_space_group_symop_operation_xyz
x,y,z
-x,y,-z
-x,-y,-z
x,-y,z
1/2+x,1/2+y,z
1/2-x,1/2+y,-z
1/2-x,1/2-y,-z
1/2+x,1/2-y,z
loop_
_atom_site_type_symbol
_atom_site_label
_atom_site_fract_x
_atom_site_fract_y
_atom_site_fract_z
Si Si1 0.018477 0.150192 0.329479
Si Si2 0.270929 0.688121 0.155655
Si Si3 0.598057 0.448864 0.364595
Si Si4 0.746335 0.299274 0.168429
Si Si5 0.590646 0.945778 0.632266
Si Si6 0.502238 0.862425 0.836287
O O1 0.892859 0.170516 0.248186
O O2 0.000000 0.151186 0.500000
O O3 0.046530 0.095971 0.273184
O O4 0.148648 0.181359 0.292352
O O5 0.242719 0.743021 0.186606
O O6 0.144066 0.656356 0.207880
O O7 0.303941 0.683240 0.986486
O O8 0.500000 0.453389 0.500000
O O9 0.592414 0.500000 0.280725
O O10 0.751838 0.439049 0.411778
O O11 0.896181 0.318633 0.194171
O O12 0.500000 0.932200 0.500000
O O13 0.547293 0.910218 0.757338
O O14 0.561518 0.000000 0.682591
O O15 0.500000 0.877075 0.000000
#
# Coordination Sequence:
#
# PCOD8105075 Si02
#       6
#     8   8   8   8   8   8
#     4  11  22  35  57  89 114 147 183 235 289 324
#     4  10  22  37  61  81 112 153 194 225 273 343
#     4   9  19  36  57  81 113 149 186 225 278 340
#     4  10  20  41  59  80 110 155 194 228 272 338
#     4  10  21  37  60  84 110 150 191 229 280 342
#     4  10  21  36  57  85 112 146 188 237 281 321
#
# _framework density 18.439537999999999
#
# number of rings (size 3 to 8) (size 9 to 14) (size 15 to 20)
#    0.000    2.000    1.667    1.500    4.667    3.667 
#    0.000    1.667    0.000    3.000    0.000    0.000 
#    0.000    0.000    0.000    0.000    0.000    0.000 
#
# Total GULP energy -297494.804491 kJ/mol
# GULP energy per Si atom -12395.616854 kJ/mol
# Density = 1.839757 g / cm^3
# Si number density = 18.439538 Si / 1000 Ang^3
#
#
#
# Elastic Constant Matrix: (Units=GPa)
#
#
# Indices 1 2 3 4 5 6 
#
# 1 95.7287 39.1062 46.4706 0.0000 -14.5484 0.0000
# 2 39.1062 110.9311 48.4105 0.0000 -10.4838 0.0000
# 3 46.4706 48.4105 62.7696 0.0000 -4.2869 0.0000
# 4 0.0000 0.0000 0.0000 19.0100 0.0000 -4.6428
# 5 -14.5484 -10.4838 -4.2869 0.0000 26.4519 0.0000
# 6 0.0000 0.0000 0.0000 -4.6428 0.0000 32.1333
#
#
#
# Elastic Compliance Matrix: (Units=1/GPa)
#
#
# Indices 1 2 3 4 5 6 
#
# 1 0.017737 -0.000036 -0.012578 0.000000 0.007703 0.000000
# 2 -0.000036 0.013962 -0.010481 0.000000 0.003815 0.000000
# 3 -0.012578 -0.010481 0.032934 0.000000 -0.005734 0.000000
# 4 0.000000 0.000000 0.000000 0.054528 0.000000 0.007879
# 5 0.007703 0.003815 -0.005734 0.000000 0.042624 0.000000
# 6 0.000000 0.000000 0.000000 0.007879 0.000000 0.032259
#
#
# Mechanical properties :
#
#
# Convention : Reuss Voigt Hill
#
# Bulk Modulus (GPa) = 54.21584 59.71155 56.96370
# Shear Modulus (GPa) = 20.29382 24.54851 22.42117
#
# Velocity S-wave (km/s) = 3.32107 3.65265 3.49080
# Velocity P-wave (km/s) = 6.64619 7.08815 6.87072
#
# Compressibility (1/GPa) = 0.01844479
#
# Stress axis : x y z
#
# Youngs Moduli (GPa) = 56.37863 71.62519 30.36341
#
# Poissons Ratio (x) = 0.00258 0.38190
# Poissons Ratio (y) = 0.00203 0.31823
# Poissons Ratio (z) = 0.70911 0.75067
#
# Static dielectric constant tensor:
#      x y z
#    x 4.448530 0.000000 -0.336630 
#    y 0.000000 3.830200 0.000000 
#    z -0.336630 0.000000 3.277930 
# 
# 
# High freq. dielectric constant tensor:
#      x y z
#    x 1.733800 0.000000 -0.009360 
#    y 0.000000 1.734830 0.000000 
#    z -0.009360 0.000000 1.684180 
# 
# From -- ./inp_files/42167.got.cif
#   From: 2010.06.25/outbox.cif.g09.slc.cpg/sg12_22_cif.got.tgz:42167.got - 2010.06.28 00:19:55.
