data_PCOD8105178
_publ_section_title
;
Structure prediction by ZEFSAII (Michael W. Deem and Ramdas Pophale) SiO2 
 PCOD8105178
Probable space group: C 2/M
;
_chemical_formula_sum "Si O2"
_cell_formula_units_Z 52
_cell_length_a 18.262639
_cell_length_b 11.782233
_cell_length_c 16.385692
_cell_angle_alpha 90.000000
_cell_angle_beta 45.378533
_cell_angle_gamma 90.000000
_cell_volume 2509.523622
_symmetry_space_group_name_H-M "C 2/M"
_symmetry_group_IT_number 12
_symmetry_cell_setting 'monoclinic'
loop_
_space_group_symop_operation_xyz
x,y,z
-x,y,-z
-x,-y,-z
x,-y,z
1/2+x,1/2+y,z
1/2-x,1/2+y,-z
1/2-x,1/2-y,-z
1/2+x,1/2-y,z
loop_
_atom_site_type_symbol
_atom_site_label
_atom_site_fract_x
_atom_site_fract_y
_atom_site_fract_z
Si Si1 0.910027 0.241867 0.004558
Si Si2 0.949787 0.000000 0.947738
Si Si3 0.630908 0.260702 0.583203
Si Si4 0.753176 0.795084 0.746102
Si Si5 0.113901 0.374902 0.439933
Si Si6 0.566345 0.133103 0.781794
Si Si7 0.591472 0.500000 0.361423
Si Si8 0.037946 0.000000 0.697045
O O1 0.883818 0.115390 0.991894
O O2 0.955495 0.323509 0.899697
O O3 0.804835 0.294998 0.121288
O O4 0.000000 0.231824 0.000000
O O5 0.018659 0.000000 0.810242
O O6 0.000000 0.000000 0.000000
O O7 0.750000 0.250000 0.500000
O O8 0.605228 0.225602 0.512031
O O9 0.569679 0.169872 0.685617
O O10 0.602994 0.389218 0.624930
O O11 0.807772 0.672943 0.690055
O O12 0.665440 0.810901 0.746668
O O13 0.838898 0.890955 0.676838
O O14 0.155438 0.500000 0.436207
O O15 0.000000 0.394375 0.500000
O O16 0.571675 0.000000 0.790019
O O17 0.500000 0.500000 0.500000
O O18 0.557298 0.500000 0.292741
#
# Coordination Sequence:
#
# PCOD8105178 Si02
#       8
#     8   4   8   8   8   8   4   4
#     4   9  21  37  64  95 128 164 213 275 329 395
#     4  10  20  42  64  96 130 168 216 273 342 389
#     4  12  25  39  66  99 130 168 221 280 337 399
#     4  11  22  40  67  96 128 179 219 266 332 403
#     4  11  25  44  65  92 135 176 219 272 341 407
#     4  11  22  38  63  99 134 162 213 278 337 389
#     4  12  26  44  69  96 141 184 229 270 327 414
#     4  12  26  44  68  96 135 177 224 279 338 398
#
# _framework density 20.721064999999999
#
# number of rings (size 3 to 8) (size 9 to 14) (size 15 to 20)
#    0.000    1.077    3.846    2.769    4.308    0.923 
#    1.385    0.769    0.000    0.000    0.000    0.000 
#    0.000    0.000    0.000    0.000    0.000    0.000 
#
# Total GULP energy -322177.759699 kJ/mol
# GULP energy per Si atom -12391.452296 kJ/mol
# Density = 2.067390 g / cm^3
# Si number density = 20.721065 Si / 1000 Ang^3
#
#
#
# Elastic Constant Matrix: (Units=GPa)
#
#
# Indices 1 2 3 4 5 6 
#
# 1 56.6691 16.7881 33.2489 0.0000 2.7804 0.0000
# 2 16.7881 140.9313 61.8460 0.0000 -12.6863 0.0000
# 3 33.2489 61.8460 162.3287 0.0000 -6.4076 0.0000
# 4 0.0000 0.0000 0.0000 -12.7947 0.0000 3.6304
# 5 2.7804 -12.6863 -6.4076 0.0000 28.4594 0.0000
# 6 0.0000 0.0000 0.0000 3.6304 0.0000 15.0819
#
#
#
# Elastic Compliance Matrix: (Units=1/GPa)
#
#
# Indices 1 2 3 4 5 6 
#
# 1 0.020413 -0.001007 -0.003929 0.000000 -0.003328 0.000000
# 2 -0.001007 0.008849 -0.003032 0.000000 0.003360 0.000000
# 3 -0.003929 -0.003032 0.008155 0.000000 0.000868 0.000000
# 4 0.000000 0.000000 0.000000 -0.073161 0.000000 0.017611
# 5 -0.003328 0.003360 0.000868 0.000000 0.037156 0.000000
# 6 0.000000 0.000000 0.000000 0.017611 0.000000 0.062066
#
#
# Mechanical properties :
#
#
# Convention : Reuss Voigt Hill
#
# Bulk Modulus (GPa) = 46.55513 64.85500 55.70506
# Shear Modulus (GPa) = 57.75394 22.68573 40.21983
#
# Velocity S-wave (km/s) = 5.28513 3.31239 4.41047
# Velocity P-wave (km/s) = 7.73044 6.78205 7.27173
#
# Compressibility (1/GPa) = 0.02147991
#
# Stress axis : x y z
#
# Youngs Moduli (GPa) = 48.98843 113.00908 122.62963
#
# Poissons Ratio (x) = 0.11381 0.48178
# Poissons Ratio (y) = 0.04934 0.37186
# Poissons Ratio (z) = 0.19246 0.34269
#
# Static dielectric constant tensor:
#      x y z
#    x 3.474620 0.000000 0.069160 
#    y 0.000000 3.879210 0.000000 
#    z 0.069160 0.000000 3.953030 
# 
# 
# High freq. dielectric constant tensor:
#      x y z
#    x 1.774240 0.000000 0.005780 
#    y 0.000000 1.833600 0.000000 
#    z 0.005780 0.000000 1.826470 
# 
# From -- ./inp_files/283257.got.cif
#   From: 2010.06.25/outbox.cif.g09.slc.cpg/sg12_142_cif.got.tgz:283257.got - 2010.06.28 00:19:55.
