data_PCOD8105397
_publ_section_title
;
Structure prediction by ZEFSAII (Michael W. Deem and Ramdas Pophale) SiO2 
 PCOD8105397
Probable space group: C 2/M
;
_chemical_formula_sum "Si O2"
_cell_formula_units_Z 64
_cell_length_a 9.109389
_cell_length_b 25.050633
_cell_length_c 20.046685
_cell_angle_alpha 90.000000
_cell_angle_beta 131.886480
_cell_angle_gamma 90.000000
_cell_volume 3405.627963
_symmetry_space_group_name_H-M "C 2/M"
_symmetry_group_IT_number 12
_symmetry_cell_setting 'monoclinic'
loop_
_space_group_symop_operation_xyz
x,y,z
-x,y,-z
-x,-y,-z
x,-y,z
1/2+x,1/2+y,z
1/2-x,1/2+y,-z
1/2-x,1/2-y,-z
1/2+x,1/2-y,z
loop_
_atom_site_type_symbol
_atom_site_label
_atom_site_fract_x
_atom_site_fract_y
_atom_site_fract_z
Si Si1 0.688312 0.762261 0.842354
Si Si2 0.969424 0.844350 0.244926
Si Si3 0.680178 0.192225 0.401335
Si Si4 0.290387 0.897419 0.937668
Si Si5 0.415441 0.206491 0.053308
Si Si6 0.932945 0.061084 0.907123
Si Si7 0.201351 0.641817 0.755000
Si Si8 0.512171 0.695885 0.396052
O O1 0.534649 0.719068 0.769062
O O2 0.568741 0.797408 0.861083
O O3 0.762059 0.802261 0.807501
O O4 0.883297 0.727171 0.922423
O O5 0.777428 0.875049 0.155971
O O6 0.164941 0.867697 0.269742
O O7 0.981477 0.848913 0.328877
O O8 0.526668 0.144506 0.336988
O O9 0.563817 0.245949 0.383577
O O10 0.811595 0.173818 0.503892
O O11 0.812389 0.202672 0.376734
O O12 0.120916 0.934643 0.915383
O O13 0.500000 0.929367 0.000000
O O14 0.335691 0.848550 0.000772
O O15 0.250000 0.250000 0.000000
O O16 0.748426 0.094678 0.822282
O O17 0.863671 0.000000 0.890514
O O18 0.000000 0.082630 0.000000
#
# Coordination Sequence:
#
# PCOD8105397 Si02
#       8
#     8   8   8   8   8   8   8   8
#     4  12  21  30  44  72 110 147 177 219 253 315
#     4  11  21  32  46  75 110 144 176 219 263 316
#     4  10  21  34  53  73 108 150 192 210 264 319
#     4  11  21  35  53  79 106 145 185 222 270 329
#     4  12  20  31  43  66 108 147 179 213 257 312
#     4  10  23  43  59  78 108 142 189 243 281 317
#     4  11  22  35  54  80 102 147 190 219 272 323
#     4  10  21  35  48  76 113 152 177 221 255 328
#
# _framework density 18.792421999999998
#
# number of rings (size 3 to 8) (size 9 to 14) (size 15 to 20)
#    0.000    1.125    5.000    2.625    1.750    2.750 
#    0.000    0.000    0.000    0.000    0.000    8.750 
#    0.000    0.000    0.000    0.000    0.000    0.000 
#
# Total GULP energy -396542.206208 kJ/mol
# GULP energy per Si atom -12391.943944 kJ/mol
# Density = 1.874965 g / cm^3
# Si number density = 18.792422 Si / 1000 Ang^3
#
#
#
# Elastic Constant Matrix: (Units=GPa)
#
#
# Indices 1 2 3 4 5 6 
#
# 1 99.3332 13.9863 49.8053 0.0000 -1.7049 0.0000
# 2 13.9863 42.7154 31.5799 0.0000 1.2453 0.0000
# 3 49.8053 31.5799 139.8236 0.0000 -1.6198 0.0000
# 4 0.0000 0.0000 0.0000 18.6364 0.0000 0.1140
# 5 -1.7049 1.2453 -1.6198 0.0000 35.7783 0.0000
# 6 0.0000 0.0000 0.0000 0.1140 0.0000 18.0838
#
#
#
# Elastic Compliance Matrix: (Units=1/GPa)
#
#
# Indices 1 2 3 4 5 6 
#
# 1 0.012294 -0.000965 -0.004156 0.000000 0.000431 0.000000
# 2 -0.000965 0.028237 -0.006049 0.000000 -0.001303 0.000000
# 3 -0.004156 -0.006049 0.010004 0.000000 0.000465 0.000000
# 4 0.000000 0.000000 0.000000 0.053661 0.000000 -0.000338
# 5 0.000431 -0.001303 0.000465 0.000000 0.028037 0.000000
# 6 0.000000 0.000000 0.000000 -0.000338 0.000000 0.055300
#
#
# Mechanical properties :
#
#
# Convention : Reuss Voigt Hill
#
# Bulk Modulus (GPa) = 35.46805 52.51280 43.99042
# Shear Modulus (GPa) = 22.80281 26.93307 24.86794
#
# Velocity S-wave (km/s) = 3.48717 3.78985 3.64166
# Velocity P-wave (km/s) = 5.92692 6.86694 6.41418
#
# Compressibility (1/GPa) = 0.02819439
#
# Stress axis : x y z
#
# Youngs Moduli (GPa) = 81.33797 35.41497 99.96175
#
# Poissons Ratio (x) = 0.03419 0.41546
# Poissons Ratio (y) = 0.07852 0.60463
# Poissons Ratio (z) = 0.33806 0.21421
#
# Static dielectric constant tensor:
#      x y z
#    x 3.489640 0.000000 -0.279310 
#    y 0.000000 2.945900 0.000000 
#    z -0.279310 0.000000 4.022080 
# 
# 
# High freq. dielectric constant tensor:
#      x y z
#    x 1.745380 0.000000 -0.005370 
#    y 0.000000 1.660940 0.000000 
#    z -0.005370 0.000000 1.740730 
# 
# From -- ./inp_files/302346.got.cif
#   From: 2010.06.25/outbox.cif.g09.slc.cpg/sg12_152_cif.got.tgz:302346.got - 2010.06.28 00:19:55.
