data_PCOD8105946
_publ_section_title
;
Structure prediction by ZEFSAII (Michael W. Deem and Ramdas Pophale) SiO2 
 PCOD8105946
Probable space group: C 2/M
;
_chemical_formula_sum "Si O2"
_cell_formula_units_Z 56
_cell_length_a 16.054973
_cell_length_b 8.877952
_cell_length_c 22.828134
_cell_angle_alpha 90.000000
_cell_angle_beta 121.611506
_cell_angle_gamma 90.000000
_cell_volume 2771.018977
_symmetry_space_group_name_H-M "C 2/M"
_symmetry_group_IT_number 12
_symmetry_cell_setting 'monoclinic'
loop_
_space_group_symop_operation_xyz
x,y,z
-x,y,-z
-x,-y,-z
x,-y,z
1/2+x,1/2+y,z
1/2-x,1/2+y,-z
1/2-x,1/2-y,-z
1/2+x,1/2-y,z
loop_
_atom_site_type_symbol
_atom_site_label
_atom_site_fract_x
_atom_site_fract_y
_atom_site_fract_z
Si Si1 0.724442 0.324608 0.342239
Si Si2 0.195918 0.321470 0.214257
Si Si3 0.667351 0.176977 0.930675
Si Si4 0.366482 0.822229 0.212971
Si Si5 0.966545 0.824682 0.664214
Si Si6 0.063964 0.177520 0.578596
Si Si7 0.979226 0.321396 0.928426
O O1 0.741528 0.500000 0.337591
O O2 0.669064 0.253481 0.265974
O O3 0.650363 0.296654 0.369972
O O4 0.829711 0.250189 0.390242
O O5 0.192010 0.500000 0.219917
O O6 0.304128 0.267649 0.237911
O O7 0.122232 0.262965 0.136514
O O8 0.671810 0.227957 0.864999
O O9 0.563791 0.233046 0.916472
O O10 0.678326 0.000000 0.941107
O O11 0.750000 0.250000 0.000000
O O12 0.477635 0.771353 0.265162
O O13 0.356169 0.000000 0.217734
O O14 0.003924 0.769801 0.614166
O O15 0.990558 0.000000 0.682367
O O16 0.000000 0.229793 0.500000
O O17 0.080409 0.000000 0.585768
O O18 0.975664 0.500000 0.932419
O O19 0.000000 0.249758 0.000000
#
# Coordination Sequence:
#
# PCOD8105946 Si02
#       7
#     8   8   8   8   8   8   8
#     4  11  23  39  61  92 126 160 204 255 306 361
#     4  11  21  36  60  85 114 156 201 249 309 366
#     4  10  21  36  53  78 111 148 194 246 303 362
#     4  11  22  36  57  86 119 155 200 254 304 359
#     4  10  22  40  62  90 125 164 204 249 304 365
#     4  10  22  42  66  92 125 166 209 251 300 365
#     4   9  18  33  53  77 106 145 194 243 293 356
#
# _framework density 20.209173
#
# number of rings (size 3 to 8) (size 9 to 14) (size 15 to 20)
#    0.000    1.714    1.429    3.000    0.000    5.429 
#    0.000    1.429    0.000    3.857    0.000    0.000 
#    0.000    0.000    0.000    0.000    0.000    0.000 
#
# Total GULP energy -347181.715323 kJ/mol
# GULP energy per Si atom -12399.346976 kJ/mol
# Density = 2.016318 g / cm^3
# Si number density = 20.209173 Si / 1000 Ang^3
#
#
#
# Elastic Constant Matrix: (Units=GPa)
#
#
# Indices 1 2 3 4 5 6 
#
# 1 137.7186 34.8406 58.2367 0.0000 4.2547 0.0000
# 2 34.8406 44.1348 39.2124 0.0000 0.6276 0.0000
# 3 58.2367 39.2124 140.8467 0.0000 4.8965 0.0000
# 4 0.0000 0.0000 0.0000 26.6579 0.0000 4.1367
# 5 4.2547 0.6276 4.8965 0.0000 30.3375 0.0000
# 6 0.0000 0.0000 0.0000 4.1367 0.0000 24.7596
#
#
#
# Elastic Compliance Matrix: (Units=1/GPa)
#
#
# Indices 1 2 3 4 5 6 
#
# 1 0.009712 -0.005465 -0.002465 0.000000 -0.000851 0.000000
# 2 -0.005465 0.033196 -0.007024 0.000000 0.001213 0.000000
# 3 -0.002465 -0.007024 0.010114 0.000000 -0.001141 0.000000
# 4 0.000000 0.000000 0.000000 0.038511 0.000000 -0.006434
# 5 -0.000851 0.001213 -0.001141 0.000000 0.033241 0.000000
# 6 0.000000 0.000000 0.000000 -0.006434 0.000000 0.041463
#
#
# Mechanical properties :
#
#
# Convention : Reuss Voigt Hill
#
# Bulk Modulus (GPa) = 43.26374 65.25328 54.25851
# Shear Modulus (GPa) = 24.52779 29.04504 26.78642
#
# Velocity S-wave (km/s) = 3.48759 3.79518 3.64463
# Velocity P-wave (km/s) = 6.13777 7.18078 6.67966
#
# Compressibility (1/GPa) = 0.02311405
#
# Stress axis : x y z
#
# Youngs Moduli (GPa) = 102.96218 30.12435 98.86991
#
# Poissons Ratio (x) = 0.16463 0.24368
# Poissons Ratio (y) = 0.56270 0.69450
# Poissons Ratio (z) = 0.25377 0.21160
#
# Static dielectric constant tensor:
#      x y z
#    x 3.854840 0.000000 -0.061620 
#    y 0.000000 3.447600 0.000000 
#    z -0.061620 0.000000 3.799540 
# 
# 
# High freq. dielectric constant tensor:
#      x y z
#    x 1.802530 0.000000 0.000130 
#    y 0.000000 1.770470 0.000000 
#    z 0.000130 0.000000 1.792680 
# 
# From -- ./inp_files/339033.got.cif
#   From: 2010.06.25/outbox.cif.g09.slc.cpg/sg12_170_cif.got.tgz:339033.got - 2010.06.28 00:19:55.
