data_PCOD8105703
_publ_section_title
;
Structure prediction by ZEFSAII (Michael W. Deem and Ramdas Pophale) SiO2 
 PCOD8105703
Probable space group: C 2/M
;
_chemical_formula_sum "Si O2"
_cell_formula_units_Z 48
_cell_length_a 16.016828
_cell_length_b 12.002489
_cell_length_c 30.038175
_cell_angle_alpha 90.000000
_cell_angle_beta 28.078656
_cell_angle_gamma 90.000000
_cell_volume 2718.004066
_symmetry_space_group_name_H-M "C 2/M"
_symmetry_group_IT_number 12
_symmetry_cell_setting 'monoclinic'
loop_
_space_group_symop_operation_xyz
x,y,z
-x,y,-z
-x,-y,-z
x,-y,z
1/2+x,1/2+y,z
1/2-x,1/2+y,-z
1/2-x,1/2-y,-z
1/2+x,1/2-y,z
loop_
_atom_site_type_symbol
_atom_site_label
_atom_site_fract_x
_atom_site_fract_y
_atom_site_fract_z
Si Si1 0.128683 0.730311 0.099327
Si Si2 0.249658 0.500000 0.078619
Si Si3 0.085857 0.878064 0.282547
Si Si4 0.751682 0.816006 0.249283
Si Si5 0.842065 0.000000 0.136736
Si Si6 0.761979 0.000000 0.408467
Si Si7 0.380858 0.000000 0.623127
Si Si8 0.301073 0.870364 0.093763
O O1 0.143834 0.605746 0.110408
O O2 0.182823 0.815891 0.111771
O O3 0.927743 0.752183 0.180554
O O4 0.250000 0.750000 0.000000
O O5 0.249523 0.500000 0.132229
O O6 0.446853 0.500000 0.966372
O O7 0.104010 0.779465 0.309701
O O8 0.215883 0.845192 0.181230
O O9 0.881557 0.889485 0.361895
O O10 0.144565 0.000000 0.274316
O O11 0.781773 0.890083 0.191284
O O12 0.680175 0.889403 0.323217
O O13 0.593287 0.000000 0.520032
O O14 0.708798 0.000000 0.382457
O O15 0.306535 0.000000 0.079742
O O16 0.500000 0.819364 0.000000
#
# Coordination Sequence:
#
# PCOD8105703 Si02
#       8
#     8   4   8   8   4   4   4   8
#     4  12  24  33  54  77 114 151 192 236 273 322
#     4  11  24  37  50  72 113 154 191 223 274 326
#     4   9  20  37  59  80 113 149 184 230 273 349
#     4  11  22  37  58  85 114 142 193 233 285 321
#     4  10  22  38  52  74 109 152 189 228 270 331
#     4   9  20  41  61  88 111 143 189 223 305 335
#     4  10  22  38  64  90 109 141 183 249 280 344
#     4  10  21  35  55  80 112 156 195 228 278 335
#
# _framework density 17.660018000000001
#
# number of rings (size 3 to 8) (size 9 to 14) (size 15 to 20)
#    0.500    1.167    1.667    3.000    7.000    0.667 
#    0.000    0.000    0.000    0.000    0.000    1.167 
#    0.000    0.000    0.000    0.000    0.000    0.000 
#
# Total GULP energy -297587.985025 kJ/mol
# GULP energy per Si atom -12399.499376 kJ/mol
# Density = 1.761982 g / cm^3
# Si number density = 17.660018 Si / 1000 Ang^3
#
#
#
# Elastic Constant Matrix: (Units=GPa)
#
#
# Indices 1 2 3 4 5 6 
#
# 1 88.0286 66.1498 41.6053 -0.0004 -10.4195 -0.0006
# 2 66.1498 108.5259 43.4641 -0.0003 -3.1998 0.0000
# 3 41.6053 43.4641 112.5850 -0.0048 -10.6338 -0.0142
# 4 -0.0004 -0.0003 -0.0048 11.3059 -0.0006 -13.1409
# 5 -10.4195 -3.1998 -10.6338 -0.0006 29.2434 -0.0017
# 6 -0.0006 0.0000 -0.0142 -13.1409 -0.0017 26.4047
#
#
#
# Elastic Compliance Matrix: (Units=1/GPa)
#
#
# Indices 1 2 3 4 5 6 
#
# 1 0.022946 -0.012583 -0.003086 -0.000004 0.005677 -0.000003
# 2 -0.012583 0.017803 -0.002550 -0.000008 -0.003463 -0.000006
# 3 -0.003086 -0.002550 0.011264 0.000028 0.002717 0.000020
# 4 -0.000004 -0.000008 0.000028 0.209819 0.000018 0.104421
# 5 0.005677 -0.003463 0.002717 0.000018 0.036828 0.000013
# 6 -0.000003 -0.000006 0.000020 0.104421 0.000013 0.089840
#
#
# Mechanical properties :
#
#
# Convention : Reuss Voigt Hill
#
# Bulk Modulus (GPa) = 64.20437 67.95310 66.07873
# Shear Modulus (GPa) = 11.62443 23.91884 17.77163
#
# Velocity S-wave (km/s) = 2.56839 3.68422 3.17570
# Velocity P-wave (km/s) = 6.72534 7.52728 7.13758
#
# Compressibility (1/GPa) = 0.01557526
#
# Stress axis : x y z
#
# Youngs Moduli (GPa) = 43.58075 56.16908 88.78159
#
# Poissons Ratio (x) = 0.70678 0.27394
# Poissons Ratio (y) = 0.54838 0.22640
# Poissons Ratio (z) = 0.13447 0.14324
#
# Static dielectric constant tensor:
#      x y z
#    x 3.280490 0.000000 -0.046360 
#    y 0.000000 3.343130 0.000000 
#    z -0.046360 0.000000 3.220460 
# 
# 
# High freq. dielectric constant tensor:
#      x y z
#    x 1.688370 0.000000 -0.002790 
#    y 0.000000 1.690150 0.000000 
#    z -0.002790 0.000000 1.666950 
# 
# From -- ./inp_files/376058.got.cif
#   From: 2010.06.25/outbox.cif.g09.slc.cpg/sg12_189_cif.got.tgz:376058.got - 2010.06.28 00:19:55.
