data_PCOD8105350
_publ_section_title
;
Structure prediction by ZEFSAII (Michael W. Deem and Ramdas Pophale) SiO2 
 PCOD8105350
Probable space group: C 2/M
;
_chemical_formula_sum "Si O2"
_cell_formula_units_Z 64
_cell_length_a 14.301377
_cell_length_b 8.864961
_cell_length_c 30.013318
_cell_angle_alpha 90.000000
_cell_angle_beta 61.627962
_cell_angle_gamma 90.000000
_cell_volume 3348.053815
_symmetry_space_group_name_H-M "C 2/M"
_symmetry_group_IT_number 12
_symmetry_cell_setting 'monoclinic'
loop_
_space_group_symop_operation_xyz
x,y,z
-x,y,-z
-x,-y,-z
x,-y,z
1/2+x,1/2+y,z
1/2-x,1/2+y,-z
1/2-x,1/2-y,-z
1/2+x,1/2-y,z
loop_
_atom_site_type_symbol
_atom_site_label
_atom_site_fract_x
_atom_site_fract_y
_atom_site_fract_z
Si Si1 0.394654 0.822782 0.321147
Si Si2 0.620088 0.166151 0.489810
Si Si3 0.303003 0.325556 0.946069
Si Si4 0.464805 0.677839 0.135710
Si Si5 0.956237 0.678443 0.793460
Si Si6 0.260786 0.179544 0.136738
Si Si7 0.959313 0.680528 0.402678
Si Si8 0.685605 0.820236 0.383253
O O1 0.484400 0.779064 0.265493
O O2 0.425290 0.756326 0.362556
O O3 0.283391 0.746458 0.333070
O O4 0.378242 0.000000 0.326403
O O5 0.500000 0.152621 0.500000
O O6 0.617055 0.245774 0.539704
O O7 0.686560 0.245203 0.434562
O O8 0.668145 0.000000 0.485611
O O9 0.283478 0.500000 0.956435
O O10 0.428205 0.287925 0.916280
O O11 0.246530 0.270896 0.913351
O O12 0.250000 0.250000 0.000000
O O13 0.443360 0.500000 0.144518
O O14 0.476889 0.745979 0.182069
O O15 0.369291 0.758281 0.132049
O O16 0.949385 0.500000 0.803125
O O17 0.838700 0.747121 0.815168
O O18 0.254595 0.000000 0.143488
O O19 0.955616 0.500000 0.405274
O O20 0.079721 0.735953 0.382621
O O21 0.691219 0.000000 0.382781
#
# Coordination Sequence:
#
# PCOD8105350 Si02
#       8
#     8   8   8   8   8   8   8   8
#     4  10  21  34  49  73 102 130 163 207 264 317
#     4   7  11  23  45  69  91 121 163 203 240 294
#     4   9  20  36  55  83 119 152 183 220 261 307
#     4  10  21  38  59  83 109 144 187 226 269 320
#     4  10  21  37  54  75 105 141 182 229 275 320
#     4  10  21  38  59  84 111 144 185 226 270 318
#     4   8  15  30  49  68  95 130 164 201 248 308
#     4   9  17  30  50  73  95 126 168 207 246 301
#
# _framework density 19.115583000000001
#
# number of rings (size 3 to 8) (size 9 to 14) (size 15 to 20)
#    0.000    2.875    0.000    3.375    0.000    6.000 
#    0.000    4.375    0.000    3.375    0.000    0.000 
#    0.000    0.000    0.000    0.000    0.000    0.000 
#
# Total GULP energy -396560.438626 kJ/mol
# GULP energy per Si atom -12392.513707 kJ/mol
# Density = 1.907207 g / cm^3
# Si number density = 19.115583 Si / 1000 Ang^3
#
#
#
# Elastic Constant Matrix: (Units=GPa)
#
#
# Indices 1 2 3 4 5 6 
#
# 1 70.0428 13.1787 27.8159 0.0000 -5.5432 0.0000
# 2 13.1787 38.1862 32.7381 0.0000 -5.6072 0.0000
# 3 27.8159 32.7381 112.4793 0.0000 -7.5493 0.0000
# 4 0.0000 0.0000 0.0000 24.3003 0.0000 -2.4278
# 5 -5.5432 -5.6072 -7.5493 0.0000 21.0670 0.0000
# 6 0.0000 0.0000 0.0000 -2.4278 0.0000 28.2380
#
#
#
# Elastic Compliance Matrix: (Units=1/GPa)
#
#
# Indices 1 2 3 4 5 6 
#
# 1 0.016183 -0.002577 -0.003086 0.000000 0.002466 0.000000
# 2 -0.002577 0.036008 -0.009473 0.000000 0.005511 0.000000
# 3 -0.003086 -0.009473 0.012488 0.000000 0.001141 0.000000
# 4 0.000000 0.000000 0.000000 0.041508 0.000000 0.003569
# 5 0.002466 0.005511 0.001141 0.000000 0.049992 0.000000
# 6 0.000000 0.000000 0.000000 0.003569 0.000000 0.035720
#
#
# Mechanical properties :
#
#
# Convention : Reuss Voigt Hill
#
# Bulk Modulus (GPa) = 29.06534 40.90819 34.98677
# Shear Modulus (GPa) = 21.40046 24.51944 22.95995
#
# Velocity S-wave (km/s) = 3.34957 3.58536 3.46947
# Velocity P-wave (km/s) = 5.49523 6.21181 5.86448
#
# Compressibility (1/GPa) = 0.03440524
#
# Stress axis : x y z
#
# Youngs Moduli (GPa) = 61.79446 27.77191 80.07891
#
# Poissons Ratio (x) = 0.07156 0.24716
# Poissons Ratio (y) = 0.15922 0.75861
# Poissons Ratio (z) = 0.19073 0.26309
#
# Static dielectric constant tensor:
#      x y z
#    x 3.557000 0.000000 0.140460 
#    y 0.000000 3.226970 0.000000 
#    z 0.140460 0.000000 3.943390 
# 
# 
# High freq. dielectric constant tensor:
#      x y z
#    x 1.743580 0.000000 -0.001910 
#    y 0.000000 1.718850 0.000000 
#    z -0.001910 0.000000 1.749870 
# 
# From -- ./inp_files/375044.got.cif
#   From: 2010.06.25/outbox.cif.g09.slc.cpg/sg12_188_cif.got.tgz:375044.got - 2010.06.28 00:19:55.
