data_PCOD8105502
_publ_section_title
;
Structure prediction by ZEFSAII (Michael W. Deem and Ramdas Pophale) SiO2 
 PCOD8105502
Probable space group: C 2/M
;
_chemical_formula_sum "Si O2"
_cell_formula_units_Z 48
_cell_length_a 14.503717
_cell_length_b 9.326449
_cell_length_c 29.283740
_cell_angle_alpha 90.000000
_cell_angle_beta 41.247957
_cell_angle_gamma 90.000000
_cell_volume 2611.666837
_symmetry_space_group_name_H-M "C 2/M"
_symmetry_group_IT_number 12
_symmetry_cell_setting 'monoclinic'
loop_
_space_group_symop_operation_xyz
x,y,z
-x,y,-z
-x,-y,-z
x,-y,z
1/2+x,1/2+y,z
1/2-x,1/2+y,-z
1/2-x,1/2-y,-z
1/2+x,1/2-y,z
loop_
_atom_site_type_symbol
_atom_site_label
_atom_site_fract_x
_atom_site_fract_y
_atom_site_fract_z
Si Si1 0.914816 0.167037 0.395988
Si Si2 0.841961 0.836247 0.000094
Si Si3 0.887074 0.330631 0.745829
Si Si4 0.615321 0.166427 0.149554
Si Si5 0.426765 0.332655 0.149150
Si Si6 0.089863 0.665868 0.510829
O O1 0.954820 0.238278 0.429466
O O2 0.754160 0.190610 0.441091
O O3 0.003902 0.241842 0.323902
O O4 0.952130 0.000000 0.385455
O O5 0.004505 0.801237 0.927229
O O6 0.814346 0.000000 0.998540
O O7 0.750000 0.750000 0.000000
O O8 0.779975 0.804131 0.073920
O O9 0.908621 0.500000 0.730063
O O10 0.909728 0.285738 0.789614
O O11 0.731843 0.279788 0.790602
O O12 0.508757 0.253083 0.158285
O O13 0.580251 0.000000 0.156570
O O14 0.432772 0.500000 0.157827
O O15 0.058418 0.500000 0.534149
O O16 0.000000 0.714094 0.500000
#
# Coordination Sequence:
#
# PCOD8105502 Si02
#       6
#     8   8   8   8   8   8
#     4  10  21  36  55  81 109 134 165 206 246 291
#     4   8  14  27  47  69  93 124 168 218 260 299
#     4  10  21  35  50  72 105 141 171 204 251 303
#     4   9  18  32  50  72  99 132 171 217 263 302
#     4   9  18  32  50  71  97 133 174 214 258 306
#     4   9  19  38  62  83 104 133 166 200 244 297
#
# _framework density 18.379068
#
# number of rings (size 3 to 8) (size 9 to 14) (size 15 to 20)
#    0.000    2.833    0.000    0.500    0.000    4.333 
#    0.000    8.333    0.000    0.000    0.000   12.833 
#    0.000    0.000    0.000    0.000    0.000    0.000 
#
# Total GULP energy -297327.396339 kJ/mol
# GULP energy per Si atom -12388.641514 kJ/mol
# Density = 1.833724 g / cm^3
# Si number density = 18.379068 Si / 1000 Ang^3
#
#
#
# Elastic Constant Matrix: (Units=GPa)
#
#
# Indices 1 2 3 4 5 6 
#
# 1 117.0976 47.0582 64.9064 0.0000 11.4487 0.0002
# 2 47.0582 63.2178 63.9539 0.0001 9.0454 0.0002
# 3 64.9064 63.9539 159.8741 0.0000 17.0196 0.0000
# 4 0.0000 0.0001 0.0000 32.2654 0.0000 1.0861
# 5 11.4487 9.0454 17.0196 0.0000 25.7680 0.0001
# 6 0.0002 0.0002 0.0000 1.0861 0.0001 23.9174
#
#
#
# Elastic Compliance Matrix: (Units=1/GPa)
#
#
# Indices 1 2 3 4 5 6 
#
# 1 0.012744 -0.007038 -0.002171 0.000000 -0.001757 0.000000
# 2 -0.007038 0.030607 -0.009224 0.000000 -0.001525 0.000000
# 3 -0.002171 -0.009224 0.011164 0.000000 -0.003171 0.000000
# 4 0.000000 0.000000 0.000000 0.031040 0.000000 -0.001410
# 5 -0.001757 -0.001525 -0.003171 0.000000 0.042218 0.000000
# 6 0.000000 0.000000 0.000000 -0.001410 0.000000 0.041875
#
#
# Mechanical properties :
#
#
# Convention : Reuss Voigt Hill
#
# Bulk Modulus (GPa) = 56.66444 76.89184 66.77814
# Shear Modulus (GPa) = 23.54084 27.34154 25.44119
#
# Velocity S-wave (km/s) = 3.58278 3.86119 3.72458
# Velocity P-wave (km/s) = 6.92914 7.86167 7.41009
#
# Compressibility (1/GPa) = 0.01764775
#
# Stress axis : x y z
#
# Youngs Moduli (GPa) = 78.47058 32.67234 89.57569
#
# Poissons Ratio (x) = 0.22996 0.19448
# Poissons Ratio (y) = 0.55230 0.82623
# Poissons Ratio (z) = 0.17037 0.30137
#
# Static dielectric constant tensor:
#      x y z
#    x 3.192560 0.000000 -0.014750 
#    y 0.000000 3.371660 0.000000 
#    z -0.014750 0.000000 3.744330 
# 
# 
# High freq. dielectric constant tensor:
#      x y z
#    x 1.697260 0.000000 0.000840 
#    y 0.000000 1.708810 0.000000 
#    z 0.000840 0.000000 1.726750 
# 
# From -- ./inp_files/308319.got.cif
#   From: 2010.06.25/outbox.cif.g09.slc.cpg/sg12_155_cif.got.tgz:308319.got - 2010.06.28 00:19:55.
