data_PCOD8105875
_publ_section_title
;
Structure prediction by ZEFSAII (Michael W. Deem and Ramdas Pophale) SiO2 
 PCOD8105875
Probable space group: C 2/M
;
_chemical_formula_sum "Si O2"
_cell_formula_units_Z 64
_cell_length_a 29.209794
_cell_length_b 18.951102
_cell_length_c 12.667685
_cell_angle_alpha 90.000000
_cell_angle_beta 27.004765
_cell_angle_gamma 90.000000
_cell_volume 3184.035213
_symmetry_space_group_name_H-M "C 2/M"
_symmetry_group_IT_number 12
_symmetry_cell_setting 'monoclinic'
loop_
_space_group_symop_operation_xyz
x,y,z
-x,y,-z
-x,-y,-z
x,-y,z
1/2+x,1/2+y,z
1/2-x,1/2+y,-z
1/2-x,1/2-y,-z
1/2+x,1/2-y,z
loop_
_atom_site_type_symbol
_atom_site_label
_atom_site_fract_x
_atom_site_fract_y
_atom_site_fract_z
Si Si1 0.113429 0.615037 0.038134
Si Si2 0.388880 0.299965 0.759394
Si Si3 0.682242 0.144518 0.123316
Si Si4 0.289109 0.167004 0.536109
Si Si5 0.402454 0.278235 0.969253
Si Si6 0.115353 0.420750 0.475850
Si Si7 0.920404 0.195751 0.256044
Si Si8 0.240452 0.920990 0.439372
O O1 0.157957 0.606009 0.063854
O O2 0.113949 0.695164 0.998601
O O3 0.003216 0.582457 0.261238
O O4 0.182364 0.572219 0.815814
O O5 0.500000 0.326535 0.500000
O O6 0.375142 0.219234 0.751584
O O7 0.375824 0.310286 0.910818
O O8 0.303366 0.347016 0.879499
O O9 0.640434 0.097674 0.303919
O O10 0.329732 0.133332 0.559809
O O11 0.350060 0.236984 0.381402
O O12 0.297482 0.112342 0.422969
O O13 0.172208 0.187718 0.791180
O O14 0.517949 0.295923 0.761240
O O15 0.153096 0.500000 0.421402
O O16 0.855625 0.124916 0.397635
O O17 0.000000 0.190457 0.000000
O O18 0.204156 0.000000 0.543003
#
# Coordination Sequence:
#
# PCOD8105875 Si02
#       8
#     8   8   8   8   8   8   8   8
#     4  11  23  41  66  96 130 168 214 269 322 382
#     4  10  21  35  65 101 130 162 210 273 321 367
#     4  10  22  39  63  95 130 170 212 262 320 381
#     4  12  24  44  67  96 128 170 218 272 313 382
#     4  11  21  40  67  97 128 164 217 270 317 373
#     4  12  25  42  65  95 134 176 214 261 327 393
#     4  12  24  41  70  95 123 170 218 269 319 377
#     4  12  27  44  63  96 135 170 211 265 329 391
#
# _framework density 20.100280999999999
#
# number of rings (size 3 to 8) (size 9 to 14) (size 15 to 20)
#    0.000    0.750    5.000    3.750    1.750    1.750 
#    0.000    1.250    0.000    0.375    0.000    0.000 
#    0.000    0.000    0.000    0.000    0.000    0.000 
#
# Total GULP energy -396985.425573 kJ/mol
# GULP energy per Si atom -12405.794549 kJ/mol
# Density = 2.005453 g / cm^3
# Si number density = 20.100281 Si / 1000 Ang^3
#
#
#
# Elastic Constant Matrix: (Units=GPa)
#
#
# Indices 1 2 3 4 5 6 
#
# 1 102.3763 37.2016 28.3828 0.0000 -9.2250 0.0000
# 2 37.2016 102.0964 38.9846 0.0000 2.0153 0.0000
# 3 28.3828 38.9846 123.8497 0.0000 -5.0258 0.0000
# 4 0.0000 0.0000 0.0000 12.2738 0.0000 5.0139
# 5 -9.2250 2.0153 -5.0258 0.0000 36.7883 0.0000
# 6 0.0000 0.0000 0.0000 5.0139 0.0000 -3.0613
#
#
#
# Elastic Compliance Matrix: (Units=1/GPa)
#
#
# Indices 1 2 3 4 5 6 
#
# 1 0.011813 -0.003837 -0.001378 0.000000 0.002984 0.000000
# 2 -0.003837 0.012423 -0.003115 0.000000 -0.002068 0.000000
# 3 -0.001378 -0.003115 0.009416 0.000000 0.001111 0.000000
# 4 0.000000 0.000000 0.000000 0.048815 0.000000 0.079950
# 5 0.002984 -0.002068 0.001111 0.000000 0.028196 0.000000
# 6 0.000000 0.000000 0.000000 0.079950 0.000000 -0.195715
#
#
# Mechanical properties :
#
#
# Convention : Reuss Voigt Hill
#
# Bulk Modulus (GPa) = 58.85397 59.71784 59.28591
# Shear Modulus (GPa) = -79.71000 24.11705 -27.79648
#
# Velocity S-wave (km/s) = -6.30415 3.46762 -3.72276
# Velocity P-wave (km/s) = 4.86271 6.76809 3.32874
#
# Compressibility (1/GPa) = 0.01699121
#
# Stress axis : x y z
#
# Youngs Moduli (GPa) = 84.65075 80.49529 106.20432
#
# Poissons Ratio (x) = 0.30887 0.14639
# Poissons Ratio (y) = 0.32481 0.33083
# Poissons Ratio (z) = 0.11668 0.25075
#
# Static dielectric constant tensor:
#      x y z
#    x 3.889080 0.000000 -0.107310 
#    y 0.000000 3.505350 0.000000 
#    z -0.107310 0.000000 3.703030 
# 
# 
# High freq. dielectric constant tensor:
#      x y z
#    x 1.803140 0.000000 0.000070 
#    y 0.000000 1.764220 0.000000 
#    z 0.000070 0.000000 1.791720 
# 
# From -- ./inp_files/184667.got.cif
#   From: 2010.06.25/outbox.cif.g09.slc.cpg/sg12_93_cif.got.tgz:184667.got - 2010.06.28 00:19:55.
