data_PCOD8105418
_publ_section_title
;
Structure prediction by ZEFSAII (Michael W. Deem and Ramdas Pophale) SiO2 
 PCOD8105418
Probable space group: C 2/M
;
_chemical_formula_sum "Si O2"
_cell_formula_units_Z 56
_cell_length_a 17.354136
_cell_length_b 32.632500
_cell_length_c 5.085305
_cell_angle_alpha 90.000000
_cell_angle_beta 66.616828
_cell_angle_gamma 90.000000
_cell_volume 2643.334391
_symmetry_space_group_name_H-M "C 2/M"
_symmetry_group_IT_number 12
_symmetry_cell_setting 'monoclinic'
loop_
_space_group_symop_operation_xyz
x,y,z
-x,y,-z
-x,-y,-z
x,-y,z
1/2+x,1/2+y,z
1/2-x,1/2+y,-z
1/2-x,1/2-y,-z
1/2+x,1/2-y,z
loop_
_atom_site_type_symbol
_atom_site_label
_atom_site_fract_x
_atom_site_fract_y
_atom_site_fract_z
Si Si1 0.332852 0.224431 0.163620
Si Si2 0.446004 0.065707 0.810947
Si Si3 0.500000 0.660206 0.500000
Si Si4 0.257713 0.954263 0.099054
Si Si5 0.500000 0.603558 0.000000
Si Si6 0.143726 0.774018 0.384215
Si Si7 0.662907 0.549387 0.727249
Si Si8 0.947719 0.342408 0.810262
O O1 0.236438 0.213261 0.358954
O O2 0.381864 0.238806 0.364814
O O3 0.347881 0.259459 0.926498
O O4 0.366095 0.183160 0.988384
O O5 0.500000 0.046005 0.500000
O O6 0.421108 0.111993 0.764297
O O7 0.500000 0.061331 0.000000
O O8 0.358230 0.043183 0.964213
O O9 0.478034 0.631912 0.779252
O O10 0.421141 0.688540 0.523504
O O11 0.219537 0.933830 0.410434
O O12 0.223156 0.000000 0.144803
O O13 0.216817 0.933577 0.899384
O O14 0.575697 0.573107 0.831240
O O15 0.648616 0.500000 0.746582
O O16 0.000000 0.321924 0.500000
O O17 0.000000 0.345019 0.000000
#
# Coordination Sequence:
#
# PCOD8105418 Si02
#       8
#     8   8   4   8   4   8   8   8
#     4  10  21  39  60  83 109 153 197 240 300 351
#     4  10  21  37  55  86 128 158 200 260 302 361
#     4  12  26  42  61  94 126 158 198 250 307 382
#     4  10  21  38  62  91 122 165 209 247 305 364
#     4  12  25  42  64  92 126 166 200 244 324 364
#     4  10  23  40  59  85 117 147 193 246 292 360
#     4  10  22  41  64  91 121 158 212 257 290 361
#     4  10  21  34  54  84 109 147 199 242 292 349
#
# _framework density 21.185362999999999
#
# number of rings (size 3 to 8) (size 9 to 14) (size 15 to 20)
#    0.000    1.714    0.000    3.643    3.000    2.857 
#    0.000    2.857    0.000    0.000    0.000    0.000 
#    0.000    0.000    0.000    0.000    0.000    0.000 
#
# Total GULP energy -347048.331196 kJ/mol
# GULP energy per Si atom -12394.583257 kJ/mol
# Density = 2.113714 g / cm^3
# Si number density = 21.185363 Si / 1000 Ang^3
#
#
#
# Elastic Constant Matrix: (Units=GPa)
#
#
# Indices 1 2 3 4 5 6 
#
# 1 112.1722 34.0282 58.6179 0.0000 -1.5583 0.0000
# 2 34.0282 64.7429 33.2550 0.0000 -4.7316 0.0000
# 3 58.6179 33.2550 169.1060 0.0000 5.7655 0.0000
# 4 0.0000 0.0000 0.0000 7.6957 0.0000 -11.1855
# 5 -1.5583 -4.7316 5.7655 0.0000 40.5906 0.0000
# 6 0.0000 0.0000 0.0000 -11.1855 0.0000 10.3719
#
#
#
# Elastic Compliance Matrix: (Units=1/GPa)
#
#
# Indices 1 2 3 4 5 6 
#
# 1 0.012032 -0.004612 -0.003277 0.000000 0.000390 0.000000
# 2 -0.004612 0.019204 -0.002259 0.000000 0.002382 0.000000
# 3 -0.003277 -0.002259 0.007543 0.000000 -0.001461 0.000000
# 4 0.000000 0.000000 0.000000 -0.228979 0.000000 -0.246940
# 5 0.000390 0.002382 -0.001461 0.000000 0.025136 0.000000
# 6 0.000000 0.000000 0.000000 -0.246940 0.000000 -0.169897
#
#
# Mechanical properties :
#
#
# Convention : Reuss Voigt Hill
#
# Bulk Modulus (GPa) = 54.10309 66.42480 60.26394
# Shear Modulus (GPa) = -16.20736 26.40632 5.09948
#
# Velocity S-wave (km/s) = -2.76891 3.53433 1.55316
# Velocity P-wave (km/s) = 3.92057 6.93379 5.63242
#
# Compressibility (1/GPa) = 0.01848323
#
# Stress axis : x y z
#
# Youngs Moduli (GPa) = 83.11291 52.07177 132.56630
#
# Poissons Ratio (x) = 0.24016 0.43441
# Poissons Ratio (y) = 0.38333 0.29948
# Poissons Ratio (z) = 0.27236 0.11763
#
# Static dielectric constant tensor:
#      x y z
#    x 3.742100 0.000000 0.164380 
#    y 0.000000 3.851410 0.000000 
#    z 0.164380 0.000000 4.202400 
# 
# 
# High freq. dielectric constant tensor:
#      x y z
#    x 1.829200 0.000000 0.006830 
#    y 0.000000 1.813030 0.000000 
#    z 0.006830 0.000000 1.855210 
# 
# From -- ./inp_files/18272.got.cif
#   From: 2010.06.25/outbox.cif.g09.slc.cpg/sg12_10_cif.got.tgz:18272.got - 2010.06.28 00:19:55.
