data_PCOD8105271
_publ_section_title
;
Structure prediction by ZEFSAII (Michael W. Deem and Ramdas Pophale) SiO2 
 PCOD8105271
Probable space group: C 2/M
;
_chemical_formula_sum "Si O2"
_cell_formula_units_Z 48
_cell_length_a 7.846907
_cell_length_b 18.590518
_cell_length_c 17.346282
_cell_angle_alpha 90.000000
_cell_angle_beta 90.000237
_cell_angle_gamma 90.000000
_cell_volume 2530.442067
_symmetry_space_group_name_H-M "C 2/M"
_symmetry_group_IT_number 12
_symmetry_cell_setting 'monoclinic'
loop_
_space_group_symop_operation_xyz
x,y,z
-x,y,-z
-x,-y,-z
x,-y,z
1/2+x,1/2+y,z
1/2-x,1/2+y,-z
1/2-x,1/2-y,-z
1/2+x,1/2-y,z
loop_
_atom_site_type_symbol
_atom_site_label
_atom_site_fract_x
_atom_site_fract_y
_atom_site_fract_z
Si Si1 0.299507 0.667669 0.500000
Si Si2 0.188885 0.414640 0.187930
Si Si3 0.500001 0.585958 0.913030
Si Si4 0.701991 0.418006 0.353527
Si Si5 0.701990 0.581995 0.646473
Si Si6 0.188885 0.414640 0.812070
O O1 0.500000 0.657163 0.500000
O O2 0.250000 0.750000 0.500000
O O3 0.224769 0.629563 0.576288
O O4 0.224770 0.629563 0.423712
O O5 0.206352 0.500000 0.189492
O O6 0.331134 0.383588 0.129647
O O7 0.219460 0.386329 0.274653
O O8 1.000000 0.390839 0.160046
O O9 0.500001 0.500000 0.912494
O O10 0.331138 0.616413 0.870352
O O11 0.500000 0.615665 0.000000
O O12 0.760091 0.500000 0.367890
O O13 0.500001 0.413236 0.346443
O O14 0.780542 0.386331 0.274652
O O15 0.760085 0.500000 0.632110
O O16 0.206346 0.500000 0.810513
#
# Coordination Sequence:
#
# PCOD8105271 Si02
#       6
#     8   8   8   8   8   8
#     4  10  21  33  47  69  99 132 159 205 253 294
#     4   9  16  26  42  65  91 123 163 202 239 286
#     4   9  16  26  40  61  95 131 157 194 246 293
#     4   9  16  30  50  68  90 127 173 210 241 286
#     4   9  16  30  50  68  90 127 173 210 241 286
#     4   9  16  26  42  65  91 123 163 202 239 286
#
# _framework density 18.969017999999998
#
# number of rings (size 3 to 8) (size 9 to 14) (size 15 to 20)
#    0.000    2.833    1.667    0.500    0.000    4.000 
#    0.000    3.333    0.000    5.000    0.000    0.000 
#    0.000    1.333    0.667    0.000    0.000    0.000 
#
# Total GULP energy -297510.171913 kJ/mol
# GULP energy per Si atom -12396.257163 kJ/mol
# Density = 1.892584 g / cm^3
# Si number density = 18.969018 Si / 1000 Ang^3
#
#
#
# Elastic Constant Matrix: (Units=GPa)
#
#
# Indices 1 2 3 4 5 6 
#
# 1 112.2386 15.4791 80.7140 0.0000 -0.0019 0.0000
# 2 15.4791 46.7563 38.5083 0.0000 -0.0004 0.0000
# 3 80.7140 38.5083 184.5515 0.0000 -0.0010 0.0000
# 4 0.0000 0.0000 0.0000 3.2318 0.0000 0.0000
# 5 -0.0019 -0.0004 -0.0010 0.0000 15.1274 0.0000
# 6 0.0000 0.0000 0.0000 0.0000 0.0000 12.7813
#
#
#
# Elastic Compliance Matrix: (Units=1/GPa)
#
#
# Indices 1 2 3 4 5 6 
#
# 1 0.013006 0.000458 -0.005784 0.000000 0.000001 0.000000
# 2 0.000458 0.025842 -0.005592 0.000000 0.000000 0.000000
# 3 -0.005784 -0.005592 0.009115 0.000000 0.000000 0.000000
# 4 0.000000 0.000000 0.000000 0.309429 0.000000 0.000001
# 5 0.000001 0.000000 0.000000 0.000000 0.066105 0.000000
# 6 0.000000 0.000000 0.000000 0.000001 0.000000 0.078239
#
#
# Mechanical properties :
#
#
# Convention : Reuss Voigt Hill
#
# Bulk Modulus (GPa) = 38.27614 68.10547 53.19080
# Shear Modulus (GPa) = 9.39355 20.15108 14.77231
#
# Velocity S-wave (km/s) = 2.22773 3.26285 2.79365
# Velocity P-wave (km/s) = 5.18065 7.08353 6.20546
#
# Compressibility (1/GPa) = 0.02612594
#
# Stress axis : x y z
#
# Youngs Moduli (GPa) = 76.89023 38.69702 109.71111
#
# Poissons Ratio (x) = -0.01771 0.63451
# Poissons Ratio (y) = -0.03519 0.61353
# Poissons Ratio (z) = 0.44469 0.21640
#
# Static dielectric constant tensor:
#      x y z
#    x 3.541630 0.000000 0.000000 
#    y 0.000000 2.805970 0.000000 
#    z 0.000000 0.000000 3.732830 
# 
# 
# High freq. dielectric constant tensor:
#      x y z
#    x 1.740810 0.000000 0.000000 
#    y 0.000000 1.661750 0.000000 
#    z 0.000000 0.000000 1.745050 
# 
# From -- ./inp_files/256190.got.cif
#   From: 2010.06.25/outbox.cif.g09.slc.cpg/sg12_129_cif.got.tgz:256190.got - 2010.06.28 00:19:55.
