data_PCOD8105760
_publ_section_title
;
Structure prediction by ZEFSAII (Michael W. Deem and Ramdas Pophale) SiO2 
 PCOD8105760
Probable space group: C 2/M
;
_chemical_formula_sum "Si O2"
_cell_formula_units_Z 64
_cell_length_a 9.088773
_cell_length_b 25.236464
_cell_length_c 13.959480
_cell_angle_alpha 90.000000
_cell_angle_beta 75.031544
_cell_angle_gamma 90.000000
_cell_volume 3093.219756
_symmetry_space_group_name_H-M "C 2/M"
_symmetry_group_IT_number 12
_symmetry_cell_setting 'monoclinic'
loop_
_space_group_symop_operation_xyz
x,y,z
-x,y,-z
-x,-y,-z
x,-y,z
1/2+x,1/2+y,z
1/2-x,1/2+y,-z
1/2-x,1/2-y,-z
1/2+x,1/2-y,z
loop_
_atom_site_type_symbol
_atom_site_label
_atom_site_fract_x
_atom_site_fract_y
_atom_site_fract_z
Si Si1 0.610598 0.773195 0.774309
Si Si2 0.376048 0.351385 0.742436
Si Si3 0.609742 0.138635 0.221298
Si Si4 0.578674 0.715774 0.583904
Si Si5 0.835996 0.059218 0.490184
Si Si6 0.837289 0.353064 0.572502
Si Si7 0.427323 0.663997 0.115577
Si Si8 0.843644 0.439910 0.288908
O O1 0.774855 0.798392 0.765384
O O2 0.485293 0.817440 0.820930
O O3 0.586254 0.759256 0.666233
O O4 0.599583 0.724445 0.848012
O O5 0.492478 0.337554 0.636568
O O6 0.460501 0.362975 0.827553
O O7 0.281300 0.404707 0.743713
O O8 0.651331 0.161946 0.318561
O O9 0.768765 0.130934 0.138641
O O10 0.512908 0.084423 0.247390
O O11 0.500000 0.738358 0.500000
O O12 0.751524 0.695627 0.531612
O O13 0.768606 0.094697 0.416657
O O14 0.704743 0.060721 0.592689
O O15 0.000000 0.080158 0.500000
O O16 0.859036 0.000000 0.445901
O O17 0.000000 0.363021 0.500000
O O18 0.500000 0.662150 0.000000
O O19 0.843920 0.500000 0.248313
#
# Coordination Sequence:
#
# PCOD8105760 Si02
#       8
#     8   8   8   8   8   8   8   8
#     4  10  23  40  58  88 126 158 203 253 294 366
#     4  10  21  40  61  89 125 155 203 254 296 367
#     4  11  23  41  58  89 125 154 207 255 300 364
#     4  11  23  36  55  82 125 171 209 237 292 358
#     4  10  21  35  56  87 119 160 215 255 292 353
#     4  12  22  35  55  81 124 167 202 250 298 350
#     4  11  23  42  69  94 119 154 197 258 321 363
#     4  10  21  40  63  86 122 165 201 247 305 358
#
# _framework density 20.690414000000001
#
# number of rings (size 3 to 8) (size 9 to 14) (size 15 to 20)
#    0.000    1.375    3.750    3.375    1.750    3.750 
#    0.000    2.500    0.000    2.250    0.000    0.000 
#    0.000    0.000    0.000    0.000    0.000    0.000 
#
# Total GULP energy -396755.302174 kJ/mol
# GULP energy per Si atom -12398.603193 kJ/mol
# Density = 2.064332 g / cm^3
# Si number density = 20.690414 Si / 1000 Ang^3
#
#
#
# Elastic Constant Matrix: (Units=GPa)
#
#
# Indices 1 2 3 4 5 6 
#
# 1 130.4363 34.9913 28.9429 0.0000 -13.1996 0.0000
# 2 34.9913 71.2224 -6.9343 0.0000 -7.0945 0.0000
# 3 28.9429 -6.9343 74.8372 0.0000 -16.8903 0.0000
# 4 0.0000 0.0000 0.0000 11.8936 0.0000 0.2624
# 5 -13.1996 -7.0945 -16.8903 0.0000 23.8112 0.0000
# 6 0.0000 0.0000 0.0000 0.2624 0.0000 20.1377
#
#
#
# Elastic Compliance Matrix: (Units=1/GPa)
#
#
# Indices 1 2 3 4 5 6 
#
# 1 0.010110 -0.005262 -0.004151 0.000000 0.001092 0.000000
# 2 -0.005262 0.017702 0.005009 0.000000 0.005911 0.000000
# 3 -0.004151 0.005009 0.018156 0.000000 0.012070 0.000000
# 4 0.000000 0.000000 0.000000 0.084103 0.000000 -0.001096
# 5 0.001092 0.005911 0.012070 0.000000 0.052925 0.000000
# 6 0.000000 0.000000 0.000000 -0.001096 0.000000 0.049672
#
#
# Mechanical properties :
#
#
# Convention : Reuss Voigt Hill
#
# Bulk Modulus (GPa) = 26.91038 43.38843 35.14940
# Shear Modulus (GPa) = 19.69558 25.80155 22.74857
#
# Velocity S-wave (km/s) = 3.08866 3.53516 3.31943
# Velocity P-wave (km/s) = 5.07486 6.13832 5.63175
#
# Compressibility (1/GPa) = 0.03716039
#
# Stress axis : x y z
#
# Youngs Moduli (GPa) = 98.91325 56.48954 55.07789
#
# Poissons Ratio (x) = 0.29727 0.22863
# Poissons Ratio (y) = 0.52052 -0.27591
# Poissons Ratio (z) = 0.41060 -0.28298
#
# Static dielectric constant tensor:
#      x y z
#    x 4.197990 0.000000 -0.130080 
#    y 0.000000 3.704420 0.000000 
#    z -0.130080 0.000000 3.324810 
# 
# 
# High freq. dielectric constant tensor:
#      x y z
#    x 1.841740 0.000000 -0.006020 
#    y 0.000000 1.799710 0.000000 
#    z -0.006020 0.000000 1.757940 
# 
# From -- ./inp_files/199818.got.cif
#   From: 2010.06.25/outbox.cif.g09.slc.cpg/sg12_100_cif.got.tgz:199818.got - 2010.06.28 00:19:55.
