data_PCOD8105908
_publ_section_title
;
Structure prediction by ZEFSAII (Michael W. Deem and Ramdas Pophale) SiO2 
 PCOD8105908
Probable space group: C 2/M
;
_chemical_formula_sum "Si O2"
_cell_formula_units_Z 64
_cell_length_a 12.764537
_cell_length_b 20.854076
_cell_length_c 26.058308
_cell_angle_alpha 90.000000
_cell_angle_beta 150.455361
_cell_angle_gamma 90.000000
_cell_volume 3420.413071
_symmetry_space_group_name_H-M "C 2/M"
_symmetry_group_IT_number 12
_symmetry_cell_setting 'monoclinic'
loop_
_space_group_symop_operation_xyz
x,y,z
-x,y,-z
-x,-y,-z
x,-y,z
1/2+x,1/2+y,z
1/2-x,1/2+y,-z
1/2-x,1/2-y,-z
1/2+x,1/2-y,z
loop_
_atom_site_type_symbol
_atom_site_label
_atom_site_fract_x
_atom_site_fract_y
_atom_site_fract_z
Si Si1 0.074448 0.925453 0.086323
Si Si2 0.722864 0.172786 0.295946
Si Si3 0.220852 0.833925 0.524102
Si Si4 0.787319 0.696514 0.442067
Si Si5 0.525964 0.703544 0.771218
Si Si6 0.872542 0.161200 0.078775
Si Si7 0.075207 0.710493 0.124491
Si Si8 0.435647 0.075449 0.696554
O O1 0.316285 0.909374 0.203859
O O2 0.929315 0.901502 0.071030
O O3 0.033366 0.000000 0.065238
O O4 0.000000 0.894452 0.000000
O O5 0.597323 0.230492 0.269530
O O6 0.697648 0.178202 0.224343
O O7 0.632496 0.105198 0.277869
O O8 0.967833 0.173576 0.416194
O O9 0.304716 0.767112 0.582966
O O10 0.313156 0.843896 0.505684
O O11 0.303370 0.892623 0.593601
O O12 0.604813 0.665547 0.328373
O O13 0.000000 0.698005 0.500000
O O14 0.534065 0.657747 0.824100
O O15 0.764331 0.718861 0.854429
O O16 0.978730 0.220482 0.094871
O O17 0.618305 0.164741 0.973740
O O18 0.385909 0.000000 0.675591
#
# Coordination Sequence:
#
# PCOD8105908 Si02
#       8
#     8   8   8   8   8   8   8   8
#     4  10  22  41  62  85 111 149 197 238 280 339
#     4  11  20  35  54  80 115 153 189 228 282 341
#     4  11  22  34  55  82 115 150 194 235 275 339
#     4  11  21  34  55  83 113 150 190 230 283 338
#     4  11  20  34  56  84 116 147 187 231 286 343
#     4  10  22  34  59  84 115 150 185 236 291 336
#     4  10  21  36  52  86 119 150 180 232 293 346
#     4  11  23  37  58  84 114 150 191 240 286 333
#
# _framework density 18.711189999999998
#
# number of rings (size 3 to 8) (size 9 to 14) (size 15 to 20)
#    0.000    1.375    3.750    2.250    1.750    3.000 
#    0.000    0.000    0.000    3.375    0.000    0.000 
#    0.000    0.000    0.000    0.000    0.000    0.000 
#
# Total GULP energy -396766.609761 kJ/mol
# GULP energy per Si atom -12398.956555 kJ/mol
# Density = 1.866860 g / cm^3
# Si number density = 18.711190 Si / 1000 Ang^3
#
#
#
# Elastic Constant Matrix: (Units=GPa)
#
#
# Indices 1 2 3 4 5 6 
#
# 1 127.6538 29.3868 50.7933 0.0007 2.6949 -0.0003
# 2 29.3868 44.9786 33.9040 0.0039 -3.9209 -0.0008
# 3 50.7933 33.9040 119.7726 -0.0156 -5.7415 0.0023
# 4 0.0007 0.0039 -0.0156 24.7384 -0.0003 -1.1136
# 5 2.6949 -3.9209 -5.7415 -0.0003 34.8847 0.0004
# 6 -0.0003 -0.0008 0.0023 -1.1136 0.0004 26.8314
#
#
#
# Elastic Compliance Matrix: (Units=1/GPa)
#
#
# Indices 1 2 3 4 5 6 
#
# 1 0.010135 -0.004416 -0.003134 -0.000002 -0.001795 0.000000
# 2 -0.004416 0.030310 -0.006579 -0.000009 0.002665 0.000001
# 3 -0.003134 -0.006579 0.011608 0.000008 0.001413 -0.000001
# 4 -0.000002 -0.000009 0.000008 0.040499 0.000001 0.001681
# 5 -0.001795 0.002665 0.001413 0.000001 0.029337 0.000000
# 6 0.000000 0.000001 -0.000001 0.001681 0.000000 0.037339
#
#
# Mechanical properties :
#
#
# Convention : Reuss Voigt Hill
#
# Bulk Modulus (GPa) = 42.02644 57.84148 49.93396
# Shear Modulus (GPa) = 25.58613 29.17897 27.38255
#
# Velocity S-wave (km/s) = 3.70188 3.95326 3.82963
# Velocity P-wave (km/s) = 6.38602 7.19844 6.80437
#
# Compressibility (1/GPa) = 0.02379455
#
# Stress axis : x y z
#
# Youngs Moduli (GPa) = 98.66560 32.99288 86.14390
#
# Poissons Ratio (x) = 0.14569 0.27000
# Poissons Ratio (y) = 0.43569 0.56677
# Poissons Ratio (z) = 0.30924 0.21707
#
# Static dielectric constant tensor:
#      x y z
#    x 3.653020 0.000000 -0.107520 
#    y 0.000000 3.027310 0.000000 
#    z -0.107520 0.000000 3.704490 
# 
# 
# High freq. dielectric constant tensor:
#      x y z
#    x 1.740480 0.000000 -0.003750 
#    y 0.000000 1.671960 0.000000 
#    z -0.003750 0.000000 1.750710 
# 
# From -- ./inp_files/359018.got.cif
#   From: 2010.06.25/outbox.cif.g09.slc.cpg/sg12_180_cif.got.tgz:359018.got - 2010.06.28 00:19:55.
