data_PCOD8105141
_publ_section_title
;
Structure prediction by ZEFSAII (Michael W. Deem and Ramdas Pophale) SiO2 
 PCOD8105141
Probable space group: C 2/M
;
_chemical_formula_sum "Si O2"
_cell_formula_units_Z 40
_cell_length_a 19.562488
_cell_length_b 8.841394
_cell_length_c 14.967072
_cell_angle_alpha 90.000000
_cell_angle_beta 49.137674
_cell_angle_gamma 90.000000
_cell_volume 1957.791734
_symmetry_space_group_name_H-M "C 2/M"
_symmetry_group_IT_number 12
_symmetry_cell_setting 'monoclinic'
loop_
_space_group_symop_operation_xyz
x,y,z
-x,y,-z
-x,-y,-z
x,-y,z
1/2+x,1/2+y,z
1/2-x,1/2+y,-z
1/2-x,1/2-y,-z
1/2+x,1/2-y,z
loop_
_atom_site_type_symbol
_atom_site_label
_atom_site_fract_x
_atom_site_fract_y
_atom_site_fract_z
Si Si1 0.822330 0.173357 0.875577
Si Si2 0.273859 0.821219 0.738791
Si Si3 0.025436 0.827998 0.742546
Si Si4 0.584879 0.177368 0.867510
Si Si5 0.420133 0.321631 0.502627
O O1 0.828582 0.259704 0.776858
O O2 0.917887 0.185022 0.842935
O O3 0.795410 0.000000 0.880476
O O4 0.750000 0.250000 0.000000
O O5 0.171864 0.762651 0.830521
O O6 0.326437 0.761477 0.606587
O O7 0.272760 0.000000 0.740536
O O8 0.070132 0.719337 0.776908
O O9 0.056700 0.775056 0.618048
O O10 0.056755 0.000000 0.734034
O O11 0.601558 0.000000 0.861410
O O12 0.500000 0.229614 0.000000
O O13 0.500000 0.266043 0.500000
O O14 0.406273 0.500000 0.524908
#
# Coordination Sequence:
#
# PCOD8105141 Si02
#       5
#     8   8   8   8   8
#     4  11  22  39  62  92 126 164 210 260 315 374
#     4  12  25  40  63  94 127 167 211 259 313 375
#     4  10  22  40  65  92 123 164 207 256 317 375
#     4  11  25  44  65  90 125 168 212 262 316 374
#     4  10  20  41  67  92 126 167 207 259 318 372
#
# _framework density 20.431182
#
# number of rings (size 3 to 8) (size 9 to 14) (size 15 to 20)
#    0.000    1.200    2.000    4.200    0.000    8.400 
#    0.000    0.000    0.000    0.000    0.000    0.000 
#    0.000    0.000    0.000    0.000    0.000    0.000 
#
# Total GULP energy -248131.886452 kJ/mol
# GULP energy per Si atom -12406.594323 kJ/mol
# Density = 2.038468 g / cm^3
# Si number density = 20.431182 Si / 1000 Ang^3
#
#
#
# Elastic Constant Matrix: (Units=GPa)
#
#
# Indices 1 2 3 4 5 6 
#
# 1 67.8748 22.8903 7.9683 0.0000 6.1799 0.0000
# 2 22.8903 94.4118 40.0691 0.0004 -3.3752 -0.0003
# 3 7.9683 40.0691 105.4363 0.0000 0.2605 0.0000
# 4 0.0000 0.0004 0.0000 32.9061 -0.0001 0.9031
# 5 6.1799 -3.3752 0.2605 -0.0001 34.9458 0.0000
# 6 0.0000 -0.0003 0.0000 0.9031 0.0000 36.9348
#
#
#
# Elastic Compliance Matrix: (Units=1/GPa)
#
#
# Indices 1 2 3 4 5 6 
#
# 1 0.016429 -0.004267 0.000388 0.000000 -0.003320 0.000000
# 2 -0.004267 0.013792 -0.004924 0.000000 0.002123 0.000000
# 3 0.000388 -0.004924 0.011328 0.000000 -0.000629 0.000000
# 4 0.000000 0.000000 0.000000 0.030410 0.000000 -0.000744
# 5 -0.003320 0.002123 -0.000629 0.000000 0.029413 0.000000
# 6 0.000000 0.000000 0.000000 -0.000744 0.000000 0.027093
#
#
# Mechanical properties :
#
#
# Convention : Reuss Voigt Hill
#
# Bulk Modulus (GPa) = 41.76541 45.50869 43.63705
# Shear Modulus (GPa) = 32.45682 34.07702 33.26692
#
# Velocity S-wave (km/s) = 3.99004 4.08841 4.03953
# Velocity P-wave (km/s) = 6.45861 6.67902 6.56974
#
# Compressibility (1/GPa) = 0.02394326
#
# Stress axis : x y z
#
# Youngs Moduli (GPa) = 60.86935 72.50518 88.27691
#
# Poissons Ratio (x) = 0.30935 -0.03426
# Poissons Ratio (y) = 0.25970 0.43470
# Poissons Ratio (z) = -0.02362 0.35703
#
# Static dielectric constant tensor:
#      x y z
#    x 3.648270 0.000000 0.025720 
#    y 0.000000 3.663280 0.000000 
#    z 0.025720 0.000000 3.839690 
# 
# 
# High freq. dielectric constant tensor:
#      x y z
#    x 1.797000 0.000000 0.001310 
#    y 0.000000 1.797780 0.000000 
#    z 0.001310 0.000000 1.814690 
# 
# From -- ./inp_files/229634.got.cif
#   From: 2010.06.25/outbox.cif.g09.slc.cpg/sg12_115_cif.got.tgz:229634.got - 2010.06.28 00:19:55.
