data_PCOD8105575
_publ_section_title
;
Structure prediction by ZEFSAII (Michael W. Deem and Ramdas Pophale) SiO2 
 PCOD8105575
Probable space group: C 2/M
;
_chemical_formula_sum "Si O2"
_cell_formula_units_Z 56
_cell_length_a 15.636209
_cell_length_b 9.004058
_cell_length_c 24.983148
_cell_angle_alpha 90.000000
_cell_angle_beta 52.424640
_cell_angle_gamma 90.000000
_cell_volume 2787.691155
_symmetry_space_group_name_H-M "C 2/M"
_symmetry_group_IT_number 12
_symmetry_cell_setting 'monoclinic'
loop_
_space_group_symop_operation_xyz
x,y,z
-x,y,-z
-x,-y,-z
x,-y,z
1/2+x,1/2+y,z
1/2-x,1/2+y,-z
1/2-x,1/2-y,-z
1/2+x,1/2-y,z
loop_
_atom_site_type_symbol
_atom_site_label
_atom_site_fract_x
_atom_site_fract_y
_atom_site_fract_z
Si Si1 0.175824 0.324638 0.071991
Si Si2 0.569961 0.175122 0.840369
Si Si3 0.603733 0.338353 0.299290
Si Si4 0.259568 0.824579 0.833350
Si Si5 0.419271 0.169493 0.425380
Si Si6 0.706886 0.839228 0.693620
Si Si7 0.742417 0.170463 0.426626
O O1 0.181307 0.500000 0.063693
O O2 0.222292 0.277491 0.112179
O O3 0.053333 0.269693 0.107704
O O4 0.250000 0.250000 0.000000
O O5 0.647183 0.257763 0.853780
O O6 0.599527 0.211576 0.766493
O O7 0.580724 0.000000 0.847315
O O8 0.560021 0.500000 0.296330
O O9 0.632521 0.233637 0.238348
O O10 0.520849 0.269156 0.373222
O O11 0.712429 0.364355 0.289023
O O12 0.254593 0.000000 0.827553
O O13 0.377706 0.192071 0.502592
O O14 0.322310 0.214788 0.423776
O O15 0.450992 0.000000 0.402708
O O16 0.753926 0.712297 0.637040
O O17 0.690120 0.000000 0.670674
O O18 0.779453 0.000000 0.420412
#
# Coordination Sequence:
#
# PCOD8105575 Si02
#       7
#     8   8   8   8   8   8   8
#     4  10  23  41  62  90 122 157 197 236 288 352
#     4   9  20  40  61  85 120 160 197 238 293 354
#     4  10  21  37  57  83 111 145 190 235 284 346
#     4  10  21  38  61  90 121 155 196 245 295 345
#     4  10  21  36  53  75 109 149 187 236 290 339
#     4   9  19  35  56  79 108 146 186 231 287 343
#     4  10  21  35  52  78 109 144 191 238 285 341
#
# _framework density 20.088308999999999
#
# number of rings (size 3 to 8) (size 9 to 14) (size 15 to 20)
#    0.000    2.286    0.000    2.571    2.000    7.429 
#    0.000    5.714    0.000    0.000    0.000    0.000 
#    0.000    0.000    0.000    0.000    0.000    0.000 
#
# Total GULP energy -346990.611420 kJ/mol
# GULP energy per Si atom -12392.521836 kJ/mol
# Density = 2.004259 g / cm^3
# Si number density = 20.088309 Si / 1000 Ang^3
#
#
#
# Elastic Constant Matrix: (Units=GPa)
#
#
# Indices 1 2 3 4 5 6 
#
# 1 74.7108 34.1365 53.6690 0.0000 -8.4852 0.0000
# 2 34.1365 93.1457 61.5652 0.0000 -6.1751 0.0002
# 3 53.6690 61.5652 160.3438 0.0000 -12.2737 0.0000
# 4 0.0000 0.0000 0.0000 37.1216 0.0000 1.4494
# 5 -8.4852 -6.1751 -12.2737 0.0000 31.9153 0.0000
# 6 0.0000 0.0002 0.0000 1.4494 0.0000 26.7209
#
#
#
# Elastic Compliance Matrix: (Units=1/GPa)
#
#
# Indices 1 2 3 4 5 6 
#
# 1 0.018666 -0.003582 -0.004684 0.000000 0.002469 0.000000
# 2 -0.003582 0.015088 -0.004579 0.000000 0.000206 0.000000
# 3 -0.004684 -0.004579 0.009684 0.000000 0.001593 0.000000
# 4 0.000000 0.000000 0.000000 0.026996 0.000000 -0.001464
# 5 0.002469 0.000206 0.001593 0.000000 0.032642 0.000000
# 6 0.000000 0.000000 0.000000 -0.001464 0.000000 0.037503
#
#
# Mechanical properties :
#
#
# Convention : Reuss Voigt Hill
#
# Bulk Modulus (GPa) = 56.33464 69.66018 62.99741
# Shear Modulus (GPa) = 29.03851 31.07353 30.05602
#
# Velocity S-wave (km/s) = 3.80615 3.93726 3.87226
# Velocity P-wave (km/s) = 6.88623 7.44457 7.17084
#
# Compressibility (1/GPa) = 0.01775107
#
# Stress axis : x y z
#
# Youngs Moduli (GPa) = 53.57222 66.27570 103.25989
#
# Poissons Ratio (x) = 0.23737 0.48364
# Poissons Ratio (y) = 0.19187 0.47280
# Poissons Ratio (z) = 0.25092 0.30346
#
# Static dielectric constant tensor:
#      x y z
#    x 3.488440 0.000000 -0.153090 
#    y 0.000000 3.802390 0.000000 
#    z -0.153090 0.000000 3.953080 
# 
# 
# High freq. dielectric constant tensor:
#      x y z
#    x 1.768300 0.000000 -0.008010 
#    y 0.000000 1.787970 0.000000 
#    z -0.008010 0.000000 1.790850 
# 
# From -- ./inp_files/338519.got.cif
#   From: 2010.06.25/outbox.cif.g09.slc.cpg/sg12_170_cif.got.tgz:338519.got - 2010.06.28 00:19:55.
