data_PCOD8105750
_publ_section_title
;
Structure prediction by ZEFSAII (Michael W. Deem and Ramdas Pophale) SiO2 
 PCOD8105750
Probable space group: C 2/M
;
_chemical_formula_sum "Si O2"
_cell_formula_units_Z 48
_cell_length_a 11.162170
_cell_length_b 23.208058
_cell_length_c 9.103062
_cell_angle_alpha 90.000000
_cell_angle_beta 77.038703
_cell_angle_gamma 90.000000
_cell_volume 2298.087133
_symmetry_space_group_name_H-M "C 2/M"
_symmetry_group_IT_number 12
_symmetry_cell_setting 'monoclinic'
loop_
_space_group_symop_operation_xyz
x,y,z
-x,y,-z
-x,-y,-z
x,-y,z
1/2+x,1/2+y,z
1/2-x,1/2+y,-z
1/2-x,1/2-y,-z
1/2+x,1/2-y,z
loop_
_atom_site_type_symbol
_atom_site_label
_atom_site_fract_x
_atom_site_fract_y
_atom_site_fract_z
Si Si1 0.738661 0.890502 0.291230
Si Si2 0.215644 0.617286 0.640673
Si Si3 0.856796 0.500000 0.196637
Si Si4 0.981353 0.306755 0.672736
Si Si5 0.814768 0.210271 0.798638
Si Si6 0.858594 0.500000 0.847258
Si Si7 0.132424 0.802821 0.902891
O O1 0.742767 0.898672 0.464898
O O2 0.635829 0.846024 0.271327
O O3 0.865334 0.861510 0.195998
O O4 0.709868 0.948154 0.213230
O O5 0.209491 0.557013 0.726656
O O6 0.322818 0.657166 0.680985
O O7 0.094372 0.655902 0.702374
O O8 0.995497 0.500000 0.222254
O O9 0.841686 0.500000 0.026141
O O10 0.946272 0.245514 0.759214
O O11 0.000000 0.290553 0.500000
O O12 0.696822 0.251172 0.791532
O O13 0.788695 0.186368 0.969164
O O14 0.000000 0.786627 0.000000
#
# Coordination Sequence:
#
# PCOD8105750 Si02
#       7
#     8   8   4   8   8   4   8
#     4  10  21  36  58  82 119 154 195 240 295 354
#     4  11  21  37  59  90 122 156 198 240 297 352
#     4  11  23  35  63  90 119 156 188 249 293 356
#     4   9  19  33  54  84 117 156 189 239 293 348
#     4  10  21  35  56  85 117 156 200 246 287 353
#     4  11  21  39  58  92 119 152 196 237 304 354
#     4  10  21  38  55  81 116 161 197 244 298 342
#
# _framework density 20.886938000000001
#
# number of rings (size 3 to 8) (size 9 to 14) (size 15 to 20)
#    0.000    1.833    1.667    2.500    0.000    8.000 
#    3.000    0.417    0.000    0.000    0.000    4.083 
#    0.000    0.000    0.000    0.000    0.000    0.000 
#
# Total GULP energy -297372.022782 kJ/mol
# GULP energy per Si atom -12390.500949 kJ/mol
# Density = 2.083940 g / cm^3
# Si number density = 20.886938 Si / 1000 Ang^3
#
#
#
# Elastic Constant Matrix: (Units=GPa)
#
#
# Indices 1 2 3 4 5 6 
#
# 1 34.8380 28.7735 17.8123 0.0000 -6.2710 0.0000
# 2 28.7735 149.0137 72.3712 0.0000 6.2640 0.0000
# 3 17.8123 72.3712 106.4571 0.0000 9.8892 0.0000
# 4 0.0000 0.0000 0.0000 42.4238 0.0000 0.7628
# 5 -6.2710 6.2640 9.8892 0.0000 27.3459 0.0000
# 6 0.0000 0.0000 0.0000 0.7628 0.0000 14.8107
#
#
#
# Elastic Compliance Matrix: (Units=1/GPa)
#
#
# Indices 1 2 3 4 5 6 
#
# 1 0.037391 -0.006192 -0.003079 0.000000 0.011106 0.000000
# 2 -0.006192 0.011045 -0.006318 0.000000 -0.001665 0.000000
# 3 -0.003079 -0.006318 0.014626 0.000000 -0.004548 0.000000
# 4 0.000000 0.000000 0.000000 0.023594 0.000000 -0.001215
# 5 0.011106 -0.001665 -0.004548 0.000000 0.041142 0.000000
# 6 0.000000 0.000000 0.000000 -0.001215 0.000000 0.067581
#
#
# Mechanical properties :
#
#
# Convention : Reuss Voigt Hill
#
# Bulk Modulus (GPa) = 31.36193 58.69142 45.02668
# Shear Modulus (GPa) = 21.08076 28.33954 24.71015
#
# Velocity S-wave (km/s) = 3.18036 3.68748 3.44327
# Velocity P-wave (km/s) = 5.34172 6.80372 6.11656
#
# Compressibility (1/GPa) = 0.03188579
#
# Stress axis : x y z
#
# Youngs Moduli (GPa) = 26.74408 90.54165 68.37167
#
# Poissons Ratio (x) = 0.56060 0.21051
# Poissons Ratio (y) = 0.16559 0.43195
# Poissons Ratio (z) = 0.08234 0.57201
#
# Static dielectric constant tensor:
#      x y z
#    x 3.553980 0.000000 0.058350 
#    y 0.000000 3.855780 0.000000 
#    z 0.058350 0.000000 3.840910 
# 
# 
# High freq. dielectric constant tensor:
#      x y z
#    x 1.790430 0.000000 0.007190 
#    y 0.000000 1.815520 0.000000 
#    z 0.007190 0.000000 1.832210 
# 
# From -- ./inp_files/51377.got.cif
#   From: 2010.06.25/outbox.cif.g09.slc.cpg/sg12_26_cif.got.tgz:51377.got - 2010.06.28 00:19:55.
