data_PCOD8105957
_publ_section_title
;
Structure prediction by ZEFSAII (Michael W. Deem and Ramdas Pophale) SiO2 
 PCOD8105957
Probable space group: C 2/M
;
_chemical_formula_sum "Si O2"
_cell_formula_units_Z 64
_cell_length_a 26.193708
_cell_length_b 27.264703
_cell_length_c 10.180220
_cell_angle_alpha 90.000000
_cell_angle_beta 151.868825
_cell_angle_gamma 90.000000
_cell_volume 3427.907105
_symmetry_space_group_name_H-M "C 2/M"
_symmetry_group_IT_number 12
_symmetry_cell_setting 'monoclinic'
loop_
_space_group_symop_operation_xyz
x,y,z
-x,y,-z
-x,-y,-z
x,-y,z
1/2+x,1/2+y,z
1/2-x,1/2+y,-z
1/2-x,1/2-y,-z
1/2+x,1/2-y,z
loop_
_atom_site_type_symbol
_atom_site_label
_atom_site_fract_x
_atom_site_fract_y
_atom_site_fract_z
Si Si1 0.796197 0.359354 0.859324
Si Si2 0.821099 0.790567 0.591835
Si Si3 0.582847 0.443351 0.001697
Si Si4 0.158920 0.055874 0.459962
Si Si5 0.743179 0.191810 0.958135
Si Si6 0.492939 0.190211 0.632777
Si Si7 0.927704 0.137586 0.222485
Si Si8 0.501854 0.285020 0.804076
O O1 0.754412 0.333923 0.630680
O O2 0.753751 0.414698 0.749995
O O3 0.749098 0.334949 0.884113
O O4 0.927815 0.356473 0.162170
O O5 0.750000 0.750000 0.500000
O O6 0.889497 0.771780 0.621346
O O7 0.907621 0.808670 0.895402
O O8 0.595611 0.500000 0.986028
O O9 0.457510 0.430729 0.744299
O O10 0.623034 0.406584 0.978704
O O11 0.654613 0.433787 0.294121
O O12 0.187986 0.000000 0.553394
O O13 0.632681 0.177818 0.628641
O O14 0.750000 0.250000 0.000000
O O15 0.834616 0.172815 0.067421
O O16 0.500000 0.209331 0.500000
O O17 0.540633 0.233806 0.830357
O O18 0.012352 0.172799 0.336739
O O19 0.000000 0.112834 0.500000
#
# Coordination Sequence:
#
# PCOD8105957 Si02
#       8
#     8   8   8   8   8   8   8   8
#     4  11  20  37  57  80 109 144 193 237 277 337
#     4  11  22  34  51  76 108 144 180 236 277 324
#     4   9  19  36  57  85 116 143 180 233 294 349
#     4   9  18  36  62  85 110 146 186 236 291 342
#     4  11  23  37  56  78 115 157 191 226 279 340
#     4  10  21  36  54  74 106 148 187 228 270 328
#     4  12  22  34  55  83 110 150 186 226 282 339
#     4  11  22  35  50  76 111 142 191 224 274 335
#
# _framework density 18.670283999999999
#
# number of rings (size 3 to 8) (size 9 to 14) (size 15 to 20)
#    0.000    1.500    1.250    7.125    1.750    2.250 
#    0.000    0.625    0.000    4.125    0.000    1.750 
#    0.000    0.000    0.000    0.000    0.000    0.000 
#
# Total GULP energy -396626.584078 kJ/mol
# GULP energy per Si atom -12394.580752 kJ/mol
# Density = 1.862779 g / cm^3
# Si number density = 18.670284 Si / 1000 Ang^3
#
#
#
# Elastic Constant Matrix: (Units=GPa)
#
#
# Indices 1 2 3 4 5 6 
#
# 1 87.7451 48.5938 37.5322 0.0000 0.7065 0.0000
# 2 48.5938 109.1691 47.0412 0.0000 -3.5114 0.0000
# 3 37.5322 47.0412 107.2640 0.0000 1.4010 0.0000
# 4 0.0000 0.0000 0.0000 33.9713 0.0000 -4.2868
# 5 0.7065 -3.5114 1.4010 0.0000 26.9879 0.0000
# 6 0.0000 0.0000 0.0000 -4.2868 0.0000 28.5743
#
#
#
# Elastic Compliance Matrix: (Units=1/GPa)
#
#
# Indices 1 2 3 4 5 6 
#
# 1 0.015913 -0.005823 -0.003001 0.000000 -0.001018 0.000000
# 2 -0.005823 0.013506 -0.003913 0.000000 0.002113 0.000000
# 3 -0.003001 -0.003913 0.012103 0.000000 -0.001059 0.000000
# 4 0.000000 0.000000 0.000000 0.030005 0.000000 0.004501
# 5 -0.001018 0.002113 -0.001059 0.000000 0.037410 0.000000
# 6 0.000000 0.000000 0.000000 0.004501 0.000000 0.035672
#
#
# Mechanical properties :
#
#
# Convention : Reuss Voigt Hill
#
# Bulk Modulus (GPa) = 62.31454 63.39028 62.85241
# Shear Modulus (GPa) = 28.50083 29.30743 28.90413
#
# Velocity S-wave (km/s) = 3.91133 3.96629 3.93890
# Velocity P-wave (km/s) = 7.33803 7.41630 7.37727
#
# Compressibility (1/GPa) = 0.01604762
#
# Stress axis : x y z
#
# Youngs Moduli (GPa) = 62.84017 74.03961 82.62435
#
# Poissons Ratio (x) = 0.43113 0.24797
# Poissons Ratio (y) = 0.36592 0.32334
# Poissons Ratio (z) = 0.18859 0.28974
#
# Static dielectric constant tensor:
#      x y z
#    x 3.511480 0.000000 -0.107370 
#    y 0.000000 3.242490 0.000000 
#    z -0.107370 0.000000 3.730040 
# 
# 
# High freq. dielectric constant tensor:
#      x y z
#    x 1.721120 0.000000 -0.014080 
#    y 0.000000 1.698030 0.000000 
#    z -0.014080 0.000000 1.729820 
# 
# From -- ./inp_files/100224.got.cif
#   From: 2010.06.25/outbox.cif.g09.slc.cpg/sg12_51_cif.got.tgz:100224.got - 2010.06.28 00:19:55.
