data_PCOD8105104
_publ_section_title
;
Structure prediction by ZEFSAII (Michael W. Deem and Ramdas Pophale) SiO2 
 PCOD8105104
Probable space group: C 2/M
;
_chemical_formula_sum "Si O2"
_cell_formula_units_Z 56
_cell_length_a 16.652610
_cell_length_b 14.811984
_cell_length_c 11.454258
_cell_angle_alpha 90.000000
_cell_angle_beta 83.719081
_cell_angle_gamma 90.000000
_cell_volume 2808.327640
_symmetry_space_group_name_H-M "C 2/M"
_symmetry_group_IT_number 12
_symmetry_cell_setting 'monoclinic'
loop_
_space_group_symop_operation_xyz
x,y,z
-x,y,-z
-x,-y,-z
x,-y,z
1/2+x,1/2+y,z
1/2-x,1/2+y,-z
1/2-x,1/2-y,-z
1/2+x,1/2-y,z
loop_
_atom_site_type_symbol
_atom_site_label
_atom_site_fract_x
_atom_site_fract_y
_atom_site_fract_z
Si Si1 0.760447 0.394366 0.218562
Si Si2 0.377129 0.256298 0.799773
Si Si3 0.817893 0.681026 0.445715
Si Si4 0.872542 0.900552 0.223644
Si Si5 0.663723 0.756176 0.950321
Si Si6 0.026873 0.202588 0.625159
Si Si7 0.302423 0.098625 0.681742
O O1 0.756311 0.500000 0.187462
O O2 0.672762 0.349378 0.209434
O O3 0.782141 0.381769 0.350415
O O4 0.831073 0.346068 0.130332
O O5 0.453183 0.249550 0.702755
O O6 0.320428 0.172216 0.776744
O O7 0.401109 0.241002 0.932420
O O8 0.750000 0.750000 0.500000
O O9 0.898366 0.729305 0.388636
O O10 0.843140 0.618955 0.550676
O O11 0.862695 0.829578 0.121176
O O12 0.947819 0.881644 0.298022
O O13 0.794110 0.899332 0.318899
O O14 0.885368 0.000000 0.165961
O O15 0.750000 0.750000 0.000000
O O16 0.000000 0.171308 0.500000
O O17 0.332290 0.000000 0.719506
#
# Coordination Sequence:
#
# PCOD8105104 Si02
#       7
#     8   8   8   8   8   8   8
#     4  11  22  39  66  93 122 162 217 269 309 370
#     4  11  23  40  62  95 130 167 203 260 322 372
#     4  12  19  41  63  88 122 164 217 256 317 377
#     4  11  23  41  67  97 126 166 215 262 313 376
#     4  10  20  41  64  91 124 166 215 257 307 370
#     4  12  23  40  67  90 134 171 200 259 324 384
#     4  11  21  38  66  93 121 164 216 264 310 371
#
# _framework density 19.940691999999999
#
# number of rings (size 3 to 8) (size 9 to 14) (size 15 to 20)
#    0.000    0.857    8.571    0.429    0.000    4.286 
#    0.000    2.857    0.000    0.857    0.000    0.000 
#    0.000    0.000    0.000    0.000    0.000    0.000 
#
# Total GULP energy -347068.121209 kJ/mol
# GULP energy per Si atom -12395.290043 kJ/mol
# Density = 1.989531 g / cm^3
# Si number density = 19.940692 Si / 1000 Ang^3
#
#
#
# Elastic Constant Matrix: (Units=GPa)
#
#
# Indices 1 2 3 4 5 6 
#
# 1 70.0719 29.7892 27.4489 0.0000 -2.6512 0.0000
# 2 29.7892 150.1000 51.5392 0.0000 7.4882 0.0000
# 3 27.4489 51.5392 140.0505 0.0000 -2.9037 0.0000
# 4 0.0000 0.0000 0.0000 13.9133 0.0000 0.6127
# 5 -2.6512 7.4882 -2.9037 0.0000 31.4444 0.0000
# 6 0.0000 0.0000 0.0000 0.6127 0.0000 14.7579
#
#
#
# Elastic Compliance Matrix: (Units=1/GPa)
#
#
# Indices 1 2 3 4 5 6 
#
# 1 0.016295 -0.002563 -0.002214 0.000000 0.001780 0.000000
# 2 -0.002563 0.008167 -0.002553 0.000000 -0.002397 0.000000
# 3 -0.002214 -0.002553 0.008539 0.000000 0.001210 0.000000
# 4 0.000000 0.000000 0.000000 0.072006 0.000000 -0.002989
# 5 0.001780 -0.002397 0.001210 0.000000 0.032635 0.000000
# 6 0.000000 0.000000 0.000000 -0.002989 0.000000 0.067884
#
#
# Mechanical properties :
#
#
# Convention : Reuss Voigt Hill
#
# Bulk Modulus (GPa) = 54.51928 64.19745 59.35837
# Shear Modulus (GPa) = 22.09477 28.78613 25.44045
#
# Velocity S-wave (km/s) = 3.33231 3.80358 3.57572
# Velocity P-wave (km/s) = 6.49660 7.18009 6.84688
#
# Compressibility (1/GPa) = 0.01834213
#
# Stress axis : x y z
#
# Youngs Moduli (GPa) = 61.36855 122.44471 117.11348
#
# Poissons Ratio (x) = 0.31378 0.25926
# Poissons Ratio (y) = 0.15726 0.29898
# Poissons Ratio (z) = 0.13586 0.31259
#
# Static dielectric constant tensor:
#      x y z
#    x 3.515530 0.000000 -0.113240 
#    y 0.000000 3.713190 0.000000 
#    z -0.113240 0.000000 4.181090 
# 
# 
# High freq. dielectric constant tensor:
#      x y z
#    x 1.754230 0.000000 -0.002050 
#    y 0.000000 1.766880 0.000000 
#    z -0.002050 0.000000 1.797460 
# 
# From -- ./inp_files/143763.got.cif
#   From: 2010.06.25/outbox.cif.g09.slc.cpg/sg12_72_cif.got.tgz:143763.got - 2010.06.28 00:19:55.
