data_PCOD8105333
_publ_section_title
;
Structure prediction by ZEFSAII (Michael W. Deem and Ramdas Pophale) SiO2 
 PCOD8105333
Probable space group: C 2/M
;
_chemical_formula_sum "Si O2"
_cell_formula_units_Z 56
_cell_length_a 28.907999
_cell_length_b 9.198067
_cell_length_c 28.991059
_cell_angle_alpha 90.000000
_cell_angle_beta 26.445974
_cell_angle_gamma 90.000000
_cell_volume 3433.078990
_symmetry_space_group_name_H-M "C 2/M"
_symmetry_group_IT_number 12
_symmetry_cell_setting 'monoclinic'
loop_
_space_group_symop_operation_xyz
x,y,z
-x,y,-z
-x,-y,-z
x,-y,z
1/2+x,1/2+y,z
1/2-x,1/2+y,-z
1/2-x,1/2-y,-z
1/2+x,1/2-y,z
loop_
_atom_site_type_symbol
_atom_site_label
_atom_site_fract_x
_atom_site_fract_y
_atom_site_fract_z
Si Si1 0.826885 0.169687 0.370398
Si Si2 0.124253 0.661644 0.432061
Si Si3 0.303909 0.832081 0.731824
Si Si4 0.103100 0.667400 0.878749
Si Si5 0.878916 0.831471 0.423727
Si Si6 0.528066 0.330434 0.369513
Si Si7 0.134928 0.835542 0.762561
O O1 0.892795 0.211712 0.357331
O O2 0.716135 0.247099 0.468823
O O3 0.892281 0.211694 0.265947
O O4 0.801347 0.000000 0.391719
O O5 0.081247 0.500000 0.482491
O O6 0.121570 0.685521 0.379282
O O7 0.241796 0.676109 0.343460
O O8 0.056623 0.783652 0.517065
O O9 0.193883 0.755418 0.822773
O O10 0.364461 0.757109 0.720216
O O11 0.281786 0.000000 0.762763
O O12 0.136504 0.500000 0.844922
O O13 0.080439 0.728791 0.847644
O O14 0.000000 0.687637 0.000000
O O15 0.984266 0.794735 0.357420
O O16 0.851350 0.000000 0.453377
O O17 0.550786 0.500000 0.355767
O O18 0.097626 0.000000 0.806320
#
# Coordination Sequence:
#
# PCOD8105333 Si02
#       7
#     8   8   8   8   8   8   8
#     4   9  16  29  45  63  91 127 164 195 226 265
#     4   9  17  29  42  61  89 123 160 192 222 264
#     4  10  21  34  48  65  88 122 158 190 226 274
#     4  10  21  36  53  73  95 116 142 186 241 288
#     4   9  18  28  41  64  94 128 163 196 228 263
#     4  11  20  28  41  65  95 127 159 192 229 266
#     4   9  17  29  48  70  93 125 159 192 228 271
#
# _framework density 16.311888
#
# number of rings (size 3 to 8) (size 9 to 14) (size 15 to 20)
#    0.000    2.429    1.429    2.571    0.000    6.857 
#    0.000    0.000    0.000    0.000    0.000    1.000 
#    0.000    0.000    0.000    0.000    0.000    0.000 
#
# Total GULP energy -347116.369384 kJ/mol
# GULP energy per Si atom -12397.013192 kJ/mol
# Density = 1.627476 g / cm^3
# Si number density = 16.311888 Si / 1000 Ang^3
#
#
#
# Elastic Constant Matrix: (Units=GPa)
#
#
# Indices 1 2 3 4 5 6 
#
# 1 114.9367 57.2090 39.2406 -0.0078 10.0998 0.0013
# 2 57.2090 96.4343 42.6349 0.0092 4.1571 0.0001
# 3 39.2406 42.6349 52.6217 0.0147 8.6040 -0.0071
# 4 -0.0078 0.0092 0.0147 21.0613 -0.0029 0.6746
# 5 10.0998 4.1571 8.6040 -0.0029 14.6137 0.0007
# 6 0.0013 0.0001 -0.0071 0.6746 0.0007 24.0487
#
#
#
# Elastic Compliance Matrix: (Units=1/GPa)
#
#
# Indices 1 2 3 4 5 6 
#
# 1 0.013615 -0.005820 -0.004614 0.000010 -0.005038 -0.000002
# 2 -0.005820 0.018804 -0.011815 -0.000001 0.005630 -0.000003
# 3 -0.004614 -0.011815 0.034243 -0.000023 -0.013611 0.000011
# 4 0.000010 -0.000001 -0.000023 0.047523 0.000016 -0.001333
# 5 -0.005038 0.005630 -0.013611 0.000016 0.078323 -0.000006
# 6 -0.000002 -0.000003 0.000011 -0.001333 -0.000006 0.041620
#
#
# Mechanical properties :
#
#
# Convention : Reuss Voigt Hill
#
# Bulk Modulus (GPa) = 45.12043 60.24019 52.68031
# Shear Modulus (GPa) = 17.48172 20.27195 18.87683
#
# Velocity S-wave (km/s) = 3.27726 3.52912 3.40552
# Velocity P-wave (km/s) = 6.48396 7.32234 6.91586
#
# Compressibility (1/GPa) = 0.02216291
#
# Stress axis : x y z
#
# Youngs Moduli (GPa) = 73.44700 53.18144 29.20347
#
# Poissons Ratio (x) = 0.30953 0.13474
# Poissons Ratio (y) = 0.42748 0.34505
# Poissons Ratio (z) = 0.33887 0.62835
#
# Static dielectric constant tensor:
#      x y z
#    x 3.510830 -0.000030 0.161580 
#    y -0.000030 3.189810 0.000030 
#    z 0.161580 0.000030 2.671460 
# 
# 
# High freq. dielectric constant tensor:
#      x y z
#    x 1.636550 0.000000 0.005110 
#    y 0.000000 1.636630 0.000000 
#    z 0.005110 0.000000 1.574690 
# 
# From -- ./inp_files/384407.got.cif
#   From: 2010.06.25/outbox.cif.g09.slc.cpg/sg12_193_cif.got.tgz:384407.got - 2010.06.28 00:19:55.
