data_PCOD8105877
_publ_section_title
;
Structure prediction by ZEFSAII (Michael W. Deem and Ramdas Pophale) SiO2 
 PCOD8105877
Probable space group: C 2/M
;
_chemical_formula_sum "Si O2"
_cell_formula_units_Z 48
_cell_length_a 9.610523
_cell_length_b 28.894318
_cell_length_c 14.973147
_cell_angle_alpha 90.000000
_cell_angle_beta 146.561643
_cell_angle_gamma 90.000000
_cell_volume 2291.159367
_symmetry_space_group_name_H-M "C 2/M"
_symmetry_group_IT_number 12
_symmetry_cell_setting 'monoclinic'
loop_
_space_group_symop_operation_xyz
x,y,z
-x,y,-z
-x,-y,-z
x,-y,z
1/2+x,1/2+y,z
1/2-x,1/2+y,-z
1/2-x,1/2-y,-z
1/2+x,1/2-y,z
loop_
_atom_site_type_symbol
_atom_site_label
_atom_site_fract_x
_atom_site_fract_y
_atom_site_fract_z
Si Si1 0.235249 0.386665 0.184985
Si Si2 0.277091 0.232586 0.613476
Si Si3 0.159835 0.398057 0.695409
Si Si4 0.009458 0.823554 0.198636
Si Si5 0.413494 0.147632 0.167746
Si Si6 0.835472 0.946671 0.633183
O O1 0.386044 0.342978 0.224015
O O2 0.407287 0.432644 0.278250
O O3 0.139309 0.374815 0.231786
O O4 0.000000 0.400770 0.000000
O O5 0.250000 0.250000 0.500000
O O6 0.420228 0.270024 0.752580
O O7 0.456925 0.188120 0.706305
O O8 0.000000 0.219860 0.500000
O O9 0.229990 0.349517 0.685201
O O10 0.193063 0.391300 0.820105
O O11 0.346638 0.435919 0.747033
O O12 0.876758 0.413729 0.522991
O O13 0.812563 0.831725 0.012326
O O14 0.773725 0.000000 0.582658
#
# Coordination Sequence:
#
# PCOD8105877 Si02
#       6
#     8   8   8   8   8   8
#     4   9  21  39  63  87 122 166 207 243 312 375
#     4  12  26  36  59  93 129 165 215 256 300 350
#     4  10  21  35  66  87 118 155 215 248 311 366
#     4  10  22  42  60  85 127 176 207 248 302 365
#     4  11  23  40  61  90 127 167 209 257 303 359
#     4  10  22  41  65  91 125 158 197 259 332 386
#
# _framework density 20.950091
#
# number of rings (size 3 to 8) (size 9 to 14) (size 15 to 20)
#    0.000    1.667    0.000    4.000   14.000    0.333 
#    0.000    7.500    0.000   26.000    0.000    0.000 
#    0.000    0.000    0.000    0.000    0.000    0.000 
#
# Total GULP energy -297446.727314 kJ/mol
# GULP energy per Si atom -12393.613638 kJ/mol
# Density = 2.090241 g / cm^3
# Si number density = 20.950091 Si / 1000 Ang^3
#
#
#
# Elastic Constant Matrix: (Units=GPa)
#
#
# Indices 1 2 3 4 5 6 
#
# 1 106.5727 41.2508 42.3852 0.0000 -7.4853 0.0000
# 2 41.2508 90.4859 54.8399 0.0000 3.8696 0.0000
# 3 42.3852 54.8399 87.2317 0.0000 2.7879 0.0000
# 4 0.0000 0.0000 0.0000 18.7536 0.0000 1.1966
# 5 -7.4853 3.8696 2.7879 0.0000 39.7066 0.0000
# 6 0.0000 0.0000 0.0000 1.1966 0.0000 22.8737
#
#
#
# Elastic Compliance Matrix: (Units=1/GPa)
#
#
# Indices 1 2 3 4 5 6 
#
# 1 0.012510 -0.003374 -0.004052 0.000000 0.002972 0.000000
# 2 -0.003374 0.018800 -0.010123 0.000000 -0.001757 0.000000
# 3 -0.004052 -0.010123 0.019834 0.000000 -0.001170 0.000000
# 4 0.000000 0.000000 0.000000 0.053502 0.000000 -0.002799
# 5 0.002972 -0.001757 -0.001170 0.000000 0.025998 0.000000
# 6 0.000000 0.000000 0.000000 -0.002799 0.000000 0.043865
#
#
# Mechanical properties :
#
#
# Convention : Reuss Voigt Hill
#
# Bulk Modulus (GPa) = 62.32582 62.36024 62.34303
# Shear Modulus (GPa) = 23.26053 25.98774 24.62413
#
# Velocity S-wave (km/s) = 3.33571 3.52584 3.43209
# Velocity P-wave (km/s) = 6.68208 6.81220 6.74745
#
# Compressibility (1/GPa) = 0.01604472
#
# Stress axis : x y z
#
# Youngs Moduli (GPa) = 79.93895 53.19078 50.41775
#
# Poissons Ratio (x) = 0.17947 0.20429
# Poissons Ratio (y) = 0.26973 0.51040
# Poissons Ratio (z) = 0.32391 0.53848
#
# Static dielectric constant tensor:
#      x y z
#    x 3.937890 0.000000 0.095570 
#    y 0.000000 3.638320 0.000000 
#    z 0.095570 0.000000 3.712750 
# 
# 
# High freq. dielectric constant tensor:
#      x y z
#    x 1.836730 0.000000 0.013030 
#    y 0.000000 1.795510 0.000000 
#    z 0.013030 0.000000 1.816770 
# 
# From -- ./inp_files/200221.got.cif
#   From: 2010.06.25/outbox.cif.g09.slc.cpg/sg12_101_cif.got.tgz:200221.got - 2010.06.28 00:19:55.
