data_PCOD8105988
_publ_section_title
;
Structure prediction by ZEFSAII (Michael W. Deem and Ramdas Pophale) SiO2 
 PCOD8105988
Probable space group: C 2/M
;
_chemical_formula_sum "Si O2"
_cell_formula_units_Z 44
_cell_length_a 5.137410
_cell_length_b 17.663729
_cell_length_c 28.551842
_cell_angle_alpha 90.000000
_cell_angle_beta 63.516376
_cell_angle_gamma 90.000000
_cell_volume 2319.069695
_symmetry_space_group_name_H-M "C 2/M"
_symmetry_group_IT_number 12
_symmetry_cell_setting 'monoclinic'
loop_
_space_group_symop_operation_xyz
x,y,z
-x,y,-z
-x,-y,-z
x,-y,z
1/2+x,1/2+y,z
1/2-x,1/2+y,-z
1/2-x,1/2-y,-z
1/2+x,1/2-y,z
loop_
_atom_site_type_symbol
_atom_site_label
_atom_site_fract_x
_atom_site_fract_y
_atom_site_fract_z
Si Si1 0.377546 0.799305 0.255768
Si Si2 0.000000 0.696821 0.000000
Si Si3 0.668408 0.588656 0.532865
Si Si4 0.373647 0.913045 0.835565
Si Si5 0.703117 0.911783 0.901869
Si Si6 0.401476 0.701335 0.624669
O O1 0.662976 0.751225 0.242616
O O2 0.461433 0.872295 0.219591
O O3 0.225635 0.827265 0.315712
O O4 0.868623 0.641924 0.049422
O O5 0.750000 0.750000 0.000000
O O6 0.500000 0.614190 0.500000
O O7 0.638411 0.500000 0.544652
O O8 0.533608 0.628833 0.588673
O O9 0.000000 0.613863 0.500000
O O10 0.493097 0.886962 0.876433
O O11 0.032605 0.896551 0.860008
O O12 0.449011 0.000000 0.822058
O O13 0.657219 0.000000 0.919588
O O14 0.648457 0.764121 0.612868
#
# Coordination Sequence:
#
# PCOD8105988 Si02
#       6
#     8   4   8   8   8   8
#     4  10  21  36  55  80 111 142 174 220 271 314
#     4  12  25  38  57  86 112 140 182 224 265 316
#     4  10  21  36  54  78 107 139 177 222 270 315
#     4  10  21  37  59  83 106 141 185 219 260 320
#     4  10  22  40  58  79 111 146 178 218 267 318
#     4  10  21  36  54  79 108 141 180 217 263 321
#
# _framework density 18.973126000000001
#
# number of rings (size 3 to 8) (size 9 to 14) (size 15 to 20)
#    0.000    1.818    0.000    3.545    0.000    7.273 
#    0.000    3.636    0.000   13.091    0.000    0.000 
#    0.000    0.000    0.000    0.000    0.000    0.000 
#
# Total GULP energy -272896.238142 kJ/mol
# GULP energy per Si atom -12404.374461 kJ/mol
# Density = 1.892994 g / cm^3
# Si number density = 18.973126 Si / 1000 Ang^3
#
#
#
# Elastic Constant Matrix: (Units=GPa)
#
#
# Indices 1 2 3 4 5 6 
#
# 1 115.7889 29.3875 25.7481 0.0000 2.4894 0.0000
# 2 29.3875 79.8718 75.1644 0.0000 -1.3644 0.0000
# 3 25.7481 75.1644 114.9911 0.0000 -1.6942 0.0000
# 4 0.0000 0.0000 0.0000 44.2929 0.0000 0.8140
# 5 2.4894 -1.3644 -1.6942 0.0000 25.9019 0.0000
# 6 0.0000 0.0000 0.0000 0.8140 0.0000 9.8095
#
#
#
# Elastic Compliance Matrix: (Units=1/GPa)
#
#
# Indices 1 2 3 4 5 6 
#
# 1 0.009565 -0.003916 0.000402 0.000000 -0.001099 0.000000
# 2 -0.003916 0.034137 -0.021425 0.000000 0.000773 0.000000
# 3 0.000402 -0.021425 0.022616 0.000000 0.000312 0.000000
# 4 0.000000 0.000000 0.000000 0.022611 0.000000 -0.001876
# 5 -0.001099 0.000773 0.000312 0.000000 0.038774 0.000000
# 6 0.000000 0.000000 0.000000 -0.001876 0.000000 0.102098
#
#
# Mechanical properties :
#
#
# Convention : Reuss Voigt Hill
#
# Bulk Modulus (GPa) = 60.83497 63.47241 62.15369
# Shear Modulus (GPa) = 17.53408 28.02431 22.77919
#
# Velocity S-wave (km/s) = 3.04329 3.84741 3.46873
# Velocity P-wave (km/s) = 6.66949 7.29817 6.99090
#
# Compressibility (1/GPa) = 0.01643791
#
# Stress axis : x y z
#
# Youngs Moduli (GPa) = 104.55228 29.29383 44.21703
#
# Poissons Ratio (x) = 0.11472 -0.01778
# Poissons Ratio (y) = 0.40945 0.94737
# Poissons Ratio (z) = -0.04203 0.62763
#
# Static dielectric constant tensor:
#      x y z
#    x 3.772150 0.000000 0.047210 
#    y 0.000000 3.372960 0.000000 
#    z 0.047210 0.000000 3.439220 
# 
# 
# High freq. dielectric constant tensor:
#      x y z
#    x 1.762270 0.000000 0.000540 
#    y 0.000000 1.732600 0.000000 
#    z 0.000540 0.000000 1.741960 
# 
# From -- ./inp_files/297610.got.cif
#   From: 2010.06.25/outbox.cif.g09.slc.cpg/sg12_149_cif.got.tgz:297610.got - 2010.06.28 00:19:55.
