data_PCOD8105314
_publ_section_title
;
Structure prediction by ZEFSAII (Michael W. Deem and Ramdas Pophale) SiO2 
 PCOD8105314
Probable space group: C 2/M
;
_chemical_formula_sum "Si O2"
_cell_formula_units_Z 56
_cell_length_a 18.258063
_cell_length_b 18.332544
_cell_length_c 14.040180
_cell_angle_alpha 90.000000
_cell_angle_beta 142.936629
_cell_angle_gamma 90.000000
_cell_volume 2832.369068
_symmetry_space_group_name_H-M "C 2/M"
_symmetry_group_IT_number 12
_symmetry_cell_setting 'monoclinic'
loop_
_space_group_symop_operation_xyz
x,y,z
-x,y,-z
-x,-y,-z
x,-y,z
1/2+x,1/2+y,z
1/2-x,1/2+y,-z
1/2-x,1/2-y,-z
1/2+x,1/2-y,z
loop_
_atom_site_type_symbol
_atom_site_label
_atom_site_fract_x
_atom_site_fract_y
_atom_site_fract_z
Si Si1 0.964885 0.581095 0.814855
Si Si2 0.698624 0.829399 0.065983
Si Si3 0.843506 0.579196 0.491466
Si Si4 0.762394 0.846142 0.341574
Si Si5 0.562475 0.224412 0.467387
Si Si6 0.091740 0.203817 0.850425
Si Si7 0.103166 0.082696 0.356657
O O1 0.949124 0.500000 0.843863
O O2 0.935477 0.577799 0.674188
O O3 0.878281 0.639547 0.778723
O O4 0.103330 0.605012 0.967805
O O5 0.776590 0.841154 0.242609
O O6 0.790885 0.835198 0.073514
O O7 0.630578 0.750228 0.984833
O O8 0.844596 0.500000 0.440813
O O9 0.893679 0.641080 0.473270
O O10 0.709794 0.596777 0.391773
O O11 0.815015 0.768877 0.432505
O O12 0.847014 0.906124 0.483039
O O13 0.500000 0.250938 0.500000
O O14 0.466966 0.237053 0.282993
O O15 0.001394 0.138518 0.782923
O O16 0.054194 0.000000 0.299506
#
# Coordination Sequence:
#
# PCOD8105314 Si02
#       7
#     8   8   8   8   8   8   8
#     4  10  21  36  55  82 115 147 181 221 278 343
#     4  11  21  36  52  81 117 151 180 223 275 335
#     4   9  19  36  58  82 107 140 185 233 278 325
#     4  10  21  33  57  83 111 139 185 233 274 326
#     4  11  20  36  59  81 107 142 190 237 272 321
#     4  10  22  36  56  79 115 151 189 224 275 333
#     4   9  20  38  59  83 111 146 189 231 277 335
#
# _framework density 19.771433999999999
#
# number of rings (size 3 to 8) (size 9 to 14) (size 15 to 20)
#    0.000    2.000    2.857    1.714    2.000    4.286 
#    0.000    0.714    0.000    0.857    0.000    2.000 
#    0.000    0.000    0.000    0.000    0.000    0.000 
#
# Total GULP energy -346980.859834 kJ/mol
# GULP energy per Si atom -12392.173565 kJ/mol
# Density = 1.972643 g / cm^3
# Si number density = 19.771434 Si / 1000 Ang^3
#
#
#
# Elastic Constant Matrix: (Units=GPa)
#
#
# Indices 1 2 3 4 5 6 
#
# 1 48.6033 37.7784 17.5660 0.0000 12.9260 0.0000
# 2 37.7784 118.3563 25.1377 0.0000 24.2918 0.0000
# 3 17.5660 25.1377 54.9283 0.0000 21.1961 0.0000
# 4 0.0000 0.0000 0.0000 22.2519 0.0000 5.7862
# 5 12.9260 24.2918 21.1961 0.0000 26.3301 0.0000
# 6 0.0000 0.0000 0.0000 5.7862 0.0000 23.7763
#
#
#
# Elastic Compliance Matrix: (Units=1/GPa)
#
#
# Indices 1 2 3 4 5 6 
#
# 1 0.029037 -0.007570 -0.004375 0.000000 -0.003749 0.000000
# 2 -0.007570 0.012486 -0.000409 0.000000 -0.007474 0.000000
# 3 -0.004375 -0.000409 0.027297 0.000000 -0.019449 0.000000
# 4 0.000000 0.000000 0.000000 0.047976 0.000000 -0.011675
# 5 -0.003749 -0.007474 -0.019449 0.000000 0.062372 0.000000
# 6 0.000000 0.000000 0.000000 -0.011675 0.000000 0.044900
#
#
# Mechanical properties :
#
#
# Convention : Reuss Voigt Hill
#
# Bulk Modulus (GPa) = 22.66948 42.53913 32.60430
# Shear Modulus (GPa) = 18.97678 23.89873 21.43775
#
# Velocity S-wave (km/s) = 3.10144 3.48048 3.29641
# Velocity P-wave (km/s) = 4.93111 6.14116 5.56910
#
# Compressibility (1/GPa) = 0.04411218
#
# Stress axis : x y z
#
# Youngs Moduli (GPa) = 34.43919 80.08884 36.63381
#
# Poissons Ratio (x) = 0.60624 0.16027
# Poissons Ratio (y) = 0.26069 0.01500
# Poissons Ratio (z) = 0.15067 0.03279
#
# Static dielectric constant tensor:
#      x y z
#    x 3.309930 0.000000 0.132390 
#    y 0.000000 3.821160 0.000000 
#    z 0.132390 0.000000 3.609750 
# 
# 
# High freq. dielectric constant tensor:
#      x y z
#    x 1.746090 0.000000 0.017510 
#    y 0.000000 1.770490 0.000000 
#    z 0.017510 0.000000 1.766920 
# 
# From -- ./inp_files/226562.got.cif
#   From: 2010.06.25/outbox.cif.g09.slc.cpg/sg12_114_cif.got.tgz:226562.got - 2010.06.28 00:19:55.
