data_PCOD8105967
_publ_section_title
;
Structure prediction by ZEFSAII (Michael W. Deem and Ramdas Pophale) SiO2 
 PCOD8105967
Probable space group: C 2/M
;
_chemical_formula_sum "Si O2"
_cell_formula_units_Z 64
_cell_length_a 28.478310
_cell_length_b 9.130820
_cell_length_c 13.930269
_cell_angle_alpha 90.000000
_cell_angle_beta 73.758383
_cell_angle_gamma 90.000000
_cell_volume 3477.729501
_symmetry_space_group_name_H-M "C 2/M"
_symmetry_group_IT_number 12
_symmetry_cell_setting 'monoclinic'
loop_
_space_group_symop_operation_xyz
x,y,z
-x,y,-z
-x,-y,-z
x,-y,z
1/2+x,1/2+y,z
1/2-x,1/2+y,-z
1/2-x,1/2-y,-z
1/2+x,1/2-y,z
loop_
_atom_site_type_symbol
_atom_site_label
_atom_site_fract_x
_atom_site_fract_y
_atom_site_fract_z
Si Si1 0.112523 0.170642 0.234201
Si Si2 0.009549 0.169784 0.385994
Si Si3 0.299908 0.668447 0.474941
Si Si4 0.401603 0.327876 0.126770
Si Si5 0.800770 0.168739 0.266395
Si Si6 0.801405 0.172502 0.681313
Si Si7 0.531763 0.830982 0.764990
Si Si8 0.927047 0.668651 0.918929
O O1 0.066048 0.199020 0.328808
O O2 0.160411 0.230544 0.261733
O O3 0.109366 0.261261 0.137900
O O4 0.116717 0.000000 0.205366
O O5 0.000000 0.220957 0.500000
O O6 0.974692 0.264829 0.337464
O O7 0.995608 0.000000 0.380044
O O8 0.287066 0.500000 0.489417
O O9 0.250000 0.750000 0.500000
O O10 0.325560 0.703607 0.357985
O O11 0.324939 0.713634 0.562323
O O12 0.413164 0.500000 0.117796
O O13 0.343248 0.297589 0.165428
O O14 0.426279 0.258706 0.206093
O O15 0.422693 0.253087 0.020660
O O16 0.752314 0.260698 0.270918
O O17 0.784735 0.000000 0.271259
O O18 0.795679 0.000000 0.696060
O O19 0.482360 0.812892 0.853506
O O20 0.547167 0.000000 0.747243
O O21 0.912735 0.500000 0.942169
#
# Coordination Sequence:
#
# PCOD8105967 Si02
#       8
#     8   8   8   8   8   8   8   8
#     4   9  18  33  53  77 103 134 174 213 249 298
#     4   9  18  33  54  80 110 142 173 207 249 298
#     4   8  14  27  46  68  96 128 160 196 239 286
#     4  11  22  35  54  78 102 131 168 212 261 308
#     4   9  19  33  49  73 104 133 165 208 252 298
#     4   9  17  30  51  75 100 134 171 206 245 293
#     4  10  21  36  54  77 105 136 170 208 253 306
#     4  10  21  37  55  75 100 131 168 211 258 307
#
# _framework density 18.402812000000001
#
# number of rings (size 3 to 8) (size 9 to 14) (size 15 to 20)
#    0.000    2.625    0.000    1.500    0.000    5.750 
#    0.000    4.375    0.000    4.500    0.000    0.000 
#    0.000    0.000    0.000    0.000    0.000    0.000 
#
# Total GULP energy -396571.392970 kJ/mol
# GULP energy per Si atom -12392.856030 kJ/mol
# Density = 1.836093 g / cm^3
# Si number density = 18.402812 Si / 1000 Ang^3
#
#
#
# Elastic Constant Matrix: (Units=GPa)
#
#
# Indices 1 2 3 4 5 6 
#
# 1 94.9447 43.4063 34.3207 0.0000 23.1026 0.0000
# 2 43.4063 80.1746 45.9029 0.0000 12.7019 0.0000
# 3 34.3207 45.9029 93.3690 0.0000 15.6721 0.0000
# 4 0.0000 0.0000 0.0000 26.3934 0.0000 2.7436
# 5 23.1026 12.7019 15.6721 0.0000 22.6142 0.0000
# 6 0.0000 0.0000 0.0000 2.7436 0.0000 26.6567
#
#
#
# Elastic Compliance Matrix: (Units=1/GPa)
#
#
# Indices 1 2 3 4 5 6 
#
# 1 0.017083 -0.006728 -0.000766 0.000000 -0.013142 0.000000
# 2 -0.006728 0.020394 -0.007677 0.000000 0.000739 0.000000
# 3 -0.000766 -0.007677 0.015742 0.000000 -0.005815 0.000000
# 4 0.000000 0.000000 0.000000 0.038298 0.000000 -0.003942
# 5 -0.013142 0.000739 -0.005815 0.000000 0.061261 0.000000
# 6 0.000000 0.000000 0.000000 -0.003942 0.000000 0.037920
#
#
# Mechanical properties :
#
#
# Convention : Reuss Voigt Hill
#
# Bulk Modulus (GPa) = 43.71225 57.30535 50.50880
# Shear Modulus (GPa) = 21.86603 24.79010 23.32807
#
# Velocity S-wave (km/s) = 3.45075 3.67424 3.56425
# Velocity P-wave (km/s) = 6.29933 7.01478 6.66666
#
# Compressibility (1/GPa) = 0.02287688
#
# Stress axis : x y z
#
# Youngs Moduli (GPa) = 58.53745 49.03473 63.52428
#
# Poissons Ratio (x) = 0.32992 0.04864
# Poissons Ratio (y) = 0.39385 0.48768
# Poissons Ratio (z) = 0.04482 0.37644
#
# Static dielectric constant tensor:
#      x y z
#    x 3.240400 0.000000 -0.110040 
#    y 0.000000 3.402720 0.000000 
#    z -0.110040 0.000000 1.195060 
# 
# 
# High freq. dielectric constant tensor:
#      x y z
#    x 1.699850 0.000000 0.011750 
#    y 0.000000 1.714320 0.000000 
#    z 0.011750 0.000000 1.715740 
# 
# From -- ./inp_files/243792.got.cif
#   From: 2010.06.25/outbox.cif.g09.slc.cpg/sg12_122_cif.got.tgz:243792.got - 2010.06.28 00:19:55.
