data_PCOD8105411
_publ_section_title
;
Structure prediction by ZEFSAII (Michael W. Deem and Ramdas Pophale) SiO2 
 PCOD8105411
Probable space group: C 2/M
;
_chemical_formula_sum "Si O2"
_cell_formula_units_Z 64
_cell_length_a 22.801766
_cell_length_b 11.014706
_cell_length_c 26.471833
_cell_angle_alpha 90.000000
_cell_angle_beta 148.865241
_cell_angle_gamma 90.000000
_cell_volume 3437.638585
_symmetry_space_group_name_H-M "C 2/M"
_symmetry_group_IT_number 12
_symmetry_cell_setting 'monoclinic'
loop_
_space_group_symop_operation_xyz
x,y,z
-x,y,-z
-x,-y,-z
x,-y,z
1/2+x,1/2+y,z
1/2-x,1/2+y,-z
1/2-x,1/2-y,-z
1/2+x,1/2-y,z
loop_
_atom_site_type_symbol
_atom_site_label
_atom_site_fract_x
_atom_site_fract_y
_atom_site_fract_z
Si Si1 0.286800 0.356145 0.273987
Si Si2 0.025197 0.249725 0.462303
Si Si3 0.368146 0.869030 0.550232
Si Si4 0.741328 0.138547 0.349725
Si Si5 0.155182 0.360046 0.980966
Si Si6 0.124424 0.788575 0.347739
Si Si7 0.617375 0.856681 0.067387
Si Si8 0.591824 0.636028 0.867904
O O1 0.283983 0.500000 0.274267
O O2 0.415211 0.316863 0.360453
O O3 0.231062 0.306765 0.285306
O O4 0.216692 0.301547 0.175502
O O5 0.060077 0.353064 0.448337
O O6 0.127395 0.152497 0.537296
O O7 0.000000 0.303289 0.500000
O O8 0.234174 0.871297 0.438369
O O9 0.403380 0.775686 0.619658
O O10 0.399300 0.000000 0.595080
O O11 0.654308 0.199936 0.323696
O O12 0.706377 0.000000 0.324821
O O13 0.112510 0.500000 0.937948
O O14 0.086558 0.255542 0.899853
O O15 0.134313 0.320366 0.022548
O O16 0.289548 0.353134 0.073395
O O17 0.011967 0.861318 0.248514
O O18 0.616903 0.000000 0.074213
O O19 0.500000 0.799660 0.000000
O O20 0.586675 0.500000 0.890317
#
# Coordination Sequence:
#
# PCOD8105411 Si02
#       8
#     8   8   8   8   8   8   8   8
#     4   9  17  29  50  76 105 138 173 218 272 323
#     4   9  18  32  50  74 104 141 179 214 263 322
#     4  10  21  36  51  76 109 140 180 225 267 317
#     4   9  17  30  49  78 109 137 175 224 272 317
#     4   9  20  37  58  84 110 140 184 231 277 326
#     4  10  21  34  54  78 104 143 180 220 269 325
#     4   9  18  31  50  80 109 137 173 223 276 322
#     4  10  21  38  59  82 109 146 184 223 274 330
#
# _framework density 18.617432000000001
#
# number of rings (size 3 to 8) (size 9 to 14) (size 15 to 20)
#    0.000    2.625    0.000    1.125    3.500    2.750 
#    0.000    1.250    0.000    0.375    0.000    0.000 
#    0.000    0.000    0.000    0.000    0.000    0.000 
#
# Total GULP energy -396459.518280 kJ/mol
# GULP energy per Si atom -12389.359946 kJ/mol
# Density = 1.857506 g / cm^3
# Si number density = 18.617432 Si / 1000 Ang^3
#
#
#
# Elastic Constant Matrix: (Units=GPa)
#
#
# Indices 1 2 3 4 5 6 
#
# 1 113.1690 37.0918 32.9292 0.0000 -8.3594 0.0000
# 2 37.0918 71.1731 20.6810 0.0000 -11.8486 0.0000
# 3 32.9292 20.6810 101.1052 0.0001 -12.3137 0.0001
# 4 0.0000 0.0000 0.0001 12.2031 0.0000 -5.3569
# 5 -8.3594 -11.8486 -12.3137 0.0000 20.4383 0.0000
# 6 0.0000 0.0000 0.0001 -5.3569 0.0000 7.7242
#
#
#
# Elastic Compliance Matrix: (Units=1/GPa)
#
#
# Indices 1 2 3 4 5 6 
#
# 1 0.011277 -0.005103 -0.002620 0.000000 0.000076 0.000000
# 2 -0.005103 0.018349 -0.001133 0.000000 0.007867 0.000000
# 3 -0.002620 -0.001133 0.011618 0.000000 0.005271 0.000000
# 4 0.000000 0.000000 0.000000 0.117813 0.000000 0.081706
# 5 0.000076 0.007867 0.005271 0.000000 0.056695 0.000000
# 6 0.000000 0.000000 0.000000 0.081706 0.000000 0.186128
#
#
# Mechanical properties :
#
#
# Convention : Reuss Voigt Hill
#
# Bulk Modulus (GPa) = 42.49624 51.87235 47.18429
# Shear Modulus (GPa) = 11.69769 21.05612 16.37690
#
# Velocity S-wave (km/s) = 2.50935 3.36667 2.96911
# Velocity P-wave (km/s) = 5.59208 6.56013 6.09535
#
# Compressibility (1/GPa) = 0.02353149
#
# Stress axis : x y z
#
# Youngs Moduli (GPa) = 88.67798 54.49990 86.07595
#
# Poissons Ratio (x) = 0.27812 0.22550
# Poissons Ratio (y) = 0.45253 0.09752
# Poissons Ratio (z) = 0.23231 0.06175
#
# Static dielectric constant tensor:
#      x y z
#    x 3.552770 0.000000 -0.042100 
#    y 0.000000 3.190780 0.000000 
#    z -0.042100 0.000000 3.504380 
# 
# 
# High freq. dielectric constant tensor:
#      x y z
#    x 1.729450 0.000000 0.002680 
#    y 0.000000 1.688810 0.000000 
#    z 0.002680 0.000000 1.725170 
# 
# From -- ./inp_files/366055.got.cif
#   From: 2010.06.25/outbox.cif.g09.slc.cpg/sg12_184_cif.got.tgz:366055.got - 2010.06.28 00:19:55.
