data_PCOD8105249
_publ_section_title
;
Structure prediction by ZEFSAII (Michael W. Deem and Ramdas Pophale) SiO2 
 PCOD8105249
Probable space group: C 2/M
;
_chemical_formula_sum "Si O2"
_cell_formula_units_Z 56
_cell_length_a 9.088273
_cell_length_b 27.967960
_cell_length_c 13.088426
_cell_angle_alpha 90.000000
_cell_angle_beta 109.353848
_cell_angle_gamma 90.000000
_cell_volume 3138.823067
_symmetry_space_group_name_H-M "C 2/M"
_symmetry_group_IT_number 12
_symmetry_cell_setting 'monoclinic'
loop_
_space_group_symop_operation_xyz
x,y,z
-x,y,-z
-x,-y,-z
x,-y,z
1/2+x,1/2+y,z
1/2-x,1/2+y,-z
1/2-x,1/2-y,-z
1/2+x,1/2-y,z
loop_
_atom_site_type_symbol
_atom_site_label
_atom_site_fract_x
_atom_site_fract_y
_atom_site_fract_z
Si Si1 0.623401 0.827597 0.242833
Si Si2 0.578647 0.237507 0.423536
Si Si3 0.674639 0.875764 0.886016
Si Si4 0.525693 0.364427 0.184104
Si Si5 0.143242 0.947595 0.957702
Si Si6 0.255125 0.700857 0.063638
Si Si7 0.957229 0.841847 0.380448
O O1 0.566214 0.790899 0.315764
O O2 0.495221 0.870184 0.203909
O O3 0.656920 0.797368 0.146915
O O4 0.778259 0.854599 0.315414
O O5 0.500000 0.208191 0.500000
O O6 0.750000 0.250000 0.500000
O O7 0.475927 0.284911 0.385362
O O8 0.812113 0.865676 0.837193
O O9 0.705827 0.927416 0.945410
O O10 0.671040 0.836818 0.973047
O O11 0.412107 0.410019 0.140527
O O12 0.432619 0.316519 0.127700
O O13 0.563388 0.363479 0.313958
O O14 0.185887 0.000000 0.921586
O O15 0.000000 0.953372 0.000000
O O16 0.250000 0.750000 0.000000
O O17 0.000000 0.864753 0.500000
#
# Coordination Sequence:
#
# PCOD8105249 Si02
#       7
#     8   8   8   8   8   8   8
#     4  11  23  34  49  71 103 139 173 226 256 300
#     4  11  22  37  50  69  95 139 195 225 256 294
#     4  10  21  32  51  82 104 131 174 216 255 313
#     4   9  20  34  54  77 100 136 178 211 254 317
#     4   8  15  34  58  82 108 132 164 211 262 323
#     4  10  22  35  46  68 106 146 173 201 258 306
#     4  10  21  37  50  67 102 139 176 220 264 296
#
# _framework density 17.841082
#
# number of rings (size 3 to 8) (size 9 to 14) (size 15 to 20)
#    0.000    2.143    2.857    1.714    8.000    1.143 
#    0.000    0.000    0.000   15.857    0.000    0.000 
#    0.000    5.143    0.000    0.000    0.000    0.000 
#
# Total GULP energy -346931.224195 kJ/mol
# GULP energy per Si atom -12390.400864 kJ/mol
# Density = 1.780048 g / cm^3
# Si number density = 17.841082 Si / 1000 Ang^3
#
#
#
# Elastic Constant Matrix: (Units=GPa)
#
#
# Indices 1 2 3 4 5 6 
#
# 1 95.4098 26.1808 49.1571 0.0000 0.8245 0.0000
# 2 26.1808 85.2033 42.5856 0.0000 -2.1549 0.0000
# 3 49.1571 42.5856 132.1894 0.0000 -16.4139 0.0000
# 4 0.0000 0.0000 0.0000 13.2184 0.0000 1.9029
# 5 0.8245 -2.1549 -16.4139 0.0000 41.9864 0.0000
# 6 0.0000 0.0000 0.0000 1.9029 0.0000 8.4668
#
#
#
# Elastic Compliance Matrix: (Units=1/GPa)
#
#
# Indices 1 2 3 4 5 6 
#
# 1 0.013408 -0.001845 -0.004663 0.000000 -0.002181 0.000000
# 2 -0.001845 0.014291 -0.004017 0.000000 -0.000801 0.000000
# 3 -0.004663 -0.004017 0.011119 0.000000 0.004232 0.000000
# 4 0.000000 0.000000 0.000000 0.078182 0.000000 -0.017572
# 5 -0.002181 -0.000801 0.004232 0.000000 0.025473 0.000000
# 6 0.000000 0.000000 0.000000 -0.017572 0.000000 0.122058
#
#
# Mechanical properties :
#
#
# Convention : Reuss Voigt Hill
#
# Bulk Modulus (GPa) = 56.27953 60.96106 58.62030
# Shear Modulus (GPa) = 17.15241 25.72623 21.43932
#
# Velocity S-wave (km/s) = 3.10401 3.80144 3.47029
# Velocity P-wave (km/s) = 6.66782 7.31512 6.99896
#
# Compressibility (1/GPa) = 0.01776845
#
# Stress axis : x y z
#
# Youngs Moduli (GPa) = 74.57972 69.97321 89.94002
#
# Poissons Ratio (x) = 0.12909 0.41936
# Poissons Ratio (y) = 0.13758 0.36133
# Poissons Ratio (z) = 0.34774 0.28111
#
# Static dielectric constant tensor:
#      x y z
#    x 3.420330 0.000000 -0.045950 
#    y 0.000000 3.660230 0.000000 
#    z -0.045950 0.000000 3.769320 
# 
# 
# High freq. dielectric constant tensor:
#      x y z
#    x 1.697950 0.000000 -0.005850 
#    y 0.000000 1.639450 0.000000 
#    z -0.005850 0.000000 1.697630 
# 
# From -- ./inp_files/125336.got.cif
#   From: 2010.06.25/outbox.cif.g09.slc.cpg/sg12_63_cif.got.tgz:125336.got - 2010.06.28 00:19:55.
