data_PCOD8105135
_publ_section_title
;
Structure prediction by ZEFSAII (Michael W. Deem and Ramdas Pophale) SiO2 
 PCOD8105135
Probable space group: C 2/M
;
_chemical_formula_sum "Si O2"
_cell_formula_units_Z 52
_cell_length_a 9.861029
_cell_length_b 20.786225
_cell_length_c 17.968668
_cell_angle_alpha 90.000000
_cell_angle_beta 44.896225
_cell_angle_gamma 90.000000
_cell_volume 2599.625087
_symmetry_space_group_name_H-M "C 2/M"
_symmetry_group_IT_number 12
_symmetry_cell_setting 'monoclinic'
loop_
_space_group_symop_operation_xyz
x,y,z
-x,y,-z
-x,-y,-z
x,-y,z
1/2+x,1/2+y,z
1/2-x,1/2+y,-z
1/2-x,1/2-y,-z
1/2+x,1/2-y,z
loop_
_atom_site_type_symbol
_atom_site_label
_atom_site_fract_x
_atom_site_fract_y
_atom_site_fract_z
Si Si1 0.505283 0.374527 0.210115
Si Si2 0.381279 0.000000 0.745638
Si Si3 0.448563 0.773944 0.388964
Si Si4 0.050270 0.000000 0.096645
Si Si5 0.548416 0.000000 0.120438
Si Si6 0.592602 0.903593 0.392381
Si Si7 0.094109 0.366055 0.884874
Si Si8 0.132523 0.264136 0.751369
O O1 0.576060 0.432762 0.130585
O O2 0.316214 0.397058 0.327711
O O3 0.675781 0.361102 0.200930
O O4 0.444620 0.306989 0.193594
O O5 0.430681 0.939166 0.676538
O O6 0.159373 0.000000 0.858153
O O7 0.510791 0.000000 0.769446
O O8 0.250000 0.750000 0.500000
O O9 0.481880 0.838236 0.422129
O O10 0.635722 0.730057 0.332599
O O11 0.431404 0.782212 0.307030
O O12 0.220233 0.000000 0.971105
O O13 0.464462 0.061868 0.112510
O O14 0.500000 0.938998 0.500000
O O15 0.030447 0.315530 0.846091
O O16 0.000000 0.345763 0.000000
#
# Coordination Sequence:
#
# PCOD8105135 Si02
#       8
#     8   4   8   4   4   8   8   8
#     4  10  21  41  61  96 123 167 213 259 320 377
#     4  10  22  39  61  94 126 157 209 271 326 378
#     4  11  21  39  63  92 123 168 211 261 317 383
#     4  10  20  41  67  87 124 166 218 260 310 392
#     4  12  23  41  65  92 122 175 220 263 321 381
#     4  10  21  38  65  90 124 164 209 263 322 391
#     4  12  24  41  65  91 132 170 215 268 319 386
#     4  11  23  40  62  94 134 162 216 266 323 377
#
# _framework density 20.002884000000002
#
# number of rings (size 3 to 8) (size 9 to 14) (size 15 to 20)
#    0.000    1.231    3.077    4.385    0.000    0.615 
#    0.000    0.000    0.000    0.923    0.000    0.000 
#    0.000    0.000    0.000    0.000    0.000    0.000 
#
# Total GULP energy -322193.630026 kJ/mol
# GULP energy per Si atom -12392.062693 kJ/mol
# Density = 1.995736 g / cm^3
# Si number density = 20.002884 Si / 1000 Ang^3
#
#
#
# Elastic Constant Matrix: (Units=GPa)
#
#
# Indices 1 2 3 4 5 6 
#
# 1 95.5589 12.0735 54.0984 -0.0038 9.1650 -0.0061
# 2 12.0735 102.1286 43.1333 0.0012 5.0367 0.0018
# 3 54.0984 43.1333 112.9480 0.0026 6.7554 0.0044
# 4 -0.0038 0.0012 0.0026 -336.9131 0.0014 -562.6931
# 5 9.1650 5.0367 6.7554 0.0014 33.5654 0.0022
# 6 -0.0061 0.0018 0.0044 -562.6931 0.0022 -876.3906
#
#
#
# Elastic Compliance Matrix: (Units=1/GPa)
#
#
# Indices 1 2 3 4 5 6 
#
# 1 0.014785 0.001561 -0.007513 0.000000 -0.002759 0.000000
# 2 0.001561 0.011864 -0.005209 0.000000 -0.001158 0.000000
# 3 -0.007513 -0.005209 0.014446 0.000000 -0.000074 0.000000
# 4 0.000000 0.000000 0.000000 0.041037 0.000000 -0.026348
# 5 -0.002759 -0.001158 -0.000074 0.000000 0.030735 0.000000
# 6 0.000000 0.000000 0.000000 -0.026348 0.000000 0.015776
#
#
# Mechanical properties :
#
#
# Convention : Reuss Voigt Hill
#
# Bulk Modulus (GPa) = 53.26648 58.80512 56.03580
# Shear Modulus (GPa) = 31.80190 -222.52565 -95.36187
#
# Velocity S-wave (km/s) = 3.99164 -10.55880 -6.91213
# Velocity P-wave (km/s) = 6.92325 10.91737 5.96898
#
# Compressibility (1/GPa) = 0.01877353
#
# Stress axis : x y z
#
# Youngs Moduli (GPa) = 67.63434 84.28700 69.22406
#
# Poissons Ratio (x) = -0.13159 0.52007
# Poissons Ratio (y) = -0.10559 0.36061
# Poissons Ratio (z) = 0.50813 0.43907
#
# Static dielectric constant tensor:
#      x y z
#    x 3.648470 0.000000 -0.125850 
#    y 0.000000 4.006760 0.000000 
#    z -0.125850 0.000000 3.633280 
# 
# 
# High freq. dielectric constant tensor:
#      x y z
#    x 1.781650 0.000000 -0.005420 
#    y 0.000000 1.787070 0.000000 
#    z -0.005420 0.000000 1.780230 
# 
# From -- ./inp_files/247192.got.cif
#   From: 2010.06.25/outbox.cif.g09.slc.cpg/sg12_124_cif.got.tgz:247192.got - 2010.06.28 00:19:55.
