data_PCOD8105082
_publ_section_title
;
Structure prediction by ZEFSAII (Michael W. Deem and Ramdas Pophale) SiO2 
 PCOD8105082
Probable space group: C 2/M
;
_chemical_formula_sum "Si O2"
_cell_formula_units_Z 56
_cell_length_a 19.738995
_cell_length_b 14.135201
_cell_length_c 9.709549
_cell_angle_alpha 90.000000
_cell_angle_beta 81.701176
_cell_angle_gamma 90.000000
_cell_volume 2680.738804
_symmetry_space_group_name_H-M "C 2/M"
_symmetry_group_IT_number 12
_symmetry_cell_setting 'monoclinic'
loop_
_space_group_symop_operation_xyz
x,y,z
-x,y,-z
-x,-y,-z
x,-y,z
1/2+x,1/2+y,z
1/2-x,1/2+y,-z
1/2-x,1/2-y,-z
1/2+x,1/2-y,z
loop_
_atom_site_type_symbol
_atom_site_label
_atom_site_fract_x
_atom_site_fract_y
_atom_site_fract_z
Si Si1 0.913095 0.111177 0.295079
Si Si2 0.341083 0.608665 0.587886
Si Si3 0.688991 0.108140 0.661614
Si Si4 0.952230 0.608123 0.395586
Si Si5 0.303293 0.712034 0.156922
Si Si6 0.341691 0.258890 0.837810
Si Si7 0.508422 0.767063 0.159442
O O1 0.891962 0.147461 0.454276
O O2 0.846823 0.132480 0.221052
O O3 0.980930 0.166132 0.225159
O O4 0.929046 0.000000 0.285423
O O5 0.357865 0.500000 0.603934
O O6 0.261805 0.624752 0.565165
O O7 0.354510 0.655327 0.730116
O O8 0.629940 0.122269 0.561190
O O9 0.679926 0.182357 0.790324
O O10 0.684615 0.000000 0.721978
O O11 0.974022 0.500000 0.381880
O O12 0.000000 0.656855 0.500000
O O13 0.964436 0.651046 0.241387
O O14 0.221268 0.692867 0.196056
O O15 0.323377 0.700713 0.992406
O O16 0.413947 0.206294 0.823791
O O17 0.500000 0.768746 0.000000
#
# Coordination Sequence:
#
# PCOD8105082 Si02
#       7
#     8   8   8   8   8   8   8
#     4  11  24  41  62  92 128 167 210 254 307 372
#     4   9  21  38  60  90 118 158 210 255 306 361
#     4   9  17  36  64  89 121 157 199 253 311 368
#     4  10  22  38  62  94 125 157 200 253 310 369
#     4  10  20  41  61  91 119 160 208 253 303 363
#     4  10  22  37  63  88 122 157 207 253 304 368
#     4  12  24  42  61  91 126 169 205 251 314 376
#
# _framework density 20.889765000000001
#
# number of rings (size 3 to 8) (size 9 to 14) (size 15 to 20)
#    0.000    1.857    2.857    0.000    2.000    5.143 
#    0.000    6.429    0.000    0.000    0.000    0.000 
#    0.000    0.000    0.000    0.000    0.000    0.000 
#
# Total GULP energy -346958.779317 kJ/mol
# GULP energy per Si atom -12391.384976 kJ/mol
# Density = 2.084222 g / cm^3
# Si number density = 20.889765 Si / 1000 Ang^3
#
#
#
# Elastic Constant Matrix: (Units=GPa)
#
#
# Indices 1 2 3 4 5 6 
#
# 1 120.7603 10.9721 15.3118 0.0000 11.4832 0.0000
# 2 10.9721 41.0736 20.0581 0.0000 3.0016 0.0000
# 3 15.3118 20.0581 101.9639 0.0000 -5.4970 0.0000
# 4 0.0000 0.0000 0.0000 13.1140 0.0000 -5.7106
# 5 11.4832 3.0016 -5.4970 0.0000 26.8667 0.0000
# 6 0.0000 0.0000 0.0000 -5.7106 0.0000 18.3051
#
#
#
# Elastic Compliance Matrix: (Units=1/GPa)
#
#
# Indices 1 2 3 4 5 6 
#
# 1 0.008949 -0.001488 -0.001262 0.000000 -0.003917 0.000000
# 2 -0.001488 0.027644 -0.005407 0.000000 -0.003559 0.000000
# 3 -0.001262 -0.005407 0.011246 0.000000 0.003445 0.000000
# 4 0.000000 0.000000 0.000000 0.088242 0.000000 0.027529
# 5 -0.003917 -0.003559 0.003445 0.000000 0.039997 0.000000
# 6 0.000000 0.000000 0.000000 0.027529 0.000000 0.063217
#
#
# Mechanical properties :
#
#
# Convention : Reuss Voigt Hill
#
# Bulk Modulus (GPa) = 31.72006 39.60910 35.66458
# Shear Modulus (GPa) = 18.78869 26.15422 22.47146
#
# Velocity S-wave (km/s) = 3.00229 3.54222 3.28337
# Velocity P-wave (km/s) = 5.21879 5.97762 5.61105
#
# Compressibility (1/GPa) = 0.03152580
#
# Stress axis : x y z
#
# Youngs Moduli (GPa) = 111.74998 36.17386 88.91883
#
# Poissons Ratio (x) = 0.05382 0.11224
# Poissons Ratio (y) = 0.16626 0.48074
# Poissons Ratio (z) = 0.14106 0.19558
#
# Static dielectric constant tensor:
#      x y z
#    x 4.357270 0.000000 0.108480 
#    y 0.000000 3.559720 0.000000 
#    z 0.108480 0.000000 3.818940 
# 
# 
# High freq. dielectric constant tensor:
#      x y z
#    x 1.841730 0.000000 0.003550 
#    y 0.000000 1.794280 0.000000 
#    z 0.003550 0.000000 1.811550 
# 
# From -- ./inp_files/86372.got.cif
#   From: 2010.06.25/outbox.cif.g09.slc.cpg/sg12_44_cif.got.tgz:86372.got - 2010.06.28 00:19:55.
