data_PCOD8106449
_publ_section_title
;
Structure prediction by ZEFSAII (Michael W. Deem and Ramdas Pophale) SiO2 
 PCOD8106449
Probable space group: C 2/M
;
_chemical_formula_sum "Si O2"
_cell_formula_units_Z 64
_cell_length_a 23.574146
_cell_length_b 9.066221
_cell_length_c 14.903825
_cell_angle_alpha 90.000000
_cell_angle_beta 92.106871
_cell_angle_gamma 90.000000
_cell_volume 3183.217597
_symmetry_space_group_name_H-M "C 2/M"
_symmetry_group_IT_number 12
_symmetry_cell_setting 'monoclinic'
loop_
_space_group_symop_operation_xyz
x,y,z
-x,y,-z
-x,-y,-z
x,-y,z
1/2+x,1/2+y,z
1/2-x,1/2+y,-z
1/2-x,1/2-y,-z
1/2+x,1/2-y,z
loop_
_atom_site_type_symbol
_atom_site_label
_atom_site_fract_x
_atom_site_fract_y
_atom_site_fract_z
Si Si1 0.783837 0.168269 0.626390
Si Si2 0.806595 0.333395 0.803780
Si Si3 0.711282 0.665813 0.929048
Si Si4 0.590666 0.670973 0.124599
Si Si5 0.166348 0.669564 0.536894
Si Si6 0.415268 0.671558 0.078416
Si Si7 0.959852 0.325634 0.417704
Si Si8 0.504183 0.824635 0.776997
O O1 0.807973 0.271251 0.704599
O O2 0.816757 0.219117 0.540125
O O3 0.715518 0.183697 0.614785
O O4 0.800452 0.000000 0.647503
O O5 0.830116 0.500000 0.804656
O O6 0.741994 0.328306 0.834652
O O7 0.845614 0.234469 0.871364
O O8 0.704490 0.500000 0.965285
O O9 0.648750 0.732894 0.915295
O O10 0.750000 0.750000 0.000000
O O11 0.591055 0.500000 0.150520
O O12 0.556333 0.758640 0.198645
O O13 0.564461 0.693148 0.023561
O O14 0.163274 0.500000 0.501943
O O15 0.105714 0.721522 0.572346
O O16 0.420964 0.500000 0.106591
O O17 0.450968 0.769995 0.147531
O O18 0.965060 0.500000 0.417923
O O19 0.980367 0.265951 0.321848
O O20 0.000000 0.261309 0.500000
O O21 0.501627 0.000000 0.779336
#
# Coordination Sequence:
#
# PCOD8106449 Si02
#       8
#     8   8   8   8   8   8   8   8
#     4  10  21  36  58  89 121 153 194 243 299 358
#     4  11  23  37  59  89 120 157 200 244 297 357
#     4  10  21  38  59  86 119 156 197 240 295 352
#     4  11  23  41  63  86 121 162 202 250 306 357
#     4   9  19  38  62  85 115 155 198 242 296 357
#     4  10  22  41  62  86 121 164 199 242 306 363
#     4   9  20  39  61  86 117 156 197 244 301 353
#     4  11  24  39  62  93 119 155 207 253 297 354
#
# _framework density 20.105443000000001
#
# number of rings (size 3 to 8) (size 9 to 14) (size 15 to 20)
#    0.000    1.875    1.250    1.875    3.500    4.000 
#    0.000    1.250    0.000    1.875    0.000    0.000 
#    0.000    0.000    0.000    0.000    0.000    0.000 
#
# Total GULP energy -396798.555132 kJ/mol
# GULP energy per Si atom -12399.954848 kJ/mol
# Density = 2.005968 g / cm^3
# Si number density = 20.105443 Si / 1000 Ang^3
#
#
#
# Elastic Constant Matrix: (Units=GPa)
#
#
# Indices 1 2 3 4 5 6 
#
# 1 99.4251 31.0372 32.2731 0.0000 -12.6948 0.0000
# 2 31.0372 78.3877 41.3729 0.0000 -0.9039 0.0000
# 3 32.2731 41.3729 104.1376 0.0000 -3.4186 0.0000
# 4 0.0000 0.0000 0.0000 28.6792 0.0000 1.5209
# 5 -12.6948 -0.9039 -3.4186 0.0000 30.0848 0.0000
# 6 0.0000 0.0000 0.0000 1.5209 0.0000 31.5917
#
#
#
# Elastic Compliance Matrix: (Units=1/GPa)
#
#
# Indices 1 2 3 4 5 6 
#
# 1 0.012587 -0.003737 -0.002254 0.000000 0.004943 0.000000
# 2 -0.003737 0.017253 -0.005753 0.000000 -0.001712 0.000000
# 3 -0.002254 -0.005753 0.012597 0.000000 0.000308 0.000000
# 4 0.000000 0.000000 0.000000 0.034958 0.000000 -0.001683
# 5 0.004943 -0.001712 0.000308 0.000000 0.035309 0.000000
# 6 0.000000 0.000000 0.000000 -0.001683 0.000000 0.031735
#
#
# Mechanical properties :
#
#
# Convention : Reuss Voigt Hill
#
# Bulk Modulus (GPa) = 52.77086 54.59076 53.68081
# Shear Modulus (GPa) = 28.69564 29.88895 29.29229
#
# Velocity S-wave (km/s) = 3.78200 3.85984 3.82112
# Velocity P-wave (km/s) = 6.73613 6.86117 6.79894
#
# Compressibility (1/GPa) = 0.01894985
#
# Stress axis : x y z
#
# Youngs Moduli (GPa) = 79.44584 57.95988 79.38585
#
# Poissons Ratio (x) = 0.21661 0.17892
# Poissons Ratio (y) = 0.29691 0.45667
# Poissons Ratio (z) = 0.17906 0.33342
#
# Static dielectric constant tensor:
#      x y z
#    x 3.959560 0.000000 -0.121030 
#    y 0.000000 3.539480 0.000000 
#    z -0.121030 0.000000 3.664510 
# 
# 
# High freq. dielectric constant tensor:
#      x y z
#    x 1.796590 0.000000 -0.004030 
#    y 0.000000 1.773120 0.000000 
#    z -0.004030 0.000000 1.782970 
# 
# From -- ./inp_files/238804.got.cif
#   From: 2010.06.25/outbox.cif.g09.slc.cpg/sg12_120_cif.got.tgz:238804.got - 2010.06.28 00:19:55.
