data_PCOD8106092
_publ_section_title
;
Structure prediction by ZEFSAII (Michael W. Deem and Ramdas Pophale) SiO2 
 PCOD8106092
Probable space group: C 2/M
;
_chemical_formula_sum "Si O2"
_cell_formula_units_Z 56
_cell_length_a 19.154218
_cell_length_b 8.764113
_cell_length_c 25.868044
_cell_angle_alpha 90.000000
_cell_angle_beta 138.188509
_cell_angle_gamma 90.000000
_cell_volume 2895.040830
_symmetry_space_group_name_H-M "C 2/M"
_symmetry_group_IT_number 12
_symmetry_cell_setting 'monoclinic'
loop_
_space_group_symop_operation_xyz
x,y,z
-x,y,-z
-x,-y,-z
x,-y,z
1/2+x,1/2+y,z
1/2-x,1/2+y,-z
1/2-x,1/2-y,-z
1/2+x,1/2-y,z
loop_
_atom_site_type_symbol
_atom_site_label
_atom_site_fract_x
_atom_site_fract_y
_atom_site_fract_z
Si Si1 0.721072 0.179371 0.140055
Si Si2 0.368230 0.825340 0.302085
Si Si3 0.414340 0.675962 0.577102
Si Si4 0.209652 0.324321 0.403700
Si Si5 0.690098 0.680629 0.015413
Si Si6 0.803943 0.172922 0.710477
Si Si7 0.550007 0.321962 0.115512
O O1 0.819522 0.222199 0.230101
O O2 0.741339 0.258075 0.096186
O O3 0.611471 0.233747 0.104353
O O4 0.717326 0.000000 0.130012
O O5 0.485398 0.777188 0.380041
O O6 0.304487 0.803770 0.319533
O O7 0.363560 0.000000 0.280756
O O8 0.446996 0.500000 0.595201
O O9 0.328663 0.712958 0.485869
O O10 0.369625 0.718654 0.608477
O O11 0.183038 0.500000 0.400659
O O12 0.193829 0.290996 0.334960
O O13 0.699779 0.500000 0.018207
O O14 0.750000 0.750000 0.000000
O O15 0.569133 0.733628 0.947826
O O16 0.899942 0.213419 0.801180
O O17 0.813842 0.000000 0.695179
O O18 0.560407 0.500000 0.107658
#
# Coordination Sequence:
#
# PCOD8106092 Si02
#       7
#     8   8   8   8   8   8   8
#     4  11  22  37  59  85 113 145 183 227 277 333
#     4  10  21  38  59  83 111 144 184 227 275 330
#     4  10  21  37  56  79 110 147 187 230 276 328
#     4  10  21  36  55  80 111 148 187 227 275 331
#     4  11  23  39  58  82 115 150 188 233 278 326
#     4   9  19  36  57  81 109 142 183 230 277 326
#     4   9  20  39  60  81 109 148 187 225 274 328
#
# _framework density 19.343422
#
# number of rings (size 3 to 8) (size 9 to 14) (size 15 to 20)
#    0.000    2.000    0.000    4.286    0.000    9.143 
#    0.000    7.143    0.000    0.000    0.000    0.000 
#    0.000    0.000    0.000    0.000    0.000    0.000 
#
# Total GULP energy -347334.534232 kJ/mol
# GULP energy per Si atom -12404.804794 kJ/mol
# Density = 1.929940 g / cm^3
# Si number density = 19.343422 Si / 1000 Ang^3
#
#
#
# Elastic Constant Matrix: (Units=GPa)
#
#
# Indices 1 2 3 4 5 6 
#
# 1 44.4458 20.5209 16.4856 0.0000 -11.3730 0.0000
# 2 20.5209 64.0936 16.2655 0.0000 -6.2275 0.0000
# 3 16.4856 16.2655 49.1779 0.0000 -13.6029 0.0000
# 4 0.0000 0.0000 0.0000 32.8095 0.0000 -1.9178
# 5 -11.3730 -6.2275 -13.6029 0.0000 35.4253 0.0000
# 6 0.0000 0.0000 0.0000 -1.9178 0.0000 36.1879
#
#
#
# Elastic Compliance Matrix: (Units=1/GPa)
#
#
# Indices 1 2 3 4 5 6 
#
# 1 0.029613 -0.007424 -0.005821 0.000000 0.005967 0.000000
# 2 -0.007424 0.018921 -0.003925 0.000000 -0.000565 0.000000
# 3 -0.005821 -0.003925 0.025595 0.000000 0.007269 0.000000
# 4 0.000000 0.000000 0.000000 0.030574 0.000000 0.001620
# 5 0.005967 -0.000565 0.007269 0.000000 0.032836 0.000000
# 6 0.000000 0.000000 0.000000 0.001620 0.000000 0.027719
#
#
# Mechanical properties :
#
#
# Convention : Reuss Voigt Hill
#
# Bulk Modulus (GPa) = 25.13384 29.36237 27.24811
# Shear Modulus (GPa) = 23.48951 27.84756 25.66853
#
# Velocity S-wave (km/s) = 3.48852 3.79837 3.64674
# Velocity P-wave (km/s) = 5.40815 5.86936 5.64346
#
# Compressibility (1/GPa) = 0.03978700
#
# Stress axis : x y z
#
# Youngs Moduli (GPa) = 33.76888 52.85271 39.07060
#
# Poissons Ratio (x) = 0.39239 0.22743
# Poissons Ratio (y) = 0.25071 0.15336
# Poissons Ratio (z) = 0.19657 0.20746
#
# Static dielectric constant tensor:
#      x y z
#    x 3.448010 0.000000 0.085240 
#    y 0.000000 3.502390 0.000000 
#    z 0.085240 0.000000 3.549150 
# 
# 
# High freq. dielectric constant tensor:
#      x y z
#    x 1.748630 0.000000 0.001010 
#    y 0.000000 1.758980 0.000000 
#    z 0.001010 0.000000 1.757640 
# 
# From -- ./inp_files/342563.got.cif
#   From: 2010.06.25/outbox.cif.g09.slc.cpg/sg12_172_cif.got.tgz:342563.got - 2010.06.28 00:19:55.
