data_PCOD8106257
_publ_section_title
;
Structure prediction by ZEFSAII (Michael W. Deem and Ramdas Pophale) SiO2 
 PCOD8106257
Probable space group: C 2/M
;
_chemical_formula_sum "Si O2"
_cell_formula_units_Z 56
_cell_length_a 28.529116
_cell_length_b 9.018642
_cell_length_c 19.588440
_cell_angle_alpha 90.000000
_cell_angle_beta 146.796187
_cell_angle_gamma 90.000000
_cell_volume 2759.991525
_symmetry_space_group_name_H-M "C 2/M"
_symmetry_group_IT_number 12
_symmetry_cell_setting 'monoclinic'
loop_
_space_group_symop_operation_xyz
x,y,z
-x,y,-z
-x,-y,-z
x,-y,z
1/2+x,1/2+y,z
1/2-x,1/2+y,-z
1/2-x,1/2-y,-z
1/2+x,1/2-y,z
loop_
_atom_site_type_symbol
_atom_site_label
_atom_site_fract_x
_atom_site_fract_y
_atom_site_fract_z
Si Si1 0.502037 0.166254 0.799935
Si Si2 0.276678 0.671680 0.101712
Si Si3 0.354006 0.675352 0.439816
Si Si4 0.461800 0.331364 0.287182
Si Si5 0.308369 0.831672 0.517606
Si Si6 0.240573 0.172912 0.194298
Si Si7 0.449911 0.671843 0.004917
O O1 0.554447 0.238940 0.801666
O O2 0.403090 0.171654 0.661614
O O3 0.514491 0.249257 0.885417
O O4 0.536261 0.000000 0.849907
O O5 0.248674 0.500000 0.066433
O O6 0.379640 0.686314 0.235720
O O7 0.230367 0.754143 0.107494
O O8 0.250000 0.750000 0.000000
O O9 0.339999 0.500000 0.420072
O O10 0.454126 0.719930 0.568528
O O11 0.301030 0.743278 0.437974
O O12 0.318381 0.747205 0.327483
O O13 0.474871 0.500000 0.279057
O O14 0.250000 0.750000 0.500000
O O15 0.276645 0.000000 0.467073
O O16 0.261745 0.000000 0.211885
O O17 0.151855 0.198230 0.126908
O O18 0.471394 0.500000 0.039965
O O19 0.500000 0.736037 0.000000
#
# Coordination Sequence:
#
# PCOD8106257 Si02
#       7
#     8   8   8   8   8   8   8
#     4  10  21  36  57  87 116 145 190 246 294 339
#     4  11  23  40  63  91 121 157 200 245 295 353
#     4  10  21  39  61  86 118 157 198 244 296 349
#     4   9  20  39  62  86 117 158 197 235 288 358
#     4  10  21  36  56  85 117 153 195 242 293 349
#     4  11  24  41  60  88 122 156 198 247 299 357
#     4  10  23  41  59  80 111 157 199 236 293 360
#
# _framework density 20.289918
#
# number of rings (size 3 to 8) (size 9 to 14) (size 15 to 20)
#    0.000    1.857    0.000    3.000    2.000    8.857 
#    0.000    2.857    0.000    0.000    0.000    0.000 
#    0.000    0.000    0.000    0.000    0.000    0.000 
#
# Total GULP energy -347303.755925 kJ/mol
# GULP energy per Si atom -12403.705569 kJ/mol
# Density = 2.024374 g / cm^3
# Si number density = 20.289918 Si / 1000 Ang^3
#
#
#
# Elastic Constant Matrix: (Units=GPa)
#
#
# Indices 1 2 3 4 5 6 
#
# 1 104.5728 47.8155 35.2433 0.0000 -1.1482 0.0000
# 2 47.8155 121.7541 46.9434 0.0000 -8.0819 0.0000
# 3 35.2433 46.9434 84.8187 0.0000 -22.3077 0.0000
# 4 0.0000 0.0000 0.0000 38.2320 0.0000 -7.4252
# 5 -1.1482 -8.0819 -22.3077 0.0000 28.2279 0.0000
# 6 0.0000 0.0000 0.0000 -7.4252 0.0000 32.7925
#
#
#
# Elastic Compliance Matrix: (Units=1/GPa)
#
#
# Indices 1 2 3 4 5 6 
#
# 1 0.012588 -0.003548 -0.004292 0.000000 -0.003895 0.000000
# 2 -0.003548 0.011531 -0.005147 0.000000 -0.000911 0.000000
# 3 -0.004292 -0.005147 0.020183 0.000000 0.014302 0.000000
# 4 0.000000 0.000000 0.000000 0.027359 0.000000 0.006195
# 5 -0.003895 -0.000911 0.014302 0.000000 0.046309 0.000000
# 6 0.000000 0.000000 0.000000 0.006195 0.000000 0.031898
#
#
# Mechanical properties :
#
#
# Convention : Reuss Voigt Hill
#
# Bulk Modulus (GPa) = 54.55668 63.46111 59.00889
# Shear Modulus (GPa) = 27.47991 31.92669 29.70330
#
# Velocity S-wave (km/s) = 3.68416 3.97107 3.83030
# Velocity P-wave (km/s) = 6.71151 7.23678 6.97908
#
# Compressibility (1/GPa) = 0.01832956
#
# Stress axis : x y z
#
# Youngs Moduli (GPa) = 79.43769 86.72608 49.54592
#
# Poissons Ratio (x) = 0.30767 0.21264
# Poissons Ratio (y) = 0.28182 0.25502
# Poissons Ratio (z) = 0.34092 0.44638
#
# Static dielectric constant tensor:
#      x y z
#    x 3.670070 0.000000 0.097200 
#    y 0.000000 3.882950 0.000000 
#    z 0.097200 0.000000 3.714440 
# 
# 
# High freq. dielectric constant tensor:
#      x y z
#    x 1.794410 0.000000 0.005210 
#    y 0.000000 1.801640 0.000000 
#    z 0.005210 0.000000 1.795810 
# 
# From -- ./inp_files/292498.got.cif
#   From: 2010.06.25/outbox.cif.g09.slc.cpg/sg12_147_cif.got.tgz:292498.got - 2010.06.28 00:19:55.
