data_PCOD8106283
_publ_section_title
;
Structure prediction by ZEFSAII (Michael W. Deem and Ramdas Pophale) SiO2 
 PCOD8106283
Probable space group: C 2/M
;
_chemical_formula_sum "Si O2"
_cell_formula_units_Z 44
_cell_length_a 15.319795
_cell_length_b 11.761132
_cell_length_c 16.209397
_cell_angle_alpha 90.000000
_cell_angle_beta 128.739566
_cell_angle_gamma 90.000000
_cell_volume 2278.047000
_symmetry_space_group_name_H-M "C 2/M"
_symmetry_group_IT_number 12
_symmetry_cell_setting 'monoclinic'
loop_
_space_group_symop_operation_xyz
x,y,z
-x,y,-z
-x,-y,-z
x,-y,z
1/2+x,1/2+y,z
1/2-x,1/2+y,-z
1/2-x,1/2-y,-z
1/2+x,1/2-y,z
loop_
_atom_site_type_symbol
_atom_site_label
_atom_site_fract_x
_atom_site_fract_y
_atom_site_fract_z
Si Si1 0.463389 0.500000 0.111179
Si Si2 0.000000 0.706475 0.500000
Si Si3 0.180971 0.000000 0.130435
Si Si4 0.334339 0.201952 0.275035
Si Si5 0.811711 0.631725 0.703611
Si Si6 0.367426 0.373500 0.531262
Si Si7 0.012041 0.207282 0.250669
O O1 0.580062 0.500000 0.133663
O O2 0.454101 0.613601 0.159398
O O3 0.359455 0.500000 0.987450
O O4 0.905476 0.638641 0.391829
O O5 0.950484 0.785994 0.540151
O O6 0.251339 0.887154 0.186559
O O7 0.267826 0.308500 0.275628
O O8 0.413878 0.244940 0.249490
O O9 0.827005 0.500000 0.738352
O O10 0.757899 0.641062 0.579074
O O11 0.933320 0.691423 0.771672
O O12 0.409904 0.500000 0.536351
O O13 0.382137 0.349986 0.637719
#
# Coordination Sequence:
#
# PCOD8106283 Si02
#       7
#     4   4   4   8   8   8   8
#     4  11  24  42  68  82 111 157 213 243 294 341
#     4   8  17  31  52  90 122 156 184 230 294 358
#     4  11  24  45  62  85 113 160 197 260 295 337
#     4  10  22  38  63  87 124 153 197 237 298 348
#     4  10  21  36  56  89 127 158 186 237 295 356
#     4   9  16  29  53  84 122 157 192 228 283 351
#     4  11  21  37  61  90 116 156 198 245 287 355
#
# _framework density 19.314792000000001
#
# number of rings (size 3 to 8) (size 9 to 14) (size 15 to 20)
#    0.000    2.000    2.727    0.818    2.545    3.273 
#    0.000    0.000    0.000    1.091    0.000    0.000 
#    0.000    0.000    0.000    0.000    0.000    0.000 
#
# Total GULP energy -272598.950446 kJ/mol
# GULP energy per Si atom -12390.861384 kJ/mol
# Density = 1.927083 g / cm^3
# Si number density = 19.314792 Si / 1000 Ang^3
#
#
#
# Elastic Constant Matrix: (Units=GPa)
#
#
# Indices 1 2 3 4 5 6 
#
# 1 92.6776 38.1064 41.1109 0.0000 5.5209 0.0000
# 2 38.1064 108.0334 64.0259 0.0000 8.8394 0.0000
# 3 41.1109 64.0259 111.9408 0.0000 4.0349 0.0000
# 4 0.0000 0.0000 0.0000 30.6953 0.0000 4.1755
# 5 5.5209 8.8394 4.0349 0.0000 18.3352 0.0000
# 6 0.0000 0.0000 0.0000 4.1755 0.0000 41.0151
#
#
#
# Elastic Compliance Matrix: (Units=1/GPa)
#
#
# Indices 1 2 3 4 5 6 
#
# 1 0.013480 -0.002565 -0.003409 0.000000 -0.002072 0.000000
# 2 -0.002565 0.014967 -0.007445 0.000000 -0.004805 0.000000
# 3 -0.003409 -0.007445 0.014391 0.000000 0.001449 0.000000
# 4 0.000000 0.000000 0.000000 0.033036 0.000000 -0.003363
# 5 -0.002072 -0.004805 0.001449 0.000000 0.057162 0.000000
# 6 0.000000 0.000000 0.000000 -0.003363 0.000000 0.024724
#
#
# Mechanical properties :
#
#
# Convention : Reuss Voigt Hill
#
# Bulk Modulus (GPa) = 62.49947 66.57092 64.53520
# Shear Modulus (GPa) = 26.32534 29.30300 27.81417
#
# Velocity S-wave (km/s) = 3.69584 3.89926 3.79891
# Velocity P-wave (km/s) = 7.11624 7.40361 7.26135
#
# Compressibility (1/GPa) = 0.01600014
#
# Stress axis : x y z
#
# Youngs Moduli (GPa) = 74.18177 66.81528 69.48612
#
# Poissons Ratio (x) = 0.17138 0.23687
# Poissons Ratio (y) = 0.19028 0.51733
# Poissons Ratio (z) = 0.25288 0.49745
#
# Static dielectric constant tensor:
#      x y z
#    x 3.683260 0.000000 -0.173930 
#    y 0.000000 3.417690 0.000000 
#    z -0.173930 0.000000 3.705600 
# 
# 
# High freq. dielectric constant tensor:
#      x y z
#    x 1.746270 0.000000 -0.000810 
#    y 0.000000 1.748390 0.000000 
#    z -0.000810 0.000000 1.737860 
# 
# From -- ./inp_files/269023.got.cif
#   From: 2010.06.25/outbox.cif.g09.slc.cpg/sg12_135_cif.got.tgz:269023.got - 2010.06.28 00:19:55.
