data_PCOD8106429
_publ_section_title
;
Structure prediction by ZEFSAII (Michael W. Deem and Ramdas Pophale) SiO2 
 PCOD8106429
Probable space group: C 2/M
;
_chemical_formula_sum "Si O2"
_cell_formula_units_Z 64
_cell_length_a 10.684991
_cell_length_b 14.274127
_cell_length_c 22.103983
_cell_angle_alpha 90.000000
_cell_angle_beta 101.733436
_cell_angle_gamma 90.000000
_cell_volume 3300.830431
_symmetry_space_group_name_H-M "C 2/M"
_symmetry_group_IT_number 12
_symmetry_cell_setting 'monoclinic'
loop_
_space_group_symop_operation_xyz
x,y,z
-x,y,-z
-x,-y,-z
x,-y,z
1/2+x,1/2+y,z
1/2-x,1/2+y,-z
1/2-x,1/2-y,-z
1/2+x,1/2-y,z
loop_
_atom_site_type_symbol
_atom_site_label
_atom_site_fract_x
_atom_site_fract_y
_atom_site_fract_z
Si Si1 0.915996 0.799548 0.546180
Si Si2 0.718017 0.104007 0.322406
Si Si3 0.336296 0.891345 0.925023
Si Si4 0.625263 0.108911 0.934595
Si Si5 0.912669 0.762018 0.762952
Si Si6 0.001598 0.894102 0.325215
Si Si7 0.695770 0.241575 0.840838
Si Si8 0.690928 0.891239 0.458696
O O1 0.966671 0.831460 0.614824
O O2 0.781781 0.851065 0.520441
O O3 0.922540 0.685339 0.549287
O O4 0.000000 0.838132 0.500000
O O5 0.617129 0.176534 0.285483
O O6 0.748932 0.118275 0.396754
O O7 0.849951 0.114305 0.298436
O O8 0.660348 0.000000 0.307037
O O9 0.477451 0.857816 0.918645
O O10 0.228944 0.840451 0.874896
O O11 0.319798 0.000000 0.909668
O O12 0.315366 0.870089 0.993749
O O13 0.709845 0.162005 0.893313
O O14 0.632945 0.000000 0.920358
O O15 0.922565 0.857100 0.725494
O O16 0.798569 0.779329 0.798754
O O17 0.049862 0.740543 0.805119
O O18 0.044335 0.000000 0.341630
O O19 0.650495 0.000000 0.468067
#
# Coordination Sequence:
#
# PCOD8106429 Si02
#       8
#     8   8   8   8   8   8   8   8
#     4  11  21  35  61  88 118 151 196 256 309 371
#     4  10  21  40  63  83 114 159 207 252 302 370
#     4   9  19  38  65  94 124 163 203 246 306 364
#     4   9  19  38  64  94 126 159 203 252 302 362
#     4  12  25  40  60  88 124 165 211 248 301 359
#     4  11  23  40  60  85 121 157 202 257 312 367
#     4  12  23  39  63  91 126 162 207 256 294 361
#     4  10  21  36  58  88 117 151 195 249 314 372
#
# _framework density 19.389060000000001
#
# number of rings (size 3 to 8) (size 9 to 14) (size 15 to 20)
#    0.000    1.500    5.000    1.500    0.000    2.750 
#    0.000    0.000    0.000    3.750    0.000    0.000 
#    0.000    0.000    0.000    0.000    0.000    0.000 
#
# Total GULP energy -396650.750556 kJ/mol
# GULP energy per Si atom -12395.335955 kJ/mol
# Density = 1.934493 g / cm^3
# Si number density = 19.389060 Si / 1000 Ang^3
#
#
#
# Elastic Constant Matrix: (Units=GPa)
#
#
# Indices 1 2 3 4 5 6 
#
# 1 70.2898 25.8010 34.9484 0.0000 -4.8989 0.0000
# 2 25.8010 108.9345 41.0988 0.0000 7.5171 0.0000
# 3 34.9484 41.0988 81.8211 0.0000 -3.3543 0.0000
# 4 0.0000 0.0000 0.0000 17.6169 0.0000 1.2847
# 5 -4.8989 7.5171 -3.3543 0.0000 35.2394 0.0000
# 6 0.0000 0.0000 0.0000 1.2847 0.0000 25.9486
#
#
#
# Elastic Compliance Matrix: (Units=1/GPa)
#
#
# Indices 1 2 3 4 5 6 
#
# 1 0.018503 -0.001973 -0.006816 0.000000 0.002344 0.000000
# 2 -0.001973 0.011855 -0.005247 0.000000 -0.003303 0.000000
# 3 -0.006816 -0.005247 0.017846 0.000000 0.001870 0.000000
# 4 0.000000 0.000000 0.000000 0.056969 0.000000 -0.002820
# 5 0.002344 -0.003303 0.001870 0.000000 0.029586 0.000000
# 6 0.000000 0.000000 0.000000 -0.002820 0.000000 0.038677
#
#
# Mechanical properties :
#
#
# Convention : Reuss Voigt Hill
#
# Bulk Modulus (GPa) = 49.67484 51.63798 50.65641
# Shear Modulus (GPa) = 24.01312 26.37415 25.19364
#
# Velocity S-wave (km/s) = 3.52303 3.69217 3.60859
# Velocity P-wave (km/s) = 6.49805 6.69825 6.59891
#
# Compressibility (1/GPa) = 0.02013092
#
# Stress axis : x y z
#
# Youngs Moduli (GPa) = 54.04399 84.35488 56.03557
#
# Poissons Ratio (x) = 0.16639 0.38197
# Poissons Ratio (y) = 0.10660 0.29404
# Poissons Ratio (z) = 0.36839 0.44265
#
# Static dielectric constant tensor:
#      x y z
#    x 3.429660 0.000000 -0.139360 
#    y 0.000000 3.597340 0.000000 
#    z -0.139360 0.000000 3.682790 
# 
# 
# High freq. dielectric constant tensor:
#      x y z
#    x 1.733490 0.000000 -0.004370 
#    y 0.000000 1.759350 0.000000 
#    z -0.004370 0.000000 1.765620 
# 
# From -- ./inp_files/305474.got.cif
#   From: 2010.06.25/outbox.cif.g09.slc.cpg/sg12_153_cif.got.tgz:305474.got - 2010.06.28 00:19:55.
