data_PCOD8106685
_publ_section_title
;
Structure prediction by ZEFSAII (Michael W. Deem and Ramdas Pophale) SiO2 
 PCOD8106685
Probable space group: C 2/M
;
_chemical_formula_sum "Si O2"
_cell_formula_units_Z 64
_cell_length_a 14.157147
_cell_length_b 9.190830
_cell_length_c 25.903040
_cell_angle_alpha 90.000000
_cell_angle_beta 87.793363
_cell_angle_gamma 90.000000
_cell_volume 3367.898900
_symmetry_space_group_name_H-M "C 2/M"
_symmetry_group_IT_number 12
_symmetry_cell_setting 'monoclinic'
loop_
_space_group_symop_operation_xyz
x,y,z
-x,y,-z
-x,-y,-z
x,-y,z
1/2+x,1/2+y,z
1/2-x,1/2+y,-z
1/2-x,1/2-y,-z
1/2+x,1/2-y,z
loop_
_atom_site_type_symbol
_atom_site_label
_atom_site_fract_x
_atom_site_fract_y
_atom_site_fract_z
Si Si1 0.138948 0.330294 0.855990
Si Si2 0.006076 0.170316 0.784527
Si Si3 0.516398 0.169304 0.057177
Si Si4 0.828535 0.834140 0.382710
Si Si5 0.024084 0.329216 0.679669
Si Si6 0.851339 0.168814 0.872278
Si Si7 0.386947 0.831300 0.589765
Si Si8 0.348342 0.331518 0.495648
O O1 0.135768 0.500000 0.840986
O O2 0.098767 0.238604 0.809046
O O3 0.077900 0.297775 0.908279
O O4 0.245257 0.276524 0.864075
O O5 0.987079 0.247590 0.730816
O O6 0.913647 0.202272 0.820587
O O7 0.023462 0.000000 0.776026
O O8 0.607194 0.247936 0.079342
O O9 0.540772 0.000000 0.055564
O O10 0.500000 0.229916 0.000000
O O11 0.872576 0.728447 0.338761
O O12 0.719370 0.791379 0.391356
O O13 0.885030 0.814047 0.436011
O O14 0.837866 0.000000 0.363155
O O15 0.028745 0.500000 0.690538
O O16 0.952962 0.287227 0.635554
O O17 0.852228 0.000000 0.886411
O O18 0.416321 0.740417 0.537585
O O19 0.396536 0.000000 0.575199
O O20 0.334023 0.500000 0.509695
O O21 0.250000 0.250000 0.500000
#
# Coordination Sequence:
#
# PCOD8106685 Si02
#       8
#     8   8   8   8   8   8   8   8
#     4   9  18  35  56  77 105 140 178 217 257 305
#     4  10  21  37  54  74 101 131 170 219 265 310
#     4   9  18  32  51  79 115 149 178 212 255 302
#     4   9  19  36  54  75 104 135 168 208 254 306
#     4  11  23  37  54  77 103 133 170 212 261 313
#     4   9  19  35  55  78 103 137 179 219 260 304
#     4   9  20  37  54  75 105 137 169 207 254 309
#     4   9  17  31  53  77 103 135 169 206 251 304
#
# _framework density 19.002946000000001
#
# number of rings (size 3 to 8) (size 9 to 14) (size 15 to 20)
#    0.000    2.625    0.000    1.875    0.000    6.750 
#    0.000    5.000    0.000    0.000    0.000    0.000 
#    0.000    0.000    0.000    0.000    0.000    0.000 
#
# Total GULP energy -396806.236586 kJ/mol
# GULP energy per Si atom -12400.194893 kJ/mol
# Density = 1.895969 g / cm^3
# Si number density = 19.002946 Si / 1000 Ang^3
#
#
#
# Elastic Constant Matrix: (Units=GPa)
#
#
# Indices 1 2 3 4 5 6 
#
# 1 90.6587 29.2877 28.5977 0.0000 10.1602 0.0000
# 2 29.2877 75.8667 47.8523 0.0000 5.7106 0.0000
# 3 28.5977 47.8523 93.7797 0.0000 5.8775 0.0000
# 4 0.0000 0.0000 0.0000 36.4609 0.0000 4.7076
# 5 10.1602 5.7106 5.8775 0.0000 19.0598 0.0000
# 6 0.0000 0.0000 0.0000 4.7076 0.0000 25.0071
#
#
#
# Elastic Compliance Matrix: (Units=1/GPa)
#
#
# Indices 1 2 3 4 5 6 
#
# 1 0.013399 -0.003538 -0.001937 0.000000 -0.005485 0.000000
# 2 -0.003538 0.020521 -0.009305 0.000000 -0.001393 0.000000
# 3 -0.001937 -0.009305 0.016073 0.000000 -0.001136 0.000000
# 4 0.000000 0.000000 0.000000 0.028110 0.000000 -0.005292
# 5 -0.005485 -0.001393 -0.001136 0.000000 0.056158 0.000000
# 6 0.000000 0.000000 0.000000 -0.005292 0.000000 0.040985
#
#
# Mechanical properties :
#
#
# Convention : Reuss Voigt Hill
#
# Bulk Modulus (GPa) = 48.93945 52.42005 50.67975
# Shear Modulus (GPa) = 23.62775 26.41007 25.01891
#
# Velocity S-wave (km/s) = 3.52998 3.73203 3.63241
# Velocity P-wave (km/s) = 6.51336 6.79822 6.65731
#
# Compressibility (1/GPa) = 0.02043341
#
# Stress axis : x y z
#
# Youngs Moduli (GPa) = 74.63205 48.73167 62.21632
#
# Poissons Ratio (x) = 0.17242 0.12050
# Poissons Ratio (y) = 0.26405 0.57890
# Poissons Ratio (z) = 0.14455 0.45343
#
# Static dielectric constant tensor:
#      x y z
#    x 3.400400 0.000000 0.097690 
#    y 0.000000 3.491430 0.000000 
#    z 0.097690 0.000000 3.709870 
# 
# 
# High freq. dielectric constant tensor:
#      x y z
#    x 1.732970 0.000000 0.003220 
#    y 0.000000 1.738830 0.000000 
#    z 0.003220 0.000000 1.738700 
# 
# From -- ./inp_files/338826.got.cif
#   From: 2010.06.25/outbox.cif.g09.slc.cpg/sg12_170_cif.got.tgz:338826.got - 2010.06.28 00:19:55.
