data_PCOD8106325
_publ_section_title
;
Structure prediction by ZEFSAII (Michael W. Deem and Ramdas Pophale) SiO2 
 PCOD8106325
Probable space group: C 2/M
;
_chemical_formula_sum "Si O2"
_cell_formula_units_Z 56
_cell_length_a 20.626877
_cell_length_b 9.181516
_cell_length_c 14.561754
_cell_angle_alpha 90.000000
_cell_angle_beta 85.580548
_cell_angle_gamma 90.000000
_cell_volume 2749.592475
_symmetry_space_group_name_H-M "C 2/M"
_symmetry_group_IT_number 12
_symmetry_cell_setting 'monoclinic'
loop_
_space_group_symop_operation_xyz
x,y,z
-x,y,-z
-x,-y,-z
x,-y,z
1/2+x,1/2+y,z
1/2-x,1/2+y,-z
1/2-x,1/2-y,-z
1/2+x,1/2-y,z
loop_
_atom_site_type_symbol
_atom_site_label
_atom_site_fract_x
_atom_site_fract_y
_atom_site_fract_z
Si Si1 0.275260 0.667220 0.138361
Si Si2 0.492369 0.833946 0.706907
Si Si3 0.962817 0.335877 0.911265
Si Si4 0.766971 0.669697 0.318988
Si Si5 0.886437 0.669784 0.429690
Si Si6 0.879687 0.826916 0.618836
Si Si7 0.837977 0.833695 0.944637
O O1 0.263142 0.500000 0.163700
O O2 0.296591 0.748779 0.227908
O O3 0.209018 0.732159 0.107556
O O4 0.330427 0.687881 0.054982
O O5 0.506517 0.820426 0.814699
O O6 0.558034 0.783974 0.648894
O O7 0.430427 0.735557 0.687051
O O8 0.475206 0.000000 0.682278
O O9 0.933730 0.500000 0.920559
O O10 0.908925 0.213077 0.907727
O O11 0.000000 0.299043 0.000000
O O12 0.768136 0.500000 0.296142
O O13 0.814882 0.706151 0.398084
O O14 0.693786 0.723226 0.348515
O O15 0.891909 0.500000 0.454492
O O16 0.898754 0.765077 0.517857
O O17 0.885039 0.000000 0.616412
O O18 0.825015 0.000000 0.916992
#
# Coordination Sequence:
#
# PCOD8106325 Si02
#       7
#     8   8   8   8   8   8   8
#     4  10  21  36  57  85 115 152 196 241 289 347
#     4  10  22  40  61  87 117 155 201 242 289 350
#     4  10  22  38  60  88 117 153 197 243 291 346
#     4  10  22  38  60  88 119 153 193 242 299 353
#     4  10  22  40  62  87 117 156 198 243 294 350
#     4  11  23  39  60  89 120 153 195 244 298 353
#     4  10  21  37  56  82 116 154 196 241 292 345
#
# _framework density 20.366655000000002
#
# number of rings (size 3 to 8) (size 9 to 14) (size 15 to 20)
#    0.000    1.857    0.000    3.000    2.000    8.857 
#    0.000    0.000    0.000    0.000    0.000    0.000 
#    0.000    0.000    0.000    0.000    0.000    0.000 
#
# Total GULP energy -347244.993006 kJ/mol
# GULP energy per Si atom -12401.606893 kJ/mol
# Density = 2.032030 g / cm^3
# Si number density = 20.366655 Si / 1000 Ang^3
#
#
#
# Elastic Constant Matrix: (Units=GPa)
#
#
# Indices 1 2 3 4 5 6 
#
# 1 83.9935 20.5644 21.0079 0.0000 -6.1150 0.0000
# 2 20.5644 50.7912 33.0019 0.0000 -1.7893 0.0000
# 3 21.0079 33.0019 113.9510 0.0000 1.9762 0.0000
# 4 0.0000 0.0000 0.0000 8.9469 0.0000 -20.7661
# 5 -6.1150 -1.7893 1.9762 0.0000 26.0640 0.0000
# 6 0.0000 0.0000 0.0000 -20.7661 0.0000 13.4005
#
#
#
# Elastic Compliance Matrix: (Units=1/GPa)
#
#
# Indices 1 2 3 4 5 6 
#
# 1 0.013550 -0.004589 -0.001220 0.000000 0.002956 0.000000
# 2 -0.004589 0.025933 -0.006686 0.000000 0.001211 0.000000
# 3 -0.001220 -0.006686 0.010964 0.000000 -0.001577 0.000000
# 4 0.000000 0.000000 0.000000 -0.043041 0.000000 -0.066699
# 5 0.002956 0.001211 -0.001577 0.000000 0.039263 0.000000
# 6 0.000000 0.000000 0.000000 -0.066699 0.000000 -0.028737
#
#
# Mechanical properties :
#
#
# Convention : Reuss Voigt Hill
#
# Bulk Modulus (GPa) = 39.28136 44.20936 41.74536
# Shear Modulus (GPa) = 97.26148 21.29303 59.27725
#
# Velocity S-wave (km/s) = 6.91801 3.23690 5.40076
# Velocity P-wave (km/s) = 9.11816 5.97695 7.70924
#
# Compressibility (1/GPa) = 0.02545737
#
# Stress axis : x y z
#
# Youngs Moduli (GPa) = 73.80256 38.56075 91.20548
#
# Poissons Ratio (x) = 0.17696 0.11129
# Poissons Ratio (y) = 0.33868 0.60976
# Poissons Ratio (z) = 0.09006 0.25780
#
# Static dielectric constant tensor:
#      x y z
#    x 3.654510 0.000000 -0.063630 
#    y 0.000000 3.657370 0.000000 
#    z -0.063630 0.000000 3.841150 
# 
# 
# High freq. dielectric constant tensor:
#      x y z
#    x 1.787220 0.000000 -0.004280 
#    y 0.000000 1.793740 0.000000 
#    z -0.004280 0.000000 1.809450 
# 
# From -- ./inp_files/231066.got.cif
#   From: 2010.06.25/outbox.cif.g09.slc.cpg/sg12_116_cif.got.tgz:231066.got - 2010.06.28 00:19:55.
