data_PCOD8106226
_publ_section_title
;
Structure prediction by ZEFSAII (Michael W. Deem and Ramdas Pophale) SiO2 
 PCOD8106226
Probable space group: C 2/M
;
_chemical_formula_sum "Si O2"
_cell_formula_units_Z 48
_cell_length_a 18.203015
_cell_length_b 8.884483
_cell_length_c 27.410748
_cell_angle_alpha 90.000000
_cell_angle_beta 146.301725
_cell_angle_gamma 90.000000
_cell_volume 2459.506627
_symmetry_space_group_name_H-M "C 2/M"
_symmetry_group_IT_number 12
_symmetry_cell_setting 'monoclinic'
loop_
_space_group_symop_operation_xyz
x,y,z
-x,y,-z
-x,-y,-z
x,-y,z
1/2+x,1/2+y,z
1/2-x,1/2+y,-z
1/2-x,1/2-y,-z
1/2+x,1/2-y,z
loop_
_atom_site_type_symbol
_atom_site_label
_atom_site_fract_x
_atom_site_fract_y
_atom_site_fract_z
Si Si1 0.305522 0.677735 0.079397
Si Si2 0.253771 0.675485 0.235500
Si Si3 0.345073 0.674782 0.915737
Si Si4 0.586069 0.175704 0.236711
Si Si5 0.703017 0.824187 0.402279
Si Si6 0.552569 0.675439 0.401863
O O1 0.297735 0.500000 0.069921
O O2 0.216320 0.727651 0.075185
O O3 0.455585 0.726464 0.170951
O O4 0.250000 0.750000 0.000000
O O5 0.238927 0.500000 0.213514
O O6 0.218282 0.777306 0.170161
O O7 0.157818 0.720793 0.226488
O O8 0.403102 0.713685 0.334840
O O9 0.314450 0.500000 0.908275
O O10 0.500000 0.708360 0.000000
O O11 0.685227 0.216675 0.335728
O O12 0.547793 0.000000 0.216187
O O13 0.584992 0.750856 0.368061
O O14 0.846754 0.765808 0.500380
O O15 0.690701 0.000000 0.403821
O O16 0.571489 0.500000 0.404380
#
# Coordination Sequence:
#
# PCOD8106226 Si02
#       6
#     8   8   8   8   8   8
#     4  12  25  41  62  86 114 147 184 228 277 330
#     4  10  21  36  56  83 114 149 188 232 280 330
#     4  11  24  41  61  85 113 146 185 229 278 332
#     4  10  21  37  57  83 115 150 189 231 278 331
#     4   9  18  33  54  79 109 147 188 231 278 329
#     4   9  18  33  53  79 110 145 188 233 278 329
#
# _framework density 19.516110000000001
#
# number of rings (size 3 to 8) (size 9 to 14) (size 15 to 20)
#    0.000    1.833    0.000    4.000    0.000    9.333 
#    0.000    3.333    0.000    0.000    0.000    7.000 
#    0.000    0.000    0.000    0.000    0.000    0.000 
#
# Total GULP energy -297670.861420 kJ/mol
# GULP energy per Si atom -12402.952559 kJ/mol
# Density = 1.947169 g / cm^3
# Si number density = 19.516110 Si / 1000 Ang^3
#
#
#
# Elastic Constant Matrix: (Units=GPa)
#
#
# Indices 1 2 3 4 5 6 
#
# 1 131.5266 54.6808 59.8206 0.0000 -7.3367 0.0000
# 2 54.6808 81.9426 51.8565 0.0000 -0.2455 0.0000
# 3 59.8206 51.8565 116.1031 0.0001 -2.2507 0.0000
# 4 0.0000 0.0000 0.0001 23.3658 0.0000 -5.7808
# 5 -7.3367 -0.2455 -2.2507 0.0000 37.2406 0.0000
# 6 0.0000 0.0000 0.0000 -5.7808 0.0000 28.5003
#
#
#
# Elastic Compliance Matrix: (Units=1/GPa)
#
#
# Indices 1 2 3 4 5 6 
#
# 1 0.011594 -0.005542 -0.003459 0.000000 0.002038 0.000000
# 2 -0.005542 0.019665 -0.005954 0.000000 -0.001322 0.000000
# 3 -0.003459 -0.005954 0.013056 0.000000 0.000068 0.000000
# 4 0.000000 0.000000 0.000000 0.045059 0.000000 0.009139
# 5 0.002038 -0.001322 0.000068 0.000000 0.027249 0.000000
# 6 0.000000 0.000000 0.000000 0.009139 0.000000 0.036941
#
#
# Mechanical properties :
#
#
# Convention : Reuss Voigt Hill
#
# Bulk Modulus (GPa) = 69.41382 73.58758 71.50070
# Shear Modulus (GPa) = 26.55692 28.70231 27.62962
#
# Velocity S-wave (km/s) = 3.69286 3.83913 3.76671
# Velocity P-wave (km/s) = 7.33673 7.57891 7.45880
#
# Compressibility (1/GPa) = 0.01440635
#
# Stress axis : x y z
#
# Youngs Moduli (GPa) = 86.25335 50.85071 76.59461
#
# Poissons Ratio (x) = 0.28179 0.26494
# Poissons Ratio (y) = 0.47798 0.45603
# Poissons Ratio (z) = 0.29834 0.30276
#
# Static dielectric constant tensor:
#      x y z
#    x 5.657220 0.000000 -0.526350 
#    y 0.000000 3.494230 0.000000 
#    z -0.526350 0.000000 4.071590 
# 
# 
# High freq. dielectric constant tensor:
#      x y z
#    x 1.763500 0.000000 -0.001690 
#    y 0.000000 1.754780 0.000000 
#    z -0.001690 0.000000 1.776730 
# 
# From -- ./inp_files/377897.got.cif
#   From: 2010.06.25/outbox.cif.g09.slc.cpg/sg12_189_cif.got.tgz:377897.got - 2010.06.28 00:19:55.
