data_PCOD8106602
_publ_section_title
;
Structure prediction by ZEFSAII (Michael W. Deem and Ramdas Pophale) SiO2 
 PCOD8106602
Probable space group: C 2/M
;
_chemical_formula_sum "Si O2"
_cell_formula_units_Z 64
_cell_length_a 26.615847
_cell_length_b 13.237561
_cell_length_c 16.583887
_cell_angle_alpha 90.000000
_cell_angle_beta 32.438763
_cell_angle_gamma 90.000000
_cell_volume 3134.163589
_symmetry_space_group_name_H-M "C 2/M"
_symmetry_group_IT_number 12
_symmetry_cell_setting 'monoclinic'
loop_
_space_group_symop_operation_xyz
x,y,z
-x,y,-z
-x,-y,-z
x,-y,z
1/2+x,1/2+y,z
1/2-x,1/2+y,-z
1/2-x,1/2-y,-z
1/2+x,1/2-y,z
loop_
_atom_site_type_symbol
_atom_site_label
_atom_site_fract_x
_atom_site_fract_y
_atom_site_fract_z
Si Si1 0.025635 0.112873 0.652930
Si Si2 0.585524 0.114320 0.003659
Si Si3 0.589128 0.756496 0.428222
Si Si4 0.897609 0.218445 0.150774
Si Si5 0.297092 0.119236 0.601520
Si Si6 0.757461 0.309414 0.104197
Si Si7 0.414768 0.775867 0.306236
Si Si8 0.810726 0.110980 0.964521
O O1 0.064719 0.168354 0.522569
O O2 0.053999 0.171166 0.695504
O O3 0.915284 0.107498 0.790991
O O4 0.068265 0.000000 0.600605
O O5 0.593845 0.178581 0.911235
O O6 0.683662 0.119209 0.917285
O O7 0.564717 0.000000 0.006115
O O8 0.504917 0.152509 0.173561
O O9 0.500000 0.800848 0.500000
O O10 0.641159 0.846571 0.405293
O O11 0.652406 0.701062 0.276945
O O12 0.811465 0.150376 0.236541
O O13 0.873507 0.248109 0.274997
O O14 0.000000 0.163158 0.000000
O O15 0.336667 0.168221 0.465669
O O16 0.303358 0.000000 0.584999
O O17 0.758971 0.359493 0.013952
O O18 0.801894 0.196242 0.044901
O O19 0.781534 0.000000 0.037827
#
# Coordination Sequence:
#
# PCOD8106602 Si02
#       8
#     8   8   8   8   8   8   8   8
#     4  10  21  38  62  90 121 162 206 252 309 362
#     4  11  22  39  64  94 124 162 207 258 317 368
#     4  11  23  41  62  91 130 164 205 259 305 369
#     4  10  23  43  65  93 125 159 209 266 309 364
#     4  11  24  42  65  92 125 170 208 249 314 375
#     4  11  21  39  59  90 130 159 206 260 305 371
#     4  10  22  42  63  91 128 160 205 261 305 375
#     4  10  21  36  61  89 118 163 207 250 309 367
#
# _framework density 20.420121000000002
#
# number of rings (size 3 to 8) (size 9 to 14) (size 15 to 20)
#    0.000    1.500    3.750    1.125    0.000    5.500 
#    0.000    3.125    0.000    0.000    0.000    0.000 
#    0.000    0.000    0.000    0.000    0.000    0.000 
#
# Total GULP energy -396791.050682 kJ/mol
# GULP energy per Si atom -12399.720334 kJ/mol
# Density = 2.037364 g / cm^3
# Si number density = 20.420121 Si / 1000 Ang^3
#
#
#
# Elastic Constant Matrix: (Units=GPa)
#
#
# Indices 1 2 3 4 5 6 
#
# 1 98.7468 39.9007 32.2682 0.0000 -7.0319 0.0000
# 2 39.9007 142.6847 32.2065 0.0000 -3.6024 0.0000
# 3 32.2682 32.2065 87.9796 0.0000 -8.7329 0.0000
# 4 0.0000 0.0000 0.0000 20.9609 0.0000 1.6059
# 5 -7.0319 -3.6024 -8.7329 0.0000 36.9124 0.0000
# 6 0.0000 0.0000 0.0000 1.6059 0.0000 16.3151
#
#
#
# Elastic Compliance Matrix: (Units=1/GPa)
#
#
# Indices 1 2 3 4 5 6 
#
# 1 0.012423 -0.002662 -0.003454 0.000000 0.001290 0.000000
# 2 -0.002662 0.008210 -0.002048 0.000000 -0.000190 0.000000
# 3 -0.003454 -0.002048 0.013617 0.000000 0.002364 0.000000
# 4 0.000000 0.000000 0.000000 0.048070 0.000000 -0.004731
# 5 0.001290 -0.000190 0.002364 0.000000 0.027877 0.000000
# 6 0.000000 0.000000 0.000000 -0.004731 0.000000 0.061759
#
#
# Mechanical properties :
#
#
# Convention : Reuss Voigt Hill
#
# Bulk Modulus (GPa) = 55.79447 59.79577 57.79512
# Shear Modulus (GPa) = 25.73878 29.84006 27.78942
#
# Velocity S-wave (km/s) = 3.55415 3.82685 3.69302
# Velocity P-wave (km/s) = 6.65021 6.99090 6.82268
#
# Compressibility (1/GPa) = 0.01792292
#
# Stress axis : x y z
#
# Youngs Moduli (GPa) = 80.49589 121.79803 73.43506
#
# Poissons Ratio (x) = 0.32420 0.25364
# Poissons Ratio (y) = 0.21427 0.15041
# Poissons Ratio (z) = 0.27803 0.24946
#
# Static dielectric constant tensor:
#      x y z
#    x 3.846530 0.000000 -0.173860 
#    y 0.000000 3.696290 0.000000 
#    z -0.173860 0.000000 3.842880 
# 
# 
# High freq. dielectric constant tensor:
#      x y z
#    x 1.804300 0.000000 -0.000670 
#    y 0.000000 1.788990 0.000000 
#    z -0.000670 0.000000 1.802540 
# 
# From -- ./inp_files/296439.got.cif
#   From: 2010.06.25/outbox.cif.g09.slc.cpg/sg12_149_cif.got.tgz:296439.got - 2010.06.28 00:19:55.
