data_PCOD8106312
_publ_section_title
;
Structure prediction by ZEFSAII (Michael W. Deem and Ramdas Pophale) SiO2 
 PCOD8106312
Probable space group: C 2/M
;
_chemical_formula_sum "Si O2"
_cell_formula_units_Z 64
_cell_length_a 15.920240
_cell_length_b 9.039159
_cell_length_c 32.495004
_cell_angle_alpha 90.000000
_cell_angle_beta 137.864194
_cell_angle_gamma 90.000000
_cell_volume 3137.224959
_symmetry_space_group_name_H-M "C 2/M"
_symmetry_group_IT_number 12
_symmetry_cell_setting 'monoclinic'
loop_
_space_group_symop_operation_xyz
x,y,z
-x,y,-z
-x,-y,-z
x,-y,z
1/2+x,1/2+y,z
1/2-x,1/2+y,-z
1/2-x,1/2-y,-z
1/2+x,1/2-y,z
loop_
_atom_site_type_symbol
_atom_site_label
_atom_site_fract_x
_atom_site_fract_y
_atom_site_fract_z
Si Si1 0.174751 0.676326 0.436139
Si Si2 0.501434 0.335293 0.236317
Si Si3 0.665980 0.332543 0.217108
Si Si4 0.688374 0.174013 0.015770
Si Si5 0.390236 0.175762 0.351606
Si Si6 0.210378 0.661431 0.873182
Si Si7 0.948843 0.163690 0.906751
Si Si8 0.238426 0.826171 0.375261
O O1 0.186001 0.500000 0.441950
O O2 0.250000 0.750000 0.500000
O O3 0.239702 0.733728 0.417869
O O4 0.029727 0.726521 0.389828
O O5 0.452120 0.500000 0.227656
O O6 0.558790 0.326268 0.211944
O O7 0.386788 0.221336 0.196368
O O8 0.604145 0.289999 0.306972
O O9 0.699160 0.500000 0.216434
O O10 0.793295 0.258414 0.282085
O O11 0.608905 0.256839 0.155286
O O12 0.774659 0.219964 0.085342
O O13 0.688467 0.000000 0.012165
O O14 0.750000 0.250000 0.000000
O O15 0.546584 0.231491 0.965474
O O16 0.347587 0.226046 0.382568
O O17 0.375127 0.000000 0.345866
O O18 0.165129 0.500000 0.873116
O O19 0.342432 0.639494 0.900775
O O20 0.007027 0.000000 0.917354
O O21 0.254031 0.000000 0.390959
#
# Coordination Sequence:
#
# PCOD8106312 Si02
#       8
#     8   8   8   8   8   8   8   8
#     4  11  23  38  60  88 120 157 200 246 296 358
#     4   9  18  34  58  84 112 148 190 238 290 341
#     4   8  15  32  57  82 106 141 189 233 277 335
#     4  12  25  41  60  78 106 147 192 241 292 351
#     4   8  17  35  60  85 114 157 202 238 286 357
#     4  11  23  36  55  85 118 150 189 235 283 343
#     4  10  21  36  57  84 114 147 187 236 283 339
#     4   9  19  38  61  87 119 156 202 250 294 348
#
# _framework density 20.400193000000002
#
# number of rings (size 3 to 8) (size 9 to 14) (size 15 to 20)
#    0.000    2.250    0.000    4.500    1.750    4.500 
#    0.000    3.750    0.000    2.250    0.000    0.000 
#    0.000    0.000    0.000    0.000    0.000    0.000 
#
# Total GULP energy -396581.131214 kJ/mol
# GULP energy per Si atom -12393.160350 kJ/mol
# Density = 2.035376 g / cm^3
# Si number density = 20.400193 Si / 1000 Ang^3
#
#
#
# Elastic Constant Matrix: (Units=GPa)
#
#
# Indices 1 2 3 4 5 6 
#
# 1 49.9319 17.7596 8.1525 0.0000 -0.6517 0.0000
# 2 17.7596 89.9039 30.8305 0.0000 0.8890 0.0000
# 3 8.1525 30.8305 81.1896 0.0000 -5.6491 0.0000
# 4 0.0000 0.0000 0.0000 25.1692 0.0000 -5.2270
# 5 -0.6517 0.8890 -5.6491 0.0000 38.0610 0.0000
# 6 0.0000 0.0000 0.0000 -5.2270 0.0000 22.3950
#
#
#
# Elastic Compliance Matrix: (Units=1/GPa)
#
#
# Indices 1 2 3 4 5 6 
#
# 1 0.021574 -0.004060 -0.000598 0.000000 0.000375 0.000000
# 2 -0.004060 0.013593 -0.004831 0.000000 -0.001104 0.000000
# 3 -0.000598 -0.004831 0.014367 0.000000 0.002235 0.000000
# 4 0.000000 0.000000 0.000000 0.041755 0.000000 0.009746
# 5 0.000375 -0.001104 0.002235 0.000000 0.026638 0.000000
# 6 0.000000 0.000000 0.000000 0.009746 0.000000 0.046927
#
#
# Mechanical properties :
#
#
# Convention : Reuss Voigt Hill
#
# Bulk Modulus (GPa) = 32.72812 37.16785 34.94798
# Shear Modulus (GPa) = 25.77096 28.07722 26.92409
#
# Velocity S-wave (km/s) = 3.55811 3.71390 3.63684
# Velocity P-wave (km/s) = 5.74091 6.05390 5.89948
#
# Compressibility (1/GPa) = 0.03055477
#
# Stress axis : x y z
#
# Youngs Moduli (GPa) = 46.35209 73.56987 69.60485
#
# Poissons Ratio (x) = 0.29871 0.04165
# Poissons Ratio (y) = 0.18820 0.33624
# Poissons Ratio (z) = 0.02774 0.35539
#
# Static dielectric constant tensor:
#      x y z
#    x 3.694680 0.000000 0.026330 
#    y 0.000000 3.035430 0.000000 
#    z 0.026330 0.000000 3.488010 
# 
# 
# High freq. dielectric constant tensor:
#      x y z
#    x 1.796430 0.000000 -0.001370 
#    y 0.000000 1.765980 0.000000 
#    z -0.001370 0.000000 1.806850 
# 
# From -- ./inp_files/375647.got.cif
#   From: 2010.06.25/outbox.cif.g09.slc.cpg/sg12_188_cif.got.tgz:375647.got - 2010.06.28 00:19:55.
