data_PCOD8106033
_publ_section_title
;
Structure prediction by ZEFSAII (Michael W. Deem and Ramdas Pophale) SiO2 
 PCOD8106033
Probable space group: C 2/M
;
_chemical_formula_sum "Si O2"
_cell_formula_units_Z 64
_cell_length_a 15.252423
_cell_length_b 8.714288
_cell_length_c 32.522215
_cell_angle_alpha 90.000000
_cell_angle_beta 133.239397
_cell_angle_gamma 90.000000
_cell_volume 3149.046580
_symmetry_space_group_name_H-M "C 2/M"
_symmetry_group_IT_number 12
_symmetry_cell_setting 'monoclinic'
loop_
_space_group_symop_operation_xyz
x,y,z
-x,y,-z
-x,-y,-z
x,-y,z
1/2+x,1/2+y,z
1/2-x,1/2+y,-z
1/2-x,1/2-y,-z
1/2+x,1/2-y,z
loop_
_atom_site_type_symbol
_atom_site_label
_atom_site_fract_x
_atom_site_fract_y
_atom_site_fract_z
Si Si1 0.081306 0.818004 0.063335
Si Si2 0.951484 0.321762 0.368568
Si Si3 0.149296 0.682564 0.856795
Si Si4 0.766097 0.673657 0.739777
Si Si5 0.468316 0.181421 0.866799
Si Si6 0.109279 0.822078 0.565288
Si Si7 0.853802 0.178504 0.619810
Si Si8 0.459551 0.174693 0.731210
O O1 0.215929 0.750288 0.101132
O O2 0.022513 0.763304 0.086672
O O3 0.085665 0.000000 0.064415
O O4 0.000000 0.754937 0.000000
O O5 0.981306 0.500000 0.376448
O O6 0.072975 0.228528 0.397267
O O7 0.848198 0.284227 0.301810
O O8 0.905706 0.276938 0.398711
O O9 0.147239 0.500000 0.856985
O O10 0.081022 0.741222 0.875819
O O11 0.077989 0.736110 0.793053
O O12 0.719660 0.500000 0.730947
O O13 0.844028 0.727424 0.804114
O O14 0.846145 0.682637 0.724779
O O15 0.474475 0.000000 0.874815
O O16 0.230983 0.774073 0.581485
O O17 0.000000 0.786844 0.500000
O O18 0.116476 0.000000 0.579960
O O19 0.937268 0.214331 0.685872
O O20 0.822743 0.000000 0.607813
O O21 0.476990 0.000000 0.721103
#
# Coordination Sequence:
#
# PCOD8106033 Si02
#       8
#     8   8   8   8   8   8   8   8
#     4  10  21  36  54  80 115 154 199 249 299 355
#     4  12  25  40  63  94 127 166 206 249 306 366
#     4   8  17  35  56  79 111 155 193 234 299 361
#     4   9  18  35  59  86 121 155 192 249 308 363
#     4   9  19  36  57  81 110 151 196 241 295 358
#     4  11  25  47  71  93 124 165 208 256 306 360
#     4  12  25  40  62  94 129 164 205 253 303 363
#     4   9  17  34  60  85 117 158 199 244 303 370
#
# _framework density 20.323612000000001
#
# number of rings (size 3 to 8) (size 9 to 14) (size 15 to 20)
#    0.000    2.000    1.250    4.125    1.750    2.750 
#    0.000    2.500    0.000    0.000    0.000    0.000 
#    0.000    0.000    0.000    0.000    0.000    0.000 
#
# Total GULP energy -396878.036121 kJ/mol
# GULP energy per Si atom -12402.438629 kJ/mol
# Density = 2.027735 g / cm^3
# Si number density = 20.323612 Si / 1000 Ang^3
#
#
#
# Elastic Constant Matrix: (Units=GPa)
#
#
# Indices 1 2 3 4 5 6 
#
# 1 75.5908 10.6357 29.6665 0.0000 21.6928 0.0000
# 2 10.6357 51.4013 26.1445 0.0000 1.9070 0.0000
# 3 29.6665 26.1445 91.7902 0.0000 18.9233 0.0000
# 4 0.0000 0.0000 0.0000 22.8994 0.0000 -3.4464
# 5 21.6928 1.9070 18.9233 0.0000 28.5392 0.0000
# 6 0.0000 0.0000 0.0000 -3.4464 0.0000 28.7526
#
#
#
# Elastic Compliance Matrix: (Units=1/GPa)
#
#
# Indices 1 2 3 4 5 6 
#
# 1 0.017950 -0.001812 -0.002893 0.000000 -0.011604 0.000000
# 2 -0.001812 0.023191 -0.006932 0.000000 0.004424 0.000000
# 3 -0.002893 -0.006932 0.015354 0.000000 -0.007519 0.000000
# 4 0.000000 0.000000 0.000000 0.044472 0.000000 0.005331
# 5 -0.011604 0.004424 -0.007519 0.000000 0.048550 0.000000
# 6 0.000000 0.000000 0.000000 0.005331 0.000000 0.035418
#
#
# Mechanical properties :
#
#
# Convention : Reuss Voigt Hill
#
# Bulk Modulus (GPa) = 30.10145 39.07508 34.58826
# Shear Modulus (GPa) = 22.80168 26.19395 24.49782
#
# Velocity S-wave (km/s) = 3.35316 3.59394 3.47563
# Velocity P-wave (km/s) = 5.46212 6.04070 5.75868
#
# Compressibility (1/GPa) = 0.03322099
#
# Stress axis : x y z
#
# Youngs Moduli (GPa) = 55.71149 43.11936 65.13043
#
# Poissons Ratio (x) = 0.07814 0.18841
# Poissons Ratio (y) = 0.10096 0.45148
# Poissons Ratio (z) = 0.16116 0.29890
#
# Static dielectric constant tensor:
#      x y z
#    x 3.797240 0.000000 0.134240 
#    y 0.000000 3.384100 0.000000 
#    z 0.134240 0.000000 3.813810 
# 
# 
# High freq. dielectric constant tensor:
#      x y z
#    x 1.802570 0.000000 0.003530 
#    y 0.000000 1.771840 0.000000 
#    z 0.003530 0.000000 1.791930 
# 
# From -- ./inp_files/375634.got.cif
#   From: 2010.06.25/outbox.cif.g09.slc.cpg/sg12_188_cif.got.tgz:375634.got - 2010.06.28 00:19:55.
