data_PCOD8106585
_publ_section_title
;
Structure prediction by ZEFSAII (Michael W. Deem and Ramdas Pophale) SiO2 
 PCOD8106585
Probable space group: C 2/M
;
_chemical_formula_sum "Si O2"
_cell_formula_units_Z 48
_cell_length_a 19.408872
_cell_length_b 14.240514
_cell_length_c 22.813985
_cell_angle_alpha 90.000000
_cell_angle_beta 22.311488
_cell_angle_gamma 90.000000
_cell_volume 2393.872281
_symmetry_space_group_name_H-M "C 2/M"
_symmetry_group_IT_number 12
_symmetry_cell_setting 'monoclinic'
loop_
_space_group_symop_operation_xyz
x,y,z
-x,y,-z
-x,-y,-z
x,-y,z
1/2+x,1/2+y,z
1/2-x,1/2+y,-z
1/2-x,1/2-y,-z
1/2+x,1/2-y,z
loop_
_atom_site_type_symbol
_atom_site_label
_atom_site_fract_x
_atom_site_fract_y
_atom_site_fract_z
Si Si1 0.710056 0.809414 0.087741
Si Si2 0.711701 0.763122 0.849332
Si Si3 0.058427 0.102012 0.789312
Si Si4 0.319294 0.778161 0.382535
Si Si5 0.996577 0.890171 0.433565
Si Si6 0.163115 0.393972 0.331118
O O1 0.759505 0.743140 0.104020
O O2 0.499714 0.841163 0.251364
O O3 0.750000 0.750000 0.000000
O O4 0.846477 0.896766 0.974629
O O5 0.811817 0.670916 0.744983
O O6 0.814860 0.854440 0.742943
O O7 0.500000 0.770627 0.000000
O O8 0.126652 0.181665 0.691981
O O9 0.153830 0.112150 0.776595
O O10 0.101299 0.000000 0.727127
O O11 0.250000 0.750000 0.500000
O O12 0.174600 0.836350 0.459389
O O13 0.000000 0.870525 0.500000
O O14 0.977430 0.000000 0.434637
O O15 0.119625 0.500000 0.343970
O O16 0.000000 0.355625 0.500000
#
# Coordination Sequence:
#
# PCOD8106585 Si02
#       6
#     8   8   8   8   8   8
#     4  10  23  40  59  93 128 172 212 257 321 391
#     4  12  22  39  69  93 130 176 213 271 326 387
#     4  10  21  39  61  91 130 169 207 258 323 394
#     4  11  22  42  67  94 129 169 222 277 331 386
#     4  11  26  46  69  97 128 171 230 282 327 388
#     4  10  21  36  60  95 130 165 208 254 317 395
#
# _framework density 20.051193999999999
#
# number of rings (size 3 to 8) (size 9 to 14) (size 15 to 20)
#    0.000    1.333    3.333    2.500    2.333    2.667 
#    0.000    0.000    0.000    0.000    0.000    0.000 
#    0.000    0.000    0.000    0.000    0.000    0.000 
#
# Total GULP energy -297508.959349 kJ/mol
# GULP energy per Si atom -12396.206640 kJ/mol
# Density = 2.000556 g / cm^3
# Si number density = 20.051194 Si / 1000 Ang^3
#
#
#
# Elastic Constant Matrix: (Units=GPa)
#
#
# Indices 1 2 3 4 5 6 
#
# 1 134.5093 54.3943 63.3420 0.0235 1.1521 -0.0050
# 2 54.3943 120.1580 58.0145 0.0181 2.0832 0.0259
# 3 63.3420 58.0145 144.4412 0.0096 -14.0040 0.0327
# 4 0.0235 0.0181 0.0096 28.7428 0.0048 -1.0743
# 5 1.1521 2.0832 -14.0040 0.0048 44.9288 -0.0018
# 6 -0.0050 0.0259 0.0327 -1.0743 -0.0018 19.3861
#
#
#
# Elastic Compliance Matrix: (Units=1/GPa)
#
#
# Indices 1 2 3 4 5 6 
#
# 1 0.010257 -0.002971 -0.003420 -0.000005 -0.001191 0.000012
# 2 -0.002971 0.011333 -0.003395 -0.000004 -0.001507 -0.000011
# 3 -0.003420 -0.003395 0.010116 0.000001 0.003398 -0.000013
# 4 -0.000005 -0.000004 0.000001 0.034864 -0.000003 0.001932
# 5 -0.001191 -0.001507 0.003398 -0.000003 0.023417 -0.000002
# 6 0.000012 -0.000011 -0.000013 0.001932 -0.000002 0.051690
#
#
# Mechanical properties :
#
#
# Convention : Reuss Voigt Hill
#
# Bulk Modulus (GPa) = 82.41886 83.40113 82.91000
# Shear Modulus (GPa) = 30.24928 33.50204 31.87566
#
# Velocity S-wave (km/s) = 3.88829 4.09201 3.99145
# Velocity P-wave (km/s) = 7.83274 8.00065 7.91714
#
# Compressibility (1/GPa) = 0.01213314
#
# Stress axis : x y z
#
# Youngs Moduli (GPa) = 97.49737 88.24032 98.85295
#
# Poissons Ratio (x) = 0.26218 0.33808
# Poissons Ratio (y) = 0.28969 0.33560
# Poissons Ratio (z) = 0.33344 0.29957
#
# Static dielectric constant tensor:
#      x y z
#    x 4.020680 -0.000180 -0.714590 
#    y -0.000180 3.761860 0.000110 
#    z -0.714590 0.000110 5.036180 
# 
# 
# High freq. dielectric constant tensor:
#      x y z
#    x 1.792350 0.000000 -0.007220 
#    y 0.000000 1.766430 0.000020 
#    z -0.007220 0.000020 1.802810 
# 
# From -- ./inp_files/104979.got.cif
#   From: 2010.06.25/outbox.cif.g09.slc.cpg/sg12_53_cif.got.tgz:104979.got - 2010.06.28 00:19:55.
