data_PCOD8106104
_publ_section_title
;
Structure prediction by ZEFSAII (Michael W. Deem and Ramdas Pophale) SiO2 
 PCOD8106104
Probable space group: C 2/M
;
_chemical_formula_sum "Si O2"
_cell_formula_units_Z 56
_cell_length_a 18.551764
_cell_length_b 8.953219
_cell_length_c 29.031594
_cell_angle_alpha 90.000000
_cell_angle_beta 142.607199
_cell_angle_gamma 90.000000
_cell_volume 2928.339544
_symmetry_space_group_name_H-M "C 2/M"
_symmetry_group_IT_number 12
_symmetry_cell_setting 'monoclinic'
loop_
_space_group_symop_operation_xyz
x,y,z
-x,y,-z
-x,-y,-z
x,-y,z
1/2+x,1/2+y,z
1/2-x,1/2+y,-z
1/2-x,1/2-y,-z
1/2+x,1/2-y,z
loop_
_atom_site_type_symbol
_atom_site_label
_atom_site_fract_x
_atom_site_fract_y
_atom_site_fract_z
Si Si1 0.743245 0.826764 0.356267
Si Si2 0.087094 0.675990 0.630395
Si Si3 0.721196 0.672756 0.938338
Si Si4 0.363479 0.669774 0.937045
Si Si5 0.332306 0.325862 0.503920
Si Si6 0.505282 0.676228 0.766592
Si Si7 0.346295 0.170974 0.234281
O O1 0.842239 0.747116 0.375867
O O2 0.772117 0.802435 0.424158
O O3 0.616346 0.755079 0.281808
O O4 0.740750 0.000000 0.341605
O O5 0.076223 0.500000 0.616434
O O6 0.154292 0.713277 0.712280
O O7 0.957978 0.746119 0.567488
O O8 0.723131 0.500000 0.948922
O O9 0.823779 0.714512 0.955133
O O10 0.594909 0.722027 0.853068
O O11 0.750000 0.750000 0.000000
O O12 0.344213 0.500000 0.944468
O O13 0.287782 0.697470 0.852008
O O14 0.500000 0.705537 0.000000
O O15 0.348304 0.500000 0.523768
O O16 0.250000 0.250000 0.500000
O O17 0.485340 0.500000 0.753341
O O18 0.557791 0.730147 0.744397
O O19 0.386509 0.000000 0.247672
#
# Coordination Sequence:
#
# PCOD8106104 Si02
#       7
#     8   8   8   8   8   8   8
#     4  11  24  40  58  83 115 148 183 228 281 332
#     4  11  23  38  58  85 116 149 186 230 278 329
#     4  10  21  36  55  81 112 146 186 231 277 328
#     4   9  18  34  56  80 109 146 184 226 278 331
#     4  11  24  41  61  85 113 147 188 231 277 333
#     4  10  21  37  58  83 110 144 188 232 274 329
#     4   9  19  36  56  80 111 145 183 227 276 331
#
# _framework density 19.123466000000001
#
# number of rings (size 3 to 8) (size 9 to 14) (size 15 to 20)
#    0.000    1.857    0.000    3.429    0.000   11.714 
#    0.000    2.857    0.000    0.000    0.000    0.000 
#    0.000    0.000    0.000    0.000    0.000    0.000 
#
# Total GULP energy -347268.630168 kJ/mol
# GULP energy per Si atom -12402.451077 kJ/mol
# Density = 1.907994 g / cm^3
# Si number density = 19.123466 Si / 1000 Ang^3
#
#
#
# Elastic Constant Matrix: (Units=GPa)
#
#
# Indices 1 2 3 4 5 6 
#
# 1 131.9351 70.8437 65.3595 0.0000 12.3577 0.0000
# 2 70.8437 100.2532 59.5088 0.0000 -0.6109 -0.0001
# 3 65.3595 59.5088 99.8885 0.0000 8.3397 0.0000
# 4 0.0000 0.0000 0.0000 33.0175 0.0000 -0.1390
# 5 12.3577 -0.6109 8.3397 0.0000 39.0643 0.0000
# 6 0.0000 -0.0001 0.0000 -0.1390 0.0000 35.6886
#
#
#
# Elastic Compliance Matrix: (Units=1/GPa)
#
#
# Indices 1 2 3 4 5 6 
#
# 1 0.014084 -0.007243 -0.004601 0.000000 -0.003586 0.000000
# 2 -0.007243 0.019353 -0.007134 0.000000 0.004117 0.000000
# 3 -0.004601 -0.007134 0.017471 0.000000 -0.002386 0.000000
# 4 0.000000 0.000000 0.000000 0.030287 0.000000 0.000118
# 5 -0.003586 0.004117 -0.002386 0.000000 0.027307 0.000000
# 6 0.000000 0.000000 0.000000 0.000118 0.000000 0.028021
#
#
# Mechanical properties :
#
#
# Convention : Reuss Voigt Hill
#
# Bulk Modulus (GPa) = 77.20957 80.38899 78.79928
# Shear Modulus (GPa) = 27.96491 30.64508 29.30500
#
# Velocity S-wave (km/s) = 3.82820 4.00745 3.91885
# Velocity P-wave (km/s) = 7.74610 7.97126 7.85948
#
# Compressibility (1/GPa) = 0.01295176
#
# Stress axis : x y z
#
# Youngs Moduli (GPa) = 71.00280 51.67236 57.23853
#
# Poissons Ratio (x) = 0.37427 0.26335
# Poissons Ratio (y) = 0.51429 0.40832
# Poissons Ratio (z) = 0.32667 0.36862
#
# Static dielectric constant tensor:
#      x y z
#    x 3.491040 0.000000 -0.123010 
#    y 0.000000 3.682570 0.000000 
#    z -0.123010 0.000000 3.662360 
# 
# 
# High freq. dielectric constant tensor:
#      x y z
#    x 1.742200 0.000000 0.000940 
#    y 0.000000 1.755150 0.000000 
#    z 0.000940 0.000000 1.758810 
# 
# From -- ./inp_files/363150.got.cif
#   From: 2010.06.25/outbox.cif.g09.slc.cpg/sg12_182_cif.got.tgz:363150.got - 2010.06.28 00:19:55.
