data_PCOD8106816
_publ_section_title
;
Structure prediction by ZEFSAII (Michael W. Deem and Ramdas Pophale) SiO2 
 PCOD8106816
Probable space group: C 2/M
;
_chemical_formula_sum "Si O2"
_cell_formula_units_Z 64
_cell_length_a 25.371424
_cell_length_b 8.568746
_cell_length_c 15.235887
_cell_angle_alpha 90.000000
_cell_angle_beta 107.875499
_cell_angle_gamma 90.000000
_cell_volume 3152.402587
_symmetry_space_group_name_H-M "C 2/M"
_symmetry_group_IT_number 12
_symmetry_cell_setting 'monoclinic'
loop_
_space_group_symop_operation_xyz
x,y,z
-x,y,-z
-x,-y,-z
x,-y,z
1/2+x,1/2+y,z
1/2-x,1/2+y,-z
1/2-x,1/2-y,-z
1/2+x,1/2-y,z
loop_
_atom_site_type_symbol
_atom_site_label
_atom_site_fract_x
_atom_site_fract_y
_atom_site_fract_z
Si Si1 0.737654 0.179192 0.753212
Si Si2 0.776490 0.821605 0.430696
Si Si3 0.352020 0.816009 0.814998
Si Si4 0.420925 0.316021 0.695288
Si Si5 0.059034 0.316316 0.001380
Si Si6 0.111205 0.320302 0.696936
Si Si7 0.542052 0.680210 0.812905
Si Si8 0.611310 0.179656 0.498507
O O1 0.744974 0.204972 0.654109
O O2 0.790292 0.272336 0.819459
O O3 0.675217 0.239501 0.743237
O O4 0.743962 0.000000 0.782821
O O5 0.750000 0.750000 0.500000
O O6 0.841344 0.809213 0.479457
O O7 0.759036 0.000000 0.402137
O O8 0.369517 0.741148 0.729699
O O9 0.356009 0.000000 0.805541
O O10 0.393243 0.749963 0.910760
O O11 0.415735 0.500000 0.675838
O O12 0.477671 0.271945 0.773913
O O13 0.426393 0.226808 0.603867
O O14 0.057774 0.500000 0.010098
O O15 0.071327 0.272132 0.907095
O O16 0.000000 0.243349 0.000000
O O17 0.108441 0.500000 0.724641
O O18 0.072528 0.217062 0.737801
O O19 0.086835 0.303510 0.584926
O O20 0.548561 0.500000 0.836880
O O21 0.631567 0.000000 0.497320
#
# Coordination Sequence:
#
# PCOD8106816 Si02
#       8
#     8   8   8   8   8   8   8   8
#     4  10  21  38  58  83 115 153 193 238 290 344
#     4  11  20  32  51  76 110 151 193 240 289 342
#     4  11  22  37  61  91 119 152 193 241 294 349
#     4  11  23  37  55  86 123 157 192 240 297 350
#     4  10  21  40  64  89 118 152 191 237 292 353
#     4   9  21  41  62  82 113 157 201 240 285 342
#     4  11  24  39  61  89 118 153 194 243 295 347
#     4  10  21  37  56  81 112 153 200 243 286 339
#
# _framework density 20.301974999999999
#
# number of rings (size 3 to 8) (size 9 to 14) (size 15 to 20)
#    0.000    1.625    1.250    4.500    0.000    6.250 
#    0.000    3.125    0.000    0.000    0.000    0.000 
#    0.000    0.000    0.000    0.000    0.000    0.000 
#
# Total GULP energy -396547.154399 kJ/mol
# GULP energy per Si atom -12392.098575 kJ/mol
# Density = 2.025577 g / cm^3
# Si number density = 20.301975 Si / 1000 Ang^3
#
#
#
# Elastic Constant Matrix: (Units=GPa)
#
#
# Indices 1 2 3 4 5 6 
#
# 1 55.1057 21.2716 16.7700 0.0000 3.4025 0.0000
# 2 21.2716 50.7542 17.6619 0.0000 1.4256 0.0000
# 3 16.7700 17.6619 99.0663 0.0000 4.3612 0.0000
# 4 0.0000 0.0000 0.0000 28.2405 0.0000 1.4393
# 5 3.4025 1.4256 4.3612 0.0000 30.2758 0.0000
# 6 0.0000 0.0000 0.0000 1.4393 0.0000 31.2488
#
#
#
# Elastic Compliance Matrix: (Units=1/GPa)
#
#
# Indices 1 2 3 4 5 6 
#
# 1 0.022197 -0.008500 -0.002164 0.000000 -0.001783 0.000000
# 2 -0.008500 0.024267 -0.002898 0.000000 0.000230 0.000000
# 3 -0.002164 -0.002898 0.011030 0.000000 -0.001209 0.000000
# 4 0.000000 0.000000 0.000000 0.035493 0.000000 -0.001635
# 5 -0.001783 0.000230 -0.001209 0.000000 0.033393 0.000000
# 6 0.000000 0.000000 0.000000 -0.001635 0.000000 0.032077
#
#
# Mechanical properties :
#
#
# Convention : Reuss Voigt Hill
#
# Bulk Modulus (GPa) = 32.92533 35.14813 34.03673
# Shear Modulus (GPa) = 25.54888 27.90121 26.72504
#
# Velocity S-wave (km/s) = 3.55130 3.71119 3.63213
# Velocity P-wave (km/s) = 5.75054 5.97613 5.86442
#
# Compressibility (1/GPa) = 0.03037175
#
# Stress axis : x y z
#
# Youngs Moduli (GPa) = 45.05215 41.20815 90.65895
#
# Poissons Ratio (x) = 0.35026 0.19615
# Poissons Ratio (y) = 0.38293 0.26270
# Poissons Ratio (z) = 0.09747 0.11941
#
# Static dielectric constant tensor:
#      x y z
#    x 3.707560 0.000000 0.221550 
#    y 0.000000 3.674190 0.000000 
#    z 0.221550 0.000000 3.727700 
# 
# 
# High freq. dielectric constant tensor:
#      x y z
#    x 1.782440 0.000000 0.008160 
#    y 0.000000 1.792100 0.000000 
#    z 0.008160 0.000000 1.791010 
# 
# From -- ./inp_files/244264.got.cif
#   From: 2010.06.25/outbox.cif.g09.slc.cpg/sg12_123_cif.got.tgz:244264.got - 2010.06.28 00:19:55.
