data_PCOD8106030
_publ_section_title
;
Structure prediction by ZEFSAII (Michael W. Deem and Ramdas Pophale) SiO2 
 PCOD8106030
Probable space group: C 2/M
;
_chemical_formula_sum "Si O2"
_cell_formula_units_Z 56
_cell_length_a 15.432806
_cell_length_b 14.933817
_cell_length_c 22.603664
_cell_angle_alpha 90.000000
_cell_angle_beta 33.421108
_cell_angle_gamma 90.000000
_cell_volume 2869.321701
_symmetry_space_group_name_H-M "C 2/M"
_symmetry_group_IT_number 12
_symmetry_cell_setting 'monoclinic'
loop_
_space_group_symop_operation_xyz
x,y,z
-x,y,-z
-x,-y,-z
x,-y,z
1/2+x,1/2+y,z
1/2-x,1/2+y,-z
1/2-x,1/2-y,-z
1/2+x,1/2-y,z
loop_
_atom_site_type_symbol
_atom_site_label
_atom_site_fract_x
_atom_site_fract_y
_atom_site_fract_z
Si Si1 0.822681 0.760143 0.600729
Si Si2 0.420773 0.601336 0.824175
Si Si3 0.619555 0.311211 0.815324
Si Si4 0.222056 0.898688 0.581733
Si Si5 0.312842 0.752339 0.029928
Si Si6 0.294415 0.897938 0.820775
Si Si7 0.841529 0.602066 0.387108
O O1 0.754604 0.745557 0.705388
O O2 0.824283 0.666776 0.564246
O O3 0.710412 0.833583 0.635723
O O4 0.000000 0.797128 0.500000
O O5 0.364582 0.500000 0.865976
O O6 0.513880 0.633305 0.829380
O O7 0.537532 0.610269 0.701816
O O8 0.265926 0.659580 0.896173
O O9 0.699874 0.379208 0.814721
O O10 0.503700 0.244516 0.918541
O O11 0.242497 0.872701 0.501763
O O12 0.282665 0.000000 0.558962
O O13 0.260627 0.663486 0.094002
O O14 0.250000 0.750000 0.000000
O O15 0.476464 0.880846 0.703048
O O16 0.263008 0.000000 0.857990
O O17 0.810223 0.500000 0.385413
#
# Coordination Sequence:
#
# PCOD8106030 Si02
#       7
#     8   8   8   8   8   8   8
#     4  11  22  36  57  81 112 150 182 222 280 337
#     4   9  18  34  57  82 112 150 185 222 274 330
#     4  10  21  36  54  84 116 141 179 233 280 325
#     4   9  18  33  55  83 112 142 183 233 278 325
#     4  10  21  36  54  80 115 145 179 224 268 325
#     4  11  22  37  60  85 111 144 181 228 283 329
#     4  10  21  37  56  81 111 145 189 232 270 324
#
# _framework density 19.516808000000001
#
# number of rings (size 3 to 8) (size 9 to 14) (size 15 to 20)
#    0.000    2.000    0.000    4.714    0.000    5.714 
#    0.000    0.714    0.000    2.571    0.000    0.000 
#    0.000    0.000    0.000    0.000    0.000    0.000 
#
# Total GULP energy -347193.903781 kJ/mol
# GULP energy per Si atom -12399.782278 kJ/mol
# Density = 1.947239 g / cm^3
# Si number density = 19.516808 Si / 1000 Ang^3
#
#
#
# Elastic Constant Matrix: (Units=GPa)
#
#
# Indices 1 2 3 4 5 6 
#
# 1 62.6495 50.7850 39.3002 -0.0004 -4.0118 0.0001
# 2 50.7850 98.7586 59.5331 -0.0005 -4.3735 0.0003
# 3 39.3002 59.5331 134.7824 -0.0006 -1.8666 0.0003
# 4 -0.0004 -0.0005 -0.0006 24.5643 0.0004 1.5794
# 5 -4.0118 -4.3735 -1.8666 0.0004 35.7425 -0.0002
# 6 0.0001 0.0003 0.0003 1.5794 -0.0002 26.1732
#
#
#
# Elastic Compliance Matrix: (Units=1/GPa)
#
#
# Indices 1 2 3 4 5 6 
#
# 1 0.028029 -0.012859 -0.002473 0.000000 0.001443 0.000000
# 2 -0.012859 0.019767 -0.004972 0.000000 0.000716 0.000000
# 3 -0.002473 -0.004972 0.010332 0.000000 -0.000346 0.000000
# 4 0.000000 0.000000 0.000000 0.040868 0.000000 -0.002466
# 5 0.001443 0.000716 -0.000346 0.000000 0.028209 0.000000
# 6 0.000000 0.000000 0.000000 -0.002466 0.000000 0.038356
#
#
# Mechanical properties :
#
#
# Convention : Reuss Voigt Hill
#
# Bulk Modulus (GPa) = 57.07585 66.15855 61.61720
# Shear Modulus (GPa) = 23.58396 27.06748 25.32572
#
# Velocity S-wave (km/s) = 3.47997 3.72812 3.60618
# Velocity P-wave (km/s) = 6.74202 7.24595 6.99852
#
# Compressibility (1/GPa) = 0.01752054
#
# Stress axis : x y z
#
# Youngs Moduli (GPa) = 35.67694 50.58987 96.78991
#
# Poissons Ratio (x) = 0.65053 0.23938
# Poissons Ratio (y) = 0.45876 0.48120
# Poissons Ratio (z) = 0.08823 0.25151
#
# Static dielectric constant tensor:
#      x y z
#    x 3.301180 0.000000 -0.071580 
#    y 0.000000 3.687490 0.000000 
#    z -0.071580 0.000000 4.057030 
# 
# 
# High freq. dielectric constant tensor:
#      x y z
#    x 1.734340 0.000000 0.002460 
#    y 0.000000 1.755790 0.000000 
#    z 0.002460 0.000000 1.782570 
# 
# From -- ./inp_files/310764.got.cif
#   From: 2010.06.25/outbox.cif.g09.slc.cpg/sg12_156_cif.got.tgz:310764.got - 2010.06.28 00:19:55.
