data_PCOD8106168
_publ_section_title
;
Structure prediction by ZEFSAII (Michael W. Deem and Ramdas Pophale) SiO2 
 PCOD8106168
Probable space group: C 2/M
;
_chemical_formula_sum "Si O2"
_cell_formula_units_Z 48
_cell_length_a 26.273229
_cell_length_b 10.164896
_cell_length_c 12.651334
_cell_angle_alpha 90.000000
_cell_angle_beta 133.045687
_cell_angle_gamma 90.000000
_cell_volume 2469.204083
_symmetry_space_group_name_H-M "C 2/M"
_symmetry_group_IT_number 12
_symmetry_cell_setting 'monoclinic'
loop_
_space_group_symop_operation_xyz
x,y,z
-x,y,-z
-x,-y,-z
x,-y,z
1/2+x,1/2+y,z
1/2-x,1/2+y,-z
1/2-x,1/2-y,-z
1/2+x,1/2-y,z
loop_
_atom_site_type_symbol
_atom_site_label
_atom_site_fract_x
_atom_site_fract_y
_atom_site_fract_z
Si Si1 0.687603 0.350927 0.637391
Si Si2 0.926337 0.153630 0.363708
Si Si3 0.968587 0.649263 0.840388
Si Si4 0.189958 0.142969 0.190972
Si Si5 0.330977 0.285284 0.617382
Si Si6 0.063854 0.847667 0.862634
O O1 0.710382 0.500000 0.698375
O O2 0.634408 0.289608 0.647661
O O3 0.753721 0.256939 0.734682
O O4 0.651666 0.352960 0.470288
O O5 0.910429 0.183068 0.219291
O O6 0.000000 0.219196 0.500000
O O7 0.929962 0.000000 0.394275
O O8 0.987696 0.500000 0.835596
O O9 0.884475 0.664045 0.713938
O O10 0.000162 0.752894 0.801966
O O11 0.000000 0.681710 0.000000
O O12 0.159816 0.122634 0.267017
O O13 0.219877 0.000000 0.197783
O O14 0.128091 0.187465 0.027787
O O15 0.250000 0.250000 0.500000
O O16 0.039940 0.000000 0.840170
#
# Coordination Sequence:
#
# PCOD8106168 Si02
#       6
#     8   8   8   8   8   8
#     4  10  21  36  59  85 112 154 202 241 284 345
#     4   9  18  35  57  81 110 148 195 241 285 343
#     4  11  23  39  61  90 121 152 191 244 298 349
#     4  10  21  36  55  84 118 152 190 242 300 348
#     4  10  21  37  57  84 118 155 189 236 289 351
#     4  10  21  38  60  85 117 154 193 239 291 350
#
# _framework density 19.439461999999999
#
# number of rings (size 3 to 8) (size 9 to 14) (size 15 to 20)
#    0.000    2.000    1.667    1.500    0.000    9.667 
#    0.000    0.833    0.000    2.000    0.000    0.000 
#    0.000    0.000    0.000    0.000    0.000    0.000 
#
# Total GULP energy -297417.990209 kJ/mol
# GULP energy per Si atom -12392.416259 kJ/mol
# Density = 1.939522 g / cm^3
# Si number density = 19.439462 Si / 1000 Ang^3
#
#
#
# Elastic Constant Matrix: (Units=GPa)
#
#
# Indices 1 2 3 4 5 6 
#
# 1 130.7119 49.5025 59.5874 0.0000 -8.6554 0.0000
# 2 49.5025 90.7147 32.4147 0.0000 10.6536 0.0000
# 3 59.5874 32.4147 129.3182 0.0000 0.1293 0.0000
# 4 0.0000 0.0000 0.0000 22.2005 0.0000 2.5060
# 5 -8.6554 10.6536 0.1293 0.0000 29.8894 0.0000
# 6 0.0000 0.0000 0.0000 2.5060 0.0000 23.8349
#
#
#
# Elastic Compliance Matrix: (Units=1/GPa)
#
#
# Indices 1 2 3 4 5 6 
#
# 1 0.012090 -0.005777 -0.004128 0.000000 0.005578 0.000000
# 2 -0.005777 0.015449 -0.001203 0.000000 -0.007174 0.000000
# 3 -0.004128 -0.001203 0.009937 0.000000 -0.000810 0.000000
# 4 0.000000 0.000000 0.000000 0.045585 0.000000 -0.004793
# 5 0.005578 -0.007174 -0.000810 0.000000 0.037633 0.000000
# 6 0.000000 0.000000 0.000000 -0.004793 0.000000 0.042459
#
#
# Mechanical properties :
#
#
# Convention : Reuss Voigt Hill
#
# Bulk Modulus (GPa) = 65.53642 70.41711 67.97676
# Shear Modulus (GPa) = 26.25287 29.13432 27.69359
#
# Velocity S-wave (km/s) = 3.67889 3.87553 3.77849
# Velocity P-wave (km/s) = 7.19944 7.50525 7.35393
#
# Compressibility (1/GPa) = 0.01525869
#
# Stress axis : x y z
#
# Youngs Moduli (GPa) = 82.71598 64.73069 100.62992
#
# Poissons Ratio (x) = 0.37396 0.41541
# Poissons Ratio (y) = 0.47787 0.12107
# Poissons Ratio (z) = 0.34146 0.07788
#
# Static dielectric constant tensor:
#      x y z
#    x 3.734930 0.000000 -0.207870 
#    y 0.000000 3.247160 0.000000 
#    z -0.207870 0.000000 3.756290 
# 
# 
# High freq. dielectric constant tensor:
#      x y z
#    x 1.754850 0.000000 -0.005470 
#    y 0.000000 1.731720 0.000000 
#    z -0.005470 0.000000 1.769930 
# 
# From -- ./inp_files/174867.got.cif
#   From: 2010.06.25/outbox.cif.g09.slc.cpg/sg12_88_cif.got.tgz:174867.got - 2010.06.28 00:19:55.
