data_PCOD8106553
_publ_section_title
;
Structure prediction by ZEFSAII (Michael W. Deem and Ramdas Pophale) SiO2 
 PCOD8106553
Probable space group: C 2/M
;
_chemical_formula_sum "Si O2"
_cell_formula_units_Z 56
_cell_length_a 27.417170
_cell_length_b 9.043189
_cell_length_c 17.401503
_cell_angle_alpha 90.000000
_cell_angle_beta 39.381361
_cell_angle_gamma 90.000000
_cell_volume 2737.463354
_symmetry_space_group_name_H-M "C 2/M"
_symmetry_group_IT_number 12
_symmetry_cell_setting 'monoclinic'
loop_
_space_group_symop_operation_xyz
x,y,z
-x,y,-z
-x,-y,-z
x,-y,z
1/2+x,1/2+y,z
1/2-x,1/2+y,-z
1/2-x,1/2-y,-z
1/2+x,1/2-y,z
loop_
_atom_site_type_symbol
_atom_site_label
_atom_site_fract_x
_atom_site_fract_y
_atom_site_fract_z
Si Si1 0.908598 0.835463 0.339593
Si Si2 0.647029 0.831516 0.458662
Si Si3 0.579673 0.330614 0.090389
Si Si4 0.682966 0.670534 0.693960
Si Si5 0.332691 0.823042 0.881894
Si Si6 0.418439 0.827520 0.065861
Si Si7 0.586378 0.825066 0.374633
O O1 0.914636 0.738972 0.408920
O O2 0.839641 0.789564 0.365975
O O3 0.987936 0.820544 0.197633
O O4 0.894201 0.000000 0.386725
O O5 0.727966 0.803734 0.399910
O O6 0.640397 0.770060 0.379756
O O7 0.623187 0.000000 0.482753
O O8 0.608417 0.500000 0.065204
O O9 0.610388 0.228630 0.120867
O O10 0.608465 0.266461 0.974788
O O11 0.659049 0.500000 0.741896
O O12 0.643036 0.791577 0.794904
O O13 0.372404 0.765664 0.753585
O O14 0.323189 0.000000 0.893634
O O15 0.250000 0.750000 0.000000
O O16 0.418246 0.000000 0.044950
O O17 0.500000 0.776318 0.000000
O O18 0.500000 0.764904 0.500000
O O19 0.582418 0.000000 0.371145
#
# Coordination Sequence:
#
# PCOD8106553 Si02
#       7
#     8   8   8   8   8   8   8
#     4  10  21  37  57  86 121 159 199 245 303 364
#     4  10  21  36  60  88 114 155 204 247 303 366
#     4  11  23  40  63  87 120 164 206 248 305 371
#     4  10  21  37  57  84 121 161 200 244 303 371
#     4  11  24  42  65  95 128 161 208 265 321 378
#     4  11  23  38  59  90 122 156 202 252 302 360
#     4   9  19  38  62  88 119 158 207 259 308 365
#
# _framework density 20.456894999999999
#
# number of rings (size 3 to 8) (size 9 to 14) (size 15 to 20)
#    0.000    1.714    1.429    2.571    2.000    4.000 
#    0.000    1.429    0.000    3.857    0.000    0.000 
#    0.000    0.000    0.000    0.000    0.000    0.000 
#
# Total GULP energy -347094.472233 kJ/mol
# GULP energy per Si atom -12396.231151 kJ/mol
# Density = 2.041033 g / cm^3
# Si number density = 20.456895 Si / 1000 Ang^3
#
#
#
# Elastic Constant Matrix: (Units=GPa)
#
#
# Indices 1 2 3 4 5 6 
#
# 1 125.9513 36.6773 38.9292 -0.0066 15.9822 0.0034
# 2 36.6773 55.9391 36.5135 -0.0042 7.6946 0.0052
# 3 38.9292 36.5135 103.6425 -0.0046 17.9618 0.0034
# 4 -0.0066 -0.0042 -0.0046 35.5827 0.0036 6.0410
# 5 15.9822 7.6946 17.9618 0.0036 31.6716 -0.0033
# 6 0.0034 0.0052 0.0034 6.0410 -0.0033 30.9876
#
#
#
# Elastic Compliance Matrix: (Units=1/GPa)
#
#
# Indices 1 2 3 4 5 6 
#
# 1 0.010357 -0.005423 -0.001444 0.000002 -0.003090 -0.000001
# 2 -0.005423 0.026090 -0.007242 0.000002 0.000505 -0.000003
# 3 -0.001444 -0.007242 0.013653 0.000001 -0.005255 -0.000001
# 4 0.000002 0.000002 0.000001 0.029066 -0.000006 -0.005666
# 5 -0.003090 0.000505 -0.005255 -0.000006 0.035991 0.000006
# 6 -0.000001 -0.000003 -0.000001 -0.005666 0.000006 0.033376
#
#
# Mechanical properties :
#
#
# Convention : Reuss Voigt Hill
#
# Bulk Modulus (GPa) = 45.70093 56.64142 51.17117
# Shear Modulus (GPa) = 27.16721 31.20922 29.18822
#
# Velocity S-wave (km/s) = 3.64816 3.91014 3.78142
# Velocity P-wave (km/s) = 6.33514 6.93786 6.64334
#
# Compressibility (1/GPa) = 0.02188140
#
# Stress axis : x y z
#
# Youngs Moduli (GPa) = 96.55036 38.32870 73.24329
#
# Poissons Ratio (x) = 0.20786 0.10578
# Poissons Ratio (y) = 0.52361 0.53044
# Poissons Ratio (z) = 0.13944 0.27758
#
# Static dielectric constant tensor:
#      x y z
#    x 4.848150 -0.000010 -0.737270 
#    y -0.000010 3.564530 0.000020 
#    z -0.737270 0.000020 4.285460 
# 
# 
# High freq. dielectric constant tensor:
#      x y z
#    x 1.814300 0.000000 0.005930 
#    y 0.000000 1.781340 0.000000 
#    z 0.005930 0.000000 1.800400 
# 
# From -- ./inp_files/292430.got.cif
#   From: 2010.06.25/outbox.cif.g09.slc.cpg/sg12_147_cif.got.tgz:292430.got - 2010.06.28 00:19:55.
