data_PCOD8106349
_publ_section_title
;
Structure prediction by ZEFSAII (Michael W. Deem and Ramdas Pophale) SiO2 
 PCOD8106349
Probable space group: C 2/M
;
_chemical_formula_sum "Si O2"
_cell_formula_units_Z 64
_cell_length_a 13.442248
_cell_length_b 17.863028
_cell_length_c 14.619115
_cell_angle_alpha 90.000000
_cell_angle_beta 106.629504
_cell_angle_gamma 90.000000
_cell_volume 3363.512546
_symmetry_space_group_name_H-M "C 2/M"
_symmetry_group_IT_number 12
_symmetry_cell_setting 'monoclinic'
loop_
_space_group_symop_operation_xyz
x,y,z
-x,y,-z
-x,-y,-z
x,-y,z
1/2+x,1/2+y,z
1/2-x,1/2+y,-z
1/2-x,1/2-y,-z
1/2+x,1/2-y,z
loop_
_atom_site_type_symbol
_atom_site_label
_atom_site_fract_x
_atom_site_fract_y
_atom_site_fract_z
Si Si1 0.925099 0.299427 0.751144
Si Si2 0.272905 0.308525 0.426293
Si Si3 0.605568 0.414841 0.840386
Si Si4 0.261869 0.415073 0.951608
Si Si5 0.440124 0.306351 0.321357
Si Si6 0.473337 0.087857 0.094154
Si Si7 0.433265 0.672084 0.896988
Si Si8 0.912498 0.082188 0.552240
O O1 0.826498 0.318493 0.663252
O O2 0.899698 0.237413 0.820284
O O3 0.021176 0.270413 0.714564
O O4 0.955032 0.375374 0.810014
O O5 0.250000 0.250000 0.500000
O O6 0.373422 0.283352 0.392653
O O7 0.304301 0.387683 0.480885
O O8 0.594039 0.500000 0.800846
O O9 0.630272 0.357712 0.764178
O O10 0.499882 0.392012 0.864339
O O11 0.702206 0.407966 0.934038
O O12 0.275434 0.500000 0.921458
O O13 0.144007 0.388568 0.915295
O O14 0.325831 0.362684 0.901346
O O15 0.544219 0.356146 0.365712
O O16 0.492505 0.000000 0.105684
O O17 0.500000 0.117370 0.000000
O O18 0.500000 0.704169 0.000000
O O19 0.000000 0.071933 0.500000
O O20 0.891120 0.000000 0.591289
#
# Coordination Sequence:
#
# PCOD8106349 Si02
#       8
#     8   8   8   8   8   8   8   8
#     4  11  23  37  59  84 114 153 194 237 292 341
#     4  11  23  39  59  84 113 151 191 238 297 352
#     4   9  17  31  55  88 118 146 185 234 286 342
#     4   9  18  34  57  81 117 160 188 227 279 330
#     4  10  21  36  57  87 115 147 185 240 296 348
#     4  10  23  41  57  81 120 162 202 237 275 333
#     4   9  18  34  53  88 119 148 189 231 285 344
#     4   9  18  36  59  83 111 140 177 234 296 346
#
# _framework density 19.027726999999999
#
# number of rings (size 3 to 8) (size 9 to 14) (size 15 to 20)
#    0.000    2.250    1.250    1.125    3.500    2.500 
#    0.000    2.500    0.000    0.750    0.000    1.750 
#    0.000    0.000    0.000    0.000    0.000    0.000 
#
# Total GULP energy -396750.432728 kJ/mol
# GULP energy per Si atom -12398.451023 kJ/mol
# Density = 1.898442 g / cm^3
# Si number density = 19.027727 Si / 1000 Ang^3
#
#
#
# Elastic Constant Matrix: (Units=GPa)
#
#
# Indices 1 2 3 4 5 6 
#
# 1 90.2890 47.1288 52.7065 0.0000 1.9924 0.0000
# 2 47.1288 77.9609 43.1990 0.0000 5.7608 0.0000
# 3 52.7065 43.1990 108.7804 0.0000 12.8191 0.0000
# 4 0.0000 0.0000 0.0000 30.8872 0.0000 0.9579
# 5 1.9924 5.7608 12.8191 0.0000 36.2886 0.0000
# 6 0.0000 0.0000 0.0000 0.9579 0.0000 13.5970
#
#
#
# Elastic Compliance Matrix: (Units=1/GPa)
#
#
# Indices 1 2 3 4 5 6 
#
# 1 0.018911 -0.008175 -0.006205 0.000000 0.002451 0.000000
# 2 -0.008175 0.019983 -0.003813 0.000000 -0.001377 0.000000
# 3 -0.006205 -0.003813 0.014193 0.000000 -0.004068 0.000000
# 4 0.000000 0.000000 0.000000 0.032447 0.000000 -0.002286
# 5 0.002451 -0.001377 -0.004068 0.000000 0.029078 0.000000
# 6 0.000000 0.000000 0.000000 -0.002286 0.000000 0.073706
#
#
# Mechanical properties :
#
#
# Convention : Reuss Voigt Hill
#
# Bulk Modulus (GPa) = 59.87472 62.56654 61.22063
# Shear Modulus (GPa) = 21.71365 25.08763 23.40064
#
# Velocity S-wave (km/s) = 3.38177 3.63502 3.51068
# Velocity P-wave (km/s) = 6.83987 7.11133 6.97692
#
# Compressibility (1/GPa) = 0.01670154
#
# Stress axis : x y z
#
# Youngs Moduli (GPa) = 52.87989 50.04250 70.45803
#
# Poissons Ratio (x) = 0.40908 0.43721
# Poissons Ratio (y) = 0.43228 0.26863
# Poissons Ratio (z) = 0.32813 0.19079
#
# Static dielectric constant tensor:
#      x y z
#    x 3.334100 0.000000 -0.011730 
#    y 0.000000 3.486200 0.000000 
#    z -0.011730 0.000000 3.631080 
# 
# 
# High freq. dielectric constant tensor:
#      x y z
#    x 1.725790 0.000000 0.001770 
#    y 0.000000 1.732670 0.000000 
#    z 0.001770 0.000000 1.745590 
# 
# From -- ./inp_files/216405.got.cif
#   From: 2010.06.25/outbox.cif.g09.slc.cpg/sg12_109_cif.got.tgz:216405.got - 2010.06.28 00:19:55.
