data_PCOD8106496
_publ_section_title
;
Structure prediction by ZEFSAII (Michael W. Deem and Ramdas Pophale) SiO2 
 PCOD8106496
Probable space group: C 2/M
;
_chemical_formula_sum "Si O2"
_cell_formula_units_Z 64
_cell_length_a 27.588974
_cell_length_b 8.594238
_cell_length_c 22.150851
_cell_angle_alpha 90.000000
_cell_angle_beta 37.022551
_cell_angle_gamma 90.000000
_cell_volume 3162.445943
_symmetry_space_group_name_H-M "C 2/M"
_symmetry_group_IT_number 12
_symmetry_cell_setting 'monoclinic'
loop_
_space_group_symop_operation_xyz
x,y,z
-x,y,-z
-x,-y,-z
x,-y,z
1/2+x,1/2+y,z
1/2-x,1/2+y,-z
1/2-x,1/2-y,-z
1/2+x,1/2-y,z
loop_
_atom_site_type_symbol
_atom_site_label
_atom_site_fract_x
_atom_site_fract_y
_atom_site_fract_z
Si Si1 0.149604 0.317545 0.489103
Si Si2 0.608141 0.681344 0.654794
Si Si3 0.684878 0.182840 0.696280
Si Si4 0.409278 0.815040 0.091609
Si Si5 0.173984 0.316076 0.945561
Si Si6 0.351516 0.315712 0.793678
Si Si7 0.922519 0.817175 0.848976
Si Si8 0.009167 0.683480 0.422315
O O1 0.162962 0.500000 0.465767
O O2 0.147518 0.280216 0.562074
O O3 0.221897 0.223987 0.385413
O O4 0.067582 0.258455 0.539517
O O5 0.617826 0.500000 0.629913
O O6 0.654570 0.720465 0.669465
O O7 0.515574 0.729066 0.753680
O O8 0.634577 0.240709 0.804061
O O9 0.673495 0.000000 0.696275
O O10 0.360901 0.747303 0.082255
O O11 0.411044 0.000000 0.086633
O O12 0.500000 0.748079 0.000000
O O13 0.179226 0.500000 0.936326
O O14 0.262910 0.246682 0.868684
O O15 0.114824 0.271798 0.057943
O O16 0.351213 0.500000 0.794123
O O17 0.380341 0.254269 0.830173
O O18 0.410430 0.259667 0.682911
O O19 0.909745 0.000000 0.870294
O O20 0.018400 0.500000 0.408541
O O21 0.000000 0.739719 0.500000
#
# Coordination Sequence:
#
# PCOD8106496 Si02
#       8
#     8   8   8   8   8   8   8   8
#     4  11  23  40  61  87 119 154 196 242 291 349
#     4  11  22  39  61  86 119 155 196 244 294 348
#     4  11  23  38  61  89 118 154 196 243 296 348
#     4   9  19  37  58  84 117 151 192 238 282 339
#     4  10  21  36  59  87 115 153 199 242 289 348
#     4  10  21  38  59  87 119 152 195 245 293 347
#     4  10  21  37  57  85 119 153 191 242 296 343
#     4  10  23  41  61  87 120 158 197 239 292 351
#
# _framework density 20.237500000000001
#
# number of rings (size 3 to 8) (size 9 to 14) (size 15 to 20)
#    0.000    1.750    1.250    2.625    1.750    3.750 
#    0.000    1.250    0.000    3.375    0.000    0.000 
#    0.000    0.000    0.000    0.000    0.000    0.000 
#
# Total GULP energy -396967.898763 kJ/mol
# GULP energy per Si atom -12405.246836 kJ/mol
# Density = 2.019144 g / cm^3
# Si number density = 20.237500 Si / 1000 Ang^3
#
#
#
# Elastic Constant Matrix: (Units=GPa)
#
#
# Indices 1 2 3 4 5 6 
#
# 1 106.6723 11.0598 46.8423 -0.0221 5.7027 0.0112
# 2 11.0598 20.5054 15.5705 -0.0028 -3.4165 0.0291
# 3 46.8423 15.5705 141.4461 0.0042 0.0751 0.0038
# 4 -0.0221 -0.0028 0.0042 33.2424 0.0057 -0.4199
# 5 5.7027 -3.4165 0.0751 0.0057 42.0307 -0.0084
# 6 0.0112 0.0291 0.0038 -0.4199 -0.0084 10.4460
#
#
#
# Elastic Compliance Matrix: (Units=1/GPa)
#
#
# Indices 1 2 3 4 5 6 
#
# 1 0.011337 -0.003899 -0.003324 0.000008 -0.001849 -0.000001
# 2 -0.003899 0.055359 -0.004805 0.000000 0.005037 -0.000144
# 3 -0.003324 -0.004805 0.008700 -0.000004 0.000045 0.000014
# 4 0.000008 0.000000 -0.000004 0.030097 -0.000005 0.001210
# 5 -0.001849 0.005037 0.000045 -0.000005 0.024452 0.000007
# 6 -0.000001 -0.000144 0.000014 0.001210 0.000007 0.095780
#
#
# Mechanical properties :
#
#
# Convention : Reuss Voigt Hill
#
# Bulk Modulus (GPa) = 19.47847 46.17432 32.82640
# Shear Modulus (GPa) = 18.73392 30.15390 24.44391
#
# Velocity S-wave (km/s) = 3.04584 3.86424 3.47919
# Velocity P-wave (km/s) = 4.69205 6.54030 5.69170
#
# Compressibility (1/GPa) = 0.05133873
#
# Stress axis : x y z
#
# Youngs Moduli (GPa) = 88.20353 18.06398 114.94604
#
# Poissons Ratio (x) = 0.07043 0.38213
# Poissons Ratio (y) = 0.34388 0.55237
# Poissons Ratio (z) = 0.29323 0.08681
#
# Static dielectric constant tensor:
#      x y z
#    x 3.957450 -0.000040 -0.131250 
#    y -0.000040 3.356450 0.000060 
#    z -0.131250 0.000060 3.802530 
# 
# 
# High freq. dielectric constant tensor:
#      x y z
#    x 1.804270 0.000000 -0.004210 
#    y 0.000000 1.767770 0.000010 
#    z -0.004210 0.000010 1.805950 
# 
# From -- ./inp_files/353270.got.cif
#   From: 2010.06.25/outbox.cif.g09.slc.cpg/sg12_177_cif.got.tgz:353270.got - 2010.06.28 00:19:55.
