data_PCOD8106903
_publ_section_title
;
Structure prediction by ZEFSAII (Michael W. Deem and Ramdas Pophale) SiO2 
 PCOD8106903
Probable space group: C 2/M
;
_chemical_formula_sum "Si O2"
_cell_formula_units_Z 64
_cell_length_a 28.176288
_cell_length_b 8.941185
_cell_length_c 12.885272
_cell_angle_alpha 90.000000
_cell_angle_beta 89.552381
_cell_angle_gamma 90.000000
_cell_volume 3246.079827
_symmetry_space_group_name_H-M "C 2/M"
_symmetry_group_IT_number 12
_symmetry_cell_setting 'monoclinic'
loop_
_space_group_symop_operation_xyz
x,y,z
-x,y,-z
-x,-y,-z
x,-y,z
1/2+x,1/2+y,z
1/2-x,1/2+y,-z
1/2-x,1/2-y,-z
1/2+x,1/2-y,z
loop_
_atom_site_type_symbol
_atom_site_label
_atom_site_fract_x
_atom_site_fract_y
_atom_site_fract_z
Si Si1 0.051620 0.323570 0.615509
Si Si2 0.304641 0.672602 0.278291
Si Si3 0.556624 0.177005 0.385471
Si Si4 0.390892 0.177244 0.190887
Si Si5 0.304502 0.823438 0.713495
Si Si6 0.800340 0.174318 0.508790
Si Si7 0.888446 0.824650 0.798621
Si Si8 0.054771 0.175814 0.998274
O O1 0.053650 0.500000 0.620676
O O2 0.071373 0.274543 0.502345
O O3 0.082619 0.255570 0.708232
O O4 0.997547 0.273341 0.631518
O O5 0.308175 0.500000 0.246501
O O6 0.336458 0.767153 0.197729
O O7 0.249977 0.726345 0.268345
O O8 0.324641 0.697331 0.395572
O O9 0.587109 0.273554 0.307094
O O10 0.564105 0.000000 0.366414
O O11 0.391693 0.000000 0.186563
O O12 0.416828 0.238527 0.090085
O O13 0.326015 0.756619 0.604657
O O14 0.337070 0.757510 0.805679
O O15 0.309373 0.000000 0.708028
O O16 0.750000 0.250000 0.500000
O O17 0.794734 0.000000 0.534902
O O18 0.921368 0.776935 0.893876
O O19 0.879519 0.000000 0.797448
O O20 0.058535 0.000000 0.977257
O O21 0.000000 0.228040 0.000000
#
# Coordination Sequence:
#
# PCOD8106903 Si02
#       8
#     8   8   8   8   8   8   8   8
#     4   8  17  33  53  82 115 148 184 227 281 343
#     4   9  20  37  55  80 116 156 194 233 283 343
#     4   9  17  34  57  79 113 153 185 223 283 351
#     4  11  22  35  58  89 116 147 195 243 287 342
#     4  10  21  37  57  81 114 157 200 241 290 346
#     4   9  17  31  52  80 115 155 197 238 282 335
#     4  11  23  37  57  86 115 145 193 244 292 349
#     4  10  23  44  65  84 113 153 193 239 296 353
#
# _framework density 19.716089
#
# number of rings (size 3 to 8) (size 9 to 14) (size 15 to 20)
#    0.000    2.375    0.000    3.750    1.750    4.250 
#    0.000    3.125    0.000    0.000    0.000    0.000 
#    0.000    0.000    0.000    0.000    0.000    0.000 
#
# Total GULP energy -396684.528824 kJ/mol
# GULP energy per Si atom -12396.391526 kJ/mol
# Density = 1.967121 g / cm^3
# Si number density = 19.716089 Si / 1000 Ang^3
#
#
#
# Elastic Constant Matrix: (Units=GPa)
#
#
# Indices 1 2 3 4 5 6 
#
# 1 121.2434 44.5764 77.2044 0.0000 1.3423 0.0000
# 2 44.5764 68.6952 49.0104 0.0000 -1.1036 0.0000
# 3 77.2044 49.0104 111.2227 0.0000 0.4998 0.0000
# 4 0.0000 0.0000 0.0000 30.4000 0.0000 -2.1118
# 5 1.3423 -1.1036 0.4998 0.0000 35.9615 0.0000
# 6 0.0000 0.0000 0.0000 -2.1118 0.0000 28.2339
#
#
#
# Elastic Compliance Matrix: (Units=1/GPa)
#
#
# Indices 1 2 3 4 5 6 
#
# 1 0.015328 -0.003451 -0.009117 0.000000 -0.000551 0.000000
# 2 -0.003451 0.022031 -0.007317 0.000000 0.000907 0.000000
# 3 -0.009117 -0.007317 0.018544 0.000000 -0.000142 0.000000
# 4 0.000000 0.000000 0.000000 0.033067 0.000000 0.002473
# 5 -0.000551 0.000907 -0.000142 0.000000 0.027858 0.000000
# 6 0.000000 0.000000 0.000000 0.002473 0.000000 0.035603
#
#
# Mechanical properties :
#
#
# Convention : Reuss Voigt Hill
#
# Bulk Modulus (GPa) = 61.97909 71.41595 66.69752
# Shear Modulus (GPa) = 25.30656 27.61042 26.45849
#
# Velocity S-wave (km/s) = 3.58655 3.74625 3.66727
# Velocity P-wave (km/s) = 6.97533 7.41710 7.19960
#
# Compressibility (1/GPa) = 0.01613447
#
# Stress axis : x y z
#
# Youngs Moduli (GPa) = 65.24014 45.39070 53.92600
#
# Poissons Ratio (x) = 0.15664 0.49163
# Poissons Ratio (y) = 0.22514 0.39455
# Poissons Ratio (z) = 0.59477 0.33210
#
# Static dielectric constant tensor:
#      x y z
#    x 3.916930 0.000000 0.443740 
#    y 0.000000 3.431460 0.000000 
#    z 0.443740 0.000000 3.960170 
# 
# 
# High freq. dielectric constant tensor:
#      x y z
#    x 1.775790 0.000000 0.005370 
#    y 0.000000 1.756910 0.000000 
#    z 0.005370 0.000000 1.757140 
# 
# From -- ./inp_files/187631.got.cif
#   From: 2010.06.25/outbox.cif.g09.slc.cpg/sg12_94_cif.got.tgz:187631.got - 2010.06.28 00:19:55.
