data_PCOD8106732
_publ_section_title
;
Structure prediction by ZEFSAII (Michael W. Deem and Ramdas Pophale) SiO2 
 PCOD8106732
Probable space group: C 2/M
;
_chemical_formula_sum "Si O2"
_cell_formula_units_Z 40
_cell_length_a 20.279735
_cell_length_b 9.288184
_cell_length_c 17.706607
_cell_angle_alpha 90.000000
_cell_angle_beta 43.293429
_cell_angle_gamma 90.000000
_cell_volume 2287.097487
_symmetry_space_group_name_H-M "C 2/M"
_symmetry_group_IT_number 12
_symmetry_cell_setting 'monoclinic'
loop_
_space_group_symop_operation_xyz
x,y,z
-x,y,-z
-x,-y,-z
x,-y,z
1/2+x,1/2+y,z
1/2-x,1/2+y,-z
1/2-x,1/2-y,-z
1/2+x,1/2-y,z
loop_
_atom_site_type_symbol
_atom_site_label
_atom_site_fract_x
_atom_site_fract_y
_atom_site_fract_z
Si Si1 0.418549 0.662776 0.504660
Si Si2 0.207490 0.665518 0.286447
Si Si3 0.049484 0.335517 0.296416
Si Si4 0.846336 0.668402 0.941788
Si Si5 0.600687 0.334068 0.955041
O O1 0.500000 0.673612 0.500000
O O2 0.391607 0.500000 0.506759
O O3 0.323172 0.740600 0.615480
O O4 0.458193 0.738892 0.396089
O O5 0.194063 0.500000 0.320498
O O6 0.143618 0.704749 0.266649
O O7 0.317091 0.702231 0.174579
O O8 0.020192 0.500000 0.335459
O O9 0.073734 0.306426 0.189175
O O10 0.822390 0.500000 0.971056
O O11 0.890750 0.730270 0.980951
O O12 0.750000 0.750000 0.000000
O O13 0.610299 0.500000 0.973697
O O14 0.500000 0.302361 0.000000
#
# Coordination Sequence:
#
# PCOD8106732 Si02
#       5
#     8   8   8   8   8
#     4   9  17  27  43  72 102 129 164 211 260 302
#     4   9  16  30  49  70 100 137 171 206 254 310
#     4   9  17  30  48  72 101 134 168 207 258 312
#     4  11  21  34  54  79 108 139 176 218 264 312
#     4  10  21  37  55  77 107 143 180 215 259 315
#
# _framework density 17.489415999999999
#
# number of rings (size 3 to 8) (size 9 to 14) (size 15 to 20)
#    0.000    2.400    2.000    1.200    0.000    5.200 
#    0.000    0.000    0.000    1.200    0.000    0.000 
#    0.000    0.000    0.000    0.000    0.000    0.000 
#
# Total GULP energy -248026.192005 kJ/mol
# GULP energy per Si atom -12401.309600 kJ/mol
# Density = 1.744961 g / cm^3
# Si number density = 17.489416 Si / 1000 Ang^3
#
#
#
# Elastic Constant Matrix: (Units=GPa)
#
#
# Indices 1 2 3 4 5 6 
#
# 1 59.6667 47.5407 52.4812 -0.0001 -2.4508 0.0001
# 2 47.5407 123.2936 89.2261 -0.0001 6.0798 0.0001
# 3 52.4812 89.2261 153.6365 0.0000 -2.7034 0.0000
# 4 -0.0001 -0.0001 0.0000 33.1277 0.0000 5.8405
# 5 -2.4508 6.0798 -2.7034 0.0000 18.5190 0.0000
# 6 0.0001 0.0001 0.0000 5.8405 0.0000 20.5577
#
#
#
# Elastic Compliance Matrix: (Units=1/GPa)
#
#
# Indices 1 2 3 4 5 6 
#
# 1 0.027005 -0.006996 -0.005072 0.000000 0.005130 0.000000
# 2 -0.006996 0.016452 -0.007295 0.000000 -0.007392 0.000000
# 3 -0.005072 -0.007295 0.012541 0.000000 0.003555 0.000000
# 4 0.000000 0.000000 0.000000 0.031778 0.000000 -0.009028
# 5 0.005130 -0.007392 0.003555 0.000000 0.057623 0.000000
# 6 0.000000 0.000000 0.000000 -0.009028 0.000000 0.051208
#
#
# Mechanical properties :
#
#
# Convention : Reuss Voigt Hill
#
# Bulk Modulus (GPa) = 57.89373 79.45475 68.67424
# Shear Modulus (GPa) = 20.73911 24.26414 22.50163
#
# Velocity S-wave (km/s) = 3.44729 3.72877 3.59079
# Velocity P-wave (km/s) = 7.00137 8.00419 7.51952
#
# Compressibility (1/GPa) = 0.01727303
#
# Stress axis : x y z
#
# Youngs Moduli (GPa) = 37.02970 60.78271 79.74052
#
# Poissons Ratio (x) = 0.42521 0.40443
# Poissons Ratio (y) = 0.25904 0.58172
# Poissons Ratio (z) = 0.18781 0.44342
#
# Static dielectric constant tensor:
#      x y z
#    x 2.873400 0.000000 0.074860 
#    y 0.000000 3.346460 0.000000 
#    z 0.074860 0.000000 3.442660 
# 
# 
# High freq. dielectric constant tensor:
#      x y z
#    x 1.622200 0.000000 0.003900 
#    y 0.000000 1.681710 0.000000 
#    z 0.003900 0.000000 1.691830 
# 
# From -- ./inp_files/162753.got.cif
#   From: 2010.06.25/outbox.cif.g09.slc.cpg/sg12_82_cif.got.tgz:162753.got - 2010.06.28 00:19:55.
