data_PCOD8107765
_publ_section_title
;
Structure prediction by ZEFSAII (Michael W. Deem and Ramdas Pophale) SiO2 
 PCOD8107765
Probable space group: C 2/M
;
_chemical_formula_sum "Si O2"
_cell_formula_units_Z 56
_cell_length_a 10.970803
_cell_length_b 29.091414
_cell_length_c 9.683856
_cell_angle_alpha 90.000000
_cell_angle_beta 110.447809
_cell_angle_gamma 90.000000
_cell_volume 2895.922264
_symmetry_space_group_name_H-M "C 2/M"
_symmetry_group_IT_number 12
_symmetry_cell_setting 'monoclinic'
loop_
_space_group_symop_operation_xyz
x,y,z
-x,y,-z
-x,-y,-z
x,-y,z
1/2+x,1/2+y,z
1/2-x,1/2+y,-z
1/2-x,1/2-y,-z
1/2+x,1/2-y,z
loop_
_atom_site_type_symbol
_atom_site_label
_atom_site_fract_x
_atom_site_fract_y
_atom_site_fract_z
Si Si1 0.756565 0.173594 0.621735
Si Si2 0.596902 0.750750 0.654853
Si Si3 0.780825 0.164424 0.178918
Si Si4 0.379233 0.446860 0.852485
Si Si5 0.022918 0.112185 0.356268
Si Si6 0.808123 0.625259 0.138022
Si Si7 0.561047 0.162499 0.319257
O O1 0.726822 0.228245 0.628489
O O2 0.888876 0.159295 0.594360
O O3 0.772746 0.152510 0.779040
O O4 0.628923 0.152459 0.493718
O O5 0.500000 0.730085 0.500000
O O6 0.640376 0.712531 0.782730
O O7 0.525618 0.791228 0.711004
O O8 0.675149 0.166581 0.255715
O O9 0.882513 0.123230 0.238267
O O10 0.709266 0.154686 0.007699
O O11 0.349749 0.500000 0.816478
O O12 0.404964 0.424910 0.711534
O O13 0.253998 0.425620 0.883001
O O14 0.500000 0.438258 0.000000
O O15 0.000000 0.091550 0.500000
O O16 0.961974 0.621866 0.235345
#
# Coordination Sequence:
#
# PCOD8107765 Si02
#       7
#     8   8   8   8   8   8   8
#     4   9  20  37  57  79 114 165 198 236 286 335
#     4   9  21  35  54  80 117 160 211 248 277 334
#     4  12  22  33  56  86 115 157 198 248 290 326
#     4  10  21  41  67  90 114 145 184 238 301 366
#     4  11  21  36  60  92 117 151 194 243 291 347
#     4  10  21  39  59  83 114 148 194 234 293 358
#     4  10  21  38  56  81 116 164 198 239 287 337
#
# _framework density 19.337534000000002
#
# number of rings (size 3 to 8) (size 9 to 14) (size 15 to 20)
#    0.000    1.857    2.857    2.143    2.000    3.714 
#    0.000    0.000    3.143    9.429    0.000    0.000 
#    0.000    0.000    0.000    0.000    0.000    0.000 
#
# Total GULP energy -346982.766133 kJ/mol
# GULP energy per Si atom -12392.241648 kJ/mol
# Density = 1.929352 g / cm^3
# Si number density = 19.337534 Si / 1000 Ang^3
#
#
#
# Elastic Constant Matrix: (Units=GPa)
#
#
# Indices 1 2 3 4 5 6 
#
# 1 64.5103 27.0182 -2.7685 0.0000 8.4559 0.0000
# 2 27.0182 78.2274 26.7883 0.0000 -0.2535 0.0000
# 3 -2.7685 26.7883 77.9900 0.0000 8.1722 0.0000
# 4 0.0000 0.0000 0.0000 19.7136 0.0000 -4.7904
# 5 8.4559 -0.2535 8.1722 0.0000 26.8275 0.0000
# 6 0.0000 0.0000 0.0000 -4.7904 0.0000 18.8531
#
#
#
# Elastic Compliance Matrix: (Units=1/GPa)
#
#
# Indices 1 2 3 4 5 6 
#
# 1 0.020317 -0.008581 0.004491 0.000000 -0.007853 0.000000
# 2 -0.008581 0.018187 -0.007079 0.000000 0.005033 0.000000
# 3 0.004491 -0.007079 0.016082 0.000000 -0.006381 0.000000
# 4 0.000000 0.000000 0.000000 0.054065 0.000000 0.013737
# 5 -0.007853 0.005033 -0.006381 0.000000 0.041742 0.000000
# 6 0.000000 0.000000 0.000000 0.013737 0.000000 0.056532
#
#
# Mechanical properties :
#
#
# Convention : Reuss Voigt Hill
#
# Bulk Modulus (GPa) = 31.00784 35.86706 33.43745
# Shear Modulus (GPa) = 20.83232 24.39150 22.61191
#
# Velocity S-wave (km/s) = 3.28579 3.55541 3.42325
# Velocity P-wave (km/s) = 5.51951 5.95338 5.74055
#
# Compressibility (1/GPa) = 0.03224991
#
# Stress axis : x y z
#
# Youngs Moduli (GPa) = 49.21907 54.98341 62.18214
#
# Poissons Ratio (x) = 0.47180 -0.27929
# Poissons Ratio (y) = 0.42233 0.44019
# Poissons Ratio (z) = -0.22107 0.38923
#
# Static dielectric constant tensor:
#      x y z
#    x 3.810660 0.000000 0.089310 
#    y 0.000000 3.258710 0.000000 
#    z 0.089310 0.000000 3.577450 
# 
# 
# High freq. dielectric constant tensor:
#      x y z
#    x 1.765560 0.000000 0.001210 
#    y 0.000000 1.707860 0.000000 
#    z 0.001210 0.000000 1.760600 
# 
# From -- ./inp_files/54339.got.cif
#   From: 2010.06.25/outbox.cif.g09.slc.cpg/sg12_28_cif.got.tgz:54339.got - 2010.06.28 00:19:55.
