data_PCOD8107501
_publ_section_title
;
Structure prediction by ZEFSAII (Michael W. Deem and Ramdas Pophale) SiO2 
 PCOD8107501
Probable space group: C 2/M
;
_chemical_formula_sum "Si O2"
_cell_formula_units_Z 64
_cell_length_a 19.158091
_cell_length_b 28.012369
_cell_length_c 13.305656
_cell_angle_alpha 90.000000
_cell_angle_beta 151.785310
_cell_angle_gamma 90.000000
_cell_volume 3375.937764
_symmetry_space_group_name_H-M "C 2/M"
_symmetry_group_IT_number 12
_symmetry_cell_setting 'monoclinic'
loop_
_space_group_symop_operation_xyz
x,y,z
-x,y,-z
-x,-y,-z
x,-y,z
1/2+x,1/2+y,z
1/2-x,1/2+y,-z
1/2-x,1/2-y,-z
1/2+x,1/2-y,z
loop_
_atom_site_type_symbol
_atom_site_label
_atom_site_fract_x
_atom_site_fract_y
_atom_site_fract_z
Si Si1 0.158640 0.944776 0.151868
Si Si2 0.832684 0.195943 0.821857
Si Si3 0.657692 0.805911 0.149492
Si Si4 0.347326 0.878664 0.524519
Si Si5 0.689265 0.379014 0.522757
Si Si6 0.164249 0.055640 0.670558
Si Si7 0.172941 0.371680 0.986975
Si Si8 0.869354 0.129811 0.046005
O O1 0.281922 0.923276 0.381229
O O2 0.191250 0.000000 0.178003
O O3 0.169233 0.920590 0.055821
O O4 0.000000 0.934679 0.000000
O O5 0.793181 0.251195 0.781862
O O6 0.721316 0.171386 0.601445
O O7 0.809299 0.172580 0.901001
O O8 0.000000 0.187117 0.000000
O O9 0.781060 0.835201 0.365255
O O10 0.500000 0.814485 0.000000
O O11 0.655622 0.823748 0.031704
O O12 0.319921 0.885196 0.608458
O O13 0.523280 0.880041 0.734660
O O14 0.674472 0.427726 0.567739
O O15 0.544378 0.366617 0.276585
O O16 0.000000 0.067214 0.500000
O O17 0.201539 0.000000 0.724300
O O18 0.286057 0.083243 0.891167
O O19 0.301672 0.365020 0.069881
#
# Coordination Sequence:
#
# PCOD8107501 Si02
#       8
#     8   8   8   8   8   8   8   8
#     4  10  21  37  60  90 117 150 200 243 282 347
#     4  10  21  38  61  88 115 153 203 241 280 349
#     4  10  22  38  59  88 118 151 197 245 288 345
#     4  11  21  39  60  86 119 154 193 240 294 345
#     4  11  20  37  61  85 111 154 194 237 288 343
#     4  10  22  39  60  87 116 152 198 239 285 350
#     4  11  24  39  59  88 122 153 186 244 302 342
#     4  11  21  39  60  85 117 154 193 239 292 345
#
# _framework density 18.957695000000001
#
# number of rings (size 3 to 8) (size 9 to 14) (size 15 to 20)
#    0.000    1.500    5.000    0.750    0.000    6.000 
#    0.000    2.500    0.000    0.000    0.000    0.000 
#    0.000    0.000    0.000    0.000    0.000    0.000 
#
# Total GULP energy -396930.138529 kJ/mol
# GULP energy per Si atom -12404.066829 kJ/mol
# Density = 1.891455 g / cm^3
# Si number density = 18.957695 Si / 1000 Ang^3
#
#
#
# Elastic Constant Matrix: (Units=GPa)
#
#
# Indices 1 2 3 4 5 6 
#
# 1 81.9391 34.5636 -0.7496 0.0000 -17.1856 0.0000
# 2 34.5636 138.4465 41.1992 0.0000 -7.8102 0.0000
# 3 -0.7496 41.1992 95.0756 0.0000 -6.1470 0.0000
# 4 0.0000 0.0000 0.0000 15.3326 0.0000 3.3287
# 5 -17.1856 -7.8102 -6.1470 0.0000 28.1276 0.0000
# 6 0.0000 0.0000 0.0000 3.3287 0.0000 20.6897
#
#
#
# Elastic Compliance Matrix: (Units=1/GPa)
#
#
# Indices 1 2 3 4 5 6 
#
# 1 0.015916 -0.004216 0.002541 0.000000 0.009109 0.000000
# 2 -0.004216 0.009475 -0.004195 0.000000 -0.000862 0.000000
# 3 0.002541 -0.004195 0.012558 0.000000 0.003132 0.000000
# 4 0.000000 0.000000 0.000000 0.067581 0.000000 -0.010873
# 5 0.009109 -0.000862 0.003132 0.000000 0.041563 0.000000
# 6 0.000000 0.000000 0.000000 -0.010873 0.000000 0.050082
#
#
# Mechanical properties :
#
#
# Convention : Reuss Voigt Hill
#
# Bulk Modulus (GPa) = 38.15193 51.72084 44.93638
# Shear Modulus (GPa) = 22.97236 28.85983 25.91610
#
# Velocity S-wave (km/s) = 3.48482 3.90593 3.70137
# Velocity P-wave (km/s) = 6.02996 6.90531 6.48243
#
# Compressibility (1/GPa) = 0.02621100
#
# Stress axis : x y z
#
# Youngs Moduli (GPa) = 62.82828 105.53818 79.62877
#
# Poissons Ratio (x) = 0.44494 -0.20236
# Poissons Ratio (y) = 0.26488 0.33403
# Poissons Ratio (z) = -0.15967 0.44272
#
# Static dielectric constant tensor:
#      x y z
#    x 3.420910 0.000000 -0.098280 
#    y 0.000000 3.415950 0.000000 
#    z -0.098280 0.000000 3.438450 
# 
# 
# High freq. dielectric constant tensor:
#      x y z
#    x 1.736630 0.000000 -0.010070 
#    y 0.000000 1.732820 0.000000 
#    z -0.010070 0.000000 1.742750 
# 
# From -- ./inp_files/100228.got.cif
#   From: 2010.06.25/outbox.cif.g09.slc.cpg/sg12_51_cif.got.tgz:100228.got - 2010.06.28 00:19:55.
