data_PCOD8107220
_publ_section_title
;
Structure prediction by ZEFSAII (Michael W. Deem and Ramdas Pophale) SiO2 
 PCOD8107220
Probable space group: C 2/M
;
_chemical_formula_sum "Si O2"
_cell_formula_units_Z 40
_cell_length_a 15.296636
_cell_length_b 8.347063
_cell_length_c 18.719474
_cell_angle_alpha 90.000000
_cell_angle_beta 127.769162
_cell_angle_gamma 90.000000
_cell_volume 1889.368965
_symmetry_space_group_name_H-M "C 2/M"
_symmetry_group_IT_number 12
_symmetry_cell_setting 'monoclinic'
loop_
_space_group_symop_operation_xyz
x,y,z
-x,y,-z
-x,-y,-z
x,-y,z
1/2+x,1/2+y,z
1/2-x,1/2+y,-z
1/2-x,1/2-y,-z
1/2+x,1/2-y,z
loop_
_atom_site_type_symbol
_atom_site_label
_atom_site_fract_x
_atom_site_fract_y
_atom_site_fract_z
Si Si1 0.264637 0.687951 0.725616
Si Si2 0.298536 0.180815 0.096359
Si Si3 0.561609 0.313277 0.716382
Si Si4 0.680259 0.186961 0.399459
Si Si5 0.616029 0.816063 0.093875
O O1 0.269873 0.500000 0.741650
O O2 0.150598 0.755226 0.702254
O O3 0.272614 0.722495 0.646108
O O4 0.372387 0.776189 0.816089
O O5 0.398603 0.280644 0.181776
O O6 0.198948 0.187653 0.102146
O O7 0.339023 0.000000 0.103781
O O8 0.250000 0.250000 0.000000
O O9 0.539990 0.500000 0.695515
O O10 0.447851 0.220233 0.648069
O O11 0.750000 0.250000 0.500000
O O12 0.699224 0.000000 0.397960
O O13 0.651295 0.000000 0.096515
O O14 0.500000 0.780010 0.000000
#
# Coordination Sequence:
#
# PCOD8107220 Si02
#       5
#     8   8   8   8   8
#     4  11  23  42  66  95 131 171 215 265 323 385
#     4  11  22  37  58  87 124 166 212 260 313 376
#     4  11  23  43  67  95 130 170 215 267 324 384
#     4  12  26  46  70  99 130 167 217 270 327 387
#     4  10  21  37  58  87 124 165 211 259 313 374
#
# _framework density 21.171088000000001
#
# number of rings (size 3 to 8) (size 9 to 14) (size 15 to 20)
#    0.000    1.000    0.000   10.200    2.800    2.400 
#    0.000    4.000    0.000    0.000    0.000    0.000 
#    0.000    0.000    0.000    0.000    0.000    0.000 
#
# Total GULP energy -247942.003805 kJ/mol
# GULP energy per Si atom -12397.100190 kJ/mol
# Density = 2.112290 g / cm^3
# Si number density = 21.171088 Si / 1000 Ang^3
#
#
#
# Elastic Constant Matrix: (Units=GPa)
#
#
# Indices 1 2 3 4 5 6 
#
# 1 76.1541 10.7636 51.6929 0.0000 2.1576 0.0000
# 2 10.7636 103.7076 12.9218 0.0000 3.6713 0.0000
# 3 51.6929 12.9218 164.0526 0.0000 2.1078 0.0000
# 4 0.0000 0.0000 0.0000 37.9389 0.0000 -0.3499
# 5 2.1576 3.6713 2.1078 0.0000 33.7876 0.0000
# 6 0.0000 0.0000 0.0000 -0.3499 0.0000 34.9897
#
#
#
# Elastic Compliance Matrix: (Units=1/GPa)
#
#
# Indices 1 2 3 4 5 6 
#
# 1 0.016840 -0.001076 -0.005213 0.000000 -0.000633 0.000000
# 2 -0.001076 0.009841 -0.000424 0.000000 -0.000974 0.000000
# 3 -0.005213 -0.000424 0.007773 0.000000 -0.000106 0.000000
# 4 0.000000 0.000000 0.000000 0.026361 0.000000 0.000264
# 5 -0.000633 -0.000974 -0.000106 0.000000 0.029750 0.000000
# 6 0.000000 0.000000 0.000000 0.000264 0.000000 0.028582
#
#
# Mechanical properties :
#
#
# Convention : Reuss Voigt Hill
#
# Bulk Modulus (GPa) = 47.55380 54.96344 51.25862
# Shear Modulus (GPa) = 35.82105 39.24564 37.53335
#
# Velocity S-wave (km/s) = 4.11783 4.31018 4.21510
# Velocity P-wave (km/s) = 6.71708 7.12657 6.92485
#
# Compressibility (1/GPa) = 0.02102881
#
# Stress axis : x y z
#
# Youngs Moduli (GPa) = 59.38201 101.61128 128.64894
#
# Poissons Ratio (x) = 0.10931 0.67070
# Poissons Ratio (y) = 0.06388 0.05450
# Poissons Ratio (z) = 0.30958 0.04305
#
# Static dielectric constant tensor:
#      x y z
#    x 3.661540 0.000000 0.042910 
#    y 0.000000 3.725330 0.000000 
#    z 0.042910 0.000000 4.924160 
# 
# 
# High freq. dielectric constant tensor:
#      x y z
#    x 1.819560 0.000000 -0.000950 
#    y 0.000000 1.847120 0.000000 
#    z -0.000950 0.000000 1.844250 
# 
# From -- ./inp_files/267374.got.cif
#   From: 2010.06.25/outbox.cif.g09.slc.cpg/sg12_134_cif.got.tgz:267374.got - 2010.06.28 00:19:55.
