data_PCOD8107692
_publ_section_title
;
Structure prediction by ZEFSAII (Michael W. Deem and Ramdas Pophale) SiO2 
 PCOD8107692
Probable space group: C 2/M
;
_chemical_formula_sum "Si O2"
_cell_formula_units_Z 52
_cell_length_a 16.408040
_cell_length_b 19.521667
_cell_length_c 9.197749
_cell_angle_alpha 90.000000
_cell_angle_beta 58.723601
_cell_angle_gamma 90.000000
_cell_volume 2517.995910
_symmetry_space_group_name_H-M "C 2/M"
_symmetry_group_IT_number 12
_symmetry_cell_setting 'monoclinic'
loop_
_space_group_symop_operation_xyz
x,y,z
-x,y,-z
-x,-y,-z
x,-y,z
1/2+x,1/2+y,z
1/2-x,1/2+y,-z
1/2-x,1/2-y,-z
1/2+x,1/2-y,z
loop_
_atom_site_type_symbol
_atom_site_label
_atom_site_fract_x
_atom_site_fract_y
_atom_site_fract_z
Si Si1 0.662359 0.079711 0.046816
Si Si2 0.610947 0.075440 0.405233
Si Si3 0.652988 0.669665 0.511944
Si Si4 0.533665 0.421115 0.810552
Si Si5 0.500000 0.137535 0.000000
Si Si6 0.868410 0.315028 0.368721
Si Si7 0.864956 0.079743 0.741678
O O1 0.644504 0.112219 0.223460
O O2 0.578928 0.092147 0.008059
O O3 0.667148 0.000000 0.071112
O O4 0.763463 0.106081 0.894912
O O5 0.500000 0.064654 0.500000
O O6 0.633625 0.121185 0.522148
O O7 0.658598 0.000000 0.384064
O O8 0.623771 0.625839 0.682060
O O9 0.765316 0.681944 0.389318
O O10 0.608449 0.745568 0.564664
O O11 0.609012 0.627510 0.418467
O O12 0.567006 0.500000 0.779254
O O13 0.444535 0.408634 0.788026
O O14 0.500000 0.397829 0.000000
O O15 0.447911 0.182974 0.169568
O O16 0.860925 0.000000 0.695631
#
# Coordination Sequence:
#
# PCOD8107692 Si02
#       7
#     8   8   8   8   4   8   8
#     4  10  21  37  63  95 127 160 206 260 318 380
#     4  10  21  38  58  88 126 163 203 252 308 374
#     4  11  24  44  61  91 126 169 215 262 310 375
#     4  10  23  42  67  97 126 163 216 270 323 375
#     4  12  21  42  62  90 129 168 206 262 310 382
#     4  11  26  41  63  91 129 167 216 258 314 378
#     4  10  21  41  67  97 126 163 212 264 316 378
#
# _framework density 20.651344999999999
#
# number of rings (size 3 to 8) (size 9 to 14) (size 15 to 20)
#    0.000    1.538    3.077    1.154    3.231    4.308 
#    0.000    0.769    0.000    0.000    0.000    0.000 
#    0.000    0.000    0.000    0.000    0.000    0.000 
#
# Total GULP energy -322347.615918 kJ/mol
# GULP energy per Si atom -12397.985228 kJ/mol
# Density = 2.060434 g / cm^3
# Si number density = 20.651345 Si / 1000 Ang^3
#
#
#
# Elastic Constant Matrix: (Units=GPa)
#
#
# Indices 1 2 3 4 5 6 
#
# 1 54.4957 23.0023 32.2504 0.0000 4.6924 0.0000
# 2 23.0023 93.2996 51.5658 0.0000 13.5913 0.0000
# 3 32.2504 51.5658 145.1161 0.0000 8.7843 0.0000
# 4 0.0000 0.0000 0.0000 31.6444 0.0000 -6.1945
# 5 4.6924 13.5913 8.7843 0.0000 39.9891 0.0000
# 6 0.0000 0.0000 0.0000 -6.1945 0.0000 13.7010
#
#
#
# Elastic Compliance Matrix: (Units=1/GPa)
#
#
# Indices 1 2 3 4 5 6 
#
# 1 0.021969 -0.003291 -0.003674 0.000000 -0.000652 0.000000
# 2 -0.003291 0.014344 -0.004149 0.000000 -0.003578 0.000000
# 3 -0.003674 -0.004149 0.009193 0.000000 -0.000178 0.000000
# 4 0.000000 0.000000 0.000000 0.034670 0.000000 0.015675
# 5 -0.000652 -0.003578 -0.000178 0.000000 0.026338 0.000000
# 6 0.000000 0.000000 0.000000 0.015675 0.000000 0.080074
#
#
# Mechanical properties :
#
#
# Convention : Reuss Voigt Hill
#
# Bulk Modulus (GPa) = 42.95788 56.28316 49.62052
# Shear Modulus (GPa) = 23.08676 29.47310 26.27993
#
# Velocity S-wave (km/s) = 3.34717 3.78190 3.57116
# Velocity P-wave (km/s) = 5.98203 6.81054 6.40969
#
# Compressibility (1/GPa) = 0.02327862
#
# Stress axis : x y z
#
# Youngs Moduli (GPa) = 45.51796 69.71658 108.78407
#
# Poissons Ratio (x) = 0.22944 0.39962
# Poissons Ratio (y) = 0.14980 0.45135
# Poissons Ratio (z) = 0.16721 0.28925
#
# Static dielectric constant tensor:
#      x y z
#    x 3.431750 0.000000 -0.132260 
#    y 0.000000 3.707920 0.000000 
#    z -0.132260 0.000000 4.147550 
# 
# 
# High freq. dielectric constant tensor:
#      x y z
#    x 1.802100 0.000000 -0.004230 
#    y 0.000000 1.790840 0.000000 
#    z -0.004230 0.000000 1.829030 
# 
# From -- ./inp_files/77962.got.cif
#   From: 2010.06.25/outbox.cif.g09.slc.cpg/sg12_39_cif.got.tgz:77962.got - 2010.06.28 00:19:55.
