data_PCOD8107007
_publ_section_title
;
Structure prediction by ZEFSAII (Michael W. Deem and Ramdas Pophale) SiO2 
 PCOD8107007
Probable space group: C 2/M
;
_chemical_formula_sum "Si O2"
_cell_formula_units_Z 56
_cell_length_a 27.489942
_cell_length_b 9.068740
_cell_length_c 18.624354
_cell_angle_alpha 90.000000
_cell_angle_beta 36.536789
_cell_angle_gamma 90.000000
_cell_volume 2764.179162
_symmetry_space_group_name_H-M "C 2/M"
_symmetry_group_IT_number 12
_symmetry_cell_setting 'monoclinic'
loop_
_space_group_symop_operation_xyz
x,y,z
-x,y,-z
-x,-y,-z
x,-y,z
1/2+x,1/2+y,z
1/2-x,1/2+y,-z
1/2-x,1/2-y,-z
1/2+x,1/2-y,z
loop_
_atom_site_type_symbol
_atom_site_label
_atom_site_fract_x
_atom_site_fract_y
_atom_site_fract_z
Si Si1 0.871514 0.169512 0.963980
Si Si2 0.506809 0.167022 0.717335
Si Si3 0.547107 0.830886 0.374363
Si Si4 0.190602 0.326902 0.513780
Si Si5 0.212679 0.172147 0.189696
Si Si6 0.088244 0.169214 0.920763
Si Si7 0.244139 0.328261 0.699009
O O1 0.938490 0.225163 0.828740
O O2 0.853009 0.000000 0.969286
O O3 0.786532 0.256607 0.056954
O O4 0.908433 0.194147 0.998567
O O5 0.511011 0.185190 0.626016
O O6 0.595707 0.204404 0.645290
O O7 0.482296 0.000000 0.766559
O O8 0.500000 0.767355 0.500000
O O9 0.628227 0.738329 0.262269
O O10 0.572367 0.000000 0.358616
O O11 0.209549 0.500000 0.490892
O O12 0.250000 0.250000 0.500000
O O13 0.203202 0.262014 0.419950
O O14 0.220553 0.208021 0.264588
O O15 0.214221 0.000000 0.172124
O O16 0.150926 0.274104 0.804889
O O17 0.107008 0.000000 0.877813
O O18 0.000000 0.219986 0.000000
O O19 0.247719 0.500000 0.675804
#
# Coordination Sequence:
#
# PCOD8107007 Si02
#       7
#     8   8   8   8   8   8   8
#     4  10  21  37  59  86 119 158 198 242 295 354
#     4  10  23  41  60  86 120 155 194 246 300 353
#     4  10  21  39  64  90 117 154 201 246 295 354
#     4  11  24  41  61  85 117 158 199 244 298 355
#     4  10  21  38  61  89 122 156 195 245 297 349
#     4   9  19  35  56  83 112 148 195 245 293 345
#     4  10  21  37  57  85 116 151 193 239 293 351
#
# _framework density 20.259179
#
# number of rings (size 3 to 8) (size 9 to 14) (size 15 to 20)
#    0.000    2.000    0.000    2.571    2.000    6.286 
#    0.000    0.000    0.000    0.000    0.000    0.000 
#    0.000    0.000    0.000    0.000    0.000    0.000 
#
# Total GULP energy -347316.383674 kJ/mol
# GULP energy per Si atom -12404.156560 kJ/mol
# Density = 2.021307 g / cm^3
# Si number density = 20.259179 Si / 1000 Ang^3
#
#
#
# Elastic Constant Matrix: (Units=GPa)
#
#
# Indices 1 2 3 4 5 6 
#
# 1 78.2386 39.1004 31.5931 0.0001 -22.2758 -0.0004
# 2 39.1004 103.3041 54.4467 -0.0002 -7.0261 -0.0010
# 3 31.5931 54.4467 109.9861 -0.0034 -7.9942 0.0012
# 4 0.0001 -0.0002 -0.0034 40.1654 0.0002 -1.0886
# 5 -22.2758 -7.0261 -7.9942 0.0002 30.4245 0.0006
# 6 -0.0004 -0.0010 0.0012 -1.0886 0.0006 29.7592
#
#
#
# Elastic Compliance Matrix: (Units=1/GPa)
#
#
# Indices 1 2 3 4 5 6 
#
# 1 0.020096 -0.005658 -0.002036 0.000000 0.012872 0.000000
# 2 -0.005658 0.014745 -0.005839 0.000000 -0.002272 0.000001
# 3 -0.002036 -0.005839 0.012602 0.000001 0.000472 -0.000001
# 4 0.000000 0.000000 0.000001 0.024922 0.000000 0.000912
# 5 0.012872 -0.002272 0.000472 0.000000 0.041892 -0.000001
# 6 0.000000 0.000001 -0.000001 0.000912 -0.000001 0.033636
#
#
# Mechanical properties :
#
#
# Convention : Reuss Voigt Hill
#
# Bulk Modulus (GPa) = 49.07591 60.20103 54.63847
# Shear Modulus (GPa) = 27.51024 31.16237 29.33631
#
# Velocity S-wave (km/s) = 3.68899 3.92623 3.80945
# Velocity P-wave (km/s) = 6.51318 7.09462 6.81011
#
# Compressibility (1/GPa) = 0.02037660
#
# Stress axis : x y z
#
# Youngs Moduli (GPa) = 49.76123 67.82175 79.35412
#
# Poissons Ratio (x) = 0.38371 0.16158
# Poissons Ratio (y) = 0.28153 0.46335
# Poissons Ratio (z) = 0.10132 0.39601
#
# Static dielectric constant tensor:
#      x y z
#    x 3.642270 -0.000010 -0.040220 
#    y -0.000010 3.665710 0.000020 
#    z -0.040220 0.000020 3.639000 
# 
# 
# High freq. dielectric constant tensor:
#      x y z
#    x 1.792950 0.000000 -0.005310 
#    y 0.000000 1.794050 0.000000 
#    z -0.005310 0.000000 1.793150 
# 
# From -- ./inp_files/292399.got.cif
#   From: 2010.06.25/outbox.cif.g09.slc.cpg/sg12_147_cif.got.tgz:292399.got - 2010.06.28 00:19:55.
