data_PCOD8107984
_publ_section_title
;
Structure prediction by ZEFSAII (Michael W. Deem and Ramdas Pophale) SiO2 
 PCOD8107984
Probable space group: C 2/M
;
_chemical_formula_sum "Si O2"
_cell_formula_units_Z 40
_cell_length_a 14.325282
_cell_length_b 8.424836
_cell_length_c 20.961147
_cell_angle_alpha 90.000000
_cell_angle_beta 50.271880
_cell_angle_gamma 90.000000
_cell_volume 1945.604511
_symmetry_space_group_name_H-M "C 2/M"
_symmetry_group_IT_number 12
_symmetry_cell_setting 'monoclinic'
loop_
_space_group_symop_operation_xyz
x,y,z
-x,y,-z
-x,-y,-z
x,-y,z
1/2+x,1/2+y,z
1/2-x,1/2+y,-z
1/2-x,1/2-y,-z
1/2+x,1/2-y,z
loop_
_atom_site_type_symbol
_atom_site_label
_atom_site_fract_x
_atom_site_fract_y
_atom_site_fract_z
Si Si1 0.620181 0.814726 0.877419
Si Si2 0.924039 0.816798 0.394429
Si Si3 0.821618 0.316536 0.702339
Si Si4 0.702722 0.319436 0.421015
Si Si5 0.358669 0.313965 0.995183
O O1 0.703405 0.769165 0.781554
O O2 0.482777 0.770137 0.919151
O O3 0.627995 0.000000 0.888765
O O4 0.666640 0.721370 0.919500
O O5 0.836367 0.708951 0.390490
O O6 0.897549 0.786751 0.480818
O O7 0.060333 0.765680 0.318853
O O8 0.902879 0.000000 0.385754
O O9 0.820684 0.500000 0.721297
O O10 0.822538 0.298493 0.625832
O O11 0.693544 0.500000 0.400258
O O12 0.372921 0.500000 0.978385
O O13 0.250000 0.250000 0.000000
#
# Coordination Sequence:
#
# PCOD8107984 Si02
#       5
#     8   8   8   8   8
#     4  11  23  41  62  89 120 152 193 239 287 342
#     4  10  21  38  59  84 115 153 197 243 291 345
#     4  12  24  38  58  86 119 155 194 240 292 343
#     4  10  21  38  59  84 115 153 197 243 291 345
#     4  11  22  41  66  92 120 153 190 231 284 344
#
# _framework density 20.559162000000001
#
# number of rings (size 3 to 8) (size 9 to 14) (size 15 to 20)
#    0.000    1.200    0.000    8.400    0.000    6.400 
#    0.000    8.000    0.000    0.000    0.000    0.000 
#    0.000    0.000    0.000    0.000    0.000    0.000 
#
# Total GULP energy -248142.251837 kJ/mol
# GULP energy per Si atom -12407.112592 kJ/mol
# Density = 2.051237 g / cm^3
# Si number density = 20.559162 Si / 1000 Ang^3
#
#
#
# Elastic Constant Matrix: (Units=GPa)
#
#
# Indices 1 2 3 4 5 6 
#
# 1 89.9882 16.2977 33.6079 0.0000 -13.7984 0.0001
# 2 16.2977 90.3292 27.6885 0.0000 -6.5871 0.0003
# 3 33.6079 27.6885 71.1553 0.0000 -22.4544 0.0000
# 4 0.0000 0.0000 0.0000 32.8237 0.0000 0.6503
# 5 -13.7984 -6.5871 -22.4544 0.0000 22.7070 0.0000
# 6 0.0001 0.0003 0.0000 0.6503 0.0000 36.9621
#
#
#
# Elastic Compliance Matrix: (Units=1/GPa)
#
#
# Indices 1 2 3 4 5 6 
#
# 1 0.013644 -0.000630 -0.005292 0.000000 0.002875 0.000000
# 2 -0.000630 0.012646 -0.005213 0.000000 -0.001870 0.000000
# 3 -0.005292 -0.005213 0.024842 0.000000 0.019838 0.000000
# 4 0.000000 0.000000 0.000000 0.030476 0.000000 -0.000536
# 5 0.002875 -0.001870 0.019838 0.000000 0.064861 0.000000
# 6 0.000000 0.000000 0.000000 -0.000536 0.000000 0.027064
#
#
# Mechanical properties :
#
#
# Convention : Reuss Voigt Hill
#
# Bulk Modulus (GPa) = 34.64805 45.18452 39.91629
# Shear Modulus (GPa) = 24.33990 30.09047 27.21518
#
# Velocity S-wave (km/s) = 3.44451 3.82986 3.64228
# Velocity P-wave (km/s) = 5.71918 6.44846 6.09473
#
# Compressibility (1/GPa) = 0.02886165
#
# Stress axis : x y z
#
# Youngs Moduli (GPa) = 73.29310 79.07647 40.25454
#
# Poissons Ratio (x) = 0.04982 0.21302
# Poissons Ratio (y) = 0.04617 0.20986
# Poissons Ratio (z) = 0.38785 0.41226
#
# Static dielectric constant tensor:
#      x y z
#    x 3.616330 0.000000 -0.126050 
#    y 0.000000 3.798220 0.000000 
#    z -0.126050 0.000000 3.683970 
# 
# 
# High freq. dielectric constant tensor:
#      x y z
#    x 1.808020 0.000000 -0.010500 
#    y 0.000000 1.820110 0.000000 
#    z -0.010500 0.000000 1.797880 
# 
# From -- ./inp_files/308162.got.cif
#   From: 2010.06.25/outbox.cif.g09.slc.cpg/sg12_155_cif.got.tgz:308162.got - 2010.06.28 00:19:55.
