data_PCOD8107020
_publ_section_title
;
Structure prediction by ZEFSAII (Michael W. Deem and Ramdas Pophale) SiO2 
 PCOD8107020
Probable space group: C 2/M
;
_chemical_formula_sum "Si O2"
_cell_formula_units_Z 64
_cell_length_a 25.546861
_cell_length_b 14.552534
_cell_length_c 9.289992
_cell_angle_alpha 90.000000
_cell_angle_beta 69.617398
_cell_angle_gamma 90.000000
_cell_volume 3237.507628
_symmetry_space_group_name_H-M "C 2/M"
_symmetry_group_IT_number 12
_symmetry_cell_setting 'monoclinic'
loop_
_space_group_symop_operation_xyz
x,y,z
-x,y,-z
-x,-y,-z
x,-y,z
1/2+x,1/2+y,z
1/2-x,1/2+y,-z
1/2-x,1/2-y,-z
1/2+x,1/2-y,z
loop_
_atom_site_type_symbol
_atom_site_label
_atom_site_fract_x
_atom_site_fract_y
_atom_site_fract_z
Si Si1 0.176021 0.095926 0.606197
Si Si2 0.993606 0.105627 0.838535
Si Si3 0.758465 0.343052 0.733552
Si Si4 0.638628 0.104788 0.543967
Si Si5 0.731223 0.395828 0.059369
Si Si6 0.392294 0.606126 0.738448
Si Si7 0.582657 0.711547 0.573506
Si Si8 0.271862 0.855530 0.315608
O O1 0.204643 0.098293 0.735853
O O2 0.135891 0.180367 0.615114
O O3 0.225262 0.086759 0.442643
O O4 0.141505 0.000000 0.630897
O O5 0.028051 0.177008 0.708384
O O6 0.929737 0.116811 0.846372
O O7 0.013525 0.000000 0.796070
O O8 0.000000 0.132790 0.000000
O O9 0.817147 0.386113 0.628889
O O10 0.749652 0.248532 0.657153
O O11 0.755995 0.332950 0.907817
O O12 0.587497 0.176839 0.565596
O O13 0.668228 0.127803 0.668140
O O14 0.615282 0.000000 0.567812
O O15 0.727192 0.500000 0.006845
O O16 0.670216 0.359601 0.166442
O O17 0.775000 0.389274 0.148038
O O18 0.391738 0.500000 0.686486
O O19 0.416594 0.669029 0.587194
#
# Coordination Sequence:
#
# PCOD8107020 Si02
#       8
#     8   8   8   8   8   8   8   8
#     4  11  19  31  52  76 105 142 183 223 272 330
#     4  10  23  40  61  90 120 145 178 233 296 350
#     4  11  20  34  49  78 114 154 191 234 276 323
#     4  11  22  38  57  81 116 154 198 237 273 326
#     4  11  21  32  51  80 116 153 189 230 280 335
#     4  10  21  37  57  86 117 149 186 228 285 350
#     4  12  21  37  59  83 110 150 192 229 280 338
#     4  11  19  35  51  76 113 155 194 230 274 330
#
# _framework density 19.768294000000001
#
# number of rings (size 3 to 8) (size 9 to 14) (size 15 to 20)
#    0.000    1.125    3.750    5.625    1.750    1.000 
#    0.000    0.000    0.000    1.875    0.000    0.000 
#    0.000    0.000    0.000    0.000    0.000    0.000 
#
# Total GULP energy -396685.082869 kJ/mol
# GULP energy per Si atom -12396.408840 kJ/mol
# Density = 1.972330 g / cm^3
# Si number density = 19.768294 Si / 1000 Ang^3
#
#
#
# Elastic Constant Matrix: (Units=GPa)
#
#
# Indices 1 2 3 4 5 6 
#
# 1 56.6010 17.8698 34.9745 0.0000 8.3666 0.0000
# 2 17.8698 117.2139 22.2024 0.0000 -1.4948 0.0000
# 3 34.9745 22.2024 128.3136 0.0000 16.3174 0.0000
# 4 0.0000 0.0000 0.0000 -433.4046 0.0000 -510.2031
# 5 8.3666 -1.4948 16.3174 0.0000 23.1065 0.0000
# 6 0.0000 0.0000 0.0000 -510.2031 0.0000 -562.7562
#
#
#
# Elastic Compliance Matrix: (Units=1/GPa)
#
#
# Indices 1 2 3 4 5 6 
#
# 1 0.022261 -0.002498 -0.005043 0.000000 -0.004661 0.000000
# 2 -0.002498 0.009170 -0.001205 0.000000 0.002348 0.000000
# 3 -0.005043 -0.001205 0.010057 0.000000 -0.005354 0.000000
# 4 0.000000 0.000000 0.000000 0.034302 0.000000 -0.031098
# 5 -0.004661 0.002348 -0.005354 0.000000 0.048899 0.000000
# 6 0.000000 0.000000 0.000000 -0.031098 0.000000 0.026417
#
#
# Mechanical properties :
#
#
# Convention : Reuss Voigt Hill
#
# Bulk Modulus (GPa) = 41.66997 50.24687 45.95842
# Shear Modulus (GPa) = 28.31311 -179.47208 -75.57948
#
# Velocity S-wave (km/s) = 3.78861 -9.53860 -6.18997
# Velocity P-wave (km/s) = 6.34532 9.78980 5.27148
#
# Compressibility (1/GPa) = 0.02399809
#
# Stress axis : x y z
#
# Youngs Moduli (GPa) = 44.92125 109.04704 99.43100
#
# Poissons Ratio (x) = 0.27241 0.50141
# Poissons Ratio (y) = 0.11222 0.11977
# Poissons Ratio (z) = 0.22653 0.13135
#
# Static dielectric constant tensor:
#      x y z
#    x 3.410910 0.000000 0.244140 
#    y 0.000000 3.696190 0.000000 
#    z 0.244140 0.000000 3.488910 
# 
# 
# High freq. dielectric constant tensor:
#      x y z
#    x 1.735380 0.000000 0.025100 
#    y 0.000000 1.770700 0.000000 
#    z 0.025100 0.000000 1.766540 
# 
# From -- ./inp_files/104579.got.cif
#   From: 2010.06.25/outbox.cif.g09.slc.cpg/sg12_53_cif.got.tgz:104579.got - 2010.06.28 00:19:55.
