data_PCOD8107143
_publ_section_title
;
Structure prediction by ZEFSAII (Michael W. Deem and Ramdas Pophale) SiO2 
 PCOD8107143
Probable space group: C 2/M
;
_chemical_formula_sum "Si O2"
_cell_formula_units_Z 56
_cell_length_a 21.791415
_cell_length_b 19.827200
_cell_length_c 16.149201
_cell_angle_alpha 90.000000
_cell_angle_beta 156.422276
_cell_angle_gamma 90.000000
_cell_volume 2790.936510
_symmetry_space_group_name_H-M "C 2/M"
_symmetry_group_IT_number 12
_symmetry_cell_setting 'monoclinic'
loop_
_space_group_symop_operation_xyz
x,y,z
-x,y,-z
-x,-y,-z
x,-y,z
1/2+x,1/2+y,z
1/2-x,1/2+y,-z
1/2-x,1/2-y,-z
1/2+x,1/2-y,z
loop_
_atom_site_type_symbol
_atom_site_label
_atom_site_fract_x
_atom_site_fract_y
_atom_site_fract_z
Si Si1 0.381349 0.815835 0.119846
Si Si2 0.830796 0.832483 0.006132
Si Si3 0.819643 0.847855 0.274875
Si Si4 0.669407 0.076832 0.217216
Si Si5 0.169810 0.222131 0.173356
Si Si6 0.214238 0.315529 0.512298
Si Si7 0.110883 0.080347 0.365092
O O1 0.401474 0.735374 0.133794
O O2 0.542546 0.845006 0.286624
O O3 0.339060 0.838079 0.161971
O O4 0.239380 0.845086 0.891474
O O5 0.935711 0.895941 0.163555
O O6 0.819181 0.828208 0.891972
O O7 0.768395 0.917694 0.254696
O O8 0.727399 0.794712 0.216535
O O9 0.000000 0.835692 0.500000
O O10 0.775431 0.106519 0.421820
O O11 0.642407 0.000000 0.206427
O O12 0.500000 0.111529 0.000000
O O13 0.280986 0.199749 0.384296
O O14 0.000000 0.226844 0.000000
O O15 0.250000 0.250000 0.500000
O O16 0.331775 0.376960 0.643003
O O17 0.114332 0.000000 0.354666
#
# Coordination Sequence:
#
# PCOD8107143 Si02
#       7
#     8   8   8   8   8   8   8
#     4  10  22  36  61  86 122 158 199 250 305 358
#     4  10  21  40  56  87 120 152 203 245 303 360
#     4  11  22  35  56  87 122 153 195 245 301 361
#     4  10  21  37  58  84 120 159 199 243 295 365
#     4  11  22  37  58  86 114 149 201 252 300 356
#     4  12  21  37  63  89 120 158 200 258 299 356
#     4  11  22  39  62  89 122 162 206 251 309 363
#
# _framework density 20.064948999999999
#
# number of rings (size 3 to 8) (size 9 to 14) (size 15 to 20)
#    0.000    1.286    2.857    3.857    6.000    0.286 
#    0.000    2.857    0.000    0.000    0.000    2.000 
#    0.000    0.000    0.000    0.000    0.000    0.000 
#
# Total GULP energy -346998.105466 kJ/mol
# GULP energy per Si atom -12392.789481 kJ/mol
# Density = 2.001928 g / cm^3
# Si number density = 20.064949 Si / 1000 Ang^3
#
#
#
# Elastic Constant Matrix: (Units=GPa)
#
#
# Indices 1 2 3 4 5 6 
#
# 1 133.6542 28.8860 50.5426 0.0000 4.6858 0.0000
# 2 28.8860 62.8948 19.7818 0.0000 -0.9868 0.0000
# 3 50.5426 19.7818 112.2658 0.0000 7.3671 0.0000
# 4 0.0000 0.0000 0.0000 24.1299 0.0000 1.6267
# 5 4.6858 -0.9868 7.3671 0.0000 40.1713 0.0000
# 6 0.0000 0.0000 0.0000 1.6267 0.0000 19.7659
#
#
#
# Elastic Compliance Matrix: (Units=1/GPa)
#
#
# Indices 1 2 3 4 5 6 
#
# 1 0.009609 -0.003252 -0.003719 0.000000 -0.000519 0.000000
# 2 -0.003252 0.017970 -0.001778 0.000000 0.001147 0.000000
# 3 -0.003719 -0.001778 0.011002 0.000000 -0.001627 0.000000
# 4 0.000000 0.000000 0.000000 0.041674 0.000000 -0.003430
# 5 -0.000519 0.001147 -0.001627 0.000000 0.025281 0.000000
# 6 0.000000 0.000000 0.000000 -0.003430 0.000000 0.050874
#
#
# Mechanical properties :
#
#
# Convention : Reuss Voigt Hill
#
# Bulk Modulus (GPa) = 47.42909 56.35950 51.89430
# Shear Modulus (GPa) = 27.63419 30.78704 29.21061
#
# Velocity S-wave (km/s) = 3.71514 3.92135 3.81964
# Velocity P-wave (km/s) = 6.48784 6.97511 6.73589
#
# Compressibility (1/GPa) = 0.02108411
#
# Stress axis : x y z
#
# Youngs Moduli (GPa) = 104.06473 55.64788 90.89358
#
# Poissons Ratio (x) = 0.18095 0.33805
# Poissons Ratio (y) = 0.33839 0.16158
# Poissons Ratio (z) = 0.38704 0.09893
#
# Static dielectric constant tensor:
#      x y z
#    x 3.856650 0.000000 -0.005940 
#    y 0.000000 3.293490 0.000000 
#    z -0.005940 0.000000 3.813070 
# 
# 
# High freq. dielectric constant tensor:
#      x y z
#    x 1.794830 0.000000 0.009100 
#    y 0.000000 1.741960 0.000000 
#    z 0.009100 0.000000 1.791230 
# 
# From -- ./inp_files/227644.got.cif
#   From: 2010.06.25/outbox.cif.g09.slc.cpg/sg12_114_cif.got.tgz:227644.got - 2010.06.28 00:19:55.
