data_PCOD8107222
_publ_section_title
;
Structure prediction by ZEFSAII (Michael W. Deem and Ramdas Pophale) SiO2 
 PCOD8107222
Probable space group: C 2/M
;
_chemical_formula_sum "Si O2"
_cell_formula_units_Z 52
_cell_length_a 27.020435
_cell_length_b 17.461724
_cell_length_c 11.657819
_cell_angle_alpha 90.000000
_cell_angle_beta 151.500605
_cell_angle_gamma 90.000000
_cell_volume 2624.528055
_symmetry_space_group_name_H-M "C 2/M"
_symmetry_group_IT_number 12
_symmetry_cell_setting 'monoclinic'
loop_
_space_group_symop_operation_xyz
x,y,z
-x,y,-z
-x,-y,-z
x,-y,z
1/2+x,1/2+y,z
1/2-x,1/2+y,-z
1/2-x,1/2-y,-z
1/2+x,1/2-y,z
loop_
_atom_site_type_symbol
_atom_site_label
_atom_site_fract_x
_atom_site_fract_y
_atom_site_fract_z
Si Si1 0.657591 0.416354 0.045376
Si Si2 0.767262 0.840127 0.204630
Si Si3 0.437640 0.417218 0.679554
Si Si4 0.324696 0.087581 0.200262
Si Si5 0.944941 0.727690 0.506095
Si Si6 0.000000 0.801466 0.000000
Si Si7 0.378722 0.257363 0.950809
O O1 0.691516 0.500000 0.169022
O O2 0.532640 0.415034 0.781936
O O3 0.681873 0.339967 0.168479
O O4 0.713033 0.408321 0.035613
O O5 0.835754 0.907599 0.395846
O O6 0.837022 0.773718 0.291548
O O7 0.688612 0.874960 0.951785
O O8 0.700002 0.808094 0.173631
O O9 0.432110 0.500000 0.729129
O O10 0.444618 0.353731 0.792157
O O11 0.413200 0.137266 0.445950
O O12 0.364009 0.000000 0.271753
O O13 0.000000 0.749284 0.500000
O O14 0.018608 0.752792 0.760129
O O15 0.083607 0.747717 0.104566
#
# Coordination Sequence:
#
# PCOD8107222 Si02
#       7
#     8   8   8   8   8   4   8
#     4   9  18  34  55  83 119 148 185 234 290 352
#     4  12  22  37  60  87 119 157 193 243 288 353
#     4  10  21  37  58  88 120 152 191 243 300 348
#     4  11  23  37  57  88 122 161 196 232 289 354
#     4  12  22  38  60  87 120 159 193 240 290 348
#     4  10  21  40  62  82 117 150 198 250 297 342
#     4  11  22  40  59  89 114 155 203 242 294 341
#
# _framework density 19.813086999999999
#
# number of rings (size 3 to 8) (size 9 to 14) (size 15 to 20)
#    0.000    1.231    6.154    2.077    0.000    1.538 
#    0.000    2.308    0.000    0.000    0.000    2.692 
#    0.000    0.000    0.000    0.000    0.000    0.000 
#
# Total GULP energy -322158.307586 kJ/mol
# GULP energy per Si atom -12390.704138 kJ/mol
# Density = 1.976799 g / cm^3
# Si number density = 19.813087 Si / 1000 Ang^3
#
#
#
# Elastic Constant Matrix: (Units=GPa)
#
#
# Indices 1 2 3 4 5 6 
#
# 1 144.4119 43.6358 12.6843 0.0000 12.4361 0.0000
# 2 43.6358 97.1730 13.2073 0.0000 6.9222 0.0000
# 3 12.6843 13.2073 39.2629 0.0000 1.8660 0.0000
# 4 0.0000 0.0000 0.0000 25.6102 0.0000 3.3114
# 5 12.4361 6.9222 1.8660 0.0000 20.5150 0.0000
# 6 0.0000 0.0000 0.0000 3.3114 0.0000 26.4575
#
#
#
# Elastic Compliance Matrix: (Units=1/GPa)
#
#
# Indices 1 2 3 4 5 6 
#
# 1 0.008375 -0.003295 -0.001415 0.000000 -0.003836 0.000000
# 2 -0.003295 0.012311 -0.002987 0.000000 -0.001885 0.000000
# 3 -0.001415 -0.002987 0.026959 0.000000 -0.000587 0.000000
# 4 0.000000 0.000000 0.000000 0.039689 0.000000 -0.004968
# 5 -0.003836 -0.001885 -0.000587 0.000000 0.051760 0.000000
# 6 0.000000 0.000000 0.000000 -0.004968 0.000000 0.038418
#
#
# Mechanical properties :
#
#
# Convention : Reuss Voigt Hill
#
# Bulk Modulus (GPa) = 31.00705 46.65585 38.83145
# Shear Modulus (GPa) = 24.55115 28.60457 26.57786
#
# Velocity S-wave (km/s) = 3.52396 3.80375 3.66653
# Velocity P-wave (km/s) = 5.67816 6.54909 6.12911
#
# Compressibility (1/GPa) = 0.03225073
#
# Stress axis : x y z
#
# Youngs Moduli (GPa) = 119.40349 81.22891 37.09329
#
# Poissons Ratio (x) = 0.26767 0.05248
# Poissons Ratio (y) = 0.39346 0.11080
# Poissons Ratio (z) = 0.16894 0.24263
#
# Static dielectric constant tensor:
#      x y z
#    x 3.754470 0.000000 0.209040 
#    y 0.000000 3.920010 0.000000 
#    z 0.209040 0.000000 3.321970 
# 
# 
# High freq. dielectric constant tensor:
#      x y z
#    x 1.771590 0.000000 0.023320 
#    y 0.000000 1.782040 0.000000 
#    z 0.023320 0.000000 1.736430 
# 
# From -- ./inp_files/184356.got.cif
#   From: 2010.06.25/outbox.cif.g09.slc.cpg/sg12_93_cif.got.tgz:184356.got - 2010.06.28 00:19:55.
