data_PCOD8107235
_publ_section_title
;
Structure prediction by ZEFSAII (Michael W. Deem and Ramdas Pophale) SiO2 
 PCOD8107235
Probable space group: C 2/M
;
_chemical_formula_sum "Si O2"
_cell_formula_units_Z 48
_cell_length_a 19.448319
_cell_length_b 13.948130
_cell_length_c 19.049112
_cell_angle_alpha 90.000000
_cell_angle_beta 152.159362
_cell_angle_gamma 90.000000
_cell_volume 2413.251713
_symmetry_space_group_name_H-M "C 2/M"
_symmetry_group_IT_number 12
_symmetry_cell_setting 'monoclinic'
loop_
_space_group_symop_operation_xyz
x,y,z
-x,y,-z
-x,-y,-z
x,-y,z
1/2+x,1/2+y,z
1/2-x,1/2+y,-z
1/2-x,1/2-y,-z
1/2+x,1/2-y,z
loop_
_atom_site_type_symbol
_atom_site_label
_atom_site_fract_x
_atom_site_fract_y
_atom_site_fract_z
Si Si1 0.455193 0.604176 0.038292
Si Si2 0.734349 0.110401 0.431074
Si Si3 0.555088 0.267898 0.471721
Si Si4 0.764174 0.887628 0.617224
Si Si5 0.724038 0.246607 0.870815
Si Si6 0.610817 0.112035 0.891146
O O1 0.400576 0.500000 0.017954
O O2 0.586496 0.640361 0.207675
O O3 0.500000 0.587644 0.000000
O O4 0.330781 0.683667 0.919509
O O5 0.820190 0.161267 0.445433
O O6 0.776275 0.149183 0.547235
O O7 0.563008 0.127158 0.261869
O O8 0.777990 0.000000 0.466996
O O9 0.500000 0.292861 0.500000
O O10 0.624644 0.161489 0.529827
O O11 0.415374 0.281718 0.296998
O O12 0.730054 0.000000 0.589274
O O13 0.677455 0.174153 0.889250
O O14 0.809718 0.343776 0.969094
O O15 0.651348 0.000000 0.919852
#
# Coordination Sequence:
#
# PCOD8107235 Si02
#       6
#     8   8   8   8   8   8
#     4  10  21  37  58  88 127 164 198 243 305 370
#     4  10  22  42  64  85 119 163 208 251 295 358
#     4  12  25  39  61  92 127 160 199 252 306 366
#     4  10  21  38  63  88 118 164 205 246 301 360
#     4  11  23  36  61  92 121 156 196 252 305 360
#     4  10  22  40  62  89 117 153 203 256 301 351
#
# _framework density 19.890174999999999
#
# number of rings (size 3 to 8) (size 9 to 14) (size 15 to 20)
#    0.000    1.500    1.667    3.000    4.667    2.000 
#    0.000    0.000    0.000    2.500    0.000    0.000 
#    0.000    0.000    0.000    0.000    0.000    0.000 
#
# Total GULP energy -297525.451387 kJ/mol
# GULP energy per Si atom -12396.893808 kJ/mol
# Density = 1.984490 g / cm^3
# Si number density = 19.890175 Si / 1000 Ang^3
#
#
#
# Elastic Constant Matrix: (Units=GPa)
#
#
# Indices 1 2 3 4 5 6 
#
# 1 7.1637 47.1027 -90.6157 -0.0249 41.2539 -0.0107
# 2 47.1027 86.8312 54.2657 -0.0215 0.8974 -0.0116
# 3 -90.6157 54.2657 -41.2288 -0.0689 47.9440 -0.0321
# 4 -0.0249 -0.0215 -0.0689 34.3377 -0.0053 2.4196
# 5 41.2539 0.8974 47.9440 -0.0053 9.9283 -0.0024
# 6 -0.0107 -0.0116 -0.0321 2.4196 -0.0024 25.2697
#
#
#
# Elastic Compliance Matrix: (Units=1/GPa)
#
#
# Indices 1 2 3 4 5 6 
#
# 1 0.007005 0.000708 -0.007314 -0.000008 0.006149 -0.000005
# 2 0.000708 0.010500 0.001170 0.000008 -0.009541 0.000005
# 3 -0.007314 0.001170 0.004320 0.000005 0.009424 0.000003
# 4 -0.000008 0.000008 0.000005 0.029320 0.000021 -0.002807
# 5 0.006149 -0.009541 0.009424 0.000021 0.030525 0.000011
# 6 -0.000005 0.000005 0.000003 -0.002807 0.000011 0.039842
#
#
# Mechanical properties :
#
#
# Convention : Reuss Voigt Hill
#
# Bulk Modulus (GPa) = 91.30284 8.25239 49.77762
# Shear Modulus (GPa) = 36.75468 16.70801 26.73134
#
# Velocity S-wave (km/s) = 4.30336 2.90144 3.66997
# Velocity P-wave (km/s) = 8.40803 3.92205 6.56039
#
# Compressibility (1/GPa) = 0.01095256
#
# Stress axis : x y z
#
# Youngs Moduli (GPa) = 142.74942 95.23839 231.46006
#
# Poissons Ratio (x) = -0.06738 1.69300
# Poissons Ratio (y) = -0.10100 -0.27089
# Poissons Ratio (z) = 1.04413 -0.11146
#
# Static dielectric constant tensor:
#      x y z
#    x 3.453590 0.000000 0.053250 
#    y 0.000000 3.784220 0.000000 
#    z 0.053250 0.000000 3.681650 
# 
# 
# High freq. dielectric constant tensor:
#      x y z
#    x 1.763830 0.000000 0.003060 
#    y 0.000000 1.783530 0.000000 
#    z 0.003060 0.000000 1.787340 
# 
# From -- ./inp_files/73626.got.cif
#   From: 2010.06.25/outbox.cif.g09.slc.cpg/sg12_37_cif.got.tgz:73626.got - 2010.06.28 00:19:55.
