data_PCOD8107707
_publ_section_title
;
Structure prediction by ZEFSAII (Michael W. Deem and Ramdas Pophale) SiO2 
 PCOD8107707
Probable space group: C 2/M
;
_chemical_formula_sum "Si O2"
_cell_formula_units_Z 56
_cell_length_a 11.805439
_cell_length_b 28.014588
_cell_length_c 15.131099
_cell_angle_alpha 90.000000
_cell_angle_beta 35.393240
_cell_angle_gamma 90.000000
_cell_volume 2898.372210
_symmetry_space_group_name_H-M "C 2/M"
_symmetry_group_IT_number 12
_symmetry_cell_setting 'monoclinic'
loop_
_space_group_symop_operation_xyz
x,y,z
-x,y,-z
-x,-y,-z
x,-y,z
1/2+x,1/2+y,z
1/2-x,1/2+y,-z
1/2-x,1/2-y,-z
1/2+x,1/2-y,z
loop_
_atom_site_type_symbol
_atom_site_label
_atom_site_fract_x
_atom_site_fract_y
_atom_site_fract_z
Si Si1 0.689987 0.000000 0.174487
Si Si2 0.127925 0.094047 0.673761
Si Si3 0.029122 0.234917 0.160503
Si Si4 0.512614 0.897575 0.684641
Si Si5 0.546185 0.500000 0.822388
Si Si6 0.155140 0.153526 0.831633
Si Si7 0.937382 0.664228 0.185636
Si Si8 0.688037 0.340210 0.175346
O O1 0.569708 0.049288 0.247016
O O2 0.799195 0.000000 0.197645
O O3 0.830215 0.000000 0.000418
O O4 0.319030 0.097537 0.493445
O O5 0.161433 0.123506 0.740225
O O6 0.937318 0.111663 0.742641
O O7 0.081950 0.041488 0.731430
O O8 0.038296 0.202596 0.242994
O O9 0.915759 0.207259 0.151290
O O10 0.919209 0.284776 0.247134
O O11 0.250000 0.250000 0.000000
O O12 0.363297 0.855614 0.746904
O O13 0.597655 0.878574 0.723523
O O14 0.000000 0.132311 0.000000
O O15 0.765928 0.666186 0.223479
O O16 0.144321 0.656334 0.005534
#
# Coordination Sequence:
#
# PCOD8107707 Si02
#       8
#     4   8   8   8   4   8   8   8
#     4  11  23  39  66  97 125 152 212 252 312 369
#     4  11  23  39  59  89 131 166 198 247 319 380
#     4   9  19  34  60  92 115 155 211 269 303 354
#     4  12  24  38  61  93 130 167 198 253 320 384
#     4  11  21  39  66  93 121 160 200 266 302 363
#     4  11  21  35  61  89 123 157 208 258 304 361
#     4  10  21  37  64  88 121 163 213 267 302 360
#     4   9  20  39  59  87 122 160 215 258 307 359
#
# _framework density 19.321190999999999
#
# number of rings (size 3 to 8) (size 9 to 14) (size 15 to 20)
#    0.000    1.571    1.429    5.143    6.000    1.143 
#    0.000    3.571    6.286    4.286    0.000    0.000 
#    0.000    0.000    0.000    0.000    0.000    0.000 
#
# Total GULP energy -346941.253752 kJ/mol
# GULP energy per Si atom -12390.759063 kJ/mol
# Density = 1.927721 g / cm^3
# Si number density = 19.321191 Si / 1000 Ang^3
#
#
#
# Elastic Constant Matrix: (Units=GPa)
#
#
# Indices 1 2 3 4 5 6 
#
# 1 110.9236 66.2603 57.9178 0.0000 4.5009 0.0000
# 2 66.2603 129.0159 59.6445 0.0000 14.1963 0.0000
# 3 57.9178 59.6445 121.1815 0.0001 12.3435 0.0000
# 4 0.0000 0.0000 0.0001 27.7998 0.0000 8.8219
# 5 4.5009 14.1963 12.3435 0.0000 14.9290 0.0000
# 6 0.0000 0.0000 0.0000 8.8219 0.0000 59.8762
#
#
#
# Elastic Compliance Matrix: (Units=1/GPa)
#
#
# Indices 1 2 3 4 5 6 
#
# 1 0.014837 -0.006036 -0.004640 0.000000 0.005103 0.000000
# 2 -0.006036 0.013000 -0.002664 0.000000 -0.008340 0.000000
# 3 -0.004640 -0.002664 0.012427 0.000000 -0.006342 0.000000
# 4 0.000000 0.000000 0.000000 0.037736 0.000000 -0.005560
# 5 0.005103 -0.008340 -0.006342 0.000000 0.078619 0.000000
# 6 0.000000 0.000000 0.000000 -0.005560 0.000000 0.017520
#
#
# Mechanical properties :
#
#
# Convention : Reuss Voigt Hill
#
# Bulk Modulus (GPa) = 73.61981 80.97402 77.29691
# Shear Modulus (GPa) = 24.34889 32.34090 28.34490
#
# Velocity S-wave (km/s) = 3.55380 4.09572 3.83435
# Velocity P-wave (km/s) = 7.41790 8.02290 7.72632
#
# Compressibility (1/GPa) = 0.01358330
#
# Stress axis : x y z
#
# Youngs Moduli (GPa) = 67.40092 76.92017 80.47006
#
# Poissons Ratio (x) = 0.46432 0.37337
# Poissons Ratio (y) = 0.40686 0.21439
# Poissons Ratio (z) = 0.31273 0.20493
#
# Static dielectric constant tensor:
#      x y z
#    x 3.761400 0.000000 -0.078110 
#    y 0.000000 4.426250 0.000000 
#    z -0.078110 0.000000 3.398150 
# 
# 
# High freq. dielectric constant tensor:
#      x y z
#    x 1.753020 0.000000 0.002240 
#    y 0.000000 1.760230 0.000000 
#    z 0.002240 0.000000 1.734290 
# 
# From -- ./inp_files/209148.got.cif
#   From: 2010.06.25/outbox.cif.g09.slc.cpg/sg12_105_cif.got.tgz:209148.got - 2010.06.28 00:19:55.
