data_PCOD8107477
_publ_section_title
;
Structure prediction by ZEFSAII (Michael W. Deem and Ramdas Pophale) SiO2 
 PCOD8107477
Probable space group: C 2/M
;
_chemical_formula_sum "Si O2"
_cell_formula_units_Z 48
_cell_length_a 32.757643
_cell_length_b 15.619385
_cell_length_c 9.854702
_cell_angle_alpha 90.000000
_cell_angle_beta 149.981077
_cell_angle_gamma 90.000000
_cell_volume 2522.542058
_symmetry_space_group_name_H-M "C 2/M"
_symmetry_group_IT_number 12
_symmetry_cell_setting 'monoclinic'
loop_
_space_group_symop_operation_xyz
x,y,z
-x,y,-z
-x,-y,-z
x,-y,z
1/2+x,1/2+y,z
1/2-x,1/2+y,-z
1/2-x,1/2-y,-z
1/2+x,1/2-y,z
loop_
_atom_site_type_symbol
_atom_site_label
_atom_site_fract_x
_atom_site_fract_y
_atom_site_fract_z
Si Si1 0.005908 0.000000 0.736544
Si Si2 0.834448 0.262427 0.820708
Si Si3 0.132725 0.285592 0.648265
Si Si4 0.486341 0.315350 0.118508
Si Si5 0.722538 0.668177 0.085889
Si Si6 0.363998 0.500000 0.109683
Si Si7 0.096315 0.399521 0.794863
O O1 0.996231 0.914606 0.797753
O O2 0.934642 0.000000 0.422622
O O3 0.094253 0.000000 0.918083
O O4 0.750000 0.250000 0.500000
O O5 0.822836 0.222869 0.932937
O O6 0.896102 0.209719 0.904194
O O7 0.868330 0.357237 0.961889
O O8 0.178969 0.322494 0.646561
O O9 0.135875 0.358166 0.773729
O O10 0.042307 0.253559 0.356735
O O11 0.182199 0.199345 0.829333
O O12 0.500000 0.302290 0.000000
O O13 0.700899 0.573206 0.058705
O O14 0.118562 0.500000 0.865038
O O15 0.000000 0.384727 0.500000
#
# Coordination Sequence:
#
# PCOD8107477 Si02
#       7
#     4   8   8   8   8   4   8
#     4  11  23  38  62  98 122 165 213 261 323 384
#     4  11  23  42  63  90 129 167 208 261 330 387
#     4  10  21  38  62  90 117 165 215 257 313 379
#     4  12  23  40  62  88 129 171 212 259 320 394
#     4  10  21  37  60  88 123 161 204 259 311 379
#     4  11  20  36  66  92 127 157 208 264 316 380
#     4  10  21  40  68  93 119 163 220 270 312 375
#
# _framework density 19.028424000000001
#
# number of rings (size 3 to 8) (size 9 to 14) (size 15 to 20)
#    0.000    1.333    5.000    1.250    1.167    0.000 
#    3.000    0.000    0.000    1.000    0.000    0.000 
#    0.000    0.000    0.000    0.000    0.000    0.000 
#
# Total GULP energy -297344.147736 kJ/mol
# GULP energy per Si atom -12389.339489 kJ/mol
# Density = 1.898511 g / cm^3
# Si number density = 19.028424 Si / 1000 Ang^3
#
#
#
# Elastic Constant Matrix: (Units=GPa)
#
#
# Indices 1 2 3 4 5 6 
#
# 1 106.8201 28.7729 21.5880 0.0000 11.9624 0.0000
# 2 28.7729 118.4419 38.1680 0.0000 -1.1704 0.0000
# 3 21.5880 38.1680 95.8418 0.0000 8.3543 0.0000
# 4 0.0000 0.0000 0.0000 107.5958 0.0000 -115.3496
# 5 11.9624 -1.1704 8.3543 0.0000 34.2390 0.0000
# 6 0.0000 0.0000 0.0000 -115.3496 0.0000 200.3401
#
#
#
# Elastic Compliance Matrix: (Units=1/GPa)
#
#
# Indices 1 2 3 4 5 6 
#
# 1 0.010592 -0.002222 -0.001197 0.000000 -0.003484 0.000000
# 2 -0.002222 0.010209 -0.003743 0.000000 0.002038 0.000000
# 3 -0.001197 -0.003743 0.012433 0.000000 -0.002743 0.000000
# 4 0.000000 0.000000 0.000000 0.024283 0.000000 0.013981
# 5 -0.003484 0.002038 -0.002743 0.000000 0.031163 0.000000
# 6 0.000000 0.000000 0.000000 0.013981 0.000000 0.013042
#
#
# Mechanical properties :
#
#
# Convention : Reuss Voigt Hill
#
# Bulk Modulus (GPa) = 52.88063 55.35129 54.11596
# Shear Modulus (GPa) = 40.86662 83.93996 62.40329
#
# Velocity S-wave (km/s) = 4.63931 6.64896 5.73288
# Velocity P-wave (km/s) = 7.51986 9.38599 8.50427
#
# Compressibility (1/GPa) = 0.01891051
#
# Stress axis : x y z
#
# Youngs Moduli (GPa) = 94.40940 97.95311 80.42956
#
# Poissons Ratio (x) = 0.21763 0.09630
# Poissons Ratio (y) = 0.20975 0.30104
# Poissons Ratio (z) = 0.11304 0.36663
#
# Static dielectric constant tensor:
#      x y z
#    x 3.595190 0.000000 0.143480 
#    y 0.000000 -80.853040 0.000000 
#    z 0.143480 0.000000 3.364700 
# 
# 
# High freq. dielectric constant tensor:
#      x y z
#    x 1.752200 0.000000 0.015310 
#    y 0.000000 1.741160 0.000000 
#    z 0.015310 0.000000 1.726580 
# 
# From -- ./inp_files/112975.got.cif
#   From: 2010.06.25/outbox.cif.g09.slc.cpg/sg12_57_cif.got.tgz:112975.got - 2010.06.28 00:19:55.
