data_PCOD8107212
_publ_section_title
;
Structure prediction by ZEFSAII (Michael W. Deem and Ramdas Pophale) SiO2 
 PCOD8107212
Probable space group: C 2/M
;
_chemical_formula_sum "Si O2"
_cell_formula_units_Z 64
_cell_length_a 16.155708
_cell_length_b 9.163397
_cell_length_c 21.808867
_cell_angle_alpha 90.000000
_cell_angle_beta 90.844774
_cell_angle_gamma 90.000000
_cell_volume 3228.259180
_symmetry_space_group_name_H-M "C 2/M"
_symmetry_group_IT_number 12
_symmetry_cell_setting 'monoclinic'
loop_
_space_group_symop_operation_xyz
x,y,z
-x,y,-z
-x,-y,-z
x,-y,z
1/2+x,1/2+y,z
1/2-x,1/2+y,-z
1/2-x,1/2-y,-z
1/2+x,1/2-y,z
loop_
_atom_site_type_symbol
_atom_site_label
_atom_site_fract_x
_atom_site_fract_y
_atom_site_fract_z
Si Si1 0.328732 0.671942 0.368822
Si Si2 0.832362 0.663395 0.004333
Si Si3 0.343107 0.837839 0.249554
Si Si4 0.153338 0.835652 0.227201
Si Si5 0.080652 0.169844 0.099055
Si Si6 0.981244 0.329977 0.429616
Si Si7 0.860631 0.672591 0.649447
Si Si8 0.571646 0.162577 0.874644
O O1 0.336952 0.500000 0.377619
O O2 0.358129 0.717155 0.301384
O O3 0.394522 0.748108 0.414794
O O4 0.231377 0.721461 0.377319
O O5 0.820392 0.500000 0.979721
O O6 0.854545 0.662557 0.076075
O O7 0.750000 0.750000 0.000000
O O8 0.897526 0.741052 0.961200
O O9 0.250961 0.833591 0.224117
O O10 0.400101 0.799200 0.193219
O O11 0.363506 0.000000 0.276023
O O12 0.124487 0.771726 0.161526
O O13 0.121093 0.739522 0.283609
O O14 0.119141 0.000000 0.236042
O O15 0.984912 0.203093 0.106761
O O16 0.098386 0.000000 0.088217
O O17 0.966136 0.500000 0.416744
O O18 0.000000 0.297061 0.500000
O O19 0.063087 0.275971 0.393000
O O20 0.859729 0.500000 0.656522
O O21 0.530021 0.000000 0.875250
#
# Coordination Sequence:
#
# PCOD8107212 Si02
#       8
#     8   8   8   8   8   8   8   8
#     4  10  21  37  58  87 121 151 191 246 296 340
#     4  11  23  40  60  80 107 146 191 238 289 345
#     4   9  18  36  59  80 108 148 189 228 280 342
#     4   9  19  36  57  82 112 147 188 234 282 337
#     4  11  23  37  55  83 116 147 186 236 287 341
#     4  10  22  40  61  86 118 158 200 237 284 353
#     4   9  20  38  59  85 118 155 195 243 293 347
#     4  10  22  38  56  80 111 147 187 232 284 345
#
# _framework density 19.824925
#
# number of rings (size 3 to 8) (size 9 to 14) (size 15 to 20)
#    0.000    2.125    0.000    2.250    1.750    7.750 
#    0.000    2.500    0.000    0.000    0.000    0.000 
#    0.000    0.000    0.000    0.000    0.000    0.000 
#
# Total GULP energy -396611.452650 kJ/mol
# GULP energy per Si atom -12394.107895 kJ/mol
# Density = 1.977980 g / cm^3
# Si number density = 19.824925 Si / 1000 Ang^3
#
#
#
# Elastic Constant Matrix: (Units=GPa)
#
#
# Indices 1 2 3 4 5 6 
#
# 1 67.9438 26.8698 20.7413 0.0000 0.9781 0.0000
# 2 26.8698 64.3220 22.9635 0.0000 4.3577 0.0000
# 3 20.7413 22.9635 68.4999 0.0000 6.0245 0.0000
# 4 0.0000 0.0000 0.0000 31.2487 0.0000 3.0532
# 5 0.9781 4.3577 6.0245 0.0000 32.4148 0.0000
# 6 0.0000 0.0000 0.0000 3.0532 0.0000 33.3592
#
#
#
# Elastic Compliance Matrix: (Units=1/GPa)
#
#
# Indices 1 2 3 4 5 6 
#
# 1 0.018325 -0.006485 -0.003459 0.000000 0.000962 0.000000
# 2 -0.006485 0.020009 -0.004600 0.000000 -0.001639 0.000000
# 3 -0.003459 -0.004600 0.017409 0.000000 -0.002513 0.000000
# 4 0.000000 0.000000 0.000000 0.032290 0.000000 -0.002955
# 5 0.000962 -0.001639 -0.002513 0.000000 0.031509 0.000000
# 6 0.000000 0.000000 0.000000 -0.002955 0.000000 0.030247
#
#
# Mechanical properties :
#
#
# Convention : Reuss Voigt Hill
#
# Bulk Modulus (GPa) = 37.51711 37.99053 37.75382
# Shear Modulus (GPa) = 26.62940 28.08394 27.35667
#
# Velocity S-wave (km/s) = 3.66898 3.76785 3.71875
# Velocity P-wave (km/s) = 6.07568 6.17524 6.12566
#
# Compressibility (1/GPa) = 0.02665450
#
# Stress axis : x y z
#
# Youngs Moduli (GPa) = 54.57057 49.97707 57.44147
#
# Poissons Ratio (x) = 0.32411 0.19870
# Poissons Ratio (y) = 0.35390 0.26422
# Poissons Ratio (z) = 0.18877 0.22989
#
# Static dielectric constant tensor:
#      x y z
#    x 3.516430 0.000000 0.405110 
#    y 0.000000 3.641460 0.000000 
#    z 0.405110 0.000000 2.576670 
# 
# 
# High freq. dielectric constant tensor:
#      x y z
#    x 1.776170 0.000000 0.001690 
#    y 0.000000 1.768560 0.000000 
#    z 0.001690 0.000000 1.775260 
# 
# From -- ./inp_files/314160.got.cif
#   From: 2010.06.25/outbox.cif.g09.slc.cpg/sg12_158_cif.got.tgz:314160.got - 2010.06.28 00:19:55.
