data_PCOD8107547
_publ_section_title
;
Structure prediction by ZEFSAII (Michael W. Deem and Ramdas Pophale) SiO2 
 PCOD8107547
Probable space group: C 2/M
;
_chemical_formula_sum "Si O2"
_cell_formula_units_Z 40
_cell_length_a 19.150075
_cell_length_b 9.254266
_cell_length_c 24.830469
_cell_angle_alpha 90.000000
_cell_angle_beta 28.580495
_cell_angle_gamma 90.000000
_cell_volume 2105.145624
_symmetry_space_group_name_H-M "C 2/M"
_symmetry_group_IT_number 12
_symmetry_cell_setting 'monoclinic'
loop_
_space_group_symop_operation_xyz
x,y,z
-x,y,-z
-x,-y,-z
x,-y,z
1/2+x,1/2+y,z
1/2-x,1/2+y,-z
1/2-x,1/2-y,-z
1/2+x,1/2-y,z
loop_
_atom_site_type_symbol
_atom_site_label
_atom_site_fract_x
_atom_site_fract_y
_atom_site_fract_z
Si Si1 0.876482 0.163779 0.039508
Si Si2 0.566098 0.828746 0.289751
Si Si3 0.131275 0.665557 0.673951
Si Si4 0.612222 0.165601 0.071569
Si Si5 0.427045 0.171535 0.493918
O O1 0.725781 0.229986 0.165223
O O2 0.849848 0.000000 0.036494
O O3 0.936453 0.263483 0.951359
O O4 0.000000 0.165245 0.000000
O O5 0.444617 0.775205 0.329286
O O6 0.525508 0.773956 0.377066
O O7 0.572106 0.000000 0.284633
O O8 0.181725 0.500000 0.632413
O O9 0.267584 0.763462 0.595965
O O10 0.019257 0.680724 0.798306
O O11 0.655755 0.000000 0.032895
O O12 0.750000 0.250000 0.000000
O O13 0.500000 0.226285 0.500000
O O14 0.411170 0.000000 0.504688
#
# Coordination Sequence:
#
# PCOD8107547 Si02
#       5
#     8   8   8   8   8
#     4  10  21  37  61  87 118 158 190 231 294 352
#     4   9  18  37  57  81 116 148 186 233 282 336
#     4  10  21  38  59  80 113 153 187 233 287 339
#     4  11  22  38  60  87 119 152 193 241 287 344
#     4  10  22  37  58  86 113 144 189 240 282 335
#
# _framework density 19.001059999999999
#
# number of rings (size 3 to 8) (size 9 to 14) (size 15 to 20)
#    0.000    2.000    2.000    1.200    2.800    2.400 
#    0.000    1.000    0.000    0.000    0.000    0.000 
#    0.000    0.000    0.000    0.000    0.000    0.000 
#
# Total GULP energy -248024.254534 kJ/mol
# GULP energy per Si atom -12401.212727 kJ/mol
# Density = 1.895781 g / cm^3
# Si number density = 19.001060 Si / 1000 Ang^3
#
#
#
# Elastic Constant Matrix: (Units=GPa)
#
#
# Indices 1 2 3 4 5 6 
#
# 1 144.3020 40.2928 64.2691 -0.0001 10.9527 0.0002
# 2 40.2928 58.5253 34.1436 -0.0002 8.9093 0.0002
# 3 64.2691 34.1436 85.1772 0.0001 3.7774 0.0000
# 4 -0.0001 -0.0002 0.0001 30.0054 0.0002 -3.2088
# 5 10.9527 8.9093 3.7774 0.0002 38.6165 -0.0001
# 6 0.0002 0.0002 0.0000 -3.2088 -0.0001 17.0186
#
#
#
# Elastic Compliance Matrix: (Units=1/GPa)
#
#
# Indices 1 2 3 4 5 6 
#
# 1 0.011083 -0.003311 -0.006960 0.000000 -0.001699 0.000000
# 2 -0.003311 0.024022 -0.006957 0.000000 -0.003923 0.000000
# 3 -0.006960 -0.006957 0.019707 0.000000 0.001651 0.000000
# 4 0.000000 0.000000 0.000000 0.034013 0.000000 0.006413
# 5 -0.001699 -0.003923 0.001651 0.000000 0.027121 0.000000
# 6 0.000000 0.000000 0.000000 0.006413 0.000000 0.059968
#
#
# Mechanical properties :
#
#
# Convention : Reuss Voigt Hill
#
# Bulk Modulus (GPa) = 49.12515 62.82394 55.97455
# Shear Modulus (GPa) = 23.02480 27.08137 25.05308
#
# Velocity S-wave (km/s) = 3.48482 3.77935 3.63507
# Velocity P-wave (km/s) = 6.48860 7.22356 6.86592
#
# Compressibility (1/GPa) = 0.02035617
#
# Stress axis : x y z
#
# Youngs Moduli (GPa) = 90.22546 41.62821 50.74277
#
# Poissons Ratio (x) = 0.13785 0.35317
# Poissons Ratio (y) = 0.29878 0.35301
# Poissons Ratio (z) = 0.62797 0.28960
#
# Static dielectric constant tensor:
#      x y z
#    x 3.680720 0.000000 0.128260 
#    y 0.000000 3.530610 0.000000 
#    z 0.128260 0.000000 3.415940 
# 
# 
# High freq. dielectric constant tensor:
#      x y z
#    x 1.752420 0.000000 0.005380 
#    y 0.000000 1.713810 0.000000 
#    z 0.005380 0.000000 1.747930 
# 
# From -- ./inp_files/151651.got.cif
#   From: 2010.06.25/outbox.cif.g09.slc.cpg/sg12_76_cif.got.tgz:151651.got - 2010.06.28 00:19:55.
