data_PCOD8107614
_publ_section_title
;
Structure prediction by ZEFSAII (Michael W. Deem and Ramdas Pophale) SiO2 
 PCOD8107614
Probable space group: C 2/M
;
_chemical_formula_sum "Si O2"
_cell_formula_units_Z 48
_cell_length_a 14.845429
_cell_length_b 10.783331
_cell_length_c 14.945145
_cell_angle_alpha 90.000000
_cell_angle_beta 73.187779
_cell_angle_gamma 90.000000
_cell_volume 2290.207050
_symmetry_space_group_name_H-M "C 2/M"
_symmetry_group_IT_number 12
_symmetry_cell_setting 'monoclinic'
loop_
_space_group_symop_operation_xyz
x,y,z
-x,y,-z
-x,-y,-z
x,-y,z
1/2+x,1/2+y,z
1/2-x,1/2+y,-z
1/2-x,1/2-y,-z
1/2+x,1/2-y,z
loop_
_atom_site_type_symbol
_atom_site_label
_atom_site_fract_x
_atom_site_fract_y
_atom_site_fract_z
Si Si1 0.586428 0.640216 0.030894
Si Si2 0.078136 0.719706 0.212987
Si Si3 0.879996 0.364848 0.239021
Si Si4 0.558152 0.640701 0.399153
Si Si5 0.715796 0.361945 0.835702
Si Si6 0.747611 0.135767 0.566532
O O1 0.555668 0.500000 0.055593
O O2 0.604627 0.690983 0.124102
O O3 0.500000 0.704888 0.000000
O O4 0.683830 0.652735 0.947968
O O5 0.039588 0.789417 0.311929
O O6 0.171830 0.642580 0.207583
O O7 0.993001 0.633957 0.204053
O O8 0.847704 0.500000 0.208072
O O9 0.835761 0.247247 0.202504
O O10 0.848964 0.357566 0.351241
O O11 0.500000 0.699171 0.500000
O O12 0.523263 0.500000 0.395776
O O13 0.668629 0.648945 0.386488
O O14 0.684732 0.500000 0.810115
O O15 0.750000 0.250000 0.500000
O O16 0.755287 0.000000 0.515406
#
# Coordination Sequence:
#
# PCOD8107614 Si02
#       6
#     8   8   8   8   8   8
#     4  10  21  39  64  96 131 171 219 268 319 391
#     4  12  22  40  68  94 129 171 216 269 333 371
#     4  11  24  42  64  94 133 170 212 265 327 387
#     4  10  21  37  61  95 130 167 216 263 316 392
#     4  11  24  43  65  94 131 168 219 269 318 388
#     4  10  21  40  61  89 126 166 212 265 318 383
#
# _framework density 20.958805000000002
#
# number of rings (size 3 to 8) (size 9 to 14) (size 15 to 20)
#    0.000    1.333    3.333    2.500    0.000    2.000 
#    0.000    2.500    0.000    3.500    0.000    0.000 
#    0.000    0.000    0.000    0.000    0.000    0.000 
#
# Total GULP energy -297440.267692 kJ/mol
# GULP energy per Si atom -12393.344487 kJ/mol
# Density = 2.091110 g / cm^3
# Si number density = 20.958805 Si / 1000 Ang^3
#
#
#
# Elastic Constant Matrix: (Units=GPa)
#
#
# Indices 1 2 3 4 5 6 
#
# 1 95.3983 41.4121 20.5593 0.0000 -17.2763 0.0000
# 2 41.4121 162.2503 64.2274 0.0000 11.2257 0.0000
# 3 20.5593 64.2274 119.0917 0.0000 -4.0671 0.0000
# 4 0.0000 0.0000 0.0000 31.0159 0.0000 1.3752
# 5 -17.2763 11.2257 -4.0671 0.0000 36.9508 0.0000
# 6 0.0000 0.0000 0.0000 1.3752 0.0000 25.5923
#
#
#
# Elastic Compliance Matrix: (Units=1/GPa)
#
#
# Indices 1 2 3 4 5 6 
#
# 1 0.013585 -0.004026 0.000085 0.000000 0.007584 0.000000
# 2 -0.004026 0.009342 -0.004521 0.000000 -0.005218 0.000000
# 3 0.000085 -0.004521 0.010910 0.000000 0.002614 0.000000
# 4 0.000000 0.000000 0.000000 0.032319 0.000000 -0.001737
# 5 0.007584 -0.005218 0.002614 0.000000 0.032482 0.000000
# 6 0.000000 0.000000 0.000000 -0.001737 0.000000 0.039168
#
#
# Mechanical properties :
#
#
# Convention : Reuss Voigt Hill
#
# Bulk Modulus (GPa) = 59.12837 69.90418 64.51627
# Shear Modulus (GPa) = 31.17865 35.41455 33.29660
#
# Velocity S-wave (km/s) = 3.86115 4.11508 3.99014
# Velocity P-wave (km/s) = 6.93908 7.48359 7.21647
#
# Compressibility (1/GPa) = 0.01691236
#
# Stress axis : x y z
#
# Youngs Moduli (GPa) = 73.61021 107.04827 91.66023
#
# Poissons Ratio (x) = 0.43095 -0.00778
# Poissons Ratio (y) = 0.29633 0.41442
# Poissons Ratio (z) = -0.00625 0.48399
#
# Static dielectric constant tensor:
#      x y z
#    x 3.847250 0.000000 -0.297030 
#    y 0.000000 3.840570 0.000000 
#    z -0.297030 0.000000 3.762610 
# 
# 
# High freq. dielectric constant tensor:
#      x y z
#    x 1.817240 0.000000 -0.024930 
#    y 0.000000 1.817830 0.000000 
#    z -0.024930 0.000000 1.819910 
# 
# From -- ./inp_files/212498.got.cif
#   From: 2010.06.25/outbox.cif.g09.slc.cpg/sg12_107_cif.got.tgz:212498.got - 2010.06.28 00:19:55.
