data_PCOD8107566
_publ_section_title
;
Structure prediction by ZEFSAII (Michael W. Deem and Ramdas Pophale) SiO2 
 PCOD8107566
Probable space group: C 2/M
;
_chemical_formula_sum "Si O2"
_cell_formula_units_Z 64
_cell_length_a 24.687018
_cell_length_b 9.148150
_cell_length_c 14.468761
_cell_angle_alpha 90.000000
_cell_angle_beta 88.943850
_cell_angle_gamma 90.000000
_cell_volume 3267.077718
_symmetry_space_group_name_H-M "C 2/M"
_symmetry_group_IT_number 12
_symmetry_cell_setting 'monoclinic'
loop_
_space_group_symop_operation_xyz
x,y,z
-x,y,-z
-x,-y,-z
x,-y,z
1/2+x,1/2+y,z
1/2-x,1/2+y,-z
1/2-x,1/2-y,-z
1/2+x,1/2-y,z
loop_
_atom_site_type_symbol
_atom_site_label
_atom_site_fract_x
_atom_site_fract_y
_atom_site_fract_z
Si Si1 0.397291 0.665005 0.653522
Si Si2 0.054744 0.336804 0.053822
Si Si3 0.439078 0.829123 0.487150
Si Si4 0.491814 0.333867 0.783693
Si Si5 0.805345 0.171881 0.798802
Si Si6 0.696481 0.670125 0.802325
Si Si7 0.847059 0.167720 0.998487
Si Si8 0.094629 0.327803 0.718920
O O1 0.382060 0.500000 0.627415
O O2 0.396560 0.759785 0.560592
O O3 0.458581 0.673230 0.689832
O O4 0.354145 0.722849 0.730329
O O5 0.070368 0.500000 0.086816
O O6 0.049671 0.227359 0.139444
O O7 0.101297 0.271727 0.986626
O O8 0.000000 0.341047 0.000000
O O9 0.500000 0.767051 0.500000
O O10 0.416886 0.789830 0.387029
O O11 0.439317 0.000000 0.505940
O O12 0.508537 0.500000 0.807329
O O13 0.544974 0.234220 0.780370
O O14 0.752695 0.259932 0.767790
O O15 0.794048 0.000000 0.790732
O O16 0.818055 0.214563 0.904369
O O17 0.695083 0.500000 0.776120
O O18 0.691774 0.693495 0.912890
O O19 0.649317 0.750209 0.747872
O O20 0.866460 0.000000 0.992512
O O21 0.098755 0.500000 0.737042
#
# Coordination Sequence:
#
# PCOD8107566 Si02
#       8
#     8   8   8   8   8   8   8   8
#     4  10  21  37  61  90 118 152 193 239 296 352
#     4  11  23  35  51  81 119 159 202 243 291 351
#     4  10  21  38  61  90 121 154 194 242 297 354
#     4  11  21  36  58  85 119 156 193 239 296 354
#     4  10  21  41  63  86 119 158 200 246 297 351
#     4  11  24  40  61  90 119 157 203 248 297 349
#     4  10  21  39  60  84 118 156 200 248 296 351
#     4  11  23  40  61  87 122 160 196 243 301 357
#
# _framework density 19.589371
#
# number of rings (size 3 to 8) (size 9 to 14) (size 15 to 20)
#    0.000    1.500    2.500    2.625    0.000    6.750 
#    0.000    0.625    0.000    0.000    0.000    0.000 
#    0.000    0.000    0.000    0.000    0.000    0.000 
#
# Total GULP energy -396892.448024 kJ/mol
# GULP energy per Si atom -12402.889001 kJ/mol
# Density = 1.954479 g / cm^3
# Si number density = 19.589371 Si / 1000 Ang^3
#
#
#
# Elastic Constant Matrix: (Units=GPa)
#
#
# Indices 1 2 3 4 5 6 
#
# 1 123.8459 53.9318 34.6053 0.0000 -0.2963 0.0000
# 2 53.9318 90.5845 42.5979 0.0000 -0.4692 0.0000
# 3 34.6053 42.5979 85.2198 0.0000 -7.9705 0.0000
# 4 0.0000 0.0000 0.0000 32.0391 0.0000 -2.5900
# 5 -0.2963 -0.4692 -7.9705 0.0000 21.5661 0.0000
# 6 0.0000 0.0000 0.0000 -2.5900 0.0000 32.2179
#
#
#
# Elastic Compliance Matrix: (Units=1/GPa)
#
#
# Indices 1 2 3 4 5 6 
#
# 1 0.011066 -0.005821 -0.001638 0.000000 -0.000580 0.000000
# 2 -0.005821 0.017618 -0.006644 0.000000 -0.002152 0.000000
# 3 -0.001638 -0.006644 0.016267 0.000000 0.005845 0.000000
# 4 0.000000 0.000000 0.000000 0.031416 0.000000 0.002526
# 5 -0.000580 -0.002152 0.005845 0.000000 0.048475 0.000000
# 6 0.000000 0.000000 0.000000 0.002526 0.000000 0.031242
#
#
# Mechanical properties :
#
#
# Convention : Reuss Voigt Hill
#
# Bulk Modulus (GPa) = 59.71950 62.43556 61.07753
# Shear Modulus (GPa) = 26.33350 28.39897 27.36623
#
# Velocity S-wave (km/s) = 3.67041 3.81164 3.74169
# Velocity P-wave (km/s) = 6.96523 7.16330 7.06496
#
# Compressibility (1/GPa) = 0.01674495
#
# Stress axis : x y z
#
# Youngs Moduli (GPa) = 90.36888 56.75863 61.47246
#
# Poissons Ratio (x) = 0.33039 0.10070
# Poissons Ratio (y) = 0.52603 0.40844
# Poissons Ratio (z) = 0.14803 0.37712
#
# Static dielectric constant tensor:
#      x y z
#    x 3.444710 0.000000 -0.070900 
#    y 0.000000 3.616550 0.000000 
#    z -0.070900 0.000000 3.545410 
# 
# 
# High freq. dielectric constant tensor:
#      x y z
#    x 1.757210 0.000000 -0.004570 
#    y 0.000000 1.767530 0.000000 
#    z -0.004570 0.000000 1.757700 
# 
# From -- ./inp_files/238611.got.cif
#   From: 2010.06.25/outbox.cif.g09.slc.cpg/sg12_120_cif.got.tgz:238611.got - 2010.06.28 00:19:55.
