data_PCOD8107291
_publ_section_title
;
Structure prediction by ZEFSAII (Michael W. Deem and Ramdas Pophale) SiO2 
 PCOD8107291
Probable space group: C 2/M
;
_chemical_formula_sum "Si O2"
_cell_formula_units_Z 36
_cell_length_a 14.768465
_cell_length_b 9.685989
_cell_length_c 12.744757
_cell_angle_alpha 90.000000
_cell_angle_beta 107.295413
_cell_angle_gamma 90.000000
_cell_volume 1740.669406
_symmetry_space_group_name_H-M "C 2/M"
_symmetry_group_IT_number 12
_symmetry_cell_setting 'monoclinic'
loop_
_space_group_symop_operation_xyz
x,y,z
-x,y,-z
-x,-y,-z
x,-y,z
1/2+x,1/2+y,z
1/2-x,1/2+y,-z
1/2-x,1/2-y,-z
1/2+x,1/2-y,z
loop_
_atom_site_type_symbol
_atom_site_label
_atom_site_fract_x
_atom_site_fract_y
_atom_site_fract_z
Si Si1 0.732489 0.655001 0.271682
Si Si2 0.794502 0.345164 0.928323
Si Si3 0.975046 0.153401 0.761072
Si Si4 0.000000 0.259320 0.000000
Si Si5 0.559530 0.158185 0.617539
O O1 0.730597 0.500000 0.219505
O O2 0.736845 0.777230 0.190296
O O3 0.636629 0.674175 0.306568
O O4 0.828722 0.669963 0.372825
O O5 0.752950 0.500000 0.920634
O O6 0.907811 0.354724 0.979241
O O7 0.750000 0.250000 0.000000
O O8 0.989775 0.167320 0.891534
O O9 0.037087 0.261547 0.717289
O O10 0.007784 0.000000 0.740241
O O11 0.500000 0.220809 0.500000
O O12 0.529438 0.000000 0.626757
#
# Coordination Sequence:
#
# PCOD8107291 Si02
#       5
#     8   8   8   4   8
#     4   9  20  38  56  78 111 147 184 229 282 334
#     4  11  22  35  54  81 113 149 188 229 276 332
#     4  10  21  37  59  86 115 148 187 233 281 331
#     4  10  22  38  58  84 118 152 186 226 280 340
#     4  10  22  40  60  82 112 151 191 232 281 336
#
# _framework density 20.681698999999998
#
# number of rings (size 3 to 8) (size 9 to 14) (size 15 to 20)
#    0.000    2.000    0.000    2.667    0.000   12.889 
#    0.000    0.000    0.000    0.000    0.000    0.000 
#    0.000    0.000    0.000    0.000    0.000    0.000 
#
# Total GULP energy -223112.700229 kJ/mol
# GULP energy per Si atom -12395.150013 kJ/mol
# Density = 2.063463 g / cm^3
# Si number density = 20.681699 Si / 1000 Ang^3
#
#
#
# Elastic Constant Matrix: (Units=GPa)
#
#
# Indices 1 2 3 4 5 6 
#
# 1 96.4395 21.9031 32.5026 0.0000 20.5050 0.0000
# 2 21.9031 115.6771 18.9641 0.0000 -1.9440 0.0000
# 3 32.5026 18.9641 68.8743 0.0000 13.7870 0.0000
# 4 0.0000 0.0000 0.0000 17.5350 0.0000 -1.9961
# 5 20.5050 -1.9440 13.7870 0.0000 35.1316 0.0000
# 6 0.0000 0.0000 0.0000 -1.9961 0.0000 24.7642
#
#
#
# Elastic Compliance Matrix: (Units=1/GPa)
#
#
# Indices 1 2 3 4 5 6 
#
# 1 0.013723 -0.001936 -0.004686 0.000000 -0.006278 0.000000
# 2 -0.001936 0.009411 -0.002179 0.000000 0.002506 0.000000
# 3 -0.004686 -0.002179 0.018240 0.000000 -0.004544 0.000000
# 4 0.000000 0.000000 0.000000 0.057557 0.000000 0.004639
# 5 -0.006278 0.002506 -0.004544 0.000000 0.034050 0.000000
# 6 0.000000 0.000000 0.000000 0.004639 0.000000 0.040755
#
#
# Mechanical properties :
#
#
# Convention : Reuss Voigt Hill
#
# Bulk Modulus (GPa) = 42.06765 47.52560 44.79662
# Shear Modulus (GPa) = 25.09254 29.32757 27.21005
#
# Velocity S-wave (km/s) = 3.48699 3.76978 3.63114
# Velocity P-wave (km/s) = 6.04953 6.47902 6.26795
#
# Compressibility (1/GPa) = 0.02377124
#
# Stress axis : x y z
#
# Youngs Moduli (GPa) = 72.87034 106.26264 54.82352
#
# Poissons Ratio (x) = 0.20568 0.25693
# Poissons Ratio (y) = 0.14105 0.11948
# Poissons Ratio (z) = 0.34150 0.23158
#
# Static dielectric constant tensor:
#      x y z
#    x 4.096260 0.000000 0.265520 
#    y 0.000000 3.610480 0.000000 
#    z 0.265520 0.000000 3.473280 
# 
# 
# High freq. dielectric constant tensor:
#      x y z
#    x 1.824850 0.000000 0.021480 
#    y 0.000000 1.809510 0.000000 
#    z 0.021480 0.000000 1.777890 
# 
# From -- ./inp_files/152082.got.cif
#   From: 2010.06.25/outbox.cif.g09.slc.cpg/sg12_77_cif.got.tgz:152082.got - 2010.06.28 00:19:55.
