data_PCOD8107422
_publ_section_title
;
Structure prediction by ZEFSAII (Michael W. Deem and Ramdas Pophale) SiO2 
 PCOD8107422
Probable space group: C 2/M
;
_chemical_formula_sum "Si O2"
_cell_formula_units_Z 64
_cell_length_a 24.741162
_cell_length_b 19.159815
_cell_length_c 19.121128
_cell_angle_alpha 90.000000
_cell_angle_beta 19.980935
_cell_angle_gamma 90.000000
_cell_volume 3097.272051
_symmetry_space_group_name_H-M "C 2/M"
_symmetry_group_IT_number 12
_symmetry_cell_setting 'monoclinic'
loop_
_space_group_symop_operation_xyz
x,y,z
-x,y,-z
-x,-y,-z
x,-y,z
1/2+x,1/2+y,z
1/2-x,1/2+y,-z
1/2-x,1/2-y,-z
1/2+x,1/2-y,z
loop_
_atom_site_type_symbol
_atom_site_label
_atom_site_fract_x
_atom_site_fract_y
_atom_site_fract_z
Si Si1 0.807640 0.080913 0.486320
Si Si2 0.023607 0.820393 0.139754
Si Si3 0.828812 0.155733 0.722112
Si Si4 0.671228 0.918019 0.795302
Si Si5 0.847633 0.869618 0.225916
Si Si6 0.652574 0.198815 0.066278
Si Si7 0.824955 0.685800 0.694160
Si Si8 0.582050 0.922526 0.637747
O O1 0.778741 0.109603 0.600137
O O2 0.646127 0.092721 0.638173
O O3 0.956276 0.123078 0.275197
O O4 0.856572 0.000000 0.425506
O O5 0.032124 0.745006 0.166283
O O6 0.915643 0.814742 0.200942
O O7 0.201726 0.844192 0.901436
O O8 0.723243 0.101074 0.809540
O O9 0.819241 0.231342 0.699425
O O10 0.000000 0.124270 0.500000
O O11 0.780788 0.159251 0.861929
O O12 0.660940 0.000000 0.798854
O O13 0.500000 0.883101 0.000000
O O14 0.726054 0.833199 0.321619
O O15 0.739035 0.925788 0.397692
O O16 0.000000 0.903212 0.000000
O O17 0.544229 0.137518 0.232546
O O18 0.750000 0.250000 0.000000
O O19 0.000000 0.657142 0.500000
O O20 0.503916 0.000000 0.728558
#
# Coordination Sequence:
#
# PCOD8107422 Si02
#       8
#     8   8   8   8   8   8   8   8
#     4   9  19  37  62  92 124 159 201 254 308 368
#     4   9  20  37  58  89 119 160 207 254 312 362
#     4  10  23  38  57  86 114 159 197 247 309 359
#     4  10  21  37  60  85 115 154 198 246 297 362
#     4   9  19  36  62  94 122 159 206 261 308 374
#     4  11  25  40  62  90 124 168 210 260 311 372
#     4   9  19  35  58  85 121 156 197 253 309 371
#     4  10  22  39  62  91 126 166 208 259 318 374
#
# _framework density 20.663343999999999
#
# number of rings (size 3 to 8) (size 9 to 14) (size 15 to 20)
#    0.000    2.375    0.000    0.750    7.000    7.500 
#    0.000    2.500    0.000    0.750    0.000    0.000 
#    0.000    0.000    0.000    0.000    0.000    0.000 
#
# Total GULP energy -396493.516708 kJ/mol
# GULP energy per Si atom -12390.422397 kJ/mol
# Density = 2.061631 g / cm^3
# Si number density = 20.663344 Si / 1000 Ang^3
#
#
#
# Elastic Constant Matrix: (Units=GPa)
#
#
# Indices 1 2 3 4 5 6 
#
# 1 101.5345 26.0606 54.0411 0.0429 2.0617 -0.0236
# 2 26.0606 63.4972 48.9602 0.0486 -1.6826 -0.0306
# 3 54.0411 48.9602 144.1119 0.0090 2.9161 -0.0046
# 4 0.0429 0.0486 0.0090 27.8880 -0.0257 -5.7600
# 5 2.0617 -1.6826 2.9161 -0.0257 35.4006 0.0145
# 6 -0.0236 -0.0306 -0.0046 -5.7600 0.0145 33.1916
#
#
#
# Elastic Compliance Matrix: (Units=1/GPa)
#
#
# Indices 1 2 3 4 5 6 
#
# 1 0.012508 -0.002084 -0.003972 -0.000014 -0.000500 0.000004
# 2 -0.002084 0.021778 -0.006652 -0.000029 0.001704 0.000012
# 3 -0.003972 -0.006652 0.010708 0.000012 -0.000967 -0.000005
# 4 -0.000014 -0.000029 0.000012 0.037191 0.000023 0.006454
# 5 -0.000500 0.001704 -0.000967 0.000023 0.028438 -0.000007
# 6 0.000004 0.000012 -0.000005 0.006454 -0.000007 0.031248
#
#
# Mechanical properties :
#
#
# Convention : Reuss Voigt Hill
#
# Bulk Modulus (GPa) = 51.07742 63.02972 57.05357
# Shear Modulus (GPa) = 28.76640 31.30148 30.03394
#
# Velocity S-wave (km/s) = 3.73520 3.89631 3.81660
# Velocity P-wave (km/s) = 6.58595 7.12818 6.86242
#
# Compressibility (1/GPa) = 0.01957812
#
# Stress axis : x y z
#
# Youngs Moduli (GPa) = 79.94767 45.91746 93.38686
#
# Poissons Ratio (x) = 0.09569 0.37097
# Poissons Ratio (y) = 0.16660 0.62120
# Poissons Ratio (z) = 0.31758 0.30544
#
# Static dielectric constant tensor:
#      x y z
#    x 3.422770 -0.000060 0.675600 
#    y -0.000060 3.395770 0.000110 
#    z 0.675600 0.000110 3.081570 
# 
# 
# High freq. dielectric constant tensor:
#      x y z
#    x 1.805350 0.000000 0.011340 
#    y 0.000000 1.777760 0.000000 
#    z 0.011340 0.000000 1.821200 
# 
# From -- ./inp_files/290904.got.cif
#   From: 2010.06.25/outbox.cif.g09.slc.cpg/sg12_146_cif.got.tgz:290904.got - 2010.06.28 00:19:55.
