data_PCOD8107078
_publ_section_title
;
Structure prediction by ZEFSAII (Michael W. Deem and Ramdas Pophale) SiO2 
 PCOD8107078
Probable space group: C 2/M
;
_chemical_formula_sum "Si O2"
_cell_formula_units_Z 56
_cell_length_a 18.565897
_cell_length_b 8.739631
_cell_length_c 29.167903
_cell_angle_alpha 90.000000
_cell_angle_beta 142.360184
_cell_angle_gamma 90.000000
_cell_volume 2890.274075
_symmetry_space_group_name_H-M "C 2/M"
_symmetry_group_IT_number 12
_symmetry_cell_setting 'monoclinic'
loop_
_space_group_symop_operation_xyz
x,y,z
-x,y,-z
-x,-y,-z
x,-y,z
1/2+x,1/2+y,z
1/2-x,1/2+y,-z
1/2-x,1/2-y,-z
1/2+x,1/2-y,z
loop_
_atom_site_type_symbol
_atom_site_label
_atom_site_fract_x
_atom_site_fract_y
_atom_site_fract_z
Si Si1 0.083196 0.818073 0.501658
Si Si2 0.503837 0.319135 0.640171
Si Si3 0.919917 0.825472 0.770096
Si Si4 0.757750 0.179474 0.773188
Si Si5 0.649389 0.820527 0.356944
Si Si6 0.456399 0.178932 0.928306
Si Si7 0.623282 0.677361 0.940457
O O1 0.037880 0.754535 0.430086
O O2 0.216219 0.760535 0.576812
O O3 0.000000 0.750752 0.500000
O O4 0.077986 0.000000 0.499791
O O5 0.500198 0.500000 0.638786
O O6 0.635484 0.265818 0.716107
O O7 0.416440 0.260207 0.634803
O O8 0.823484 0.773847 0.759229
O O9 0.911835 0.717613 0.722065
O O10 0.051310 0.807549 0.856680
O O11 0.896565 0.000000 0.743420
O O12 0.837707 0.228965 0.856473
O O13 0.735477 0.000000 0.764428
O O14 0.643260 0.000000 0.362465
O O15 0.560676 0.223169 0.947189
O O16 0.428621 0.000000 0.910863
O O17 0.500000 0.228338 0.000000
O O18 0.629750 0.500000 0.958619
O O19 0.750000 0.750000 0.000000
#
# Coordination Sequence:
#
# PCOD8107078 Si02
#       7
#     8   8   8   8   8   8   8
#     4   9  19  36  58  84 111 143 186 231 275 328
#     4  11  22  37  58  82 114 151 184 227 280 329
#     4   9  20  38  57  80 111 145 183 229 280 333
#     4  10  21  38  59  83 112 145 186 233 277 331
#     4  11  22  36  57  84 114 147 186 231 276 328
#     4  10  21  37  58  84 114 148 186 229 279 335
#     4  10  21  37  58  83 113 148 188 235 281 332
#
# _framework density 19.375325
#
# number of rings (size 3 to 8) (size 9 to 14) (size 15 to 20)
#    0.000    2.000    0.000    4.286    0.000    6.857 
#    0.000    3.571    0.000    5.143    0.000    0.000 
#    0.000    0.000    0.000    0.000    0.000    0.000 
#
# Total GULP energy -347283.777172 kJ/mol
# GULP energy per Si atom -12402.992042 kJ/mol
# Density = 1.933123 g / cm^3
# Si number density = 19.375325 Si / 1000 Ang^3
#
#
#
# Elastic Constant Matrix: (Units=GPa)
#
#
# Indices 1 2 3 4 5 6 
#
# 1 124.4999 32.4353 80.7634 0.0001 2.9950 -0.0001
# 2 32.4353 53.3213 33.2229 0.0002 -5.6783 -0.0005
# 3 80.7634 33.2229 131.0496 0.0000 -0.9068 0.0000
# 4 0.0001 0.0002 0.0000 25.6257 0.0000 0.1053
# 5 2.9950 -5.6783 -0.9068 0.0000 41.5597 0.0001
# 6 -0.0001 -0.0005 0.0000 0.1053 0.0001 26.7228
#
#
#
# Elastic Compliance Matrix: (Units=1/GPa)
#
#
# Indices 1 2 3 4 5 6 
#
# 1 0.014099 -0.003965 -0.007696 0.000000 -0.001726 0.000000
# 2 -0.003965 0.023748 -0.003553 0.000000 0.003453 0.000000
# 3 -0.007696 -0.003553 0.013276 0.000000 0.000359 0.000000
# 4 0.000000 0.000000 0.000000 0.039024 0.000000 -0.000154
# 5 -0.001726 0.003453 0.000359 0.000000 0.024666 0.000000
# 6 0.000000 0.000000 0.000000 -0.000154 0.000000 0.037422
#
#
# Mechanical properties :
#
#
# Convention : Reuss Voigt Hill
#
# Bulk Modulus (GPa) = 48.31891 66.85712 57.58802
# Shear Modulus (GPa) = 26.37686 29.61156 27.99421
#
# Velocity S-wave (km/s) = 3.69367 3.91361 3.80523
# Velocity P-wave (km/s) = 6.57141 7.41640 7.00665
#
# Compressibility (1/GPa) = 0.02069583
#
# Stress axis : x y z
#
# Youngs Moduli (GPa) = 70.92807 42.10956 75.32128
#
# Poissons Ratio (x) = 0.16697 0.57964
# Poissons Ratio (y) = 0.28124 0.26760
# Poissons Ratio (z) = 0.54583 0.14961
#
# Static dielectric constant tensor:
#      x y z
#    x 3.557200 0.000000 0.019900 
#    y 0.000000 3.457490 0.000000 
#    z 0.019900 0.000000 3.695810 
# 
# 
# High freq. dielectric constant tensor:
#      x y z
#    x 1.756130 0.000000 0.002720 
#    y 0.000000 1.750590 0.000000 
#    z 0.002720 0.000000 1.767690 
# 
# From -- ./inp_files/363152.got.cif
#   From: 2010.06.25/outbox.cif.g09.slc.cpg/sg12_182_cif.got.tgz:363152.got - 2010.06.28 00:19:55.
