data_PCOD8107146
_publ_section_title
;
Structure prediction by ZEFSAII (Michael W. Deem and Ramdas Pophale) SiO2 
 PCOD8107146
Probable space group: C 2/M
;
_chemical_formula_sum "Si O2"
_cell_formula_units_Z 56
_cell_length_a 12.282320
_cell_length_b 19.277760
_cell_length_c 12.921692
_cell_angle_alpha 90.000000
_cell_angle_beta 111.432199
_cell_angle_gamma 90.000000
_cell_volume 2847.976181
_symmetry_space_group_name_H-M "C 2/M"
_symmetry_group_IT_number 12
_symmetry_cell_setting 'monoclinic'
loop_
_space_group_symop_operation_xyz
x,y,z
-x,y,-z
-x,-y,-z
x,-y,z
1/2+x,1/2+y,z
1/2-x,1/2+y,-z
1/2-x,1/2-y,-z
1/2+x,1/2-y,z
loop_
_atom_site_type_symbol
_atom_site_label
_atom_site_fract_x
_atom_site_fract_y
_atom_site_fract_z
Si Si1 0.837370 0.819841 0.221358
Si Si2 0.673239 0.921170 0.514343
Si Si3 0.297570 0.165666 0.273365
Si Si4 0.625970 0.420616 0.580600
Si Si5 0.465939 0.686490 0.874085
Si Si6 0.417518 0.842155 0.884057
Si Si7 0.498258 0.079464 0.273201
O O1 0.843554 0.744076 0.276425
O O2 0.835604 0.875396 0.310415
O O3 0.713456 0.828778 0.118577
O O4 0.940355 0.838678 0.177919
O O5 0.679621 0.862159 0.603211
O O6 0.785625 0.910459 0.482547
O O7 0.555720 0.910049 0.406282
O O8 0.672661 0.000000 0.560792
O O9 0.161389 0.157238 0.198845
O O10 0.373991 0.118313 0.222825
O O11 0.500000 0.394683 0.500000
O O12 0.622683 0.500000 0.616717
O O13 0.473651 0.769101 0.871521
O O14 0.500000 0.658822 0.000000
O O15 0.413895 0.891204 0.782732
O O16 0.500000 0.876649 0.000000
O O17 0.476219 0.000000 0.240595
#
# Coordination Sequence:
#
# PCOD8107146 Si02
#       7
#     8   8   8   8   8   8   8
#     4  11  22  39  63  93 121 156 204 260 300 356
#     4  10  21  39  60  86 124 166 203 245 302 366
#     4  11  23  37  62  92 122 160 207 248 306 356
#     4  10  21  37  58  84 121 166 201 240 302 368
#     4  10  23  41  63  89 122 161 201 251 311 369
#     4  10  22  38  63  91 119 156 207 253 310 361
#     4  11  22  40  62  90 125 161 205 251 305 364
#
# _framework density 19.663086
#
# number of rings (size 3 to 8) (size 9 to 14) (size 15 to 20)
#    0.000    1.571    2.857    1.714    2.000    4.857 
#    0.000    0.714    0.000    2.143    0.000    0.000 
#    0.000    0.000    0.000    0.000    0.000    0.000 
#
# Total GULP energy -347224.285977 kJ/mol
# GULP energy per Si atom -12400.867356 kJ/mol
# Density = 1.961833 g / cm^3
# Si number density = 19.663086 Si / 1000 Ang^3
#
#
#
# Elastic Constant Matrix: (Units=GPa)
#
#
# Indices 1 2 3 4 5 6 
#
# 1 126.4022 38.4419 34.6429 0.0000 7.0821 0.0000
# 2 38.4419 76.2719 45.6218 0.0000 2.6101 0.0000
# 3 34.6429 45.6218 89.2123 0.0000 2.9919 0.0000
# 4 0.0000 0.0000 0.0000 11.6223 0.0000 2.2416
# 5 7.0821 2.6101 2.9919 0.0000 27.1762 0.0000
# 6 0.0000 0.0000 0.0000 2.2416 0.0000 21.9613
#
#
#
# Elastic Compliance Matrix: (Units=1/GPa)
#
#
# Indices 1 2 3 4 5 6 
#
# 1 0.009641 -0.003735 -0.001768 0.000000 -0.001959 0.000000
# 2 -0.003735 0.020351 -0.008957 0.000000 0.000005 0.000000
# 3 -0.001768 -0.008957 0.016493 0.000000 -0.000495 0.000000
# 4 0.000000 0.000000 0.000000 0.087769 0.000000 -0.008959
# 5 -0.001959 0.000005 -0.000495 0.000000 0.037361 0.000000
# 6 0.000000 0.000000 0.000000 -0.008959 0.000000 0.046449
#
#
# Mechanical properties :
#
#
# Convention : Reuss Voigt Hill
#
# Bulk Modulus (GPa) = 56.93101 58.81109 57.87105
# Shear Modulus (GPa) = 19.77536 23.69728 21.73632
#
# Velocity S-wave (km/s) = 3.17473 3.47532 3.32842
# Velocity P-wave (km/s) = 6.51572 6.78808 6.65330
#
# Compressibility (1/GPa) = 0.01756512
#
# Stress axis : x y z
#
# Youngs Moduli (GPa) = 103.71852 49.13849 60.63183
#
# Poissons Ratio (x) = 0.18351 0.10723
# Poissons Ratio (y) = 0.38734 0.54308
# Poissons Ratio (z) = 0.18342 0.44013
#
# Static dielectric constant tensor:
#      x y z
#    x 3.856960 0.000000 0.091800 
#    y 0.000000 3.474570 0.000000 
#    z 0.091800 0.000000 3.504910 
# 
# 
# High freq. dielectric constant tensor:
#      x y z
#    x 1.790790 0.000000 0.003190 
#    y 0.000000 1.754030 0.000000 
#    z 0.003190 0.000000 1.757240 
# 
# From -- ./inp_files/133994.got.cif
#   From: 2010.06.25/outbox.cif.g09.slc.cpg/sg12_67_cif.got.tgz:133994.got - 2010.06.28 00:19:55.
