data_PCOD8107185
_publ_section_title
;
Structure prediction by ZEFSAII (Michael W. Deem and Ramdas Pophale) SiO2 
 PCOD8107185
Probable space group: C 2/M
;
_chemical_formula_sum "Si O2"
_cell_formula_units_Z 64
_cell_length_a 19.938728
_cell_length_b 8.786653
_cell_length_c 29.326541
_cell_angle_alpha 90.000000
_cell_angle_beta 40.435617
_cell_angle_gamma 90.000000
_cell_volume 3332.377090
_symmetry_space_group_name_H-M "C 2/M"
_symmetry_group_IT_number 12
_symmetry_cell_setting 'monoclinic'
loop_
_space_group_symop_operation_xyz
x,y,z
-x,y,-z
-x,-y,-z
x,-y,z
1/2+x,1/2+y,z
1/2-x,1/2+y,-z
1/2-x,1/2-y,-z
1/2+x,1/2-y,z
loop_
_atom_site_type_symbol
_atom_site_label
_atom_site_fract_x
_atom_site_fract_y
_atom_site_fract_z
Si Si1 0.572891 0.679872 0.211778
Si Si2 0.789467 0.179115 0.525822
Si Si3 0.743714 0.677452 0.052268
Si Si4 0.503680 0.178000 0.550285
Si Si5 0.386673 0.674279 0.046604
Si Si6 0.715051 0.175248 0.210044
Si Si7 0.296971 0.677549 0.689665
Si Si8 0.351064 0.821996 0.316923
O O1 0.580681 0.500000 0.215174
O O2 0.642515 0.733094 0.132658
O O3 0.613975 0.761260 0.236285
O O4 0.455995 0.727069 0.262695
O O5 0.750000 0.250000 0.500000
O O6 0.719398 0.233891 0.604481
O O7 0.906531 0.230345 0.471549
O O8 0.785791 0.000000 0.523396
O O9 0.740379 0.500000 0.047005
O O10 0.846347 0.723036 0.026337
O O11 0.750000 0.750000 0.000000
O O12 0.500000 0.229473 0.500000
O O13 0.396801 0.220959 0.628810
O O14 0.525276 0.000000 0.544585
O O15 0.389262 0.500000 0.028548
O O16 0.315959 0.693757 0.127265
O O17 0.500000 0.734319 0.000000
O O18 0.741619 0.275221 0.240527
O O19 0.694060 0.000000 0.233991
O O20 0.325905 0.500000 0.672435
O O21 0.208147 0.716321 0.699184
O O22 0.377106 0.000000 0.307309
#
# Coordination Sequence:
#
# PCOD8107185 Si02
#       8
#     8   8   8   8   8   8   8   8
#     4  10  22  39  60  85 116 154 196 240 286 342
#     4  11  24  42  62  87 119 154 196 242 291 347
#     4  10  21  37  58  86 117 153 196 238 286 343
#     4  11  23  40  63  89 117 150 192 241 292 347
#     4   9  19  37  60  86 118 153 191 237 289 341
#     4  10  21  38  60  86 118 154 192 237 288 344
#     4  11  23  40  61  85 116 154 194 237 288 347
#     4  10  23  41  60  84 117 154 193 239 290 345
#
# _framework density 19.20551
#
# number of rings (size 3 to 8) (size 9 to 14) (size 15 to 20)
#    0.000    1.750    1.250    2.250    1.750    5.750 
#    0.000    3.750    0.000    0.000    0.000    0.000 
#    0.000    0.000    0.000    0.000    0.000    0.000 
#
# Total GULP energy -396958.268618 kJ/mol
# GULP energy per Si atom -12404.945894 kJ/mol
# Density = 1.916180 g / cm^3
# Si number density = 19.205510 Si / 1000 Ang^3
#
#
#
# Elastic Constant Matrix: (Units=GPa)
#
#
# Indices 1 2 3 4 5 6 
#
# 1 145.2647 43.8377 62.5815 -0.0010 4.5108 0.0068
# 2 43.8377 57.0366 27.4251 -0.0022 3.7470 0.0034
# 3 62.5815 27.4251 78.1038 0.0009 -7.0572 0.0006
# 4 -0.0010 -0.0022 0.0009 31.0858 -0.0003 2.6224
# 5 4.5108 3.7470 -7.0572 -0.0003 40.4563 -0.0013
# 6 0.0068 0.0034 0.0006 2.6224 -0.0013 36.1809
#
#
#
# Elastic Compliance Matrix: (Units=1/GPa)
#
#
# Indices 1 2 3 4 5 6 
#
# 1 0.011951 -0.005218 -0.007946 0.000000 -0.002235 -0.000002
# 2 -0.005218 0.023815 -0.004397 0.000002 -0.002391 -0.000001
# 3 -0.007946 -0.004397 0.021165 -0.000001 0.004985 0.000002
# 4 0.000000 0.000002 -0.000001 0.032367 0.000000 -0.002346
# 5 -0.002235 -0.002391 0.004985 0.000000 0.026058 0.000001
# 6 -0.000002 -0.000001 0.000002 -0.002346 0.000001 0.027809
#
#
# Mechanical properties :
#
#
# Convention : Reuss Voigt Hill
#
# Bulk Modulus (GPa) = 45.85408 60.89930 53.37669
# Shear Modulus (GPa) = 26.94606 31.31532 29.13069
#
# Velocity S-wave (km/s) = 3.74978 4.04237 3.89882
# Velocity P-wave (km/s) = 6.53262 7.31887 6.93689
#
# Compressibility (1/GPa) = 0.02180831
#
# Stress axis : x y z
#
# Youngs Moduli (GPa) = 83.67343 41.99112 47.24891
#
# Poissons Ratio (x) = 0.21912 0.37543
# Poissons Ratio (y) = 0.43662 0.20776
# Poissons Ratio (z) = 0.66485 0.18464
#
# Static dielectric constant tensor:
#      x y z
#    x 3.706160 0.000000 0.074680 
#    y 0.000000 3.552620 0.000000 
#    z 0.074680 0.000000 3.544620 
# 
# 
# High freq. dielectric constant tensor:
#      x y z
#    x 1.756870 0.000000 0.001570 
#    y 0.000000 1.754600 0.000000 
#    z 0.001570 0.000000 1.750130 
# 
# From -- ./inp_files/378084.got.cif
#   From: 2010.06.25/outbox.cif.g09.slc.cpg/sg12_190_cif.got.tgz:378084.got - 2010.06.28 00:19:55.
