data_PCOD8107491
_publ_section_title
;
Structure prediction by ZEFSAII (Michael W. Deem and Ramdas Pophale) SiO2 
 PCOD8107491
Probable space group: C 2/M
;
_chemical_formula_sum "Si O2"
_cell_formula_units_Z 64
_cell_length_a 29.810395
_cell_length_b 9.203214
_cell_length_c 18.570637
_cell_angle_alpha 90.000000
_cell_angle_beta 141.667091
_cell_angle_gamma 90.000000
_cell_volume 3159.996476
_symmetry_space_group_name_H-M "C 2/M"
_symmetry_group_IT_number 12
_symmetry_cell_setting 'monoclinic'
loop_
_space_group_symop_operation_xyz
x,y,z
-x,y,-z
-x,-y,-z
x,-y,z
1/2+x,1/2+y,z
1/2-x,1/2+y,-z
1/2-x,1/2-y,-z
1/2+x,1/2-y,z
loop_
_atom_site_type_symbol
_atom_site_label
_atom_site_fract_x
_atom_site_fract_y
_atom_site_fract_z
Si Si1 0.839280 0.836582 0.379847
Si Si2 0.876939 0.170699 0.023889
Si Si3 0.355399 0.167173 0.668132
Si Si4 0.498432 0.662187 0.414662
Si Si5 0.273374 0.167631 0.423377
Si Si6 0.210060 0.666535 0.812706
Si Si7 0.110088 0.667359 0.813160
Si Si8 0.491112 0.830171 0.072292
O O1 0.788830 0.744347 0.368065
O O2 0.837692 0.769409 0.297967
O O3 0.920075 0.834081 0.512495
O O4 0.809153 0.000000 0.338179
O O5 0.897786 0.233955 0.127159
O O6 0.923739 0.242238 0.019522
O O7 0.892029 0.000000 0.043602
O O8 0.793289 0.208022 0.905952
O O9 0.339068 0.191980 0.562790
O O10 0.302149 0.270052 0.644476
O O11 0.437381 0.209848 0.791440
O O12 0.339937 0.000000 0.669966
O O13 0.500000 0.700297 0.500000
O O14 0.465193 0.500000 0.360389
O O15 0.455046 0.788250 0.320783
O O16 0.261133 0.000000 0.391705
O O17 0.195258 0.500000 0.772771
O O18 0.185287 0.692831 0.864401
O O19 0.101250 0.500000 0.824942
O O20 0.473446 0.000000 0.056447
O O21 0.500000 0.784988 0.000000
#
# Coordination Sequence:
#
# PCOD8107491 Si02
#       8
#     8   8   8   8   8   8   8   8
#     4  11  23  37  60  89 122 162 203 247 301 365
#     4  11  25  43  64  91 124 161 207 257 307 366
#     4   9  20  40  62  87 119 156 199 246 303 362
#     4  10  21  39  59  87 124 161 201 246 300 357
#     4  10  21  37  60  89 122 157 197 247 299 363
#     4  10  23  42  62  90 125 162 207 257 308 361
#     4  11  23  40  65  92 123 164 208 255 308 365
#     4  10  23  43  65  91 123 159 204 255 306 366
#
# _framework density 20.253187
#
# number of rings (size 3 to 8) (size 9 to 14) (size 15 to 20)
#    0.000    1.750    1.250    1.875    3.500    4.000 
#    0.000    0.000    0.000    0.000    0.000    0.000 
#    0.000    0.000    0.000    0.000    0.000    0.000 
#
# Total GULP energy -396874.972136 kJ/mol
# GULP energy per Si atom -12402.342879 kJ/mol
# Density = 2.020709 g / cm^3
# Si number density = 20.253187 Si / 1000 Ang^3
#
#
#
# Elastic Constant Matrix: (Units=GPa)
#
#
# Indices 1 2 3 4 5 6 
#
# 1 111.0964 55.8008 31.6541 0.0000 -4.1207 0.0000
# 2 55.8008 94.6771 38.1847 0.0000 1.3240 0.0000
# 3 31.6541 38.1847 75.5522 0.0000 6.8431 0.0000
# 4 0.0000 0.0000 0.0000 29.4014 0.0000 2.4518
# 5 -4.1207 1.3240 6.8431 0.0000 27.5710 0.0000
# 6 0.0000 0.0000 0.0000 2.4518 0.0000 33.0860
#
#
#
# Elastic Compliance Matrix: (Units=1/GPa)
#
#
# Indices 1 2 3 4 5 6 
#
# 1 0.013238 -0.006909 -0.002316 0.000000 0.002885 0.000000
# 2 -0.006909 0.016902 -0.005607 0.000000 -0.000453 0.000000
# 3 -0.002316 -0.005607 0.017439 0.000000 -0.004405 0.000000
# 4 0.000000 0.000000 0.000000 0.034224 0.000000 -0.002536
# 5 0.002885 -0.000453 -0.004405 0.000000 0.037816 0.000000
# 6 0.000000 0.000000 0.000000 -0.002536 0.000000 0.030412
#
#
# Mechanical properties :
#
#
# Convention : Reuss Voigt Hill
#
# Bulk Modulus (GPa) = 55.81615 59.17833 57.49724
# Shear Modulus (GPa) = 26.93018 28.39074 27.66046
#
# Velocity S-wave (km/s) = 3.65043 3.74811 3.69959
# Velocity P-wave (km/s) = 6.73695 6.92920 6.83375
#
# Compressibility (1/GPa) = 0.01791596
#
# Stress axis : x y z
#
# Youngs Moduli (GPa) = 75.53968 59.16611 57.34294
#
# Poissons Ratio (x) = 0.40875 0.13281
# Poissons Ratio (y) = 0.52187 0.32151
# Poissons Ratio (z) = 0.17495 0.33173
#
# Static dielectric constant tensor:
#      x y z
#    x 3.667950 0.000000 0.017550 
#    y 0.000000 3.682060 0.000000 
#    z 0.017550 0.000000 3.667410 
# 
# 
# High freq. dielectric constant tensor:
#      x y z
#    x 1.796250 0.000000 0.000510 
#    y 0.000000 1.796180 0.000000 
#    z 0.000510 0.000000 1.787050 
# 
# From -- ./inp_files/295833.got.cif
#   From: 2010.06.25/outbox.cif.g09.slc.cpg/sg12_148_cif.got.tgz:295833.got - 2010.06.28 00:19:55.
