data_PCOD8107203
_publ_section_title
;
Structure prediction by ZEFSAII (Michael W. Deem and Ramdas Pophale) SiO2 
 PCOD8107203
Probable space group: C 2/M
;
_chemical_formula_sum "Si O2"
_cell_formula_units_Z 64
_cell_length_a 25.680635
_cell_length_b 11.848298
_cell_length_c 20.957919
_cell_angle_alpha 90.000000
_cell_angle_beta 148.901460
_cell_angle_gamma 90.000000
_cell_volume 3293.744352
_symmetry_space_group_name_H-M "C 2/M"
_symmetry_group_IT_number 12
_symmetry_cell_setting 'monoclinic'
loop_
_space_group_symop_operation_xyz
x,y,z
-x,y,-z
-x,-y,-z
x,-y,z
1/2+x,1/2+y,z
1/2-x,1/2+y,-z
1/2-x,1/2-y,-z
1/2+x,1/2-y,z
loop_
_atom_site_type_symbol
_atom_site_label
_atom_site_fract_x
_atom_site_fract_y
_atom_site_fract_z
Si Si1 0.207173 0.134513 0.489757
Si Si2 0.027746 0.126645 0.777712
Si Si3 0.719316 0.732351 0.638271
Si Si4 0.468688 0.125080 0.536521
Si Si5 0.884006 0.133607 0.878587
Si Si6 0.870493 0.727390 0.219383
Si Si7 0.667585 0.371106 0.035026
Si Si8 0.385935 0.377728 0.357310
O O1 0.250000 0.250000 0.500000
O O2 0.231350 0.150389 0.589990
O O3 0.090204 0.143917 0.351641
O O4 0.241062 0.000000 0.507593
O O5 0.087702 0.219637 0.801068
O O6 0.057388 0.000000 0.786199
O O7 0.061760 0.144880 0.886927
O O8 0.624788 0.814713 0.527596
O O9 0.822165 0.802886 0.758007
O O10 0.693873 0.662472 0.674110
O O11 0.500000 0.181376 0.500000
O O12 0.560174 0.123278 0.683265
O O13 0.432445 0.000000 0.482475
O O14 0.840303 0.172870 0.901032
O O15 0.873889 0.000000 0.856620
O O16 0.000000 0.171092 0.000000
O O17 0.755290 0.692383 0.088241
O O18 0.880370 0.814886 0.285764
O O19 0.699901 0.500000 0.071488
O O20 0.500000 0.379724 0.500000
O O21 0.347206 0.500000 0.298870
#
# Coordination Sequence:
#
# PCOD8107203 Si02
#       8
#     8   8   8   8   8   8   8   8
#     4  11  26  46  69  95 127 165 217 271 322 383
#     4  10  22  40  61  87 122 166 211 256 305 374
#     4  12  20  39  61  89 121 156 203 258 321 365
#     4  11  20  31  52  88 129 162 195 247 314 373
#     4  10  22  38  61  91 121 161 216 268 313 372
#     4  12  18  35  54  89 123 159 195 251 304 376
#     4  10  21  37  58  86 124 165 207 257 310 367
#     4  11  20  32  55  86 119 155 197 242 300 372
#
# _framework density 19.430774
#
# number of rings (size 3 to 8) (size 9 to 14) (size 15 to 20)
#    0.000    1.125    5.000    1.875    1.750    5.000 
#    0.000    0.000    0.000    4.500    0.000    0.000 
#    0.000    0.000    0.000    0.000    0.000    0.000 
#
# Total GULP energy -396435.700882 kJ/mol
# GULP energy per Si atom -12388.615653 kJ/mol
# Density = 1.938655 g / cm^3
# Si number density = 19.430774 Si / 1000 Ang^3
#
#
#
# Elastic Constant Matrix: (Units=GPa)
#
#
# Indices 1 2 3 4 5 6 
#
# 1 105.0858 36.5955 24.4174 0.0000 -26.5810 0.0000
# 2 36.5955 86.3515 24.7591 0.0000 -3.7234 0.0000
# 3 24.4174 24.7591 115.7171 0.0000 2.5447 0.0000
# 4 0.0000 0.0000 0.0000 34.2893 0.0000 -3.7022
# 5 -26.5810 -3.7234 2.5447 0.0000 49.8790 0.0000
# 6 0.0000 0.0000 0.0000 -3.7022 0.0000 27.4377
#
#
#
# Elastic Compliance Matrix: (Units=1/GPa)
#
#
# Indices 1 2 3 4 5 6 
#
# 1 0.013384 -0.004818 -0.001944 0.000000 0.006872 0.000000
# 2 -0.004818 0.014128 -0.001975 0.000000 -0.001412 0.000000
# 3 -0.001944 -0.001975 0.009511 0.000000 -0.001669 0.000000
# 4 0.000000 0.000000 0.000000 0.029595 0.000000 0.003993
# 5 0.006872 -0.001412 -0.001669 0.000000 0.023690 0.000000
# 6 0.000000 0.000000 0.000000 0.003993 0.000000 0.036985
#
#
# Mechanical properties :
#
#
# Convention : Reuss Voigt Hill
#
# Bulk Modulus (GPa) = 51.15651 53.18871 52.17261
# Shear Modulus (GPa) = 33.05023 37.08002 35.06513
#
# Velocity S-wave (km/s) = 4.12870 4.37316 4.25269
# Velocity P-wave (km/s) = 7.00806 7.27546 7.14301
#
# Compressibility (1/GPa) = 0.01954785
#
# Stress axis : x y z
#
# Youngs Moduli (GPa) = 74.71619 70.78164 105.13775
#
# Poissons Ratio (x) = 0.34105 0.20442
# Poissons Ratio (y) = 0.36000 0.20766
# Poissons Ratio (z) = 0.14527 0.13980
#
# Static dielectric constant tensor:
#      x y z
#    x 3.947340 0.000000 -0.848470 
#    y 0.000000 3.963450 0.000000 
#    z -0.848470 0.000000 4.730660 
# 
# 
# High freq. dielectric constant tensor:
#      x y z
#    x 1.740420 0.000000 -0.004830 
#    y 0.000000 1.759800 0.000000 
#    z -0.004830 0.000000 1.759250 
# 
# From -- ./inp_files/327858.got.cif
#   From: 2010.06.25/outbox.cif.g09.slc.cpg/sg12_164_cif.got.tgz:327858.got - 2010.06.28 00:19:55.
