data_PCOD8107467
_publ_section_title
;
Structure prediction by ZEFSAII (Michael W. Deem and Ramdas Pophale) SiO2 
 PCOD8107467
Probable space group: C 2/M
;
_chemical_formula_sum "Si O2"
_cell_formula_units_Z 56
_cell_length_a 27.257224
_cell_length_b 9.049091
_cell_length_c 17.641552
_cell_angle_alpha 90.000000
_cell_angle_beta 141.461342
_cell_angle_gamma 90.000000
_cell_volume 2711.072052
_symmetry_space_group_name_H-M "C 2/M"
_symmetry_group_IT_number 12
_symmetry_cell_setting 'monoclinic'
loop_
_space_group_symop_operation_xyz
x,y,z
-x,y,-z
-x,-y,-z
x,-y,z
1/2+x,1/2+y,z
1/2-x,1/2+y,-z
1/2-x,1/2-y,-z
1/2+x,1/2-y,z
loop_
_atom_site_type_symbol
_atom_site_label
_atom_site_fract_x
_atom_site_fract_y
_atom_site_fract_z
Si Si1 0.413539 0.832878 0.091984
Si Si2 0.135892 0.835490 0.527920
Si Si3 0.458365 0.174615 0.873036
Si Si4 0.376393 0.332343 0.308834
Si Si5 0.785506 0.326781 0.617410
Si Si6 0.261456 0.673337 0.934091
Si Si7 0.511185 0.833120 0.657246
O O1 0.487504 0.778314 0.132306
O O2 0.430407 0.825358 0.201452
O O3 0.391064 0.000000 0.040934
O O4 0.340295 0.726839 0.986962
O O5 0.121989 0.827155 0.599895
O O6 0.224882 0.793704 0.612743
O O7 0.074184 0.721340 0.416497
O O8 0.117143 0.000000 0.474968
O O9 0.370369 0.237403 0.748344
O O10 0.450782 0.000000 0.872741
O O11 0.500000 0.238846 0.000000
O O12 0.360581 0.500000 0.260938
O O13 0.310391 0.216851 0.205396
O O14 0.458416 0.274959 0.372515
O O15 0.793611 0.500000 0.609184
O O16 0.750000 0.250000 0.500000
O O17 0.264072 0.500000 0.949704
O O18 0.250000 0.750000 0.000000
O O19 0.504701 0.000000 0.618561
#
# Coordination Sequence:
#
# PCOD8107467 Si02
#       7
#     8   8   8   8   8   8   8
#     4  10  21  37  60  88 119 158 201 247 300 355
#     4  10  23  39  60  88 120 158 201 248 304 361
#     4   9  19  36  63  92 119 156 208 260 304 360
#     4  11  23  39  60  87 121 158 199 250 300 357
#     4  10  21  40  64  92 121 159 208 257 312 367
#     4  12  24  39  60  88 120 160 201 244 297 359
#     4  11  22  37  59  88 122 161 202 245 295 360
#
# _framework density 20.656036
#
# number of rings (size 3 to 8) (size 9 to 14) (size 15 to 20)
#    0.000    1.571    1.429    3.429    2.000    5.143 
#    0.000    0.714    0.000    0.857    0.000    0.000 
#    0.000    0.000    0.000    0.000    0.000    0.000 
#
# Total GULP energy -347179.373289 kJ/mol
# GULP energy per Si atom -12399.263332 kJ/mol
# Density = 2.060902 g / cm^3
# Si number density = 20.656036 Si / 1000 Ang^3
#
#
#
# Elastic Constant Matrix: (Units=GPa)
#
#
# Indices 1 2 3 4 5 6 
#
# 1 123.4639 44.9309 40.7079 0.0000 21.7380 0.0000
# 2 44.9309 98.3885 35.9427 0.0000 12.7967 0.0000
# 3 40.7079 35.9427 111.2260 0.0000 22.5093 0.0000
# 4 0.0000 0.0000 0.0000 32.4719 0.0000 5.4569
# 5 21.7380 12.7967 22.5093 0.0000 39.0818 0.0000
# 6 0.0000 0.0000 0.0000 5.4569 0.0000 25.3667
#
#
#
# Elastic Compliance Matrix: (Units=1/GPa)
#
#
# Indices 1 2 3 4 5 6 
#
# 1 0.010744 -0.003705 -0.002005 0.000000 -0.003608 0.000000
# 2 -0.003705 0.012920 -0.002694 0.000000 -0.000618 0.000000
# 3 -0.002005 -0.002694 0.011535 0.000000 -0.004647 0.000000
# 4 0.000000 0.000000 0.000000 0.031951 0.000000 -0.006873
# 5 -0.003608 -0.000618 -0.004647 0.000000 0.030473 0.000000
# 6 0.000000 0.000000 0.000000 -0.006873 0.000000 0.040900
#
#
# Mechanical properties :
#
#
# Convention : Reuss Voigt Hill
#
# Bulk Modulus (GPa) = 54.37079 64.02682 59.19880
# Shear Modulus (GPa) = 30.96695 33.48387 32.22541
#
# Velocity S-wave (km/s) = 3.87611 4.03056 3.95409
# Velocity P-wave (km/s) = 6.81260 7.26116 7.04045
#
# Compressibility (1/GPa) = 0.01839223
#
# Stress axis : x y z
#
# Youngs Moduli (GPa) = 93.07428 77.39777 86.68950
#
# Poissons Ratio (x) = 0.28674 0.17380
# Poissons Ratio (y) = 0.34482 0.23356
# Poissons Ratio (z) = 0.18660 0.20852
#
# Static dielectric constant tensor:
#      x y z
#    x 3.888280 0.000000 0.171640 
#    y 0.000000 5.091060 0.000000 
#    z 0.171640 0.000000 4.283130 
# 
# 
# High freq. dielectric constant tensor:
#      x y z
#    x 1.817810 0.000000 0.013300 
#    y 0.000000 1.787410 0.000000 
#    z 0.013300 0.000000 1.811550 
# 
# From -- ./inp_files/292588.got.cif
#   From: 2010.06.25/outbox.cif.g09.slc.cpg/sg12_147_cif.got.tgz:292588.got - 2010.06.28 00:19:55.
