data_PCOD8107344
_publ_section_title
;
Structure prediction by ZEFSAII (Michael W. Deem and Ramdas Pophale) SiO2 
 PCOD8107344
Probable space group: C 2/M
;
_chemical_formula_sum "Si O2"
_cell_formula_units_Z 64
_cell_length_a 19.340353
_cell_length_b 19.340016
_cell_length_c 8.792054
_cell_angle_alpha 90.000000
_cell_angle_beta 84.091437
_cell_angle_gamma 90.000000
_cell_volume 3271.133043
_symmetry_space_group_name_H-M "C 2/M"
_symmetry_group_IT_number 12
_symmetry_cell_setting 'monoclinic'
loop_
_space_group_symop_operation_xyz
x,y,z
-x,y,-z
-x,-y,-z
x,-y,z
1/2+x,1/2+y,z
1/2-x,1/2+y,-z
1/2-x,1/2-y,-z
1/2+x,1/2-y,z
loop_
_atom_site_type_symbol
_atom_site_label
_atom_site_fract_x
_atom_site_fract_y
_atom_site_fract_z
Si Si1 0.519972 0.208906 0.670460
Si Si2 0.649001 0.076105 0.389552
Si Si3 0.621772 0.804547 0.190755
Si Si4 0.653625 0.299910 0.641894
Si Si5 0.788266 0.076214 0.205884
Si Si6 0.277872 0.703443 0.675057
Si Si7 0.294738 0.876689 0.064311
Si Si8 0.401586 0.922522 0.272428
O O1 0.500000 0.192451 0.500000
O O2 0.452564 0.234593 0.784601
O O3 0.575009 0.271723 0.661621
O O4 0.542515 0.138896 0.755149
O O5 0.607588 0.122441 0.277969
O O6 0.731871 0.079245 0.352062
O O7 0.638489 0.098812 0.565047
O O8 0.618989 0.000000 0.367083
O O9 0.678493 0.768443 0.281101
O O10 0.655497 0.815484 0.016210
O O11 0.658928 0.360244 0.770324
O O12 0.679106 0.331379 0.473671
O O13 0.701429 0.232318 0.653595
O O14 0.825204 0.000000 0.196364
O O15 0.745847 0.083412 0.058387
O O16 0.267386 0.650249 0.814556
O O17 0.346411 0.925361 0.147134
O O18 0.434865 0.000000 0.273857
#
# Coordination Sequence:
#
# PCOD8107344 Si02
#       8
#     8   8   8   8   8   8   8   8
#     4  12  23  39  58  86 119 153 199 240 291 343
#     4   9  17  32  55  80 110 154 200 234 276 332
#     4  11  22  37  56  84 119 155 190 241 291 351
#     4  11  21  37  65  87 116 150 200 248 290 339
#     4  10  21  37  59  88 117 151 192 243 300 349
#     4  11  20  36  61  89 114 151 195 250 291 333
#     4  11  22  36  58  87 122 153 193 239 291 348
#     4  11  22  36  55  81 119 164 202 235 274 338
#
# _framework density 19.565086000000001
#
# number of rings (size 3 to 8) (size 9 to 14) (size 15 to 20)
#    0.000    1.250    6.250    1.500    0.000    1.750 
#    0.000    1.250    0.000    0.375    0.000    0.875 
#    0.000    0.000    0.000    0.000    0.000    0.000 
#
# Total GULP energy -396529.943197 kJ/mol
# GULP energy per Si atom -12391.560725 kJ/mol
# Density = 1.952055 g / cm^3
# Si number density = 19.565086 Si / 1000 Ang^3
#
#
#
# Elastic Constant Matrix: (Units=GPa)
#
#
# Indices 1 2 3 4 5 6 
#
# 1 87.1551 31.5869 28.2245 0.0000 -1.7940 0.0000
# 2 31.5869 66.6954 12.7138 0.0000 7.0555 0.0000
# 3 28.2245 12.7138 71.8697 0.0000 0.7801 0.0000
# 4 0.0000 0.0000 0.0000 17.6952 0.0000 2.6395
# 5 -1.7940 7.0555 0.7801 0.0000 26.5751 0.0000
# 6 0.0000 0.0000 0.0000 2.6395 0.0000 17.9432
#
#
#
# Elastic Compliance Matrix: (Units=1/GPa)
#
#
# Indices 1 2 3 4 5 6 
#
# 1 0.015589 -0.006754 -0.004960 0.000000 0.002991 0.000000
# 2 -0.006754 0.018889 -0.000630 0.000000 -0.005452 0.000000
# 3 -0.004960 -0.000630 0.015980 0.000000 -0.000637 0.000000
# 4 0.000000 0.000000 0.000000 0.057780 0.000000 -0.008500
# 5 0.002991 -0.005452 -0.000637 0.000000 0.039297 0.000000
# 6 0.000000 0.000000 0.000000 -0.008500 0.000000 0.056982
#
#
# Mechanical properties :
#
#
# Convention : Reuss Voigt Hill
#
# Bulk Modulus (GPa) = 38.80322 41.19676 39.99999
# Shear Modulus (GPa) = 21.02638 22.65568 21.84103
#
# Velocity S-wave (km/s) = 3.28180 3.40658 3.34477
# Velocity P-wave (km/s) = 5.85117 6.04773 5.95026
#
# Compressibility (1/GPa) = 0.02577106
#
# Stress axis : x y z
#
# Youngs Moduli (GPa) = 64.14609 52.94051 62.57729
#
# Poissons Ratio (x) = 0.35756 0.31038
# Poissons Ratio (y) = 0.43325 0.03942
# Poissons Ratio (z) = 0.31816 0.03335
#
# Static dielectric constant tensor:
#      x y z
#    x 3.410360 0.000000 -0.090670 
#    y 0.000000 3.422830 0.000000 
#    z -0.090670 0.000000 3.719030 
# 
# 
# High freq. dielectric constant tensor:
#      x y z
#    x 1.733930 0.000000 0.000450 
#    y 0.000000 1.741240 0.000000 
#    z 0.000450 0.000000 1.769360 
# 
# From -- ./inp_files/87976.got.cif
#   From: 2010.06.25/outbox.cif.g09.slc.cpg/sg12_44_cif.got.tgz:87976.got - 2010.06.28 00:19:55.
