data_PCOD8107022
_publ_section_title
;
Structure prediction by ZEFSAII (Michael W. Deem and Ramdas Pophale) SiO2 
 PCOD8107022
Probable space group: C 2/M
;
_chemical_formula_sum "Si O2"
_cell_formula_units_Z 64
_cell_length_a 29.033544
_cell_length_b 8.822814
_cell_length_c 14.549754
_cell_angle_alpha 90.000000
_cell_angle_beta 122.122736
_cell_angle_gamma 90.000000
_cell_volume 3156.462196
_symmetry_space_group_name_H-M "C 2/M"
_symmetry_group_IT_number 12
_symmetry_cell_setting 'monoclinic'
loop_
_space_group_symop_operation_xyz
x,y,z
-x,y,-z
-x,-y,-z
x,-y,z
1/2+x,1/2+y,z
1/2-x,1/2+y,-z
1/2-x,1/2-y,-z
1/2+x,1/2-y,z
loop_
_atom_site_type_symbol
_atom_site_label
_atom_site_fract_x
_atom_site_fract_y
_atom_site_fract_z
Si Si1 0.052248 0.180975 0.610961
Si Si2 0.798839 0.174111 0.999313
Si Si3 0.725513 0.172560 0.207137
Si Si4 0.443861 0.680537 0.985412
Si Si5 0.842363 0.826394 0.385119
Si Si6 0.851122 0.821610 0.748405
Si Si7 0.307884 0.178712 0.535073
Si Si8 0.079855 0.825831 0.837488
O O1 0.105787 0.238912 0.614385
O O2 0.051362 0.244797 0.715667
O O3 0.000000 0.242032 0.500000
O O4 0.053232 0.000000 0.615872
O O5 0.855654 0.190380 0.112720
O O6 0.784241 0.000000 0.965301
O O7 0.750000 0.250000 0.000000
O O8 0.806740 0.259749 0.912516
O O9 0.790448 0.182407 0.261802
O O10 0.708119 0.273896 0.275743
O O11 0.707000 0.000000 0.203551
O O12 0.439742 0.500000 0.986576
O O13 0.396633 0.740241 0.867507
O O14 0.500000 0.735407 0.000000
O O15 0.438021 0.748741 0.083423
O O16 0.829715 0.723489 0.458716
O O17 0.852089 0.000000 0.427228
O O18 0.855044 0.739467 0.654198
O O19 0.855450 0.000000 0.738243
O O20 0.250000 0.250000 0.500000
O O21 0.301880 0.000000 0.536248
O O22 0.062726 0.000000 0.825870
#
# Coordination Sequence:
#
# PCOD8107022 Si02
#       8
#     8   8   8   8   8   8   8   8
#     4   9  18  33  56  85 116 150 194 247 298 345
#     4  11  21  34  53  80 114 153 194 241 295 353
#     4  11  21  34  55  82 117 155 191 238 295 356
#     4   9  18  33  56  88 121 154 193 241 295 350
#     4  10  21  37  57  86 118 153 197 249 301 355
#     4  11  21  36  58  87 118 153 196 244 294 352
#     4  12  24  38  58  85 118 160 201 247 303 361
#     4   9  17  32  52  79 115 150 186 236 291 342
#
# _framework density 20.275865
#
# number of rings (size 3 to 8) (size 9 to 14) (size 15 to 20)
#    0.000    1.750    2.500    3.000    0.000    3.500 
#    0.000    3.750    0.000    1.875    0.000    0.000 
#    0.000    0.000    0.000    0.000    0.000    0.000 
#
# Total GULP energy -396665.727141 kJ/mol
# GULP energy per Si atom -12395.803973 kJ/mol
# Density = 2.022972 g / cm^3
# Si number density = 20.275865 Si / 1000 Ang^3
#
#
#
# Elastic Constant Matrix: (Units=GPa)
#
#
# Indices 1 2 3 4 5 6 
#
# 1 108.8572 22.0695 50.5416 0.0000 -3.0252 0.0000
# 2 22.0695 65.8717 36.3955 0.0000 -3.7193 0.0000
# 3 50.5416 36.3955 154.4925 0.0000 -8.8131 0.0000
# 4 0.0000 0.0000 0.0000 22.6957 0.0000 -5.1296
# 5 -3.0252 -3.7193 -8.8131 0.0000 30.3891 0.0000
# 6 0.0000 0.0000 0.0000 -5.1296 0.0000 22.3871
#
#
#
# Elastic Compliance Matrix: (Units=1/GPa)
#
#
# Indices 1 2 3 4 5 6 
#
# 1 0.011047 -0.001961 -0.003155 0.000000 -0.000055 0.000000
# 2 -0.001961 0.017828 -0.003503 0.000000 0.000971 0.000000
# 3 -0.003155 -0.003503 0.008427 0.000000 0.001701 0.000000
# 4 0.000000 0.000000 0.000000 0.046468 0.000000 0.010647
# 5 -0.000055 0.000971 0.001701 0.000000 0.033513 0.000000
# 6 0.000000 0.000000 0.000000 0.010647 0.000000 0.047108
#
#
# Mechanical properties :
#
#
# Convention : Reuss Voigt Hill
#
# Bulk Modulus (GPa) = 49.83984 60.80384 55.32184
# Shear Modulus (GPa) = 26.55070 29.77538 28.16304
#
# Velocity S-wave (km/s) = 3.62259 3.83628 3.73096
# Velocity P-wave (km/s) = 6.49090 7.04813 6.77524
#
# Compressibility (1/GPa) = 0.02006427
#
# Stress axis : x y z
#
# Youngs Moduli (GPa) = 90.51942 56.09026 118.66132
#
# Poissons Ratio (x) = 0.11000 0.37441
# Poissons Ratio (y) = 0.17751 0.41568
# Poissons Ratio (z) = 0.28561 0.19649
#
# Static dielectric constant tensor:
#      x y z
#    x 3.687820 0.000000 -0.122430 
#    y 0.000000 3.280810 0.000000 
#    z -0.122430 0.000000 4.087510 
# 
# 
# High freq. dielectric constant tensor:
#      x y z
#    x 1.786040 0.000000 -0.008680 
#    y 0.000000 1.748320 0.000000 
#    z -0.008680 0.000000 1.808540 
# 
# From -- ./inp_files/249204.got.cif
#   From: 2010.06.25/outbox.cif.g09.slc.cpg/sg12_125_cif.got.tgz:249204.got - 2010.06.28 00:19:55.
