data_PCOD8107528
_publ_section_title
;
Structure prediction by ZEFSAII (Michael W. Deem and Ramdas Pophale) SiO2 
 PCOD8107528
Probable space group: C 2/M
;
_chemical_formula_sum "Si O2"
_cell_formula_units_Z 64
_cell_length_a 15.097358
_cell_length_b 8.811965
_cell_length_c 32.495469
_cell_angle_alpha 90.000000
_cell_angle_beta 46.836492
_cell_angle_gamma 90.000000
_cell_volume 3153.297509
_symmetry_space_group_name_H-M "C 2/M"
_symmetry_group_IT_number 12
_symmetry_cell_setting 'monoclinic'
loop_
_space_group_symop_operation_xyz
x,y,z
-x,y,-z
-x,-y,-z
x,-y,z
1/2+x,1/2+y,z
1/2-x,1/2+y,-z
1/2-x,1/2-y,-z
1/2+x,1/2-y,z
loop_
_atom_site_type_symbol
_atom_site_label
_atom_site_fract_x
_atom_site_fract_y
_atom_site_fract_z
Si Si1 0.622534 0.176622 0.584282
Si Si2 0.062707 0.820234 0.296233
Si Si3 0.597646 0.178668 0.877287
Si Si4 0.847315 0.321574 0.998331
Si Si5 0.405608 0.676899 0.493646
Si Si6 0.685727 0.673318 0.771644
Si Si7 0.242679 0.676920 0.110197
Si Si8 0.971075 0.172414 0.785701
O O1 0.552484 0.266589 0.641614
O O2 0.573676 0.233170 0.555432
O O3 0.764424 0.207267 0.549422
O O4 0.591972 0.000000 0.596645
O O5 0.184004 0.748377 0.276615
O O6 0.045958 0.763163 0.254770
O O7 0.072990 0.000000 0.295186
O O8 0.599047 0.231824 0.829945
O O9 0.707559 0.274533 0.861361
O O10 0.621723 0.000000 0.872974
O O11 0.476610 0.227641 0.939502
O O12 0.832645 0.500000 0.003065
O O13 0.827557 0.261076 0.050281
O O14 0.750000 0.250000 0.000000
O O15 0.500000 0.731268 0.500000
O O16 0.428850 0.500000 0.477600
O O17 0.700547 0.500000 0.781996
O O18 0.613769 0.680991 0.751309
O O19 0.248631 0.500000 0.098952
O O20 0.103184 0.730856 0.156331
O O21 0.923169 0.000000 0.803619
#
# Coordination Sequence:
#
# PCOD8107528 Si02
#       8
#     8   8   8   8   8   8   8   8
#     4  10  21  37  60  91 127 164 206 257 301 353
#     4  11  23  41  63  87 123 168 207 252 305 363
#     4  11  23  40  60  84 115 154 196 244 308 371
#     4  11  24  40  59  84 116 151 193 246 303 372
#     4   9  19  38  63  92 127 167 207 249 301 358
#     4  11  23  40  63  91 119 155 202 256 309 367
#     4  12  24  38  61  88 115 152 198 248 304 368
#     4  10  23  42  63  87 121 160 201 252 312 370
#
# _framework density 20.296213999999999
#
# number of rings (size 3 to 8) (size 9 to 14) (size 15 to 20)
#    0.000    1.375    1.250    4.125    0.000    8.750 
#    0.000    2.500    0.000    0.000    0.000    0.000 
#    0.000    0.000    0.000    0.000    0.000    0.000 
#
# Total GULP energy -396787.935246 kJ/mol
# GULP energy per Si atom -12399.622976 kJ/mol
# Density = 2.025002 g / cm^3
# Si number density = 20.296214 Si / 1000 Ang^3
#
#
#
# Elastic Constant Matrix: (Units=GPa)
#
#
# Indices 1 2 3 4 5 6 
#
# 1 116.0994 31.2778 32.1680 0.0003 -9.1797 0.0003
# 2 31.2778 63.6364 32.3061 0.0008 -11.8325 0.0007
# 3 32.1680 32.3061 104.1405 0.0004 -12.4692 0.0003
# 4 0.0003 0.0008 0.0004 37.9422 0.0002 -0.2441
# 5 -9.1797 -11.8325 -12.4692 0.0002 21.3421 0.0001
# 6 0.0003 0.0007 0.0003 -0.2441 0.0001 30.7911
#
#
#
# Elastic Compliance Matrix: (Units=1/GPa)
#
#
# Indices 1 2 3 4 5 6 
#
# 1 0.010262 -0.003900 -0.001817 0.000000 0.001190 0.000000
# 2 -0.003900 0.021316 -0.004509 0.000000 0.007506 0.000000
# 3 -0.001817 -0.004509 0.012010 0.000000 0.003735 0.000000
# 4 0.000000 0.000000 0.000000 0.026357 0.000000 0.000209
# 5 0.001190 0.007506 0.003735 0.000000 0.053711 0.000000
# 6 0.000000 0.000000 0.000000 0.000209 0.000000 0.032479
#
#
# Mechanical properties :
#
#
# Convention : Reuss Voigt Hill
#
# Bulk Modulus (GPa) = 43.22559 52.82000 48.02279
# Shear Modulus (GPa) = 27.12989 30.55671 28.84330
#
# Velocity S-wave (km/s) = 3.66005 3.88434 3.77386
# Velocity P-wave (km/s) = 6.26138 6.79695 6.53465
#
# Compressibility (1/GPa) = 0.02313444
#
# Stress axis : x y z
#
# Youngs Moduli (GPa) = 97.45101 46.91343 83.26488
#
# Poissons Ratio (x) = 0.18295 0.15133
# Poissons Ratio (y) = 0.38003 0.37546
# Poissons Ratio (z) = 0.17712 0.21154
#
# Static dielectric constant tensor:
#      x y z
#    x 3.804770 0.000000 -0.055010 
#    y 0.000000 3.669080 0.000000 
#    z -0.055010 0.000000 3.038710 
# 
# 
# High freq. dielectric constant tensor:
#      x y z
#    x 1.803780 0.000000 -0.003400 
#    y 0.000000 1.797870 0.000000 
#    z -0.003400 0.000000 1.788780 
# 
# From -- ./inp_files/375471.got.cif
#   From: 2010.06.25/outbox.cif.g09.slc.cpg/sg12_188_cif.got.tgz:375471.got - 2010.06.28 00:19:55.
