data_PCOD8107388
_publ_section_title
;
Structure prediction by ZEFSAII (Michael W. Deem and Ramdas Pophale) SiO2 
 PCOD8107388
Probable space group: C 2/M
;
_chemical_formula_sum "Si O2"
_cell_formula_units_Z 48
_cell_length_a 14.454386
_cell_length_b 10.092186
_cell_length_c 16.804856
_cell_angle_alpha 90.000000
_cell_angle_beta 82.372511
_cell_angle_gamma 90.000000
_cell_volume 2429.740761
_symmetry_space_group_name_H-M "C 2/M"
_symmetry_group_IT_number 12
_symmetry_cell_setting 'monoclinic'
loop_
_space_group_symop_operation_xyz
x,y,z
-x,y,-z
-x,-y,-z
x,-y,z
1/2+x,1/2+y,z
1/2-x,1/2+y,-z
1/2-x,1/2-y,-z
1/2+x,1/2-y,z
loop_
_atom_site_type_symbol
_atom_site_label
_atom_site_fract_x
_atom_site_fract_y
_atom_site_fract_z
Si Si1 0.651834 0.140446 0.968944
Si Si2 0.556235 0.644521 0.871194
Si Si3 0.816642 0.160920 0.708156
Si Si4 0.150234 0.846049 0.694814
Si Si5 0.346961 0.294768 0.883987
Si Si6 0.506671 0.654053 0.411701
O O1 0.594049 0.254002 0.931684
O O2 0.759379 0.126678 0.930234
O O3 0.603584 0.000000 0.954864
O O4 0.647389 0.159691 0.065163
O O5 0.596502 0.500000 0.889278
O O6 0.589660 0.685932 0.779860
O O7 0.444593 0.629977 0.883706
O O8 0.730356 0.236220 0.677892
O O9 0.827922 0.227115 0.793383
O O10 0.905066 0.207833 0.647082
O O11 0.803387 0.000000 0.714377
O O12 0.087793 0.818141 0.624874
O O13 0.185253 0.000000 0.691521
O O14 0.500000 0.721456 0.500000
O O15 0.524632 0.500000 0.420654
#
# Coordination Sequence:
#
# PCOD8107388 Si02
#       6
#     8   8   8   8   8   8
#     4  11  25  41  58  85 119 153 198 252 296 339
#     4  11  22  38  60  84 113 155 202 245 288 344
#     4  11  21  38  63  88 117 157 198 236 290 349
#     4  10  21  37  59  90 120 149 194 244 290 342
#     4  11  23  38  59  83 115 157 200 241 284 348
#     4   9  19  38  65  92 118 152 195 238 284 350
#
# _framework density 19.755193999999999
#
# number of rings (size 3 to 8) (size 9 to 14) (size 15 to 20)
#    0.000    1.500    3.333    2.000    0.000    7.333 
#    0.000    0.833    0.000    1.000    0.000    0.000 
#    0.000    0.000    0.000    0.000    0.000    0.000 
#
# Total GULP energy -297404.943232 kJ/mol
# GULP energy per Si atom -12391.872635 kJ/mol
# Density = 1.971023 g / cm^3
# Si number density = 19.755194 Si / 1000 Ang^3
#
#
#
# Elastic Constant Matrix: (Units=GPa)
#
#
# Indices 1 2 3 4 5 6 
#
# 1 92.7671 35.0060 32.4851 0.0000 4.6909 0.0000
# 2 35.0060 79.1561 38.0021 0.0000 11.4920 0.0000
# 3 32.4851 38.0021 140.9784 0.0000 3.6020 0.0000
# 4 0.0000 0.0000 0.0000 12.7438 0.0000 5.7453
# 5 4.6909 11.4920 3.6020 0.0000 28.2225 0.0000
# 6 0.0000 0.0000 0.0000 5.7453 0.0000 22.9874
#
#
#
# Elastic Compliance Matrix: (Units=1/GPa)
#
#
# Indices 1 2 3 4 5 6 
#
# 1 0.013283 -0.005071 -0.001696 0.000000 0.000073 0.000000
# 2 -0.005071 0.017326 -0.003354 0.000000 -0.005784 0.000000
# 3 -0.001696 -0.003354 0.008373 0.000000 0.000579 0.000000
# 4 0.000000 0.000000 0.000000 0.088434 0.000000 -0.022103
# 5 0.000073 -0.005784 0.000579 0.000000 0.037702 0.000000
# 6 0.000000 0.000000 0.000000 -0.022103 0.000000 0.049026
#
#
# Mechanical properties :
#
#
# Convention : Reuss Voigt Hill
#
# Bulk Modulus (GPa) = 53.35920 58.20978 55.78449
# Shear Modulus (GPa) = 20.77848 26.61795 23.69821
#
# Velocity S-wave (km/s) = 3.24666 3.67466 3.46727
# Velocity P-wave (km/s) = 6.41274 6.89447 6.65797
#
# Compressibility (1/GPa) = 0.01874091
#
# Stress axis : x y z
#
# Youngs Moduli (GPa) = 75.28224 57.71723 119.42620
#
# Poissons Ratio (x) = 0.29268 0.20252
# Poissons Ratio (y) = 0.38175 0.40057
# Poissons Ratio (z) = 0.12766 0.19359
#
# Static dielectric constant tensor:
#      x y z
#    x 3.735800 0.000000 -0.110310 
#    y 0.000000 3.352100 0.000000 
#    z -0.110310 0.000000 3.862830 
# 
# 
# High freq. dielectric constant tensor:
#      x y z
#    x 1.778860 0.000000 -0.002890 
#    y 0.000000 1.744780 0.000000 
#    z -0.002890 0.000000 1.774490 
# 
# From -- ./inp_files/261730.got.cif
#   From: 2010.06.25/outbox.cif.g09.slc.cpg/sg12_131_cif.got.tgz:261730.got - 2010.06.28 00:19:55.
