data_PCOD8107700
_publ_section_title
;
Structure prediction by ZEFSAII (Michael W. Deem and Ramdas Pophale) SiO2 
 PCOD8107700
Probable space group: C 2/M
;
_chemical_formula_sum "Si O2"
_cell_formula_units_Z 64
_cell_length_a 9.479084
_cell_length_b 29.675826
_cell_length_c 14.711195
_cell_angle_alpha 90.000000
_cell_angle_beta 47.636304
_cell_angle_gamma 90.000000
_cell_volume 3057.683216
_symmetry_space_group_name_H-M "C 2/M"
_symmetry_group_IT_number 12
_symmetry_cell_setting 'monoclinic'
loop_
_space_group_symop_operation_xyz
x,y,z
-x,y,-z
-x,-y,-z
x,-y,z
1/2+x,1/2+y,z
1/2-x,1/2+y,-z
1/2-x,1/2-y,-z
1/2+x,1/2-y,z
loop_
_atom_site_type_symbol
_atom_site_label
_atom_site_fract_x
_atom_site_fract_y
_atom_site_fract_z
Si Si1 0.939062 0.232273 0.661604
Si Si2 0.776499 0.698301 0.409082
Si Si3 0.980060 0.051083 0.848341
Si Si4 0.912574 0.553123 0.631115
Si Si5 0.349531 0.949103 0.141401
Si Si6 0.325163 0.633637 0.019396
Si Si7 0.216712 0.288135 0.939117
Si Si8 0.942925 0.608823 0.271803
O O1 0.779585 0.230907 0.651745
O O2 0.853197 0.217830 0.794435
O O3 0.026631 0.282628 0.633681
O O4 0.111159 0.198710 0.557322
O O5 0.797938 0.647582 0.365270
O O6 0.864054 0.052811 0.804680
O O7 0.881510 0.083020 0.965389
O O8 0.192822 0.068243 0.735333
O O9 0.977969 0.000000 0.888466
O O10 0.931842 0.500000 0.626479
O O11 0.039235 0.572577 0.656854
O O12 0.000000 0.572420 0.500000
O O13 0.356782 0.915169 0.221472
O O14 0.402587 0.000000 0.149375
O O15 0.500000 0.932793 0.000000
O O16 0.272490 0.663576 0.955658
O O17 0.500000 0.655736 0.000000
O O18 0.146004 0.631459 0.163791
O O19 0.250000 0.250000 0.000000
O O20 0.000000 0.287947 0.000000
#
# Coordination Sequence:
#
# PCOD8107700 Si02
#       8
#     8   8   8   8   8   8   8   8
#     4  10  22  47  65  92 127 171 214 265 325 394
#     4  10  24  43  69  93 124 174 218 266 317 393
#     4  10  22  41  64  94 132 177 218 267 339 399
#     4  10  23  45  66  89 129 177 224 273 329 394
#     4  10  21  37  63  98 137 174 209 266 339 403
#     4  12  25  39  61  98 131 170 217 273 326 401
#     4  12  26  43  70  97 133 173 211 276 344 399
#     4  12  23  40  64 100 131 164 225 271 327 394
#
# _framework density 20.930879999999998
#
# number of rings (size 3 to 8) (size 9 to 14) (size 15 to 20)
#    0.000    1.250    2.500    3.000    3.500    2.750 
#    6.750    0.000    0.000    3.000    0.000    0.000 
#    0.000    0.000    0.000    0.000    0.000    0.000 
#
# Total GULP energy -396903.974091 kJ/mol
# GULP energy per Si atom -12403.249190 kJ/mol
# Density = 2.088324 g / cm^3
# Si number density = 20.930880 Si / 1000 Ang^3
#
#
#
# Elastic Constant Matrix: (Units=GPa)
#
#
# Indices 1 2 3 4 5 6 
#
# 1 122.4313 40.4607 31.1260 0.0000 4.1674 0.0000
# 2 40.4607 85.3036 45.4314 0.0000 2.9337 0.0000
# 3 31.1260 45.4314 132.6410 0.0000 14.5920 0.0000
# 4 0.0000 0.0000 0.0000 35.4591 0.0000 5.7058
# 5 4.1674 2.9337 14.5920 0.0000 30.4069 0.0000
# 6 0.0000 0.0000 0.0000 5.7058 0.0000 27.5834
#
#
#
# Elastic Compliance Matrix: (Units=1/GPa)
#
#
# Indices 1 2 3 4 5 6 
#
# 1 0.009775 -0.004193 -0.000797 0.000000 -0.000553 0.000000
# 2 -0.004193 0.016167 -0.004693 0.000000 0.001267 0.000000
# 3 -0.000797 -0.004693 0.009789 0.000000 -0.004135 0.000000
# 4 0.000000 0.000000 0.000000 0.029173 0.000000 -0.006034
# 5 -0.000553 0.001267 -0.004135 0.000000 0.034825 0.000000
# 6 0.000000 0.000000 0.000000 -0.006034 0.000000 0.037502
#
#
# Mechanical properties :
#
#
# Convention : Reuss Voigt Hill
#
# Bulk Modulus (GPa) = 61.10530 63.82356 62.46443
# Shear Modulus (GPa) = 30.85439 33.58040 32.21740
#
# Velocity S-wave (km/s) = 3.84358 4.00978 3.92756
# Velocity P-wave (km/s) = 6.99676 7.21086 7.10462
#
# Compressibility (1/GPa) = 0.01636519
#
# Stress axis : x y z
#
# Youngs Moduli (GPa) = 102.30253 61.85252 102.16062
#
# Poissons Ratio (x) = 0.25935 0.08141
# Poissons Ratio (y) = 0.42895 0.47944
# Poissons Ratio (z) = 0.08152 0.29028
#
# Static dielectric constant tensor:
#      x y z
#    x 4.113200 0.000000 -0.043210 
#    y 0.000000 3.719780 0.000000 
#    z -0.043210 0.000000 3.856780 
# 
# 
# High freq. dielectric constant tensor:
#      x y z
#    x 1.832390 0.000000 -0.001280 
#    y 0.000000 1.813280 0.000000 
#    z -0.001280 0.000000 1.820860 
# 
# From -- ./inp_files/201233.got.cif
#   From: 2010.06.25/outbox.cif.g09.slc.cpg/sg12_101_cif.got.tgz:201233.got - 2010.06.28 00:19:55.
