data_PCOD8108498
_publ_section_title
;
Structure prediction by ZEFSAII (Michael W. Deem and Ramdas Pophale) SiO2 
 PCOD8108498
Probable space group: C 2/M
;
_chemical_formula_sum "Si O2"
_cell_formula_units_Z 56
_cell_length_a 16.895078
_cell_length_b 12.620776
_cell_length_c 13.927690
_cell_angle_alpha 90.000000
_cell_angle_beta 81.290967
_cell_angle_gamma 90.000000
_cell_volume 2935.545774
_symmetry_space_group_name_H-M "C 2/M"
_symmetry_group_IT_number 12
_symmetry_cell_setting 'monoclinic'
loop_
_space_group_symop_operation_xyz
x,y,z
-x,y,-z
-x,-y,-z
x,-y,z
1/2+x,1/2+y,z
1/2-x,1/2+y,-z
1/2-x,1/2-y,-z
1/2+x,1/2-y,z
loop_
_atom_site_type_symbol
_atom_site_label
_atom_site_fract_x
_atom_site_fract_y
_atom_site_fract_z
Si Si1 0.554906 0.122781 0.404066
Si Si2 0.708707 0.222112 0.909470
Si Si3 0.025786 0.238128 0.229030
Si Si4 0.355214 0.625764 0.234183
Si Si5 0.727581 0.787691 0.398547
Si Si6 0.923821 0.614632 0.954081
Si Si7 0.177778 0.879816 0.257269
O O1 0.500000 0.166727 0.500000
O O2 0.521683 0.178918 0.315728
O O3 0.648197 0.140330 0.411144
O O4 0.539721 0.000000 0.389837
O O5 0.690620 0.328011 0.850659
O O6 0.765933 0.142665 0.842847
O O7 0.750000 0.250000 0.000000
O O8 0.630096 0.159562 0.950844
O O9 0.062299 0.299469 0.131215
O O10 0.086539 0.145346 0.246290
O O11 0.939907 0.185844 0.226097
O O12 0.368168 0.500000 0.218800
O O13 0.301690 0.647602 0.338558
O O14 0.750000 0.750000 0.500000
O O15 0.709341 0.682599 0.343000
O O16 0.892353 0.500000 0.918000
O O17 0.000000 0.587470 0.000000
O O18 0.183058 0.000000 0.287501
#
# Coordination Sequence:
#
# PCOD8108498 Si02
#       7
#     8   8   8   8   8   8   8
#     4  10  21  38  62  89 117 153 195 242 297 350
#     4  11  22  41  58  86 120 156 198 247 292 351
#     4  11  21  40  59  85 121 152 200 243 294 347
#     4  11  24  40  62  88 119 157 198 243 298 356
#     4  10  22  41  62  88 122 154 194 244 292 355
#     4  11  22  38  60  84 116 157 201 245 293 346
#     4  10  22  38  60  87 117 153 195 242 294 348
#
# _framework density 19.076521
#
# number of rings (size 3 to 8) (size 9 to 14) (size 15 to 20)
#    0.000    1.429    2.857    2.571    0.000    2.286 
#    0.000    2.857    0.000    4.714    0.000    0.000 
#    0.000    0.000    0.000    0.000    0.000    0.000 
#
# Total GULP energy -347134.181256 kJ/mol
# GULP energy per Si atom -12397.649331 kJ/mol
# Density = 1.903310 g / cm^3
# Si number density = 19.076521 Si / 1000 Ang^3
#
#
#
# Elastic Constant Matrix: (Units=GPa)
#
#
# Indices 1 2 3 4 5 6 
#
# 1 74.3550 30.1276 40.0408 0.0000 -4.7334 0.0000
# 2 30.1276 110.4477 36.9428 0.0000 -2.3528 0.0000
# 3 40.0408 36.9428 120.8918 0.0000 -3.6903 0.0000
# 4 0.0000 0.0000 0.0000 15.4489 0.0000 -2.3340
# 5 -4.7334 -2.3528 -3.6903 0.0000 40.7602 0.0000
# 6 0.0000 0.0000 0.0000 -2.3340 0.0000 13.8344
#
#
#
# Elastic Compliance Matrix: (Units=1/GPa)
#
#
# Indices 1 2 3 4 5 6 
#
# 1 0.017362 -0.003115 -0.004755 0.000000 0.001406 0.000000
# 2 -0.003115 0.010648 -0.002220 0.000000 0.000052 0.000000
# 3 -0.004755 -0.002220 0.010534 0.000000 0.000273 0.000000
# 4 0.000000 0.000000 0.000000 0.066422 0.000000 0.011206
# 5 0.001406 0.000052 0.000273 0.000000 0.024725 0.000000
# 6 0.000000 0.000000 0.000000 0.011206 0.000000 0.074174
#
#
# Mechanical properties :
#
#
# Convention : Reuss Voigt Hill
#
# Bulk Modulus (GPa) = 54.46391 57.76854 56.11622
# Shear Modulus (GPa) = 21.72338 27.24759 24.48549
#
# Velocity S-wave (km/s) = 3.37820 3.78343 3.58654
# Velocity P-wave (km/s) = 6.62031 7.03093 6.82871
#
# Compressibility (1/GPa) = 0.01836078
#
# Stress axis : x y z
#
# Youngs Moduli (GPa) = 57.59830 93.91781 94.93264
#
# Poissons Ratio (x) = 0.29258 0.45145
# Poissons Ratio (y) = 0.17943 0.21078
# Poissons Ratio (z) = 0.27391 0.20853
#
# Static dielectric constant tensor:
#      x y z
#    x 3.590520 0.000000 -0.061790 
#    y 0.000000 3.721790 0.000000 
#    z -0.061790 0.000000 3.510640 
# 
# 
# High freq. dielectric constant tensor:
#      x y z
#    x 1.753780 0.000000 -0.007620 
#    y 0.000000 1.745020 0.000000 
#    z -0.007620 0.000000 1.752790 
# 
# From -- ./inp_files/223124.got.cif
#   From: 2010.06.25/outbox.cif.g09.slc.cpg/sg12_112_cif.got.tgz:223124.got - 2010.06.28 00:19:55.
