data_PCOD8108235
_publ_section_title
;
Structure prediction by ZEFSAII (Michael W. Deem and Ramdas Pophale) SiO2 
 PCOD8108235
Probable space group: C 2/M
;
_chemical_formula_sum "Si O2"
_cell_formula_units_Z 64
_cell_length_a 30.752753
_cell_length_b 8.667571
_cell_length_c 14.066822
_cell_angle_alpha 90.000000
_cell_angle_beta 122.212148
_cell_angle_gamma 90.000000
_cell_volume 3172.407105
_symmetry_space_group_name_H-M "C 2/M"
_symmetry_group_IT_number 12
_symmetry_cell_setting 'monoclinic'
loop_
_space_group_symop_operation_xyz
x,y,z
-x,y,-z
-x,-y,-z
x,-y,z
1/2+x,1/2+y,z
1/2-x,1/2+y,-z
1/2-x,1/2-y,-z
1/2+x,1/2-y,z
loop_
_atom_site_type_symbol
_atom_site_label
_atom_site_fract_x
_atom_site_fract_y
_atom_site_fract_z
Si Si1 0.357617 0.318742 0.924233
Si Si2 0.679415 0.677537 0.496177
Si Si3 0.806053 0.819030 0.060519
Si Si4 0.967668 0.680190 0.054259
Si Si5 0.985365 0.819964 0.272063
Si Si6 0.583572 0.819998 0.480755
Si Si7 0.392811 0.819242 0.277789
Si Si8 0.782651 0.178197 0.667350
O O1 0.370449 0.500000 0.937883
O O2 0.318000 0.272571 0.795923
O O3 0.333498 0.266025 0.995661
O O4 0.408929 0.223286 0.966448
O O5 0.665502 0.500000 0.499953
O O6 0.633905 0.786534 0.478039
O O7 0.731490 0.719253 0.612635
O O8 0.686051 0.710880 0.392360
O O9 0.839378 0.761473 0.188445
O O10 0.800752 0.000000 0.059019
O O11 0.750000 0.750000 0.000000
O O12 0.972546 0.500000 0.082523
O O13 0.991738 0.774631 0.169714
O O14 0.000000 0.727918 0.000000
O O15 0.036680 0.780176 0.388169
O O16 0.937346 0.728135 0.257726
O O17 0.973573 0.000000 0.267309
O O18 0.592510 0.767623 0.599227
O O19 0.569555 0.000000 0.457233
O O20 0.383954 0.000000 0.261285
O O21 0.765979 0.000000 0.654107
#
# Coordination Sequence:
#
# PCOD8108235 Si02
#       8
#     8   8   8   8   8   8   8   8
#     4  10  22  41  65  93 125 168 214 256 316 379
#     4  10  21  38  60  92 124 160 206 256 308 362
#     4  11  24  41  64  95 130 169 212 261 316 376
#     4  11  25  43  65  96 130 168 214 260 312 376
#     4  12  25  43  67  94 125 162 205 258 315 372
#     4  11  25  42  64  91 124 164 205 254 312 372
#     4  11  24  44  67  91 124 165 207 256 315 374
#     4   9  20  39  61  86 124 165 203 250 308 370
#
# _framework density 20.173956
#
# number of rings (size 3 to 8) (size 9 to 14) (size 15 to 20)
#    0.000    1.375    1.250    3.375    3.500    6.000 
#    0.000    0.000    0.000    0.000    0.000    0.000 
#    0.000    0.000    0.000    0.000    0.000    0.000 
#
# Total GULP energy -397041.618383 kJ/mol
# GULP energy per Si atom -12407.550574 kJ/mol
# Density = 2.012804 g / cm^3
# Si number density = 20.173956 Si / 1000 Ang^3
#
#
#
# Elastic Constant Matrix: (Units=GPa)
#
#
# Indices 1 2 3 4 5 6 
#
# 1 89.8740 20.0990 30.0312 0.0000 17.3210 0.0000
# 2 20.0990 31.5651 18.5467 0.0000 -1.1774 0.0000
# 3 30.0312 18.5467 128.8799 0.0000 8.1314 0.0000
# 4 0.0000 0.0000 0.0000 37.1491 0.0000 4.2019
# 5 17.3210 -1.1774 8.1314 0.0000 22.0971 0.0000
# 6 0.0000 0.0000 0.0000 4.2019 0.0000 34.8117
#
#
#
# Elastic Compliance Matrix: (Units=1/GPa)
#
#
# Indices 1 2 3 4 5 6 
#
# 1 0.016336 -0.009956 -0.001569 0.000000 -0.012759 0.000000
# 2 -0.009956 0.040983 -0.004308 0.000000 0.011573 0.000000
# 3 -0.001569 -0.004308 0.008888 0.000000 -0.002270 0.000000
# 4 0.000000 0.000000 0.000000 0.027291 0.000000 -0.003294
# 5 -0.012759 0.011573 -0.002270 0.000000 0.056708 0.000000
# 6 0.000000 0.000000 0.000000 -0.003294 0.000000 0.029124
#
#
# Mechanical properties :
#
#
# Convention : Reuss Voigt Hill
#
# Bulk Modulus (GPa) = 28.95090 43.07475 36.01282
# Shear Modulus (GPa) = 22.47091 30.92105 26.69598
#
# Velocity S-wave (km/s) = 3.34107 3.91925 3.64165
# Velocity P-wave (km/s) = 5.40976 6.47137 5.96423
#
# Compressibility (1/GPa) = 0.03454124
#
# Stress axis : x y z
#
# Youngs Moduli (GPa) = 61.21294 24.40029 112.51210
#
# Poissons Ratio (x) = 0.24294 0.17652
# Poissons Ratio (y) = 0.60945 0.48470
# Poissons Ratio (z) = 0.09604 0.10512
#
# Static dielectric constant tensor:
#      x y z
#    x 3.749170 0.000000 -0.065430 
#    y 0.000000 3.656520 0.000000 
#    z -0.065430 0.000000 3.866570 
# 
# 
# High freq. dielectric constant tensor:
#      x y z
#    x 1.793680 0.000000 0.000190 
#    y 0.000000 1.792960 0.000000 
#    z 0.000190 0.000000 1.803460 
# 
# From -- ./inp_files/249903.got.cif
#   From: 2010.06.25/outbox.cif.g09.slc.cpg/sg12_125_cif.got.tgz:249903.got - 2010.06.28 00:19:55.
