data_PCOD8108858
_publ_section_title
;
Structure prediction by ZEFSAII (Michael W. Deem and Ramdas Pophale) SiO2 
 PCOD8108858
Probable space group: C 2/M
;
_chemical_formula_sum "Si O2"
_cell_formula_units_Z 48
_cell_length_a 18.659272
_cell_length_b 8.845676
_cell_length_c 15.310492
_cell_angle_alpha 90.000000
_cell_angle_beta 89.548064
_cell_angle_gamma 90.000000
_cell_volume 2526.977413
_symmetry_space_group_name_H-M "C 2/M"
_symmetry_group_IT_number 12
_symmetry_cell_setting 'monoclinic'
loop_
_space_group_symop_operation_xyz
x,y,z
-x,y,-z
-x,-y,-z
x,-y,z
1/2+x,1/2+y,z
1/2-x,1/2+y,-z
1/2-x,1/2-y,-z
1/2+x,1/2-y,z
loop_
_atom_site_type_symbol
_atom_site_label
_atom_site_fract_x
_atom_site_fract_y
_atom_site_fract_z
Si Si1 0.294988 0.674271 0.925326
Si Si2 0.451670 0.178307 0.736058
Si Si3 0.041930 0.175270 0.587684
Si Si4 0.957435 0.822023 0.915882
Si Si5 0.791429 0.177541 0.419623
Si Si6 0.797390 0.178948 0.729967
O O1 0.284530 0.500000 0.940484
O O2 0.376497 0.722737 0.937032
O O3 0.270828 0.719575 0.827891
O O4 0.250000 0.750000 0.000000
O O5 0.511011 0.221127 0.664474
O O6 0.482390 0.234137 0.829031
O O7 0.376802 0.257582 0.711856
O O8 0.439823 0.000000 0.737931
O O9 0.124940 0.216772 0.573197
O O10 0.000000 0.214792 0.500000
O O11 0.032222 0.000000 0.613288
O O12 0.967515 0.000000 0.898453
O O13 0.000000 0.765585 0.000000
O O14 0.750000 0.250000 0.500000
O O15 0.761155 0.246321 0.331010
O O16 0.777701 0.000000 0.420581
O O17 0.801340 0.000000 0.714130
#
# Coordination Sequence:
#
# PCOD8108858 Si02
#       6
#     8   8   8   8   8   8
#     4   9  19  34  54  79 107 143 183 227 277 328
#     4  11  22  36  58  86 114 146 188 238 284 329
#     4  10  22  40  60  82 112 151 188 225 277 338
#     4   9  19  37  58  79 108 149 191 229 277 335
#     4  11  23  38  60  88 115 147 187 231 279 333
#     4  10  21  39  59  80 113 153 190 231 282 337
#
# _framework density 18.995025999999999
#
# number of rings (size 3 to 8) (size 9 to 14) (size 15 to 20)
#    0.000    2.000    0.000    4.500    0.000    8.000 
#    0.000    5.000    0.000    0.000    0.000    0.000 
#    0.000    0.000    0.000    0.000    0.000    0.000 
#
# Total GULP energy -297647.583151 kJ/mol
# GULP energy per Si atom -12401.982631 kJ/mol
# Density = 1.895179 g / cm^3
# Si number density = 18.995026 Si / 1000 Ang^3
#
#
#
# Elastic Constant Matrix: (Units=GPa)
#
#
# Indices 1 2 3 4 5 6 
#
# 1 122.1677 64.3749 99.2581 0.0000 8.2380 0.0000
# 2 64.3749 97.8402 72.0947 0.0000 -2.0896 0.0000
# 3 99.2581 72.0947 169.7348 0.0000 4.9921 0.0000
# 4 0.0000 0.0000 0.0000 32.0330 0.0000 -5.4020
# 5 8.2380 -2.0896 4.9921 0.0000 43.6548 0.0000
# 6 0.0000 0.0000 0.0000 -5.4020 0.0000 32.0789
#
#
#
# Elastic Compliance Matrix: (Units=1/GPa)
#
#
# Indices 1 2 3 4 5 6 
#
# 1 0.017940 -0.006104 -0.007817 0.000000 -0.002784 0.000000
# 2 -0.006104 0.017044 -0.003741 0.000000 0.002395 0.000000
# 3 -0.007817 -0.003741 0.012054 0.000000 -0.000082 0.000000
# 4 0.000000 0.000000 0.000000 0.032130 0.000000 0.005411
# 5 -0.002784 0.002395 -0.000082 0.000000 0.023556 0.000000
# 6 0.000000 0.000000 0.000000 0.005411 0.000000 0.032084
#
#
# Mechanical properties :
#
#
# Convention : Reuss Voigt Hill
#
# Bulk Modulus (GPa) = 85.35110 95.68868 90.51989
# Shear Modulus (GPa) = 28.72948 31.82100 30.27524
#
# Velocity S-wave (km/s) = 3.89327 4.09740 3.99664
# Velocity P-wave (km/s) = 8.07719 8.53639 8.30996
#
# Compressibility (1/GPa) = 0.01171631
#
# Stress axis : x y z
#
# Youngs Moduli (GPa) = 55.74011 58.67105 82.95986
#
# Poissons Ratio (x) = 0.35810 0.64849
# Poissons Ratio (y) = 0.34021 0.31033
# Poissons Ratio (z) = 0.43571 0.21947
#
# Static dielectric constant tensor:
#      x y z
#    x 3.367470 0.000000 0.090590 
#    y 0.000000 4.257260 0.000000 
#    z 0.090590 0.000000 3.598180 
# 
# 
# High freq. dielectric constant tensor:
#      x y z
#    x 1.737000 0.000000 0.002530 
#    y 0.000000 1.739340 0.000000 
#    z 0.002530 0.000000 1.754120 
# 
# From -- ./inp_files/221520.got.cif
#   From: 2010.06.25/outbox.cif.g09.slc.cpg/sg12_111_cif.got.tgz:221520.got - 2010.06.28 00:19:55.
