data_PCOD8108283
_publ_section_title
;
Structure prediction by ZEFSAII (Michael W. Deem and Ramdas Pophale) SiO2 
 PCOD8108283
Probable space group: C 2/M
;
_chemical_formula_sum "Si O2"
_cell_formula_units_Z 56
_cell_length_a 8.715455
_cell_length_b 18.248988
_cell_length_c 19.704441
_cell_angle_alpha 90.000000
_cell_angle_beta 63.748624
_cell_angle_gamma 90.000000
_cell_volume 2810.726902
_symmetry_space_group_name_H-M "C 2/M"
_symmetry_group_IT_number 12
_symmetry_cell_setting 'monoclinic'
loop_
_space_group_symop_operation_xyz
x,y,z
-x,y,-z
-x,-y,-z
x,-y,z
1/2+x,1/2+y,z
1/2-x,1/2+y,-z
1/2-x,1/2-y,-z
1/2+x,1/2-y,z
loop_
_atom_site_type_symbol
_atom_site_label
_atom_site_fract_x
_atom_site_fract_y
_atom_site_fract_z
Si Si1 0.173249 0.830017 0.645374
Si Si2 0.104580 0.915079 0.216244
Si Si3 0.091986 0.827305 0.087599
Si Si4 0.267184 0.827305 0.912401
Si Si5 0.036005 0.330017 0.645373
Si Si6 0.962930 0.415079 0.216245
Si Si7 0.682572 0.917727 0.500000
O O1 0.356512 0.823895 0.643489
O O2 0.181309 0.876466 0.574329
O O3 0.047307 0.868824 0.722021
O O4 0.109665 0.750000 0.640334
O O5 0.127255 0.891888 0.133753
O O6 0.276993 0.898424 0.223007
O O7 0.055029 0.000000 0.228420
O O8 0.136592 0.750000 0.113408
O O9 0.894841 0.826090 0.105160
O O10 0.214459 0.842761 1.000000
O O11 0.394761 0.891887 0.866246
O O12 0.008655 0.368825 0.722019
O O13 0.170036 0.376464 0.574327
O O14 0.988131 0.500000 0.228420
O O15 0.500000 0.919758 0.500000
O O16 0.749739 0.000000 0.500001
#
# Coordination Sequence:
#
# PCOD8108283 Si02
#       7
#     8   8   8   8   8   8   8
#     4  11  22  38  61  86 116 152 192 237 283 337
#     4  11  24  40  58  83 116 152 191 236 287 341
#     4  10  21  38  61  87 115 149 190 235 283 338
#     4  10  21  38  61  87 115 149 190 235 283 338
#     4  11  22  38  61  86 116 152 192 237 283 337
#     4  11  24  40  58  83 116 152 191 236 287 341
#     4   9  19  36  59  87 116 149 190 235 284 336
#
# _framework density 19.923672
#
# number of rings (size 3 to 8) (size 9 to 14) (size 15 to 20)
#    0.000    1.571    0.000    4.714    0.000    5.714 
#    0.000    5.000    0.000    5.143    0.000    0.000 
#    0.000    0.000    0.000    0.000    0.000    0.000 
#
# Total GULP energy -347373.544944 kJ/mol
# GULP energy per Si atom -12406.198034 kJ/mol
# Density = 1.987833 g / cm^3
# Si number density = 19.923672 Si / 1000 Ang^3
#
#
#
# Elastic Constant Matrix: (Units=GPa)
#
#
# Indices 1 2 3 4 5 6 
#
# 1 77.8177 55.4527 34.9318 0.0000 0.0822 0.0000
# 2 55.4527 155.6640 72.9608 0.0000 0.7225 0.0000
# 3 34.9318 72.9608 114.4189 0.0000 1.4278 0.0000
# 4 0.0000 0.0000 0.0000 40.1405 0.0000 0.9345
# 5 0.0822 0.7225 1.4278 0.0000 22.4926 0.0000
# 6 0.0000 0.0000 0.0000 0.9345 0.0000 17.4698
#
#
#
# Elastic Compliance Matrix: (Units=1/GPa)
#
#
# Indices 1 2 3 4 5 6 
#
# 1 0.017524 -0.005327 -0.001956 0.000000 0.000231 0.000000
# 2 -0.005327 0.010782 -0.005249 0.000000 0.000006 0.000000
# 3 -0.001956 -0.005249 0.012692 0.000000 -0.000630 0.000000
# 4 0.000000 0.000000 0.000000 0.024944 0.000000 -0.001334
# 5 0.000231 0.000006 -0.000630 0.000000 0.044498 0.000000
# 6 0.000000 0.000000 0.000000 -0.001334 0.000000 0.057313
#
#
# Mechanical properties :
#
#
# Convention : Reuss Voigt Hill
#
# Bulk Modulus (GPa) = 62.75913 74.95460 68.85686
# Shear Modulus (GPa) = 25.23612 28.32427 26.78019
#
# Velocity S-wave (km/s) = 3.56285 3.77455 3.67023
# Velocity P-wave (km/s) = 6.96372 7.52987 7.25232
#
# Compressibility (1/GPa) = 0.01593394
#
# Stress axis : x y z
#
# Youngs Moduli (GPa) = 57.06325 92.74743 78.78953
#
# Poissons Ratio (x) = 0.49406 0.15413
# Poissons Ratio (y) = 0.30397 0.41357
# Poissons Ratio (z) = 0.11163 0.48684
#
# Static dielectric constant tensor:
#      x y z
#    x 3.592580 0.000000 0.007550 
#    y 0.000000 3.725750 0.000000 
#    z 0.007550 0.000000 3.775560 
# 
# 
# High freq. dielectric constant tensor:
#      x y z
#    x 1.777340 0.000000 0.000620 
#    y 0.000000 1.786900 0.000000 
#    z 0.000620 0.000000 1.792350 
# 
# From -- ./inp_files/300689.got.cif
#   From: 2010.06.25/outbox.cif.g09.slc.cpg/sg12_151_cif.got.tgz:300689.got - 2010.06.28 00:19:55.
