data_PCOD8108017
_publ_section_title
;
Structure prediction by ZEFSAII (Michael W. Deem and Ramdas Pophale) SiO2 
 PCOD8108017
Probable space group: C 2/M
;
_chemical_formula_sum "Si O2"
_cell_formula_units_Z 56
_cell_length_a 17.703909
_cell_length_b 8.900097
_cell_length_c 19.989504
_cell_angle_alpha 90.000000
_cell_angle_beta 62.740968
_cell_angle_gamma 90.000000
_cell_volume 2799.888874
_symmetry_space_group_name_H-M "C 2/M"
_symmetry_group_IT_number 12
_symmetry_cell_setting 'monoclinic'
loop_
_space_group_symop_operation_xyz
x,y,z
-x,y,-z
-x,-y,-z
x,-y,z
1/2+x,1/2+y,z
1/2-x,1/2+y,-z
1/2-x,1/2-y,-z
1/2+x,1/2-y,z
loop_
_atom_site_type_symbol
_atom_site_label
_atom_site_fract_x
_atom_site_fract_y
_atom_site_fract_z
Si Si1 0.691205 0.824580 0.935329
Si Si2 0.160154 0.322804 0.348546
Si Si3 0.038481 0.176120 0.769085
Si Si4 0.190320 0.676492 0.784314
Si Si5 0.872245 0.822954 0.913913
Si Si6 0.681394 0.674776 0.480930
Si Si7 0.991615 0.827647 0.372264
O O1 0.664603 0.783910 0.870798
O O2 0.787523 0.768143 0.909826
O O3 0.684444 0.000000 0.952214
O O4 0.625868 0.743188 0.011881
O O5 0.169395 0.500000 0.350715
O O6 0.221857 0.260763 0.266130
O O7 0.188441 0.250143 0.406337
O O8 0.064437 0.281297 0.368787
O O9 0.117301 0.268676 0.764742
O O10 0.032142 0.213320 0.693660
O O11 0.953447 0.235089 0.839863
O O12 0.054148 0.000000 0.775209
O O13 0.205446 0.500000 0.769191
O O14 0.875141 0.000000 0.917991
O O15 0.702545 0.500000 0.465552
O O16 0.750000 0.750000 0.500000
O O17 0.588400 0.701432 0.548284
O O18 0.023005 0.000000 0.364568
#
# Coordination Sequence:
#
# PCOD8108017 Si02
#       7
#     8   8   8   8   8   8   8
#     4   9  19  36  57  81 110 147 191 238 288 343
#     4  12  25  40  61  88 118 153 195 242 289 344
#     4  10  21  38  59  85 118 152 191 239 292 347
#     4  11  23  39  59  83 115 153 194 242 294 346
#     4   9  18  34  57  82 111 149 189 234 288 346
#     4  11  23  40  64  92 123 158 195 237 287 340
#     4  10  22  41  63  86 116 154 193 237 288 340
#
# _framework density 20.000793000000002
#
# number of rings (size 3 to 8) (size 9 to 14) (size 15 to 20)
#    0.000    1.714    0.000    4.286    0.000    9.143 
#    0.000    5.714    0.000    0.000    0.000    0.000 
#    0.000    0.000    0.000    0.000    0.000    0.000 
#
# Total GULP energy -347354.551599 kJ/mol
# GULP energy per Si atom -12405.519700 kJ/mol
# Density = 1.995527 g / cm^3
# Si number density = 20.000793 Si / 1000 Ang^3
#
#
#
# Elastic Constant Matrix: (Units=GPa)
#
#
# Indices 1 2 3 4 5 6 
#
# 1 63.2487 32.4718 5.2254 0.0000 12.4202 0.0001
# 2 32.4718 85.9046 31.7002 -0.0002 3.1623 0.0000
# 3 5.2254 31.7002 77.0870 0.0000 9.7326 0.0000
# 4 0.0000 -0.0002 0.0000 33.8974 0.0000 1.6328
# 5 12.4202 3.1623 9.7326 0.0000 31.6041 0.0000
# 6 0.0001 0.0000 0.0000 1.6328 0.0000 37.7278
#
#
#
# Elastic Compliance Matrix: (Units=1/GPa)
#
#
# Indices 1 2 3 4 5 6 
#
# 1 0.022004 -0.009258 0.003423 0.000000 -0.008775 0.000000
# 2 -0.009258 0.017623 -0.007133 0.000000 0.004072 0.000000
# 3 0.003423 -0.007133 0.016391 0.000000 -0.005679 0.000000
# 4 0.000000 0.000000 0.000000 0.029562 0.000000 -0.001279
# 5 -0.008775 0.004072 -0.005679 0.000000 0.036432 0.000000
# 6 0.000000 0.000000 0.000000 -0.001279 0.000000 0.026561
#
#
# Mechanical properties :
#
#
# Convention : Reuss Voigt Hill
#
# Bulk Modulus (GPa) = 33.24260 40.55945 36.90102
# Shear Modulus (GPa) = 27.09508 31.10203 29.09856
#
# Velocity S-wave (km/s) = 3.68462 3.94768 3.81841
# Velocity P-wave (km/s) = 5.89564 6.41107 6.15875
#
# Compressibility (1/GPa) = 0.03008189
#
# Stress axis : x y z
#
# Youngs Moduli (GPa) = 45.44649 56.74501 61.00984
#
# Poissons Ratio (x) = 0.52533 -0.20886
# Poissons Ratio (y) = 0.42073 0.43521
# Poissons Ratio (z) = -0.15558 0.40479
#
# Static dielectric constant tensor:
#      x y z
#    x 3.690530 0.000000 -0.137170 
#    y 0.000000 3.596820 0.000000 
#    z -0.137170 0.000000 3.930340 
# 
# 
# High freq. dielectric constant tensor:
#      x y z
#    x 1.782660 0.000000 0.000350 
#    y 0.000000 1.776270 0.000000 
#    z 0.000350 0.000000 1.798530 
# 
# From -- ./inp_files/274996.got.cif
#   From: 2010.06.25/outbox.cif.g09.slc.cpg/sg12_138_cif.got.tgz:274996.got - 2010.06.28 00:19:55.
