data_PCOD8108434
_publ_section_title
;
Structure prediction by ZEFSAII (Michael W. Deem and Ramdas Pophale) SiO2 
 PCOD8108434
Probable space group: C 2/M
;
_chemical_formula_sum "Si O2"
_cell_formula_units_Z 56
_cell_length_a 20.341588
_cell_length_b 18.151329
_cell_length_c 15.381973
_cell_angle_alpha 90.000000
_cell_angle_beta 151.695005
_cell_angle_gamma 90.000000
_cell_volume 2692.990308
_symmetry_space_group_name_H-M "C 2/M"
_symmetry_group_IT_number 12
_symmetry_cell_setting 'monoclinic'
loop_
_space_group_symop_operation_xyz
x,y,z
-x,y,-z
-x,-y,-z
x,-y,z
1/2+x,1/2+y,z
1/2-x,1/2+y,-z
1/2-x,1/2-y,-z
1/2+x,1/2-y,z
loop_
_atom_site_type_symbol
_atom_site_label
_atom_site_fract_x
_atom_site_fract_y
_atom_site_fract_z
Si Si1 0.045802 0.413869 0.742607
Si Si2 0.771001 0.654867 0.701615
Si Si3 0.094406 0.174181 0.023760
Si Si4 0.005364 0.916340 0.411069
Si Si5 0.357199 0.416093 0.074507
Si Si6 0.543168 0.163927 0.920485
Si Si7 0.880227 0.304726 0.429255
O O1 0.998462 0.500000 0.687526
O O2 0.069743 0.384906 0.867507
O O3 0.935058 0.362265 0.565334
O O4 0.193997 0.405928 0.868055
O O5 0.662759 0.589284 0.558705
O O6 0.680116 0.729982 0.598952
O O7 0.879584 0.659199 0.749993
O O8 0.856504 0.633828 0.887553
O O9 0.251605 0.155937 0.233003
O O10 0.054904 0.114454 0.905014
O O11 0.082196 0.250470 0.957030
O O12 0.000000 0.173270 0.000000
O O13 0.000000 0.876120 0.500000
O O14 0.903827 0.878625 0.221002
O O15 0.958927 0.000000 0.370265
O O16 0.402994 0.500000 0.134899
O O17 0.000000 0.285712 0.500000
#
# Coordination Sequence:
#
# PCOD8108434 Si02
#       7
#     8   8   8   8   8   8   8
#     4  11  25  41  63  95 128 167 216 265 324 386
#     4  10  21  40  62  91 125 163 209 263 316 381
#     4  11  22  44  66  92 130 171 214 264 323 383
#     4  10  21  38  61  91 128 168 211 263 320 382
#     4  10  23  41  63  95 129 167 214 265 321 385
#     4  10  22  41  63  88 127 166 209 261 321 382
#     4  11  22  40  65  96 122 164 216 262 319 378
#
# _framework density 20.794727000000002
#
# number of rings (size 3 to 8) (size 9 to 14) (size 15 to 20)
#    0.000    1.571    4.286    1.286    2.000    6.857 
#    0.000    2.857    0.000    0.000    0.000    0.000 
#    0.000    0.000    0.000    0.000    0.000    0.000 
#
# Total GULP energy -346973.421181 kJ/mol
# GULP energy per Si atom -12391.907899 kJ/mol
# Density = 2.074740 g / cm^3
# Si number density = 20.794727 Si / 1000 Ang^3
#
#
#
# Elastic Constant Matrix: (Units=GPa)
#
#
# Indices 1 2 3 4 5 6 
#
# 1 79.4884 39.7834 24.6223 0.0000 -5.2667 0.0000
# 2 39.7834 54.4697 24.7605 0.0000 -9.5631 0.0000
# 3 24.6223 24.7605 84.9494 0.0000 7.6670 0.0000
# 4 0.0000 0.0000 0.0000 30.2877 0.0000 -4.4739
# 5 -5.2667 -9.5631 7.6670 0.0000 34.4801 0.0000
# 6 0.0000 0.0000 0.0000 -4.4739 0.0000 29.7557
#
#
#
# Elastic Compliance Matrix: (Units=1/GPa)
#
#
# Indices 1 2 3 4 5 6 
#
# 1 0.020065 -0.013952 -0.001711 0.000000 -0.000424 0.000000
# 2 -0.013952 0.032885 -0.006298 0.000000 0.008390 0.000000
# 3 -0.001711 -0.006298 0.014577 0.000000 -0.005250 0.000000
# 4 0.000000 0.000000 0.000000 0.033767 0.000000 0.005077
# 5 -0.000424 0.008390 -0.005250 0.000000 0.032432 0.000000
# 6 0.000000 0.000000 0.000000 0.005077 0.000000 0.034370
#
#
# Mechanical properties :
#
#
# Convention : Reuss Voigt Hill
#
# Bulk Modulus (GPa) = 42.36392 44.13774 43.25083
# Shear Modulus (GPa) = 22.73897 27.55412 25.14654
#
# Velocity S-wave (km/s) = 3.31039 3.64408 3.48124
# Velocity P-wave (km/s) = 5.91847 6.24318 6.08299
#
# Compressibility (1/GPa) = 0.02360499
#
# Stress axis : x y z
#
# Youngs Moduli (GPa) = 49.83779 30.40895 68.60005
#
# Poissons Ratio (x) = 0.42426 0.11737
# Poissons Ratio (y) = 0.69533 0.43208
# Poissons Ratio (z) = 0.08527 0.19153
#
# Static dielectric constant tensor:
#      x y z
#    x 3.783620 0.000000 0.040650 
#    y 0.000000 3.576410 0.000000 
#    z 0.040650 0.000000 3.957500 
# 
# 
# High freq. dielectric constant tensor:
#      x y z
#    x 1.810880 0.000000 0.001100 
#    y 0.000000 1.799520 0.000000 
#    z 0.001100 0.000000 1.824300 
# 
# From -- ./inp_files/234698.got.cif
#   From: 2010.06.25/outbox.cif.g09.slc.cpg/sg12_118_cif.got.tgz:234698.got - 2010.06.28 00:19:55.
