data_PCOD8108276
_publ_section_title
;
Structure prediction by ZEFSAII (Michael W. Deem and Ramdas Pophale) SiO2 
 PCOD8108276
Probable space group: C 2/M
;
_chemical_formula_sum "Si O2"
_cell_formula_units_Z 56
_cell_length_a 30.892218
_cell_length_b 13.785605
_cell_length_c 5.575563
_cell_angle_alpha 90.000000
_cell_angle_beta 94.741244
_cell_angle_gamma 90.000000
_cell_volume 2366.328356
_symmetry_space_group_name_H-M "C 2/M"
_symmetry_group_IT_number 12
_symmetry_cell_setting 'monoclinic'
loop_
_space_group_symop_operation_xyz
x,y,z
-x,y,-z
-x,-y,-z
x,-y,z
1/2+x,1/2+y,z
1/2-x,1/2+y,-z
1/2-x,1/2-y,-z
1/2+x,1/2-y,z
loop_
_atom_site_type_symbol
_atom_site_label
_atom_site_fract_x
_atom_site_fract_y
_atom_site_fract_z
Si Si1 0.383355 0.261708 0.244496
Si Si2 0.118489 0.389978 0.372168
Si Si3 0.078165 0.892229 0.365850
Si Si4 0.758568 0.386031 0.324886
Si Si5 0.703538 0.111872 0.157430
Si Si6 0.165441 0.892713 0.106346
Si Si7 0.452523 0.214421 0.902758
O O1 0.363604 0.182604 0.416593
O O2 0.411894 0.349198 0.370009
O O3 0.341990 0.310160 0.095647
O O4 0.418710 0.207317 0.101477
O O5 0.120553 0.500000 0.467899
O O6 0.151032 0.375469 0.159321
O O7 0.068465 0.361208 0.296329
O O8 0.124013 0.892991 0.255839
O O9 0.044546 0.822644 0.208867
O O10 0.057877 0.000000 0.376310
O O11 0.769405 0.500000 0.338787
O O12 0.774490 0.341279 0.589590
O O13 0.707272 0.363937 0.280889
O O14 0.781199 0.342128 0.090900
O O15 0.717389 0.000000 0.158797
O O16 0.171935 0.000000 0.992648
O O17 0.500000 0.178533 0.000000
#
# Coordination Sequence:
#
# PCOD8108276 Si02
#       7
#     8   8   8   8   8   8   8
#     4  10  21  38  61  86 121 155 204 250 308 367
#     4  10  23  41  63  86 115 158 205 258 320 374
#     4   9  19  36  60  90 125 162 200 239 298 369
#     4   9  18  32  56  89 126 167 214 259 303 364
#     4   9  19  35  56  87 123 165 214 262 312 368
#     4   9  18  33  58  90 126 168 203 243 296 358
#     4  10  23  42  62  88 121 152 195 255 314 379
#
# _framework density 23.665353
#
# number of rings (size 3 to 8) (size 9 to 14) (size 15 to 20)
#    0.000    2.571    0.000    0.429    4.000    4.000 
#    0.000    2.857    0.000    0.000    0.000    0.000 
#    0.000    0.000    0.000    0.000    0.000    0.000 
#
# Total GULP energy -346999.735720 kJ/mol
# GULP energy per Si atom -12392.847704 kJ/mol
# Density = 2.361149 g / cm^3
# Si number density = 23.665353 Si / 1000 Ang^3
#
#
#
# Elastic Constant Matrix: (Units=GPa)
#
#
# Indices 1 2 3 4 5 6 
#
# 1 98.4483 12.9272 19.2122 0.0000 33.3084 0.0000
# 2 12.9272 66.7511 10.1274 0.0000 7.4988 0.0000
# 3 19.2122 10.1274 103.8424 0.0000 13.8373 0.0000
# 4 0.0000 0.0000 0.0000 8.0006 0.0000 0.6872
# 5 33.3084 7.4988 13.8373 0.0000 28.2433 0.0000
# 6 0.0000 0.0000 0.0000 0.6872 0.0000 24.3774
#
#
#
# Elastic Compliance Matrix: (Units=1/GPa)
#
#
# Indices 1 2 3 4 5 6 
#
# 1 0.016994 -0.001028 -0.000438 0.000000 -0.019554 0.000000
# 2 -0.001028 0.015607 -0.001007 0.000000 -0.002438 0.000000
# 3 -0.000438 -0.001007 0.010383 0.000000 -0.004303 0.000000
# 4 0.000000 0.000000 0.000000 0.125295 0.000000 -0.003532
# 5 -0.019554 -0.002438 -0.004303 0.000000 0.061223 0.000000
# 6 0.000000 0.000000 0.000000 -0.003532 0.000000 0.041121
#
#
# Mechanical properties :
#
#
# Convention : Reuss Voigt Hill
#
# Bulk Modulus (GPa) = 26.29024 39.28615 32.78820
# Shear Modulus (GPa) = 17.34624 27.24258 22.29441
#
# Velocity S-wave (km/s) = 2.71030 3.39655 3.07265
# Velocity P-wave (km/s) = 4.57467 5.65852 5.14521
#
# Compressibility (1/GPa) = 0.03803692
#
# Stress axis : x y z
#
# Youngs Moduli (GPa) = 58.84479 64.07475 96.31497
#
# Poissons Ratio (x) = 0.06586 0.04221
# Poissons Ratio (y) = 0.06049 0.09699
# Poissons Ratio (z) = 0.02579 0.06452
#
# Static dielectric constant tensor:
#      x y z
#    x 3.874250 0.000000 0.120780 
#    y 0.000000 4.404450 0.000000 
#    z 0.120780 0.000000 4.497830 
# 
# 
# High freq. dielectric constant tensor:
#      x y z
#    x 1.916340 0.000000 0.009030 
#    y 0.000000 1.934010 0.000000 
#    z 0.009030 0.000000 1.936750 
# 
# From -- ./inp_files/31501.got.cif
#   From: 2010.06.25/outbox.cif.g09.slc.cpg/sg12_16_cif.got.tgz:31501.got - 2010.06.28 00:19:55.
