data_PCOD8108659
_publ_section_title
;
Structure prediction by ZEFSAII (Michael W. Deem and Ramdas Pophale) SiO2 
 PCOD8108659
Probable space group: C 2/M
;
_chemical_formula_sum "Si O2"
_cell_formula_units_Z 56
_cell_length_a 29.178637
_cell_length_b 8.850057
_cell_length_c 21.215619
_cell_angle_alpha 90.000000
_cell_angle_beta 151.433654
_cell_angle_gamma 90.000000
_cell_volume 2619.718437
_symmetry_space_group_name_H-M "C 2/M"
_symmetry_group_IT_number 12
_symmetry_cell_setting 'monoclinic'
loop_
_space_group_symop_operation_xyz
x,y,z
-x,y,-z
-x,-y,-z
x,-y,z
1/2+x,1/2+y,z
1/2-x,1/2+y,-z
1/2-x,1/2-y,-z
1/2+x,1/2-y,z
loop_
_atom_site_type_symbol
_atom_site_label
_atom_site_fract_x
_atom_site_fract_y
_atom_site_fract_z
Si Si1 0.851501 0.824824 0.615318
Si Si2 0.829623 0.672026 0.914514
Si Si3 0.550781 0.171572 0.154576
Si Si4 0.767266 0.680257 0.090022
Si Si5 0.382403 0.172478 0.528937
Si Si6 0.469615 0.820778 0.394892
Si Si7 0.815345 0.173622 0.775217
O O1 0.750000 0.750000 0.500000
O O2 0.915840 0.786351 0.752120
O O3 0.906385 0.767883 0.619646
O O4 0.834524 0.000000 0.590065
O O5 0.793530 0.500000 0.878098
O O6 0.816111 0.758177 0.964531
O O7 0.774186 0.759434 0.791435
O O8 0.937371 0.678172 0.019580
O O9 0.593753 0.230795 0.140275
O O10 0.586985 0.000000 0.209576
O O11 0.762059 0.500000 0.077916
O O12 0.867153 0.734627 0.243305
O O13 0.750000 0.750000 0.000000
O O14 0.448081 0.237070 0.552618
O O15 0.270296 0.187253 0.378170
O O16 0.410568 0.000000 0.576908
O O17 0.500000 0.753095 0.500000
O O18 0.467578 0.000000 0.397424
O O19 0.845818 0.000000 0.822204
#
# Coordination Sequence:
#
# PCOD8108659 Si02
#       7
#     8   8   8   8   8   8   8
#     4  12  24  39  60  89 124 164 208 257 313 372
#     4  11  25  43  64  89 124 169 212 258 316 376
#     4  11  24  41  62  88 124 167 211 257 311 375
#     4  11  24  43  67  95 128 167 215 271 329 389
#     4  10  21  38  63  93 125 162 206 253 312 380
#     4   9  19  39  67  95 123 162 212 263 318 382
#     4  11  22  38  64  96 128 163 204 255 313 377
#
# _framework density 21.376342000000001
#
# number of rings (size 3 to 8) (size 9 to 14) (size 15 to 20)
#    0.000    1.286    1.429    4.286    2.000    6.857 
#    0.000    0.714    0.000    3.000    0.000    0.000 
#    0.000    0.000    0.000    0.000    0.000    0.000 
#
# Total GULP energy -347213.411712 kJ/mol
# GULP energy per Si atom -12400.478990 kJ/mol
# Density = 2.132769 g / cm^3
# Si number density = 21.376342 Si / 1000 Ang^3
#
#
#
# Elastic Constant Matrix: (Units=GPa)
#
#
# Indices 1 2 3 4 5 6 
#
# 1 160.9061 61.0159 38.2384 0.0000 -22.6524 0.0000
# 2 61.0159 116.7803 25.4080 0.0000 -5.4471 0.0000
# 3 38.2384 25.4080 76.4268 0.0000 -13.8470 0.0000
# 4 0.0000 0.0000 0.0000 28.6222 0.0000 -7.0396
# 5 -22.6524 -5.4471 -13.8470 0.0000 40.4192 0.0000
# 6 0.0000 0.0000 0.0000 -7.0396 0.0000 36.8392
#
#
#
# Elastic Compliance Matrix: (Units=1/GPa)
#
#
# Indices 1 2 3 4 5 6 
#
# 1 0.008770 -0.003883 -0.002454 0.000000 0.003551 0.000000
# 2 -0.003883 0.010951 -0.001946 0.000000 -0.001367 0.000000
# 3 -0.002454 -0.001946 0.015633 0.000000 0.003718 0.000000
# 4 0.000000 0.000000 0.000000 0.036661 0.000000 0.007005
# 5 0.003551 -0.001367 0.003718 0.000000 0.027821 0.000000
# 6 0.000000 0.000000 0.000000 0.007005 0.000000 0.028484
#
#
# Mechanical properties :
#
#
# Convention : Reuss Voigt Hill
#
# Bulk Modulus (GPa) = 53.22076 67.04865 60.13470
# Shear Modulus (GPa) = 33.08038 36.47286 34.77662
#
# Velocity S-wave (km/s) = 3.93812 4.13513 4.03783
# Velocity P-wave (km/s) = 6.75496 7.36430 7.06620
#
# Compressibility (1/GPa) = 0.01878966
#
# Stress axis : x y z
#
# Youngs Moduli (GPa) = 114.02214 91.31280 63.96895
#
# Poissons Ratio (x) = 0.35455 0.15696
# Poissons Ratio (y) = 0.44272 0.12447
# Poissons Ratio (z) = 0.27978 0.17767
#
# Static dielectric constant tensor:
#      x y z
#    x 4.101670 0.000000 -0.218770 
#    y 0.000000 3.536660 0.000000 
#    z -0.218770 0.000000 4.126740 
# 
# 
# High freq. dielectric constant tensor:
#      x y z
#    x 1.856980 0.000000 -0.009680 
#    y 0.000000 1.828410 0.000000 
#    z -0.009680 0.000000 1.835250 
# 
# From -- ./inp_files/329721.got.cif
#   From: 2010.06.25/outbox.cif.g09.slc.cpg/sg12_165_cif.got.tgz:329721.got - 2010.06.28 00:19:55.
