data_PCOD8108115
_publ_section_title
;
Structure prediction by ZEFSAII (Michael W. Deem and Ramdas Pophale) SiO2 
 PCOD8108115
Probable space group: C 2/M
;
_chemical_formula_sum "Si O2"
_cell_formula_units_Z 56
_cell_length_a 16.035709
_cell_length_b 9.298262
_cell_length_c 20.741635
_cell_angle_alpha 90.000000
_cell_angle_beta 112.636576
_cell_angle_gamma 90.000000
_cell_volume 2854.420996
_symmetry_space_group_name_H-M "C 2/M"
_symmetry_group_IT_number 12
_symmetry_cell_setting 'monoclinic'
loop_
_space_group_symop_operation_xyz
x,y,z
-x,y,-z
-x,-y,-z
x,-y,z
1/2+x,1/2+y,z
1/2-x,1/2+y,-z
1/2-x,1/2-y,-z
1/2+x,1/2-y,z
loop_
_atom_site_type_symbol
_atom_site_label
_atom_site_fract_x
_atom_site_fract_y
_atom_site_fract_z
Si Si1 0.920373 0.667899 0.657707
Si Si2 0.936611 0.837231 0.075589
Si Si3 0.070082 0.332851 0.798505
Si Si4 0.635239 0.663218 0.081734
Si Si5 0.267670 0.334318 0.351273
Si Si6 0.228094 0.835741 0.793770
Si Si7 0.453370 0.167177 0.418136
O O1 0.912194 0.500000 0.641919
O O2 0.817442 0.727993 0.632199
O O3 0.970042 0.696357 0.740895
O O4 0.979039 0.734234 0.616113
O O5 0.914679 0.728143 0.125917
O O6 0.038089 0.812974 0.083469
O O7 0.923101 0.000000 0.096299
O O8 0.869387 0.805412 0.996122
O O9 0.093626 0.500000 0.807365
O O10 0.136629 0.255470 0.768510
O O11 0.668596 0.500000 0.103849
O O12 0.702005 0.775515 0.133603
O O13 0.288149 0.500000 0.374862
O O14 0.234876 0.322207 0.267555
O O15 0.357079 0.244586 0.391548
O O16 0.207957 0.000000 0.806410
O O17 0.500000 0.192044 0.500000
O O18 0.434818 0.000000 0.398111
#
# Coordination Sequence:
#
# PCOD8108115 Si02
#       7
#     8   8   8   8   8   8   8
#     4   9  19  37  59  84 117 154 191 234 287 342
#     4   9  19  36  55  78 109 143 187 241 290 342
#     4  11  21  35  57  80 109 151 193 235 293 348
#     4   9  19  36  56  77 107 148 187 233 295 348
#     4  10  21  38  60  85 117 154 191 237 290 339
#     4  11  22  35  54  81 112 145 191 245 291 339
#     4  10  21  39  62  88 120 155 191 232 280 341
#
# _framework density 19.618690000000001
#
# number of rings (size 3 to 8) (size 9 to 14) (size 15 to 20)
#    0.000    2.143    1.429    2.571    0.000    4.286 
#    0.000    3.571    0.000    0.000    0.000    0.000 
#    0.000    0.000    0.000    0.000    0.000    0.000 
#
# Total GULP energy -347130.967679 kJ/mol
# GULP energy per Si atom -12397.534560 kJ/mol
# Density = 1.957404 g / cm^3
# Si number density = 19.618690 Si / 1000 Ang^3
#
#
#
# Elastic Constant Matrix: (Units=GPa)
#
#
# Indices 1 2 3 4 5 6 
#
# 1 137.2820 51.7863 53.3888 0.0000 10.9654 0.0000
# 2 51.7863 93.0765 45.2777 0.0000 7.2677 0.0000
# 3 53.3888 45.2777 82.2987 0.0000 4.9207 0.0000
# 4 0.0000 0.0000 0.0000 25.2355 0.0000 4.6924
# 5 10.9654 7.2677 4.9207 0.0000 28.8272 0.0000
# 6 0.0000 0.0000 0.0000 4.6924 0.0000 30.6423
#
#
#
# Elastic Compliance Matrix: (Units=1/GPa)
#
#
# Indices 1 2 3 4 5 6 
#
# 1 0.010652 -0.003344 -0.004929 0.000000 -0.002367 0.000000
# 2 -0.003344 0.015878 -0.006469 0.000000 -0.001627 0.000000
# 3 -0.004929 -0.006469 0.018890 0.000000 0.000281 0.000000
# 4 0.000000 0.000000 0.000000 0.040788 0.000000 -0.006246
# 5 -0.002367 -0.001627 0.000281 0.000000 0.035952 0.000000
# 6 0.000000 0.000000 0.000000 -0.006246 0.000000 0.033591
#
#
# Mechanical properties :
#
#
# Convention : Reuss Voigt Hill
#
# Bulk Modulus (GPa) = 62.74730 68.17365 65.46048
# Shear Modulus (GPa) = 26.24021 27.75463 26.99742
#
# Velocity S-wave (km/s) = 3.66117 3.76533 3.71362
# Velocity P-wave (km/s) = 7.06577 7.32997 7.19908
#
# Compressibility (1/GPa) = 0.01593694
#
# Stress axis : x y z
#
# Youngs Moduli (GPa) = 93.88346 62.97882 52.93689
#
# Poissons Ratio (x) = 0.21060 0.26090
# Poissons Ratio (y) = 0.31394 0.34246
# Poissons Ratio (z) = 0.46271 0.40742
#
# Static dielectric constant tensor:
#      x y z
#    x 3.751610 0.000000 -0.090980 
#    y 0.000000 3.422970 0.000000 
#    z -0.090980 0.000000 3.629130 
# 
# 
# High freq. dielectric constant tensor:
#      x y z
#    x 1.771680 0.000000 -0.001490 
#    y 0.000000 1.746510 0.000000 
#    z -0.001490 0.000000 1.765010 
# 
# From -- ./inp_files/314397.got.cif
#   From: 2010.06.25/outbox.cif.g09.slc.cpg/sg12_158_cif.got.tgz:314397.got - 2010.06.28 00:19:55.
