data_PCOD8108076
_publ_section_title
;
Structure prediction by ZEFSAII (Michael W. Deem and Ramdas Pophale) SiO2 
 PCOD8108076
Probable space group: C 2/M
;
_chemical_formula_sum "Si O2"
_cell_formula_units_Z 40
_cell_length_a 17.868460
_cell_length_b 13.536852
_cell_length_c 14.767781
_cell_angle_alpha 90.000000
_cell_angle_beta 33.471083
_cell_angle_gamma 90.000000
_cell_volume 1970.054353
_symmetry_space_group_name_H-M "C 2/M"
_symmetry_group_IT_number 12
_symmetry_cell_setting 'monoclinic'
loop_
_space_group_symop_operation_xyz
x,y,z
-x,y,-z
-x,-y,-z
x,-y,z
1/2+x,1/2+y,z
1/2-x,1/2+y,-z
1/2-x,1/2-y,-z
1/2+x,1/2-y,z
loop_
_atom_site_type_symbol
_atom_site_label
_atom_site_fract_x
_atom_site_fract_y
_atom_site_fract_z
Si Si1 0.206144 0.887479 0.699680
Si Si2 0.999263 0.389346 0.670159
Si Si3 0.739100 0.700753 0.851663
Si Si4 0.500121 0.697878 0.228686
Si Si5 0.091426 0.113290 0.320197
O O1 0.366756 0.879916 0.525419
O O2 0.167231 0.831857 0.831438
O O3 0.133145 0.834500 0.689926
O O4 0.155549 0.000000 0.756246
O O5 0.983037 0.500000 0.725150
O O6 0.874199 0.363192 0.731129
O O7 0.007450 0.315287 0.746629
O O8 0.775743 0.817109 0.811002
O O9 0.636820 0.676189 0.035780
O O10 0.503393 0.638443 0.319903
O O11 0.000000 0.134682 0.500000
O O12 0.140283 0.000000 0.268347
#
# Coordination Sequence:
#
# PCOD8108076 Si02
#       5
#     8   8   8   8   8
#     4  11  23  39  60  85 115 151 190 235 286 338
#     4  10  21  38  60  83 112 152 193 233 279 335
#     4  11  22  37  60  88 117 148 187 237 286 336
#     4  11  23  38  59  87 118 149 186 237 288 336
#     4  10  21  38  60  84 114 154 195 232 275 336
#
# _framework density 20.304009000000001
#
# number of rings (size 3 to 8) (size 9 to 14) (size 15 to 20)
#    0.000    1.400    0.000    7.800    0.000    8.000 
#    0.000    3.000    0.000    2.400    0.000    0.000 
#    0.000    0.000    0.000    0.000    0.000    0.000 
#
# Total GULP energy -248089.880890 kJ/mol
# GULP energy per Si atom -12404.494045 kJ/mol
# Density = 2.025780 g / cm^3
# Si number density = 20.304009 Si / 1000 Ang^3
#
#
#
# Elastic Constant Matrix: (Units=GPa)
#
#
# Indices 1 2 3 4 5 6 
#
# 1 137.5453 62.0387 38.1080 0.0000 20.1751 0.0000
# 2 62.0387 135.9023 34.4867 0.0000 4.7875 0.0000
# 3 38.1080 34.4867 91.4705 0.0000 12.8237 0.0000
# 4 0.0000 0.0000 0.0000 14.8980 0.0000 3.3977
# 5 20.1751 4.7875 12.8237 0.0000 31.4635 0.0000
# 6 0.0000 0.0000 0.0000 3.3977 0.0000 23.4643
#
#
#
# Elastic Compliance Matrix: (Units=1/GPa)
#
#
# Indices 1 2 3 4 5 6 
#
# 1 0.010445 -0.004053 -0.002090 0.000000 -0.005229 0.000000
# 2 -0.004053 0.009710 -0.002258 0.000000 0.002042 0.000000
# 3 -0.002090 -0.002258 0.013171 0.000000 -0.003684 0.000000
# 4 0.000000 0.000000 0.000000 0.069416 0.000000 -0.010052
# 5 -0.005229 0.002042 -0.003684 0.000000 0.036326 0.000000
# 6 0.000000 0.000000 0.000000 -0.010052 0.000000 0.044074
#
#
# Mechanical properties :
#
#
# Convention : Reuss Voigt Hill
#
# Bulk Modulus (GPa) = 60.52604 70.46498 65.49551
# Shear Modulus (GPa) = 24.33655 29.31747 26.82701
#
# Velocity S-wave (km/s) = 3.46585 3.80402 3.63887
# Velocity P-wave (km/s) = 6.77427 7.35353 7.06984
#
# Compressibility (1/GPa) = 0.01652181
#
# Stress axis : x y z
#
# Youngs Moduli (GPa) = 95.74353 102.98980 75.92273
#
# Poissons Ratio (x) = 0.41745 0.15869
# Poissons Ratio (y) = 0.38808 0.17147
# Poissons Ratio (z) = 0.20012 0.23259
#
# Static dielectric constant tensor:
#      x y z
#    x 3.608430 0.000000 0.081290 
#    y 0.000000 3.964860 0.000000 
#    z 0.081290 0.000000 3.588640 
# 
# 
# High freq. dielectric constant tensor:
#      x y z
#    x 1.790540 0.000000 0.007330 
#    y 0.000000 1.802880 0.000000 
#    z 0.007330 0.000000 1.794160 
# 
# From -- ./inp_files/58959.got.cif
#   From: 2010.06.25/outbox.cif.g09.slc.cpg/sg12_30_cif.got.tgz:58959.got - 2010.06.28 00:19:55.
