data_PCOD8108572
_publ_section_title
;
Structure prediction by ZEFSAII (Michael W. Deem and Ramdas Pophale) SiO2 
 PCOD8108572
Probable space group: C 2/M
;
_chemical_formula_sum "Si O2"
_cell_formula_units_Z 40
_cell_length_a 5.229464
_cell_length_b 18.207697
_cell_length_c 16.894854
_cell_angle_alpha 90.000000
_cell_angle_beta 87.711019
_cell_angle_gamma 90.000000
_cell_volume 1607.385233
_symmetry_space_group_name_H-M "C 2/M"
_symmetry_group_IT_number 12
_symmetry_cell_setting 'monoclinic'
loop_
_space_group_symop_operation_xyz
x,y,z
-x,y,-z
-x,-y,-z
x,-y,z
1/2+x,1/2+y,z
1/2-x,1/2+y,-z
1/2-x,1/2-y,-z
1/2+x,1/2-y,z
loop_
_atom_site_type_symbol
_atom_site_label
_atom_site_fract_x
_atom_site_fract_y
_atom_site_fract_z
Si Si1 0.507855 0.917315 0.406035
Si Si2 0.991502 0.827869 0.592669
Si Si3 0.470949 0.414216 0.087474
Si Si4 0.544857 0.781341 0.271448
Si Si5 0.051552 0.415394 0.818097
O O1 0.500000 0.922538 0.500000
O O2 0.247039 0.878702 0.380234
O O3 0.757282 0.869753 0.377004
O O4 0.526722 0.000000 0.370892
O O5 0.000000 0.809342 0.500000
O O6 0.961101 0.749347 0.637329
O O7 0.527344 0.500000 0.079508
O O8 0.691297 0.384599 0.143795
O O9 0.185678 0.398905 0.121263
O O10 0.500000 0.378055 0.000000
O O11 0.814696 0.760236 0.227765
O O12 0.494830 0.869283 0.262761
O O13 0.069370 0.500000 0.793080
#
# Coordination Sequence:
#
# PCOD8108572 Si02
#       5
#     8   8   8   8   8
#     4   9  17  33  59  91 126 159 200 265 337 396
#     4  10  21  38  62  92 123 165 221 275 332 389
#     4   9  17  33  65 106 135 160 207 267 318 367
#     4  12  26  44  64  88 126 175 219 263 320 384
#     4  10  21  40  66  94 130 174 215 260 313 376
#
# _framework density 24.885133
#
# number of rings (size 3 to 8) (size 9 to 14) (size 15 to 20)
#    0.000    2.000    0.000    3.600    0.000    5.600 
#    0.000    6.000    0.000   12.600    0.000    0.000 
#    0.000    9.600    0.000    0.000    0.000    0.000 
#
# Total GULP energy -247906.176251 kJ/mol
# GULP energy per Si atom -12395.308813 kJ/mol
# Density = 2.482849 g / cm^3
# Si number density = 24.885133 Si / 1000 Ang^3
#
#
#
# Elastic Constant Matrix: (Units=GPa)
#
#
# Indices 1 2 3 4 5 6 
#
# 1 212.2053 46.9110 31.2245 0.0000 10.3713 0.0000
# 2 46.9110 157.8210 34.5120 0.0000 14.8514 0.0000
# 3 31.2245 34.5120 83.1662 0.0000 16.0393 0.0000
# 4 0.0000 0.0000 0.0000 22.9047 0.0000 10.1935
# 5 10.3713 14.8514 16.0393 0.0000 33.1033 0.0000
# 6 0.0000 0.0000 0.0000 10.1935 0.0000 26.4514
#
#
#
# Elastic Compliance Matrix: (Units=1/GPa)
#
#
# Indices 1 2 3 4 5 6 
#
# 1 0.005202 -0.001207 -0.001370 0.000000 -0.000424 0.000000
# 2 -0.001207 0.007359 -0.002247 0.000000 -0.001835 0.000000
# 3 -0.001370 -0.002247 0.014554 0.000000 -0.005614 0.000000
# 4 0.000000 0.000000 0.000000 0.052697 0.000000 -0.020308
# 5 -0.000424 -0.001835 -0.005614 0.000000 0.033885 0.000000
# 6 0.000000 0.000000 0.000000 -0.020308 0.000000 0.045631
#
#
# Mechanical properties :
#
#
# Convention : Reuss Voigt Hill
#
# Bulk Modulus (GPa) = 57.25215 75.38751 66.31983
# Shear Modulus (GPa) = 28.60467 39.19489 33.89978
#
# Velocity S-wave (km/s) = 3.39406 3.97297 3.69487
# Velocity P-wave (km/s) = 6.19807 7.16980 6.70157
#
# Compressibility (1/GPa) = 0.01746659
#
# Stress axis : x y z
#
# Youngs Moduli (GPa) = 192.25170 135.88928 68.71057
#
# Poissons Ratio (x) = 0.16395 0.09416
# Poissons Ratio (y) = 0.23195 0.15439
# Poissons Ratio (z) = 0.26346 0.30534
#
# Static dielectric constant tensor:
#      x y z
#    x 5.851760 0.000000 0.414900 
#    y 0.000000 4.447840 0.000000 
#    z 0.414900 0.000000 4.653000 
# 
# 
# High freq. dielectric constant tensor:
#      x y z
#    x 2.029880 0.000000 0.003640 
#    y 0.000000 1.979150 0.000000 
#    z 0.003640 0.000000 1.974040 
# 
# From -- ./inp_files/252545.got.cif
#   From: 2010.06.25/outbox.cif.g09.slc.cpg/sg12_127_cif.got.tgz:252545.got - 2010.06.28 00:19:55.
