data_PCOD8108616
_publ_section_title
;
Structure prediction by ZEFSAII (Michael W. Deem and Ramdas Pophale) SiO2 
 PCOD8108616
Probable space group: C 2/M
;
_chemical_formula_sum "Si O2"
_cell_formula_units_Z 56
_cell_length_a 9.872339
_cell_length_b 17.914295
_cell_length_c 17.071486
_cell_angle_alpha 90.000000
_cell_angle_beta 107.323384
_cell_angle_gamma 90.000000
_cell_volume 2882.241991
_symmetry_space_group_name_H-M "C 2/M"
_symmetry_group_IT_number 12
_symmetry_cell_setting 'monoclinic'
loop_
_space_group_symop_operation_xyz
x,y,z
-x,y,-z
-x,-y,-z
x,-y,z
1/2+x,1/2+y,z
1/2-x,1/2+y,-z
1/2-x,1/2-y,-z
1/2+x,1/2-y,z
loop_
_atom_site_type_symbol
_atom_site_label
_atom_site_fract_x
_atom_site_fract_y
_atom_site_fract_z
Si Si1 0.277059 0.183448 0.848940
Si Si2 0.338346 0.081589 0.996927
Si Si3 0.103900 0.168901 0.670175
Si Si4 0.589003 0.175550 0.849542
Si Si5 0.275300 0.912844 0.570162
Si Si6 0.679585 0.414627 0.376822
Si Si7 0.932810 0.344072 0.330900
O O1 0.253167 0.127292 0.916742
O O2 0.211719 0.148725 0.758745
O O3 0.442538 0.202390 0.864244
O O4 0.195738 0.257205 0.858007
O O5 0.268016 0.000000 0.989729
O O6 0.500000 0.075068 0.000000
O O7 0.329047 0.117345 0.081353
O O8 0.155612 0.126086 0.602085
O O9 0.096153 0.257507 0.654218
O O10 0.949398 0.139603 0.667132
O O11 0.554853 0.139922 0.759487
O O12 0.226814 0.902071 0.473507
O O13 0.423013 0.870149 0.603895
O O14 0.290361 0.000000 0.595303
O O15 0.633979 0.500000 0.354870
O O16 0.806981 0.394568 0.341362
#
# Coordination Sequence:
#
# PCOD8108616 Si02
#       7
#     8   8   8   8   8   8   8
#     4  10  21  38  63  89 118 157 196 243 296 351
#     4   9  19  36  59  91 122 153 198 242 285 348
#     4  11  23  39  62  90 119 156 204 251 296 355
#     4  10  21  38  63  89 118 157 196 243 296 351
#     4  11  23  41  61  86 119 160 203 245 302 367
#     4  11  25  41  59  86 123 160 197 249 310 357
#     4  11  23  39  62  90 119 156 204 251 296 355
#
# _framework density 19.429320000000001
#
# number of rings (size 3 to 8) (size 9 to 14) (size 15 to 20)
#    0.000    1.571    1.429    3.000    6.000    8.000 
#    0.000    0.000    0.000    0.857    0.000    0.000 
#    0.000    0.000    0.000    0.000    0.000    0.000 
#
# Total GULP energy -347298.469957 kJ/mol
# GULP energy per Si atom -12403.516784 kJ/mol
# Density = 1.938510 g / cm^3
# Si number density = 19.429320 Si / 1000 Ang^3
#
#
#
# Elastic Constant Matrix: (Units=GPa)
#
#
# Indices 1 2 3 4 5 6 
#
# 1 79.1312 13.1176 20.2666 0.0000 -10.3580 0.0000
# 2 13.1176 78.9028 46.6814 0.0000 -14.0908 0.0000
# 3 20.2666 46.6814 75.4955 0.0000 -14.9571 0.0000
# 4 0.0000 0.0000 0.0000 11.8687 0.0000 -5.9236
# 5 -10.3580 -14.0908 -14.9571 0.0000 18.3923 0.0000
# 6 0.0000 0.0000 0.0000 -5.9236 0.0000 23.6921
#
#
#
# Elastic Compliance Matrix: (Units=1/GPa)
#
#
# Indices 1 2 3 4 5 6 
#
# 1 0.014076 0.000408 -0.002859 0.000000 0.005914 0.000000
# 2 0.000408 0.020623 -0.011546 0.000000 0.006640 0.000000
# 3 -0.002859 -0.011546 0.022746 0.000000 0.008042 0.000000
# 4 0.000000 0.000000 0.000000 0.096268 0.000000 0.024069
# 5 0.005914 0.006640 0.008042 0.000000 0.069328 0.000000
# 6 0.000000 0.000000 0.000000 0.024069 0.000000 0.048226
#
#
# Mechanical properties :
#
#
# Convention : Reuss Voigt Hill
#
# Bulk Modulus (GPa) = 33.95556 43.74007 38.84782
# Shear Modulus (GPa) = 16.17719 21.02155 18.59937
#
# Velocity S-wave (km/s) = 2.88864 3.29287 3.09736
# Velocity P-wave (km/s) = 5.35164 6.08429 5.72969
#
# Compressibility (1/GPa) = 0.02945026
#
# Stress axis : x y z
#
# Youngs Moduli (GPa) = 71.04250 48.49063 43.96465
#
# Poissons Ratio (x) = -0.01976 0.12569
# Poissons Ratio (y) = -0.02895 0.50760
# Poissons Ratio (z) = 0.20310 0.55985
#
# Static dielectric constant tensor:
#      x y z
#    x 3.509430 0.000000 -0.076730 
#    y 0.000000 3.663270 0.000000 
#    z -0.076730 0.000000 3.944160 
# 
# 
# High freq. dielectric constant tensor:
#      x y z
#    x 1.755590 0.000000 -0.001860 
#    y 0.000000 1.759750 0.000000 
#    z -0.001860 0.000000 1.768710 
# 
# From -- ./inp_files/257060.got.cif
#   From: 2010.06.25/outbox.cif.g09.slc.cpg/sg12_129_cif.got.tgz:257060.got - 2010.06.28 00:19:55.
