data_PCOD8108067
_publ_section_title
;
Structure prediction by ZEFSAII (Michael W. Deem and Ramdas Pophale) SiO2 
 PCOD8108067
Probable space group: C 2/M
;
_chemical_formula_sum "Si O2"
_cell_formula_units_Z 44
_cell_length_a 13.676037
_cell_length_b 10.101761
_cell_length_c 17.225605
_cell_angle_alpha 90.000000
_cell_angle_beta 110.437376
_cell_angle_gamma 90.000000
_cell_volume 2229.957812
_symmetry_space_group_name_H-M "C 2/M"
_symmetry_group_IT_number 12
_symmetry_cell_setting 'monoclinic'
loop_
_space_group_symop_operation_xyz
x,y,z
-x,y,-z
-x,-y,-z
x,-y,z
1/2+x,1/2+y,z
1/2-x,1/2+y,-z
1/2-x,1/2-y,-z
1/2+x,1/2-y,z
loop_
_atom_site_type_symbol
_atom_site_label
_atom_site_fract_x
_atom_site_fract_y
_atom_site_fract_z
Si Si1 0.396405 0.000000 0.072535
Si Si2 0.151491 0.251515 0.847346
Si Si3 0.779943 0.500000 0.892842
Si Si4 0.285600 0.851955 0.301241
Si Si5 0.448087 0.347501 0.402656
Si Si6 0.103458 0.500000 0.224713
Si Si7 0.065011 0.227171 0.283782
O O1 0.340620 0.868073 0.088257
O O2 0.513731 0.000000 0.135038
O O3 0.384530 0.000000 0.975431
O O4 0.203062 0.306375 0.783572
O O5 0.033325 0.200325 0.799589
O O6 0.214919 0.128798 0.898290
O O7 0.796120 0.500000 0.803844
O O8 0.346898 0.747509 0.372555
O O9 0.163602 0.862294 0.289094
O O10 0.332890 0.000000 0.324289
O O11 0.500000 0.332271 0.500000
O O12 0.414502 0.500000 0.377506
O O13 0.533139 0.300535 0.363380
O O14 0.100659 0.378351 0.282621
#
# Coordination Sequence:
#
# PCOD8108067 Si02
#       7
#     4   8   4   8   8   4   8
#     4  10  21  40  55  85 126 153 200 255 308 340
#     4  10  22  37  58  86 118 157 203 246 293 359
#     4  12  21  36  63  85 114 167 198 249 304 356
#     4  11  22  38  63  88 120 158 198 246 290 349
#     4  10  24  43  63  91 123 154 194 242 298 358
#     4  10  21  38  59  92 114 158 210 252 283 364
#     4  10  22  37  62  86 120 156 199 246 295 343
#
# _framework density 19.731316
#
# number of rings (size 3 to 8) (size 9 to 14) (size 15 to 20)
#    0.000    1.636    2.727    1.364   11.455    1.091 
#    0.000    0.000    0.000    1.091    0.000    0.000 
#    0.000    0.000    0.000    0.000    0.000    0.000 
#
# Total GULP energy -272752.208602 kJ/mol
# GULP energy per Si atom -12397.827664 kJ/mol
# Density = 1.968641 g / cm^3
# Si number density = 19.731316 Si / 1000 Ang^3
#
#
#
# Elastic Constant Matrix: (Units=GPa)
#
#
# Indices 1 2 3 4 5 6 
#
# 1 94.1471 27.8616 19.3754 0.0000 2.0276 0.0000
# 2 27.8616 146.3016 45.7506 0.0000 1.5150 0.0000
# 3 19.3754 45.7506 86.6119 0.0000 -5.0805 0.0000
# 4 0.0000 0.0000 0.0000 28.3885 0.0000 3.8025
# 5 2.0276 1.5150 -5.0805 0.0000 19.1016 0.0000
# 6 0.0000 0.0000 0.0000 3.8025 0.0000 31.0885
#
#
#
# Elastic Compliance Matrix: (Units=1/GPa)
#
#
# Indices 1 2 3 4 5 6 
#
# 1 0.011505 -0.001606 -0.001818 0.000000 -0.001577 0.000000
# 2 -0.001606 0.008475 -0.004213 0.000000 -0.001622 0.000000
# 3 -0.001818 -0.004213 0.014434 0.000000 0.004366 0.000000
# 4 0.000000 0.000000 0.000000 0.035812 0.000000 -0.004380
# 5 -0.001577 -0.001622 0.004366 0.000000 0.053809 0.000000
# 6 0.000000 0.000000 0.000000 -0.004380 0.000000 0.032702
#
#
# Mechanical properties :
#
#
# Convention : Reuss Voigt Hill
#
# Bulk Modulus (GPa) = 52.24478 57.00399 54.62438
# Shear Modulus (GPa) = 28.02834 31.32059 29.67446
#
# Velocity S-wave (km/s) = 3.77304 3.98848 3.88226
# Velocity P-wave (km/s) = 6.74661 7.08262 6.91665
#
# Compressibility (1/GPa) = 0.01914067
#
# Stress axis : x y z
#
# Youngs Moduli (GPa) = 86.91798 117.99061 69.28203
#
# Poissons Ratio (x) = 0.18952 0.12594
# Poissons Ratio (y) = 0.13961 0.29186
# Poissons Ratio (z) = 0.15800 0.49706
#
# Static dielectric constant tensor:
#      x y z
#    x 3.611910 0.000000 0.004080 
#    y 0.000000 3.797040 0.000000 
#    z 0.004080 0.000000 3.333430 
# 
# 
# High freq. dielectric constant tensor:
#      x y z
#    x 1.768620 0.000000 -0.000970 
#    y 0.000000 1.785860 0.000000 
#    z -0.000970 0.000000 1.752730 
# 
# From -- ./inp_files/267184.got.cif
#   From: 2010.06.25/outbox.cif.g09.slc.cpg/sg12_134_cif.got.tgz:267184.got - 2010.06.28 00:19:55.
