data_PCOD8108397
_publ_section_title
;
Structure prediction by ZEFSAII (Michael W. Deem and Ramdas Pophale) SiO2 
 PCOD8108397
Probable space group: C 2/M
;
_chemical_formula_sum "Si O2"
_cell_formula_units_Z 48
_cell_length_a 15.677337
_cell_length_b 8.943487
_cell_length_c 28.768652
_cell_angle_alpha 90.000000
_cell_angle_beta 144.527137
_cell_angle_gamma 90.000000
_cell_volume 2340.799442
_symmetry_space_group_name_H-M "C 2/M"
_symmetry_group_IT_number 12
_symmetry_cell_setting 'monoclinic'
loop_
_space_group_symop_operation_xyz
x,y,z
-x,y,-z
-x,-y,-z
x,-y,z
1/2+x,1/2+y,z
1/2-x,1/2+y,-z
1/2-x,1/2-y,-z
1/2+x,1/2-y,z
loop_
_atom_site_type_symbol
_atom_site_label
_atom_site_fract_x
_atom_site_fract_y
_atom_site_fract_z
Si Si1 0.670412 0.828430 0.674021
Si Si2 0.114126 0.176531 0.414327
Si Si3 0.173453 0.330556 0.846796
Si Si4 0.656671 0.175730 0.998592
Si Si5 0.388712 0.326170 0.693416
Si Si6 0.366551 0.667368 0.846042
O O1 0.534391 0.722345 0.625100
O O2 0.731430 0.798247 0.648919
O O3 0.807219 0.793797 0.768696
O O4 0.618393 0.000000 0.656603
O O5 0.250000 0.250000 0.500000
O O6 0.117228 0.231709 0.362193
O O7 0.130719 0.000000 0.424216
O O8 0.167188 0.500000 0.862840
O O9 0.289627 0.238022 0.928465
O O10 0.226463 0.322913 0.817381
O O11 0.011561 0.261678 0.777109
O O12 0.678808 0.000000 0.007632
O O13 0.750000 0.250000 0.000000
O O14 0.486627 0.213361 0.915165
O O15 0.431160 0.500000 0.713881
O O16 0.435342 0.500000 0.877939
#
# Coordination Sequence:
#
# PCOD8108397 Si02
#       6
#     8   8   8   8   8   8
#     4  10  21  41  66  92 124 164 205 254 313 372
#     4  11  24  42  65  94 127 163 205 256 311 375
#     4  11  22  38  62  91 123 162 207 256 311 373
#     4  12  25  39  57  84 121 165 213 264 311 364
#     4  10  22  40  65  94 126 166 211 256 310 375
#     4  10  21  38  61  89 123 163 205 253 313 376
#
# _framework density 20.505814000000001
#
# number of rings (size 3 to 8) (size 9 to 14) (size 15 to 20)
#    0.000    1.333    1.667    4.000    0.000    7.333 
#    0.000    3.333    0.000    0.000    0.000    0.000 
#    0.000    0.000    0.000    0.000    0.000    0.000 
#
# Total GULP energy -297705.744369 kJ/mol
# GULP energy per Si atom -12404.406015 kJ/mol
# Density = 2.045914 g / cm^3
# Si number density = 20.505814 Si / 1000 Ang^3
#
#
#
# Elastic Constant Matrix: (Units=GPa)
#
#
# Indices 1 2 3 4 5 6 
#
# 1 111.9011 36.8506 40.3257 0.0000 6.2146 0.0000
# 2 36.8506 111.1247 49.1382 0.0000 6.2158 0.0000
# 3 40.3257 49.1382 102.1277 0.0000 7.4677 0.0000
# 4 0.0000 0.0000 0.0000 38.0075 0.0000 6.0074
# 5 6.2146 6.2158 7.4677 0.0000 21.0150 0.0000
# 6 0.0000 0.0000 0.0000 6.0074 0.0000 34.4228
#
#
#
# Elastic Compliance Matrix: (Units=1/GPa)
#
#
# Indices 1 2 3 4 5 6 
#
# 1 0.010854 -0.002121 -0.003159 0.000000 -0.001460 0.000000
# 2 -0.002121 0.011889 -0.004796 0.000000 -0.001185 0.000000
# 3 -0.003159 -0.004796 0.013526 0.000000 -0.002454 0.000000
# 4 0.000000 0.000000 0.000000 0.027057 0.000000 -0.004722
# 5 -0.001460 -0.001185 -0.002454 0.000000 0.049239 0.000000
# 6 0.000000 0.000000 0.000000 -0.004722 0.000000 0.029875
#
#
# Mechanical properties :
#
#
# Convention : Reuss Voigt Hill
#
# Bulk Modulus (GPa) = 62.04358 64.19807 63.12082
# Shear Modulus (GPa) = 29.76809 31.94501 30.85655
#
# Velocity S-wave (km/s) = 3.81424 3.95124 3.88335
# Velocity P-wave (km/s) = 7.05125 7.22438 7.13834
#
# Compressibility (1/GPa) = 0.01611770
#
# Stress axis : x y z
#
# Youngs Moduli (GPa) = 92.12935 84.10796 73.93161
#
# Poissons Ratio (x) = 0.17840 0.23352
# Poissons Ratio (y) = 0.19542 0.35460
# Poissons Ratio (z) = 0.29100 0.40341
#
# Static dielectric constant tensor:
#      x y z
#    x 3.968220 0.000000 -0.059360 
#    y 0.000000 3.826650 0.000000 
#    z -0.059360 0.000000 3.734520 
# 
# 
# High freq. dielectric constant tensor:
#      x y z
#    x 1.815130 0.000000 -0.004500 
#    y 0.000000 1.800640 0.000000 
#    z -0.004500 0.000000 1.796400 
# 
# From -- ./inp_files/295339.got.cif
#   From: 2010.06.25/outbox.cif.g09.slc.cpg/sg12_148_cif.got.tgz:295339.got - 2010.06.28 00:19:55.
