data_PCOD8108464
_publ_section_title
;
Structure prediction by ZEFSAII (Michael W. Deem and Ramdas Pophale) SiO2 
 PCOD8108464
Probable space group: C 2/M
;
_chemical_formula_sum "Si O2"
_cell_formula_units_Z 64
_cell_length_a 27.915359
_cell_length_b 14.346070
_cell_length_c 9.321089
_cell_angle_alpha 90.000000
_cell_angle_beta 60.931167
_cell_angle_gamma 90.000000
_cell_volume 3262.664808
_symmetry_space_group_name_H-M "C 2/M"
_symmetry_group_IT_number 12
_symmetry_cell_setting 'monoclinic'
loop_
_space_group_symop_operation_xyz
x,y,z
-x,y,-z
-x,-y,-z
x,-y,z
1/2+x,1/2+y,z
1/2-x,1/2+y,-z
1/2-x,1/2-y,-z
1/2+x,1/2-y,z
loop_
_atom_site_type_symbol
_atom_site_label
_atom_site_fract_x
_atom_site_fract_y
_atom_site_fract_z
Si Si1 0.221331 0.607578 0.938024
Si Si2 0.509210 0.276782 0.827032
Si Si3 0.155936 0.392252 0.765066
Si Si4 0.126506 0.263321 0.551926
Si Si5 0.840553 0.892304 0.685957
Si Si6 0.630915 0.108049 0.276785
Si Si7 0.952037 0.892422 0.680204
Si Si8 0.444223 0.897000 0.883276
O O1 0.203116 0.500000 0.960265
O O2 0.201303 0.645845 0.812356
O O3 0.286285 0.622013 0.862452
O O4 0.188307 0.647776 0.123881
O O5 0.571610 0.287651 0.687100
O O6 0.464505 0.334515 0.803285
O O7 0.496185 0.167867 0.830970
O O8 0.500000 0.313995 0.000000
O O9 0.167057 0.500000 0.701367
O O10 0.158014 0.322479 0.626999
O O11 0.097051 0.383014 0.924854
O O12 0.163587 0.175906 0.445444
O O13 0.114219 0.332226 0.438183
O O14 0.893160 0.862436 0.702954
O O15 0.844910 0.000000 0.627975
O O16 0.584128 0.123362 0.227156
O O17 0.635884 0.000000 0.315562
O O18 0.000000 0.869172 0.500000
O O19 0.951483 0.000000 0.723685
O O20 0.468933 0.000000 0.848010
#
# Coordination Sequence:
#
# PCOD8108464 Si02
#       8
#     8   8   8   8   8   8   8   8
#     4   8  17  37  61  81 111 151 185 226 277 336
#     4  12  24  37  54  83 116 152 189 231 276 335
#     4   9  18  35  56  81 116 155 185 216 273 337
#     4  12  22  33  55  87 113 149 187 235 278 323
#     4  10  21  38  62  85 107 142 192 237 285 336
#     4   9  19  35  56  83 115 146 185 230 275 325
#     4  10  21  40  63  83 106 142 189 241 292 335
#     4   9  19  35  54  78 113 155 187 220 268 332
#
# _framework density 19.615866
#
# number of rings (size 3 to 8) (size 9 to 14) (size 15 to 20)
#    0.000    2.125    2.500    2.625    0.000    2.500 
#    0.000    1.250    2.750    0.000    0.000    0.000 
#    0.000    0.000    0.000    0.000    0.000    0.000 
#
# Total GULP energy -396730.843578 kJ/mol
# GULP energy per Si atom -12397.838862 kJ/mol
# Density = 1.957122 g / cm^3
# Si number density = 19.615866 Si / 1000 Ang^3
#
#
#
# Elastic Constant Matrix: (Units=GPa)
#
#
# Indices 1 2 3 4 5 6 
#
# 1 66.4366 9.1742 22.6813 0.0000 -0.7804 0.0000
# 2 9.1742 51.4988 27.4580 0.0000 15.3378 0.0000
# 3 22.6813 27.4580 91.0633 0.0000 13.0014 0.0000
# 4 0.0000 0.0000 0.0000 18.2454 0.0000 4.3634
# 5 -0.7804 15.3378 13.0014 0.0000 31.4334 0.0000
# 6 0.0000 0.0000 0.0000 4.3634 0.0000 21.9576
#
#
#
# Elastic Compliance Matrix: (Units=1/GPa)
#
#
# Indices 1 2 3 4 5 6 
#
# 1 0.016708 -0.001673 -0.004073 0.000000 0.002916 0.000000
# 2 -0.001673 0.025933 -0.005941 0.000000 -0.010238 0.000000
# 3 -0.004073 -0.005941 0.014228 0.000000 -0.003087 0.000000
# 4 0.000000 0.000000 0.000000 0.057543 0.000000 -0.011435
# 5 0.002916 -0.010238 -0.003087 0.000000 0.038158 0.000000
# 6 0.000000 0.000000 0.000000 -0.011435 0.000000 0.047815
#
#
# Mechanical properties :
#
#
# Convention : Reuss Voigt Hill
#
# Bulk Modulus (GPa) = 29.85615 36.40285 33.12950
# Shear Modulus (GPa) = 21.28349 24.30629 22.79489
#
# Velocity S-wave (km/s) = 3.29753 3.52392 3.41260
# Velocity P-wave (km/s) = 5.45451 5.92921 5.69681
#
# Compressibility (1/GPa) = 0.03349393
#
# Stress axis : x y z
#
# Youngs Moduli (GPa) = 59.85213 38.56132 70.28370
#
# Poissons Ratio (x) = 0.06452 0.28629
# Poissons Ratio (y) = 0.10014 0.41755
# Poissons Ratio (z) = 0.24379 0.22909
#
# Static dielectric constant tensor:
#      x y z
#    x 3.408970 0.000000 0.012030 
#    y 0.000000 3.573590 0.000000 
#    z 0.012030 0.000000 3.512250 
# 
# 
# High freq. dielectric constant tensor:
#      x y z
#    x 1.755220 0.000000 -0.002190 
#    y 0.000000 1.761670 0.000000 
#    z -0.002190 0.000000 1.756480 
# 
# From -- ./inp_files/104535.got.cif
#   From: 2010.06.25/outbox.cif.g09.slc.cpg/sg12_53_cif.got.tgz:104535.got - 2010.06.28 00:19:55.
