data_PCOD8108011
_publ_section_title
;
Structure prediction by ZEFSAII (Michael W. Deem and Ramdas Pophale) SiO2 
 PCOD8108011
Probable space group: C 2/M
;
_chemical_formula_sum "Si O2"
_cell_formula_units_Z 40
_cell_length_a 10.105644
_cell_length_b 9.085136
_cell_length_c 23.380638
_cell_angle_alpha 90.000000
_cell_angle_beta 108.932862
_cell_angle_gamma 90.000000
_cell_volume 2030.470784
_symmetry_space_group_name_H-M "C 2/M"
_symmetry_group_IT_number 12
_symmetry_cell_setting 'monoclinic'
loop_
_space_group_symop_operation_xyz
x,y,z
-x,y,-z
-x,-y,-z
x,-y,z
1/2+x,1/2+y,z
1/2-x,1/2+y,-z
1/2-x,1/2-y,-z
1/2+x,1/2-y,z
loop_
_atom_site_type_symbol
_atom_site_label
_atom_site_fract_x
_atom_site_fract_y
_atom_site_fract_z
Si Si1 0.287626 0.170738 0.670796
Si Si2 0.844495 0.172489 0.467425
Si Si3 0.383022 0.828874 0.136079
Si Si4 0.068597 0.172234 0.738192
Si Si5 0.564541 0.329611 0.068878
O O1 0.200691 0.216168 0.602728
O O2 0.194266 0.206762 0.712720
O O3 0.425972 0.268080 0.691433
O O4 0.330595 0.000000 0.675375
O O5 0.750000 0.250000 0.500000
O O6 0.000000 0.230886 0.500000
O O7 0.833968 0.000000 0.476322
O O8 0.394427 0.750919 0.198070
O O9 0.499173 0.765907 0.110054
O O10 0.229874 0.801018 0.088700
O O11 0.414529 0.000000 0.149444
O O12 0.050958 0.000000 0.746887
O O13 0.529806 0.500000 0.075910
O O14 0.500000 0.276588 0.000000
#
# Coordination Sequence:
#
# PCOD8108011 Si02
#       5
#     8   8   8   8   8
#     4  10  22  39  59  85 116 150 190 236 284 337
#     4  10  21  38  59  85 117 150 188 234 283 338
#     4  11  23  38  59  87 117 151 191 234 283 339
#     4  11  23  39  60  84 113 151 192 236 286 337
#     4  10  22  40  61  87 118 151 190 235 282 336
#
# _framework density 19.699864000000002
#
# number of rings (size 3 to 8) (size 9 to 14) (size 15 to 20)
#    0.000    1.600    0.000    4.200    0.000    9.600 
#    0.000    0.000    0.000    0.000    0.000    0.000 
#    0.000    0.000    0.000    0.000    0.000    0.000 
#
# Total GULP energy -248129.870322 kJ/mol
# GULP energy per Si atom -12406.493516 kJ/mol
# Density = 1.965503 g / cm^3
# Si number density = 19.699864 Si / 1000 Ang^3
#
#
#
# Elastic Constant Matrix: (Units=GPa)
#
#
# Indices 1 2 3 4 5 6 
#
# 1 72.1746 33.4709 6.5067 0.0000 -0.6633 0.0000
# 2 33.4709 71.0709 30.3465 0.0000 -4.8593 0.0000
# 3 6.5067 30.3465 100.5730 0.0000 -1.7157 0.0000
# 4 0.0000 0.0000 0.0000 28.2750 0.0000 -1.2894
# 5 -0.6633 -4.8593 -1.7157 0.0000 42.2967 0.0000
# 6 0.0000 0.0000 0.0000 -1.2894 0.0000 35.9927
#
#
#
# Elastic Compliance Matrix: (Units=1/GPa)
#
#
# Indices 1 2 3 4 5 6 
#
# 1 0.017968 -0.009194 0.001599 0.000000 -0.000710 0.000000
# 2 -0.009194 0.020973 -0.005699 0.000000 0.002034 0.000000
# 3 0.001599 -0.005699 0.011556 0.000000 -0.000161 0.000000
# 4 0.000000 0.000000 0.000000 0.035425 0.000000 0.001269
# 5 -0.000710 0.002034 -0.000161 0.000000 0.023859 0.000000
# 6 0.000000 0.000000 0.000000 0.001269 0.000000 0.027829
#
#
# Mechanical properties :
#
#
# Convention : Reuss Voigt Hill
#
# Bulk Modulus (GPa) = 41.82111 42.71851 42.26981
# Shear Modulus (GPa) = 29.04189 32.87917 30.96053
#
# Velocity S-wave (km/s) = 3.84372 4.08978 3.96866
# Velocity P-wave (km/s) = 6.40110 6.63577 6.51949
#
# Compressibility (1/GPa) = 0.02391137
#
# Stress axis : x y z
#
# Youngs Moduli (GPa) = 55.65426 47.68147 86.53283
#
# Poissons Ratio (x) = 0.43836 -0.13841
# Poissons Ratio (y) = 0.51166 0.49312
# Poissons Ratio (z) = -0.08902 0.27172
#
# Static dielectric constant tensor:
#      x y z
#    x 3.739280 0.000000 0.091140 
#    y 0.000000 3.604210 0.000000 
#    z 0.091140 0.000000 3.759040 
# 
# 
# High freq. dielectric constant tensor:
#      x y z
#    x 1.781270 0.000000 0.003420 
#    y 0.000000 1.768710 0.000000 
#    z 0.003420 0.000000 1.786800 
# 
# From -- ./inp_files/260969.got.cif
#   From: 2010.06.25/outbox.cif.g09.slc.cpg/sg12_131_cif.got.tgz:260969.got - 2010.06.28 00:19:55.
