data_PCOD8108621
_publ_section_title
;
Structure prediction by ZEFSAII (Michael W. Deem and Ramdas Pophale) SiO2 
 PCOD8108621
Probable space group: C 2/M
;
_chemical_formula_sum "Si O2"
_cell_formula_units_Z 36
_cell_length_a 14.760625
_cell_length_b 22.636359
_cell_length_c 7.984838
_cell_angle_alpha 90.000000
_cell_angle_beta 144.395021
_cell_angle_gamma 90.000000
_cell_volume 1553.262567
_symmetry_space_group_name_H-M "C 2/M"
_symmetry_group_IT_number 12
_symmetry_cell_setting 'monoclinic'
loop_
_space_group_symop_operation_xyz
x,y,z
-x,y,-z
-x,-y,-z
x,-y,z
1/2+x,1/2+y,z
1/2-x,1/2+y,-z
1/2-x,1/2-y,-z
1/2+x,1/2-y,z
loop_
_atom_site_type_symbol
_atom_site_label
_atom_site_fract_x
_atom_site_fract_y
_atom_site_fract_z
Si Si1 0.000000 0.147059 0.500000
Si Si2 0.035330 0.066136 0.866411
Si Si3 0.624355 0.185015 0.399366
Si Si4 0.217664 0.719970 0.181927
Si Si5 0.119459 0.435387 0.540414
O O1 0.972883 0.107694 0.624941
O O2 0.156572 0.187053 0.747914
O O3 0.960355 0.000000 0.737878
O O4 0.218609 0.061846 0.119999
O O5 0.000000 0.092008 0.000000
O O6 0.725496 0.211897 0.705693
O O7 0.716073 0.192993 0.364999
O O8 0.610648 0.114322 0.385577
O O9 0.455253 0.216930 0.154258
O O10 0.079894 0.500000 0.402596
O O11 0.000000 0.415510 0.500000
#
# Coordination Sequence:
#
# PCOD8108621 Si02
#       5
#     4   8   8   8   8
#     4  12  23  38  64 102 127 168 226 278 324 394
#     4  10  22  40  63  93 133 178 216 267 332 393
#     4  10  22  44  61  92 132 174 218 272 327 410
#     4  10  24  39  64  93 130 174 216 270 342 379
#     4  10  21  38  63  89 122 169 217 267 323 390
#
# _framework density 23.177022999999998
#
# number of rings (size 3 to 8) (size 9 to 14) (size 15 to 20)
#    0.000    1.778    0.000    3.000    4.667    0.889 
#    0.000    4.444    0.000    0.000    0.000    0.000 
#    0.000    0.000    0.000    0.000    0.000    0.000 
#
# Total GULP energy -223112.537431 kJ/mol
# GULP energy per Si atom -12395.140968 kJ/mol
# Density = 2.312427 g / cm^3
# Si number density = 23.177023 Si / 1000 Ang^3
#
#
#
# Elastic Constant Matrix: (Units=GPa)
#
#
# Indices 1 2 3 4 5 6 
#
# 1 106.4678 30.3047 2.2696 0.0000 3.2909 0.0000
# 2 30.3047 120.2385 12.7845 0.0000 -12.7458 0.0000
# 3 2.2696 12.7845 56.2855 0.0000 7.8032 0.0000
# 4 0.0000 0.0000 0.0000 -80.7125 0.0000 63.0654
# 5 3.2909 -12.7458 7.8032 0.0000 38.2059 0.0000
# 6 0.0000 0.0000 0.0000 63.0654 0.0000 -2.4168
#
#
#
# Elastic Compliance Matrix: (Units=1/GPa)
#
#
# Indices 1 2 3 4 5 6 
#
# 1 0.010250 -0.002842 0.000500 0.000000 -0.001933 0.000000
# 2 -0.002842 0.009744 -0.002658 0.000000 0.004038 0.000000
# 3 0.000500 -0.002658 0.019018 0.000000 -0.004814 0.000000
# 4 0.000000 0.000000 0.000000 0.000639 0.000000 0.016674
# 5 -0.001933 0.004038 -0.004814 0.000000 0.028671 0.000000
# 6 0.000000 0.000000 0.000000 0.016674 0.000000 0.021340
#
#
# Mechanical properties :
#
#
# Convention : Reuss Voigt Hill
#
# Bulk Modulus (GPa) = 34.46859 41.52327 37.99593
# Shear Modulus (GPa) = 45.73209 6.85752 26.29481
#
# Velocity S-wave (km/s) = 4.44685 1.72197 3.37192
# Velocity P-wave (km/s) = 6.42418 4.68062 5.62042
#
# Compressibility (1/GPa) = 0.02901192
#
# Stress axis : x y z
#
# Youngs Moduli (GPa) = 97.55701 102.63008 52.58280
#
# Poissons Ratio (x) = 0.29163 -0.02630
# Poissons Ratio (y) = 0.27722 0.13979
# Poissons Ratio (z) = -0.04879 0.27284
#
# Static dielectric constant tensor:
#      x y z
#    x 3.798940 0.000000 0.343730 
#    y 0.000000 4.414590 0.000000 
#    z 0.343730 0.000000 3.914660 
# 
# 
# High freq. dielectric constant tensor:
#      x y z
#    x 1.926700 0.000000 0.021300 
#    y 0.000000 1.924830 0.000000 
#    z 0.021300 0.000000 1.891600 
# 
# From -- ./inp_files/64139.got.cif
#   From: 2010.06.25/outbox.cif.g09.slc.cpg/sg12_33_cif.got.tgz:64139.got - 2010.06.28 00:19:55.
