data_PCOD8108349
_publ_section_title
;
Structure prediction by ZEFSAII (Michael W. Deem and Ramdas Pophale) SiO2 
 PCOD8108349
Probable space group: C 2/M
;
_chemical_formula_sum "Si O2"
_cell_formula_units_Z 56
_cell_length_a 11.594455
_cell_length_b 28.226889
_cell_length_c 13.685581
_cell_angle_alpha 90.000000
_cell_angle_beta 141.403030
_cell_angle_gamma 90.000000
_cell_volume 2794.142847
_symmetry_space_group_name_H-M "C 2/M"
_symmetry_group_IT_number 12
_symmetry_cell_setting 'monoclinic'
loop_
_space_group_symop_operation_xyz
x,y,z
-x,y,-z
-x,-y,-z
x,-y,z
1/2+x,1/2+y,z
1/2-x,1/2+y,-z
1/2-x,1/2-y,-z
1/2+x,1/2-y,z
loop_
_atom_site_type_symbol
_atom_site_label
_atom_site_fract_x
_atom_site_fract_y
_atom_site_fract_z
Si Si1 0.903470 0.236427 0.177796
Si Si2 0.297592 0.333197 0.699033
Si Si3 0.713660 0.898413 0.366364
Si Si4 0.601681 0.000000 0.211850
Si Si5 0.490853 0.170662 0.338490
Si Si6 0.492487 0.405764 0.273054
Si Si7 0.787849 0.340395 0.831852
Si Si8 0.206912 0.000000 0.870283
O O1 0.003318 0.284321 0.276260
O O2 0.822109 0.208895 0.219879
O O3 0.046493 0.206103 0.209386
O O4 0.750000 0.250000 0.000000
O O5 0.216449 0.335036 0.755141
O O6 0.379187 0.384995 0.727730
O O7 0.135404 0.319209 0.518809
O O8 0.663833 0.952187 0.306599
O O9 0.544391 0.877399 0.317343
O O10 0.903237 0.900803 0.553537
O O11 0.741796 0.861698 0.295691
O O12 0.705396 0.000000 0.178202
O O13 0.378924 0.000000 0.058557
O O14 0.298550 0.377857 0.149861
O O15 0.436276 0.458015 0.206938
O O16 0.000000 0.333603 0.000000
#
# Coordination Sequence:
#
# PCOD8108349 Si02
#       8
#     8   8   8   4   8   8   8   4
#     4  11  24  38  59  86 119 161 203 251 297 367
#     4   9  22  43  59  86 116 160 204 250 302 352
#     4  11  22  38  62  93 118 157 200 253 300 358
#     4  11  23  37  62  91 129 153 198 237 309 368
#     4  10  22  41  64  82 120 158 204 255 296 356
#     4  10  21  38  61  88 120 156 200 246 301 355
#     4  11  22  36  55  85 124 155 194 244 300 358
#     4  11  21  37  60  91 123 161 186 247 303 364
#
# _framework density 20.041926
#
# number of rings (size 3 to 8) (size 9 to 14) (size 15 to 20)
#    0.000    1.571    1.429    3.000    4.000    1.714 
#    5.143    0.714    0.000    4.286    0.000    0.000 
#    0.000    0.000    0.000    0.000    0.000    0.000 
#
# Total GULP energy -347096.114209 kJ/mol
# GULP energy per Si atom -12396.289793 kJ/mol
# Density = 1.999631 g / cm^3
# Si number density = 20.041926 Si / 1000 Ang^3
#
#
#
# Elastic Constant Matrix: (Units=GPa)
#
#
# Indices 1 2 3 4 5 6 
#
# 1 95.8700 38.4971 29.5176 0.0000 17.4893 0.0000
# 2 38.4971 122.4323 31.0230 0.0000 8.3768 0.0000
# 3 29.5176 31.0230 41.4597 0.0000 19.2895 0.0000
# 4 0.0000 0.0000 0.0000 5.7724 0.0000 13.7345
# 5 17.4893 8.3768 19.2895 0.0000 29.0219 0.0000
# 6 0.0000 0.0000 0.0000 13.7345 0.0000 24.7477
#
#
#
# Elastic Compliance Matrix: (Units=1/GPa)
#
#
# Indices 1 2 3 4 5 6 
#
# 1 0.014086 -0.002538 -0.006545 0.000000 -0.003406 0.000000
# 2 -0.002538 0.010725 -0.007948 0.000000 0.003716 0.000000
# 3 -0.006545 -0.007948 0.046071 0.000000 -0.024383 0.000000
# 4 0.000000 0.000000 0.000000 -0.540530 0.000000 0.299984
# 5 -0.003406 0.003716 -0.024383 0.000000 0.051643 0.000000
# 6 0.000000 0.000000 0.000000 0.299984 0.000000 -0.126078
#
#
# Mechanical properties :
#
#
# Convention : Reuss Voigt Hill
#
# Bulk Modulus (GPa) = 27.15802 50.87080 39.01441
# Shear Modulus (GPa) = -10.04525 22.62337 6.28906
#
# Velocity S-wave (km/s) = -2.24121 3.36341 1.77335
# Velocity P-wave (km/s) = 2.62349 6.36558 4.86844
#
# Compressibility (1/GPa) = 0.03682154
#
# Stress axis : x y z
#
# Youngs Moduli (GPa) = 70.99027 93.23751 21.70557
#
# Poissons Ratio (x) = 0.23661 0.14207
# Poissons Ratio (y) = 0.18015 0.17251
# Poissons Ratio (z) = 0.46466 0.74101
#
# Static dielectric constant tensor:
#      x y z
#    x 4.780530 0.000000 0.020360 
#    y 0.000000 3.837310 0.000000 
#    z 0.020360 0.000000 3.660480 
# 
# 
# High freq. dielectric constant tensor:
#      x y z
#    x 1.777510 0.000000 0.017070 
#    y 0.000000 1.787240 0.000000 
#    z 0.017070 0.000000 1.783100 
# 
# From -- ./inp_files/91576.got.cif
#   From: 2010.06.25/outbox.cif.g09.slc.cpg/sg12_46_cif.got.tgz:91576.got - 2010.06.28 00:19:55.
