data_PCOD8109713
_publ_section_title
;
Structure prediction by ZEFSAII (Michael W. Deem and Ramdas Pophale) SiO2 
 PCOD8109713
Probable space group: C 2/M
;
_chemical_formula_sum "Si O2"
_cell_formula_units_Z 36
_cell_length_a 22.413805
_cell_length_b 13.110809
_cell_length_c 6.340462
_cell_angle_alpha 90.000000
_cell_angle_beta 71.472715
_cell_angle_gamma 90.000000
_cell_volume 1766.661371
_symmetry_space_group_name_H-M "C 2/M"
_symmetry_group_IT_number 12
_symmetry_cell_setting 'monoclinic'
loop_
_space_group_symop_operation_xyz
x,y,z
-x,y,-z
-x,-y,-z
x,-y,z
1/2+x,1/2+y,z
1/2-x,1/2+y,-z
1/2-x,1/2-y,-z
1/2+x,1/2-y,z
loop_
_atom_site_type_symbol
_atom_site_label
_atom_site_fract_x
_atom_site_fract_y
_atom_site_fract_z
Si Si1 0.287873 0.788538 0.154734
Si Si2 0.000000 0.310862 0.000000
Si Si3 0.937794 0.786678 0.446795
Si Si4 0.901899 0.613682 0.800921
Si Si5 0.683116 0.616758 0.556776
O O1 0.316841 0.691062 0.242134
O O2 0.243838 0.857765 0.349538
O O3 0.250000 0.750000 0.000000
O O4 0.343205 0.860034 0.012466
O O5 0.045958 0.238422 0.813358
O O6 0.963299 0.381976 0.878141
O O7 0.909422 0.687170 0.592816
O O8 0.881681 0.869412 0.504130
O O9 0.000000 0.828288 0.500000
O O10 0.894361 0.500000 0.718586
O O11 0.687460 0.500000 0.628366
#
# Coordination Sequence:
#
# PCOD8109713 Si02
#       5
#     8   4   8   8   8
#     4  11  23  44  63  93 127 161 208 261 304 374
#     4  10  21  40  61  88 128 162 203 264 303 366
#     4  10  22  41  63  92 129 159 209 258 304 371
#     4  11  22  38  64  92 123 164 204 254 316 368
#     4  11  24  43  67  93 125 167 208 256 315 370
#
# _framework density 20.377419
#
# number of rings (size 3 to 8) (size 9 to 14) (size 15 to 20)
#    0.000    1.333    4.444    1.000    0.000    7.111 
#    0.000    0.556    0.000    0.000    0.000    0.000 
#    0.000    0.000    0.000    0.000    0.000    0.000 
#
# Total GULP energy -223223.272134 kJ/mol
# GULP energy per Si atom -12401.292896 kJ/mol
# Density = 2.033104 g / cm^3
# Si number density = 20.377419 Si / 1000 Ang^3
#
#
#
# Elastic Constant Matrix: (Units=GPa)
#
#
# Indices 1 2 3 4 5 6 
#
# 1 103.4759 42.8286 19.1688 0.0000 -10.4192 0.0000
# 2 42.8286 103.7489 18.4731 0.0000 -2.4046 0.0000
# 3 19.1688 18.4731 89.9722 0.0000 -9.6657 0.0000
# 4 0.0000 0.0000 0.0000 25.3409 0.0000 1.1563
# 5 -10.4192 -2.4046 -9.6657 0.0000 36.4350 0.0000
# 6 0.0000 0.0000 0.0000 1.1563 0.0000 21.7026
#
#
#
# Elastic Compliance Matrix: (Units=1/GPa)
#
#
# Indices 1 2 3 4 5 6 
#
# 1 0.012142 -0.004713 -0.001317 0.000000 0.002812 0.000000
# 2 -0.004713 0.011834 -0.001530 0.000000 -0.000973 0.000000
# 3 -0.001317 -0.001530 0.012000 0.000000 0.002706 0.000000
# 4 0.000000 0.000000 0.000000 0.039558 0.000000 -0.002108
# 5 0.002812 -0.000973 0.002706 0.000000 0.028904 0.000000
# 6 0.000000 0.000000 0.000000 -0.002108 0.000000 0.046190
#
#
# Mechanical properties :
#
#
# Convention : Reuss Voigt Hill
#
# Bulk Modulus (GPa) = 47.94819 50.90423 49.42621
# Shear Modulus (GPa) = 28.95211 31.14415 30.04813
#
# Velocity S-wave (km/s) = 3.77343 3.91367 3.84419
# Velocity P-wave (km/s) = 6.52428 6.74221 6.63414
#
# Compressibility (1/GPa) = 0.02085584
#
# Stress axis : x y z
#
# Youngs Moduli (GPa) = 82.36067 84.50254 83.33310
#
# Poissons Ratio (x) = 0.39822 0.10977
# Poissons Ratio (y) = 0.38813 0.12752
# Poissons Ratio (z) = 0.10848 0.12931
#
# Static dielectric constant tensor:
#      x y z
#    x 4.028690 0.000000 -0.158800 
#    y 0.000000 3.328890 0.000000 
#    z -0.158800 0.000000 3.746770 
# 
# 
# High freq. dielectric constant tensor:
#      x y z
#    x 1.817000 0.000000 -0.009770 
#    y 0.000000 1.769860 0.000000 
#    z -0.009770 0.000000 1.804660 
# 
# From -- ./inp_files/27328.got.cif
#   From: 2010.06.25/outbox.cif.g09.slc.cpg/sg12_14_cif.got.tgz:27328.got - 2010.06.28 00:19:55.
