data_PCOD8109843
_publ_section_title
;
Structure prediction by ZEFSAII (Michael W. Deem and Ramdas Pophale) SiO2 
 PCOD8109843
Probable space group: C 2/M
;
_chemical_formula_sum "Si O2"
_cell_formula_units_Z 64
_cell_length_a 9.631740
_cell_length_b 26.280389
_cell_length_c 12.742585
_cell_angle_alpha 90.000000
_cell_angle_beta 95.438179
_cell_angle_gamma 90.000000
_cell_volume 3210.960200
_symmetry_space_group_name_H-M "C 2/M"
_symmetry_group_IT_number 12
_symmetry_cell_setting 'monoclinic'
loop_
_space_group_symop_operation_xyz
x,y,z
-x,y,-z
-x,-y,-z
x,-y,z
1/2+x,1/2+y,z
1/2-x,1/2+y,-z
1/2-x,1/2-y,-z
1/2+x,1/2-y,z
loop_
_atom_site_type_symbol
_atom_site_label
_atom_site_fract_x
_atom_site_fract_y
_atom_site_fract_z
Si Si1 0.538457 0.442856 0.726296
Si Si2 0.409910 0.362356 0.583602
Si Si3 0.389160 0.118166 0.405520
Si Si4 0.048746 0.799652 0.212806
Si Si5 0.769896 0.347452 0.083087
Si Si6 0.268169 0.055908 0.214025
Si Si7 0.778966 0.141734 0.163088
Si Si8 0.012698 0.315859 0.236914
O O1 0.593866 0.500000 0.705852
O O2 0.502562 0.412978 0.615799
O O3 0.396658 0.445471 0.780974
O O4 0.651835 0.412774 0.805077
O O5 0.500000 0.333674 0.500000
O O6 0.251040 0.371306 0.536425
O O7 0.386397 0.330396 0.686556
O O8 0.500000 0.100647 0.500000
O O9 0.354275 0.072385 0.323490
O O10 0.442489 0.167208 0.342247
O O11 0.130665 0.818963 0.115037
O O12 0.885733 0.812294 0.192473
O O13 0.071473 0.741143 0.243018
O O14 0.793057 0.404989 0.122851
O O15 0.902906 0.316012 0.133219
O O16 0.768391 0.351973 0.959265
O O17 0.321933 0.000000 0.185039
O O18 0.643077 0.146987 0.225879
#
# Coordination Sequence:
#
# PCOD8109843 Si02
#       8
#     8   8   8   8   8   8   8   8
#     4   9  19  38  61  89 118 149 194 246 290 343
#     4  10  21  40  64  87 117 153 193 244 295 343
#     4  10  22  40  61  87 122 151 193 241 292 358
#     4  11  22  40  60  86 118 156 202 245 282 343
#     4  11  21  41  57  88 123 153 199 243 288 345
#     4   9  18  38  64  85 116 155 192 241 296 342
#     4  11  23  35  63  89 117 157 198 241 288 347
#     4  11  24  40  58  84 124 159 191 241 298 342
#
# _framework density 19.931733000000001
#
# number of rings (size 3 to 8) (size 9 to 14) (size 15 to 20)
#    0.000    1.750    5.000    1.500    3.500    4.500 
#    0.000    5.000    0.000    3.750    0.000    0.000 
#    0.000    0.000    0.000    0.000    0.000    0.000 
#
# Total GULP energy -396660.693083 kJ/mol
# GULP energy per Si atom -12395.646659 kJ/mol
# Density = 1.988637 g / cm^3
# Si number density = 19.931733 Si / 1000 Ang^3
#
#
#
# Elastic Constant Matrix: (Units=GPa)
#
#
# Indices 1 2 3 4 5 6 
#
# 1 101.1588 19.0611 25.6634 0.0000 0.9484 0.0000
# 2 19.0611 119.1381 9.7970 0.0000 -3.4731 0.0000
# 3 25.6634 9.7970 53.4134 0.0000 1.4359 0.0000
# 4 0.0000 0.0000 0.0000 6.3458 0.0000 2.4886
# 5 0.9484 -3.4731 1.4359 0.0000 32.4118 0.0000
# 6 0.0000 0.0000 0.0000 2.4886 0.0000 16.5000
#
#
#
# Elastic Compliance Matrix: (Units=1/GPa)
#
#
# Indices 1 2 3 4 5 6 
#
# 1 0.011487 -0.001413 -0.005253 0.000000 -0.000255 0.000000
# 2 -0.001413 0.008727 -0.000949 0.000000 0.001019 0.000000
# 3 -0.005253 -0.000949 0.021444 0.000000 -0.000898 0.000000
# 4 0.000000 0.000000 0.000000 0.167492 0.000000 -0.025262
# 5 -0.000255 0.001019 -0.000898 0.000000 0.031009 0.000000
# 6 0.000000 0.000000 0.000000 -0.025262 0.000000 0.064416
#
#
# Mechanical properties :
#
#
# Convention : Reuss Voigt Hill
#
# Bulk Modulus (GPa) = 37.83929 42.52813 40.18371
# Shear Modulus (GPa) = 15.21532 25.66411 20.43972
#
# Velocity S-wave (km/s) = 2.76592 3.59221 3.20580
# Velocity P-wave (km/s) = 5.40611 6.21196 5.82299
#
# Compressibility (1/GPa) = 0.02642756
#
# Stress axis : x y z
#
# Youngs Moduli (GPa) = 87.05661 114.58072 46.63308
#
# Poissons Ratio (x) = 0.16193 0.24496
# Poissons Ratio (y) = 0.12303 0.04426
# Poissons Ratio (z) = 0.45730 0.10875
#
# Static dielectric constant tensor:
#      x y z
#    x 3.656970 0.000000 0.101080 
#    y 0.000000 3.821090 0.000000 
#    z 0.101080 0.000000 3.439640 
# 
# 
# High freq. dielectric constant tensor:
#      x y z
#    x 1.784950 0.000000 0.007900 
#    y 0.000000 1.766670 0.000000 
#    z 0.007900 0.000000 1.765660 
# 
# From -- ./inp_files/199864.got.cif
#   From: 2010.06.25/outbox.cif.g09.slc.cpg/sg12_100_cif.got.tgz:199864.got - 2010.06.28 00:19:55.
