data_PCOD8109061
_publ_section_title
;
Structure prediction by ZEFSAII (Michael W. Deem and Ramdas Pophale) SiO2 
 PCOD8109061
Probable space group: C 2/M
;
_chemical_formula_sum "Si O2"
_cell_formula_units_Z 60
_cell_length_a 8.411973
_cell_length_b 17.852672
_cell_length_c 19.790287
_cell_angle_alpha 90.000000
_cell_angle_beta 98.119758
_cell_angle_gamma 90.000000
_cell_volume 2942.235426
_symmetry_space_group_name_H-M "C 2/M"
_symmetry_group_IT_number 12
_symmetry_cell_setting 'monoclinic'
loop_
_space_group_symop_operation_xyz
x,y,z
-x,y,-z
-x,-y,-z
x,-y,z
1/2+x,1/2+y,z
1/2-x,1/2+y,-z
1/2-x,1/2-y,-z
1/2+x,1/2-y,z
loop_
_atom_site_type_symbol
_atom_site_label
_atom_site_fract_x
_atom_site_fract_y
_atom_site_fract_z
Si Si1 0.253525 0.416067 0.191513
Si Si2 0.657730 0.209142 0.281534
Si Si3 0.418005 0.782155 0.377283
Si Si4 0.500000 0.334589 0.500000
Si Si5 0.479067 0.304998 0.159550
Si Si6 0.762177 0.784657 0.926072
Si Si7 0.465721 0.083860 0.073055
Si Si8 0.182474 0.588190 0.539604
O O1 0.272191 0.500000 0.218111
O O2 0.184548 0.371517 0.250788
O O3 0.432042 0.389068 0.179359
O O4 0.131065 0.408662 0.122293
O O5 0.581223 0.192982 0.350579
O O6 0.825921 0.247295 0.308150
O O7 0.567717 0.264403 0.225296
O O8 0.457030 0.720086 0.435845
O O9 0.319261 0.855100 0.397110
O O10 0.661677 0.385425 0.495988
O O11 0.303807 0.269666 0.136315
O O12 0.557679 0.299988 0.089162
O O13 0.670867 0.862207 0.907988
O O14 0.750000 0.750000 0.000000
O O15 0.396300 0.000000 0.071715
O O16 0.500000 0.110884 0.000000
O O17 0.206588 0.500000 0.559676
O O18 0.000000 0.599715 0.500000
#
# Coordination Sequence:
#
# PCOD8109061 Si02
#       8
#     8   8   8   4   8   8   8   8
#     4  11  24  43  65  94 132 175 220 275 340 397
#     4  12  23  41  66  94 126 178 218 276 322 399
#     4  12  23  42  72  95 130 176 231 266 332 407
#     4  12  23  46  71 104 138 186 224 284 345 410
#     4  12  22  40  61  90 131 165 217 272 325 394
#     4  12  22  36  64  95 123 166 223 270 326 398
#     4  10  21  39  61  89 127 167 212 271 336 392
#     4  11  24  43  69 107 143 173 221 287 348 407
#
# _framework density 20.392655999999999
#
# number of rings (size 3 to 8) (size 9 to 14) (size 15 to 20)
#    0.000    0.533    6.000    3.400    0.000    1.067 
#    0.000    3.333    0.000    4.000    0.000    0.000 
#    0.000    0.000    0.000    0.000    0.000    0.000 
#
# Total GULP energy -371689.301064 kJ/mol
# GULP energy per Si atom -12389.643369 kJ/mol
# Density = 2.034624 g / cm^3
# Si number density = 20.392656 Si / 1000 Ang^3
#
#
#
# Elastic Constant Matrix: (Units=GPa)
#
#
# Indices 1 2 3 4 5 6 
#
# 1 106.4529 48.6396 29.7613 0.0000 -17.1528 0.0000
# 2 48.6396 146.0331 45.6139 0.0000 -2.8273 0.0000
# 3 29.7613 45.6139 94.1838 0.0000 -0.0378 0.0000
# 4 0.0000 0.0000 0.0000 80.1581 0.0000 -6.2848
# 5 -17.1528 -2.8273 -0.0378 0.0000 37.6198 0.0000
# 6 0.0000 0.0000 0.0000 -6.2848 0.0000 34.6620
#
#
#
# Elastic Compliance Matrix: (Units=1/GPa)
#
#
# Indices 1 2 3 4 5 6 
#
# 1 0.012428 -0.003309 -0.002322 0.000000 0.005415 0.000000
# 2 -0.003309 0.008963 -0.003296 0.000000 -0.000838 0.000000
# 3 -0.002322 -0.003296 0.012947 0.000000 -0.001293 0.000000
# 4 0.000000 0.000000 0.000000 0.012655 0.000000 0.002295
# 5 0.005415 -0.000838 -0.001293 0.000000 0.028987 0.000000
# 6 0.000000 0.000000 0.000000 0.002295 0.000000 0.029266
#
#
# Mechanical properties :
#
#
# Convention : Reuss Voigt Hill
#
# Bulk Modulus (GPa) = 60.66570 66.07772 63.37171
# Shear Modulus (GPa) = 38.88211 45.33165 42.10688
#
# Velocity S-wave (km/s) = 4.37128 4.71992 4.54894
# Velocity P-wave (km/s) = 7.43578 7.88521 7.66379
#
# Compressibility (1/GPa) = 0.01648378
#
# Stress axis : x y z
#
# Youngs Moduli (GPa) = 80.46603 111.56883 77.23863
#
# Poissons Ratio (x) = 0.36919 0.17937
# Poissons Ratio (y) = 0.26627 0.25455
# Poissons Ratio (z) = 0.18686 0.36768
#
# Static dielectric constant tensor:
#      x y z
#    x 3.663430 0.000000 0.223720 
#    y 0.000000 3.925520 0.000000 
#    z 0.223720 0.000000 3.402980 
# 
# 
# High freq. dielectric constant tensor:
#      x y z
#    x 1.810620 0.000000 -0.003990 
#    y 0.000000 1.796730 0.000000 
#    z -0.003990 0.000000 1.798170 
# 
# From -- ./inp_files/300829.got.cif
#   From: 2010.06.25/outbox.cif.g09.slc.cpg/sg12_151_cif.got.tgz:300829.got - 2010.06.28 00:19:55.
