data_PCOD8109943
_publ_section_title
;
Structure prediction by ZEFSAII (Michael W. Deem and Ramdas Pophale) SiO2 
 PCOD8109943
Probable space group: C 2/M
;
_chemical_formula_sum "Si O2"
_cell_formula_units_Z 64
_cell_length_a 19.203379
_cell_length_b 8.645864
_cell_length_c 30.168285
_cell_angle_alpha 90.000000
_cell_angle_beta 38.391048
_cell_angle_gamma 90.000000
_cell_volume 3110.613034
_symmetry_space_group_name_H-M "C 2/M"
_symmetry_group_IT_number 12
_symmetry_cell_setting 'monoclinic'
loop_
_space_group_symop_operation_xyz
x,y,z
-x,y,-z
-x,-y,-z
x,-y,z
1/2+x,1/2+y,z
1/2-x,1/2+y,-z
1/2-x,1/2-y,-z
1/2+x,1/2-y,z
loop_
_atom_site_type_symbol
_atom_site_label
_atom_site_fract_x
_atom_site_fract_y
_atom_site_fract_z
Si Si1 0.965410 0.175998 0.215492
Si Si2 0.935131 0.179429 0.987765
Si Si3 0.411016 0.317414 0.508698
Si Si4 0.976028 0.183326 0.378559
Si Si5 0.828382 0.180238 0.369952
Si Si6 0.292616 0.324184 0.874717
Si Si7 0.902472 0.321894 0.158869
Si Si8 0.815345 0.679899 0.770423
O O1 0.916466 0.222764 0.287662
O O2 0.915406 0.292304 0.204513
O O3 0.099580 0.193064 0.147810
O O4 0.931385 0.000000 0.220738
O O5 0.803976 0.213573 0.058724
O O6 0.951563 0.000000 0.968438
O O7 0.000000 0.226744 0.000000
O O8 0.982471 0.280316 0.923714
O O9 0.500000 0.248736 0.500000
O O10 0.417491 0.500000 0.506523
O O11 0.438805 0.257634 0.445463
O O12 0.286320 0.267344 0.583608
O O13 0.092686 0.267953 0.310931
O O14 0.881788 0.235087 0.389996
O O15 0.995539 0.000000 0.366799
O O16 0.801476 0.000000 0.384989
O O17 0.248363 0.500000 0.895936
O O18 0.332215 0.278134 0.806158
O O19 0.870658 0.500000 0.166939
O O20 0.807017 0.210719 0.187881
O O21 0.827025 0.500000 0.775772
#
# Coordination Sequence:
#
# PCOD8109943 Si02
#       8
#     8   8   8   8   8   8   8   8
#     4  10  23  43  64  92 129 164 206 261 316 370
#     4  11  23  40  64  94 127 164 209 262 312 367
#     4  10  23  40  60  92 129 163 206 259 311 366
#     4  10  21  41  64  89 125 168 211 255 310 372
#     4  10  21  40  65  90 122 166 209 254 309 369
#     4  11  22  41  68  94 126 167 209 256 314 375
#     4  12  26  42  64  92 125 168 212 257 317 378
#     4  12  24  39  63  95 127 162 211 264 313 369
#
# _framework density 20.574722999999999
#
# number of rings (size 3 to 8) (size 9 to 14) (size 15 to 20)
#    0.000    1.250    2.500    3.375    1.750    3.750 
#    0.000    0.000    0.000    0.000    0.000    0.000 
#    0.000    0.000    0.000    0.000    0.000    0.000 
#
# Total GULP energy -397000.671587 kJ/mol
# GULP energy per Si atom -12406.270987 kJ/mol
# Density = 2.052789 g / cm^3
# Si number density = 20.574723 Si / 1000 Ang^3
#
#
#
# Elastic Constant Matrix: (Units=GPa)
#
#
# Indices 1 2 3 4 5 6 
#
# 1 87.8464 26.9796 32.3687 0.0053 12.4189 0.0286
# 2 26.9796 47.9981 14.0532 0.0025 -0.1257 0.0117
# 3 32.3687 14.0532 99.7940 0.0021 -7.0443 0.0036
# 4 0.0053 0.0025 0.0021 32.7803 -0.0021 -2.4214
# 5 12.4189 -0.1257 -7.0443 -0.0021 32.9739 0.0015
# 6 0.0286 0.0117 0.0036 -2.4214 0.0015 26.1946
#
#
#
# Elastic Compliance Matrix: (Units=1/GPa)
#
#
# Indices 1 2 3 4 5 6 
#
# 1 0.016628 -0.007964 -0.004788 -0.000003 -0.007316 -0.000014
# 2 -0.007964 0.025555 -0.000809 -0.000001 0.002924 -0.000003
# 3 -0.004788 -0.000809 0.011996 0.000001 0.004363 0.000004
# 4 -0.000003 -0.000001 0.000001 0.030716 0.000003 0.002839
# 5 -0.007316 0.002924 0.004363 0.000003 0.034026 0.000004
# 6 -0.000014 -0.000003 0.000004 0.002839 0.000004 0.038438
#
#
# Mechanical properties :
#
#
# Convention : Reuss Voigt Hill
#
# Bulk Modulus (GPa) = 36.96011 42.49351 39.72681
# Shear Modulus (GPa) = 25.83981 29.20555 27.52268
#
# Velocity S-wave (km/s) = 3.54771 3.77170 3.66142
# Velocity P-wave (km/s) = 5.89784 6.29807 6.10124
#
# Compressibility (1/GPa) = 0.02705620
#
# Stress axis : x y z
#
# Youngs Moduli (GPa) = 60.13972 39.13102 83.36321
#
# Poissons Ratio (x) = 0.31163 0.39917
# Poissons Ratio (y) = 0.47894 0.06746
# Poissons Ratio (z) = 0.28797 0.03167
#
# Static dielectric constant tensor:
#      x y z
#    x 3.795610 -0.000030 0.069390 
#    y -0.000030 3.556440 0.000010 
#    z 0.069390 0.000010 3.749610 
# 
# 
# High freq. dielectric constant tensor:
#      x y z
#    x 1.807140 0.000000 -0.002010 
#    y 0.000000 1.797650 0.000000 
#    z -0.002010 0.000000 1.813250 
# 
# From -- ./inp_files/378246.got.cif
#   From: 2010.06.25/outbox.cif.g09.slc.cpg/sg12_190_cif.got.tgz:378246.got - 2010.06.28 00:19:55.
