data_PCOD8109832
_publ_section_title
;
Structure prediction by ZEFSAII (Michael W. Deem and Ramdas Pophale) SiO2 
 PCOD8109832
Probable space group: C 2/M
;
_chemical_formula_sum "Si O2"
_cell_formula_units_Z 48
_cell_length_a 20.408753
_cell_length_b 8.682396
_cell_length_c 18.751165
_cell_angle_alpha 90.000000
_cell_angle_beta 39.480301
_cell_angle_gamma 90.000000
_cell_volume 2112.582326
_symmetry_space_group_name_H-M "C 2/M"
_symmetry_group_IT_number 12
_symmetry_cell_setting 'monoclinic'
loop_
_space_group_symop_operation_xyz
x,y,z
-x,y,-z
-x,-y,-z
x,-y,z
1/2+x,1/2+y,z
1/2-x,1/2+y,-z
1/2-x,1/2-y,-z
1/2+x,1/2-y,z
loop_
_atom_site_type_symbol
_atom_site_label
_atom_site_fract_x
_atom_site_fract_y
_atom_site_fract_z
Si Si1 0.229868 0.683833 0.739885
Si Si2 0.141419 0.818321 0.112883
Si Si3 0.856625 0.669224 0.416135
Si Si4 0.625014 0.182419 0.280553
Si Si5 0.573133 0.679489 0.511299
Si Si6 0.533332 0.170328 0.823695
O O1 0.230874 0.500000 0.744179
O O2 0.261497 0.759881 0.789290
O O3 0.319080 0.744822 0.610562
O O4 0.114188 0.738638 0.814816
O O5 0.105058 0.740616 0.217084
O O6 0.062300 0.781224 0.114150
O O7 0.148928 0.000000 0.116756
O O8 0.250000 0.750000 0.000000
O O9 0.846867 0.500000 0.459816
O O10 0.750000 0.750000 0.500000
O O11 0.928994 0.776463 0.403358
O O12 0.898884 0.650016 0.302535
O O13 0.541985 0.250464 0.410330
O O14 0.616396 0.000000 0.287579
O O15 0.565223 0.500000 0.504487
O O16 0.493034 0.000000 0.881336
#
# Coordination Sequence:
#
# PCOD8109832 Si02
#       6
#     8   8   8   8   8   8
#     4  10  22  40  61  90 131 174 210 249 305 369
#     4  12  26  46  72  96 120 156 204 260 319 374
#     4  11  20  32  54  86 126 167 209 256 303 361
#     4  12  25  41  61  92 130 167 211 260 309 366
#     4  11  21  36  58  88 126 173 217 254 302 364
#     4  10  21  40  63  91 126 163 206 258 311 368
#
# _framework density 22.72101
#
# number of rings (size 3 to 8) (size 9 to 14) (size 15 to 20)
#    0.000    1.000    3.333    4.500    0.000    4.667 
#    0.000    0.833    0.000    5.000    0.000    0.000 
#    0.000    0.000    0.000    0.000    0.000    0.000 
#
# Total GULP energy -297387.740719 kJ/mol
# GULP energy per Si atom -12391.155863 kJ/mol
# Density = 2.266930 g / cm^3
# Si number density = 22.721010 Si / 1000 Ang^3
#
#
#
# Elastic Constant Matrix: (Units=GPa)
#
#
# Indices 1 2 3 4 5 6 
#
# 1 127.1310 31.9718 18.8398 0.0000 -40.1743 0.0000
# 2 31.9718 103.6954 27.8061 -0.0003 -20.7520 0.0002
# 3 18.8398 27.8061 75.1324 0.0000 -25.9738 0.0000
# 4 0.0000 -0.0003 0.0000 26.6354 0.0001 -5.3226
# 5 -40.1743 -20.7520 -25.9738 0.0001 33.3001 0.0000
# 6 0.0000 0.0002 0.0000 -5.3226 0.0000 37.2616
#
#
#
# Elastic Compliance Matrix: (Units=1/GPa)
#
#
# Indices 1 2 3 4 5 6 
#
# 1 0.013373 -0.001451 0.003353 0.000000 0.017844 0.000000
# 2 -0.001451 0.011482 -0.002762 0.000000 0.003251 0.000000
# 3 0.003353 -0.002762 0.019572 0.000000 0.017590 0.000000
# 4 0.000000 0.000000 0.000000 0.038647 0.000000 0.005521
# 5 0.017844 0.003251 0.017590 0.000000 0.067303 0.000000
# 6 0.000000 0.000000 0.000000 0.005521 0.000000 0.027626
#
#
# Mechanical properties :
#
#
# Convention : Reuss Voigt Hill
#
# Bulk Modulus (GPa) = 23.41568 51.46601 37.44084
# Shear Modulus (GPa) = 25.77855 34.59550 30.18702
#
# Velocity S-wave (km/s) = 3.37199 3.90631 3.64894
# Velocity P-wave (km/s) = 5.04862 6.56096 5.85383
#
# Compressibility (1/GPa) = 0.04270643
#
# Stress axis : x y z
#
# Youngs Moduli (GPa) = 74.77820 87.09158 51.09286
#
# Poissons Ratio (x) = 0.12638 -0.17129
# Poissons Ratio (y) = 0.10851 0.14111
# Poissons Ratio (z) = -0.25070 0.24054
#
# Static dielectric constant tensor:
#      x y z
#    x 4.564320 0.000000 -0.220510 
#    y 0.000000 3.909450 0.000000 
#    z -0.220510 0.000000 3.883250 
# 
# 
# High freq. dielectric constant tensor:
#      x y z
#    x 1.926420 0.000000 -0.018260 
#    y 0.000000 1.882600 0.000000 
#    z -0.018260 0.000000 1.873360 
# 
# From -- ./inp_files/319570.got.cif
#   From: 2010.06.25/outbox.cif.g09.slc.cpg/sg12_160_cif.got.tgz:319570.got - 2010.06.28 00:19:55.
