data_PCOD8109744
_publ_section_title
;
Structure prediction by ZEFSAII (Michael W. Deem and Ramdas Pophale) SiO2 
 PCOD8109744
Probable space group: C 2/M
;
_chemical_formula_sum "Si O2"
_cell_formula_units_Z 56
_cell_length_a 20.886411
_cell_length_b 9.222892
_cell_length_c 29.383649
_cell_angle_alpha 90.000000
_cell_angle_beta 30.235265
_cell_angle_gamma 90.000000
_cell_volume 2850.236036
_symmetry_space_group_name_H-M "C 2/M"
_symmetry_group_IT_number 12
_symmetry_cell_setting 'monoclinic'
loop_
_space_group_symop_operation_xyz
x,y,z
-x,y,-z
-x,-y,-z
x,-y,z
1/2+x,1/2+y,z
1/2-x,1/2+y,-z
1/2-x,1/2-y,-z
1/2+x,1/2-y,z
loop_
_atom_site_type_symbol
_atom_site_label
_atom_site_fract_x
_atom_site_fract_y
_atom_site_fract_z
Si Si1 0.767136 0.330582 0.037103
Si Si2 0.387608 0.338423 0.629853
Si Si3 0.110392 0.832496 0.218708
Si Si4 0.735275 0.835836 0.218215
Si Si5 0.819132 0.162621 0.572862
Si Si6 0.981462 0.834340 0.959329
Si Si7 0.322274 0.328607 0.414405
O O1 0.787971 0.500000 0.014442
O O2 0.642311 0.305709 0.145636
O O3 0.750000 0.250000 0.000000
O O4 0.890370 0.271248 0.987549
O O5 0.349466 0.500000 0.669417
O O6 0.358042 0.224196 0.686538
O O7 0.536455 0.330627 0.531068
O O8 0.310590 0.299305 0.631421
O O9 0.215735 0.746442 0.182613
O O10 0.969520 0.780880 0.319854
O O11 0.126550 0.000000 0.220838
O O12 0.878725 0.821912 0.148648
O O13 0.697124 0.000000 0.232047
O O14 0.739589 0.282424 0.595126
O O15 0.766274 0.000000 0.595991
O O16 0.929786 0.000000 0.988767
O O17 0.000000 0.785065 0.000000
O O18 0.308972 0.500000 0.429500
O O19 0.250000 0.250000 0.500000
#
# Coordination Sequence:
#
# PCOD8109744 Si02
#       7
#     8   8   8   8   8   8   8
#     4  11  24  42  65  91 122 162 204 250 305 364
#     4   9  19  36  57  81 113 150 189 235 288 345
#     4  10  23  41  59  82 117 157 195 241 296 355
#     4  11  22  35  59  90 116 147 192 242 292 345
#     4   9  19  37  57  78 110 152 192 234 285 342
#     4  10  21  40  62  86 120 155 191 243 297 349
#     4  11  23  38  57  83 116 153 193 239 290 347
#
# _framework density 19.647494999999999
#
# number of rings (size 3 to 8) (size 9 to 14) (size 15 to 20)
#    0.000    1.857    1.429    3.000    0.000    8.857 
#    0.000    5.714    0.000    0.000    0.000    0.000 
#    0.000    0.000    0.000    0.000    0.000    0.000 
#
# Total GULP energy -347182.703987 kJ/mol
# GULP energy per Si atom -12399.382285 kJ/mol
# Density = 1.960278 g / cm^3
# Si number density = 19.647495 Si / 1000 Ang^3
#
#
#
# Elastic Constant Matrix: (Units=GPa)
#
#
# Indices 1 2 3 4 5 6 
#
# 1 119.0342 66.6837 45.1633 0.0071 4.5022 -0.0028
# 2 66.6837 104.8405 55.0131 0.0108 3.3884 0.0111
# 3 45.1633 55.0131 86.1995 0.0020 10.3608 -0.0009
# 4 0.0071 0.0108 0.0020 27.1359 -0.0040 0.6584
# 5 4.5022 3.3884 10.3608 -0.0040 29.9568 0.0016
# 6 -0.0028 0.0111 -0.0009 0.6584 0.0016 42.3740
#
#
#
# Elastic Compliance Matrix: (Units=1/GPa)
#
#
# Indices 1 2 3 4 5 6 
#
# 1 0.013371 -0.007277 -0.002315 -0.000001 -0.000386 0.000003
# 2 -0.007277 0.018377 -0.008135 -0.000004 0.001829 -0.000005
# 3 -0.002315 -0.008135 0.018627 0.000002 -0.005174 0.000003
# 4 -0.000001 -0.000004 0.000002 0.036865 0.000005 -0.000573
# 5 -0.000386 0.001829 -0.005174 0.000005 0.035022 -0.000002
# 6 0.000003 -0.000005 0.000003 -0.000573 -0.000002 0.023608
#
#
# Mechanical properties :
#
#
# Convention : Reuss Voigt Hill
#
# Bulk Modulus (GPa) = 67.02034 71.53271 69.27653
# Shear Modulus (GPa) = 26.83875 29.44096 28.13985
#
# Velocity S-wave (km/s) = 3.69997 3.87519 3.78860
# Velocity P-wave (km/s) = 7.24144 7.51731 7.38066
#
# Compressibility (1/GPa) = 0.01492084
#
# Stress axis : x y z
#
# Youngs Moduli (GPa) = 74.79150 54.41689 53.68425
#
# Poissons Ratio (x) = 0.39601 0.12425
# Poissons Ratio (y) = 0.54428 0.43672
# Poissons Ratio (z) = 0.17311 0.44268
#
# Static dielectric constant tensor:
#      x y z
#    x 3.652060 -0.000120 0.037660 
#    y -0.000120 3.628890 0.000050 
#    z 0.037660 0.000050 3.658210 
# 
# 
# High freq. dielectric constant tensor:
#      x y z
#    x 1.764950 -0.000010 0.005940 
#    y -0.000010 1.767370 0.000000 
#    z 0.005940 0.000000 1.769560 
# 
# From -- ./inp_files/380640.got.cif
#   From: 2010.06.25/outbox.cif.g09.slc.cpg/sg12_191_cif.got.tgz:380640.got - 2010.06.28 00:19:55.
