data_PCOD8109881
_publ_section_title
;
Structure prediction by ZEFSAII (Michael W. Deem and Ramdas Pophale) SiO2 
 PCOD8109881
Probable space group: C 2/M
;
_chemical_formula_sum "Si O2"
_cell_formula_units_Z 64
_cell_length_a 8.627573
_cell_length_b 20.625064
_cell_length_c 22.941971
_cell_angle_alpha 90.000000
_cell_angle_beta 49.106109
_cell_angle_gamma 90.000000
_cell_volume 3085.974914
_symmetry_space_group_name_H-M "C 2/M"
_symmetry_group_IT_number 12
_symmetry_cell_setting 'monoclinic'
loop_
_space_group_symop_operation_xyz
x,y,z
-x,y,-z
-x,-y,-z
x,-y,z
1/2+x,1/2+y,z
1/2-x,1/2+y,-z
1/2-x,1/2-y,-z
1/2+x,1/2-y,z
loop_
_atom_site_type_symbol
_atom_site_label
_atom_site_fract_x
_atom_site_fract_y
_atom_site_fract_z
Si Si1 0.062245 0.813746 0.727856
Si Si2 0.203484 0.568259 0.988837
Si Si3 0.567908 0.572156 0.810495
Si Si4 0.967748 0.576553 0.267572
Si Si5 0.967153 0.711479 0.574889
Si Si6 0.581309 0.803617 0.045247
Si Si7 0.802223 0.157515 0.578548
Si Si8 0.147975 0.308979 0.782024
O O1 0.994195 0.875260 0.782334
O O2 0.281800 0.831108 0.646416
O O3 0.054731 0.746562 0.764890
O O4 0.894473 0.805554 0.718343
O O5 0.219087 0.500000 0.019871
O O6 0.410368 0.577564 0.901721
O O7 0.188622 0.628186 0.036870
O O8 0.000000 0.565648 0.000000
O O9 0.560855 0.500000 0.784405
O O10 0.796082 0.588076 0.775727
O O11 0.918787 0.500000 0.269388
O O12 0.827777 0.604066 0.354939
O O13 0.923396 0.619428 0.220973
O O14 0.893792 0.786698 0.598469
O O15 0.000000 0.691014 0.500000
O O16 0.170171 0.696283 0.562230
O O17 0.412441 0.791529 0.136184
O O18 0.500000 0.810260 0.000000
O O19 0.750000 0.750000 0.000000
O O20 0.000000 0.122843 0.500000
#
# Coordination Sequence:
#
# PCOD8109881 Si02
#       8
#     8   8   8   8   8   8   8   8
#     4  12  22  39  65  94 127 166 215 261 323 378
#     4   9  18  35  60  86 114 156 206 251 306 374
#     4  10  21  40  64  90 127 167 209 264 320 381
#     4  11  25  44  63  93 131 174 222 268 321 380
#     4  11  22  37  64 102 130 164 209 262 318 376
#     4  11  23  40  58  90 125 159 200 260 322 381
#     4  11  22  40  67  95 133 170 212 263 322 382
#     4  12  25  39  66  94 127 170 216 270 320 386
#
# _framework density 20.738987999999999
#
# number of rings (size 3 to 8) (size 9 to 14) (size 15 to 20)
#    0.000    1.125    2.500    6.000    1.750    2.250 
#    0.000    0.000    0.000    3.375    0.000    0.000 
#    0.000    0.000    0.000    0.000    0.000    0.000 
#
# Total GULP energy -396592.429154 kJ/mol
# GULP energy per Si atom -12393.513411 kJ/mol
# Density = 2.069179 g / cm^3
# Si number density = 20.738988 Si / 1000 Ang^3
#
#
#
# Elastic Constant Matrix: (Units=GPa)
#
#
# Indices 1 2 3 4 5 6 
#
# 1 93.3151 45.0893 36.6664 0.0000 -12.8570 -0.0003
# 2 45.0893 126.9080 24.9860 0.0000 -2.0981 0.0000
# 3 36.6664 24.9860 102.4255 0.0001 -14.6583 -0.0002
# 4 0.0000 0.0000 0.0001 38.1110 -0.0001 -2.2264
# 5 -12.8570 -2.0981 -14.6583 -0.0001 39.0986 0.0002
# 6 -0.0003 0.0000 -0.0002 -2.2264 0.0002 30.6088
#
#
#
# Elastic Compliance Matrix: (Units=1/GPa)
#
#
# Indices 1 2 3 4 5 6 
#
# 1 0.014788 -0.004464 -0.003744 0.000000 0.003220 0.000000
# 2 -0.004464 0.009629 -0.000937 0.000000 -0.001303 0.000000
# 3 -0.003744 -0.000937 0.011781 0.000000 0.003135 0.000000
# 4 0.000000 0.000000 0.000000 0.026351 0.000000 0.001917
# 5 0.003220 -0.001303 0.003135 0.000000 0.027741 0.000000
# 6 0.000000 0.000000 0.000000 0.001917 0.000000 0.032810
#
#
# Mechanical properties :
#
#
# Convention : Reuss Voigt Hill
#
# Bulk Modulus (GPa) = 55.84364 59.57023 57.70693
# Shear Modulus (GPa) = 33.93091 35.95750 34.94420
#
# Velocity S-wave (km/s) = 4.04925 4.16842 4.10927
# Velocity P-wave (km/s) = 6.98908 7.20790 7.09933
#
# Compressibility (1/GPa) = 0.01790714
#
# Stress axis : x y z
#
# Youngs Moduli (GPa) = 67.62249 103.85691 84.88330
#
# Poissons Ratio (x) = 0.46358 0.31782
# Poissons Ratio (y) = 0.30184 0.07957
# Poissons Ratio (z) = 0.25319 0.09735
#
# Static dielectric constant tensor:
#      x y z
#    x 3.714520 0.000000 -0.235200 
#    y 0.000000 5.373760 0.000000 
#    z -0.235200 0.000000 3.938960 
# 
# 
# High freq. dielectric constant tensor:
#      x y z
#    x 1.806200 0.000000 -0.021660 
#    y 0.000000 1.810380 0.000000 
#    z -0.021660 0.000000 1.824310 
# 
# From -- ./inp_files/333700.got.cif
#   From: 2010.06.25/outbox.cif.g09.slc.cpg/sg12_167_cif.got.tgz:333700.got - 2010.06.28 00:19:55.
