data_PCOD8109332
_publ_section_title
;
Structure prediction by ZEFSAII (Michael W. Deem and Ramdas Pophale) SiO2 
 PCOD8109332
Probable space group: C 2/M
;
_chemical_formula_sum "Si O2"
_cell_formula_units_Z 48
_cell_length_a 19.939651
_cell_length_b 8.576434
_cell_length_c 20.560015
_cell_angle_alpha 90.000000
_cell_angle_beta 43.344999
_cell_angle_gamma 90.000000
_cell_volume 2413.339939
_symmetry_space_group_name_H-M "C 2/M"
_symmetry_group_IT_number 12
_symmetry_cell_setting 'monoclinic'
loop_
_space_group_symop_operation_xyz
x,y,z
-x,y,-z
-x,-y,-z
x,-y,z
1/2+x,1/2+y,z
1/2-x,1/2+y,-z
1/2-x,1/2-y,-z
1/2+x,1/2-y,z
loop_
_atom_site_type_symbol
_atom_site_label
_atom_site_fract_x
_atom_site_fract_y
_atom_site_fract_z
Si Si1 0.079580 0.683880 0.892456
Si Si2 0.641058 0.314214 0.582106
Si Si3 0.676137 0.318549 0.102195
Si Si4 0.969960 0.315972 0.218838
Si Si5 0.793893 0.814492 0.775087
Si Si6 0.009732 0.683297 0.418173
O O1 0.079776 0.500000 0.902357
O O2 0.057218 0.731951 0.834851
O O3 0.188703 0.747613 0.826256
O O4 0.000000 0.754861 0.000000
O O5 0.641601 0.500000 0.584058
O O6 0.750000 0.250000 0.500000
O O7 0.607214 0.245929 0.674872
O O8 0.570777 0.264359 0.571747
O O9 0.689637 0.500000 0.091336
O O10 0.568291 0.272752 0.161731
O O11 0.700781 0.254675 0.155417
O O12 0.750000 0.250000 0.000000
O O13 0.982769 0.500000 0.217784
O O14 0.880243 0.730711 0.675993
O O15 0.806287 0.000000 0.758382
O O16 0.994670 0.500000 0.420078
O O17 0.000000 0.735522 0.500000
#
# Coordination Sequence:
#
# PCOD8109332 Si02
#       6
#     8   8   8   8   8   8
#     4   9  19  37  61  91 126 167 212 255 305 373
#     4  12  26  45  68  95 128 168 214 263 321 387
#     4  11  22  37  61  91 123 165 211 262 316 379
#     4  11  22  39  64  94 128 165 208 264 320 378
#     4  10  21  39  63  91 123 166 214 257 310 376
#     4  11  25  44  66  96 129 164 208 263 323 381
#
# _framework density 19.88945
#
# number of rings (size 3 to 8) (size 9 to 14) (size 15 to 20)
#    0.000    1.333    1.667    4.000    2.333    4.667 
#    0.000    0.833    0.000    3.500    0.000    0.000 
#    0.000    0.000    0.000    0.000    0.000    0.000 
#
# Total GULP energy -297544.497788 kJ/mol
# GULP energy per Si atom -12397.687408 kJ/mol
# Density = 1.984418 g / cm^3
# Si number density = 19.889450 Si / 1000 Ang^3
#
#
#
# Elastic Constant Matrix: (Units=GPa)
#
#
# Indices 1 2 3 4 5 6 
#
# 1 273.6438 137.4276 178.9387 0.0001 -20.3338 -0.0001
# 2 137.4276 152.3896 115.5526 0.0000 -3.9373 0.0002
# 3 178.9387 115.5526 269.8817 0.0001 -11.4315 -0.0002
# 4 0.0001 0.0000 0.0001 37.1718 0.0000 -3.9334
# 5 -20.3338 -3.9373 -11.4315 0.0000 49.5744 0.0000
# 6 -0.0001 0.0002 -0.0002 -3.9334 0.0000 26.7247
#
#
#
# Elastic Compliance Matrix: (Units=1/GPa)
#
#
# Indices 1 2 3 4 5 6 
#
# 1 0.008662 -0.005140 -0.003443 0.000000 0.002351 0.000000
# 2 -0.005140 0.012769 -0.002126 0.000000 -0.001584 0.000000
# 3 -0.003443 -0.002126 0.006899 0.000000 0.000010 0.000000
# 4 0.000000 0.000000 0.000000 0.027328 0.000000 0.004022
# 5 0.002351 -0.001584 0.000010 0.000000 0.021012 0.000000
# 6 0.000000 0.000000 0.000000 0.004022 0.000000 0.038011
#
#
# Mechanical properties :
#
#
# Convention : Reuss Voigt Hill
#
# Bulk Modulus (GPa) = 144.68851 173.30588 158.99719
# Shear Modulus (GPa) = 36.12693 40.29393 38.21043
#
# Velocity S-wave (km/s) = 4.26653 4.50588 4.38784
# Velocity P-wave (km/s) = 9.85776 10.69553 10.28518
#
# Compressibility (1/GPa) = 0.00691140
#
# Stress axis : x y z
#
# Youngs Moduli (GPa) = 115.45272 78.31564 144.95720
#
# Poissons Ratio (x) = 0.40255 0.49902
# Poissons Ratio (y) = 0.59343 0.30821
# Poissons Ratio (z) = 0.39745 0.16652
#
# Static dielectric constant tensor:
#      x y z
#    x 3.967670 0.000000 0.061740 
#    y 0.000000 3.562870 0.000000 
#    z 0.061740 0.000000 3.876340 
# 
# 
# High freq. dielectric constant tensor:
#      x y z
#    x 1.793900 0.000000 0.000290 
#    y 0.000000 1.766810 0.000000 
#    z 0.000290 0.000000 1.798700 
# 
# From -- ./inp_files/319551.got.cif
#   From: 2010.06.25/outbox.cif.g09.slc.cpg/sg12_160_cif.got.tgz:319551.got - 2010.06.28 00:19:55.
