data_PCOD8109298
_publ_section_title
;
Structure prediction by ZEFSAII (Michael W. Deem and Ramdas Pophale) SiO2 
 PCOD8109298
Probable space group: C 2/M
;
_chemical_formula_sum "Si O2"
_cell_formula_units_Z 48
_cell_length_a 18.285612
_cell_length_b 8.487751
_cell_length_c 15.779113
_cell_angle_alpha 90.000000
_cell_angle_beta 106.773562
_cell_angle_gamma 90.000000
_cell_volume 2344.779854
_symmetry_space_group_name_H-M "C 2/M"
_symmetry_group_IT_number 12
_symmetry_cell_setting 'monoclinic'
loop_
_space_group_symop_operation_xyz
x,y,z
-x,y,-z
-x,-y,-z
x,-y,z
1/2+x,1/2+y,z
1/2-x,1/2+y,-z
1/2-x,1/2-y,-z
1/2+x,1/2-y,z
loop_
_atom_site_type_symbol
_atom_site_label
_atom_site_fract_x
_atom_site_fract_y
_atom_site_fract_z
Si Si1 0.314837 0.317459 0.580877
Si Si2 0.599717 0.183672 0.088771
Si Si3 0.553208 0.685205 0.899522
Si Si4 0.768674 0.318351 0.740297
Si Si5 0.112481 0.683382 0.748323
Si Si6 0.481620 0.315488 0.590942
O O1 0.316847 0.500000 0.563693
O O2 0.250000 0.250000 0.500000
O O3 0.298050 0.285494 0.672889
O O4 0.397249 0.248797 0.582312
O O5 0.530778 0.237923 0.126524
O O6 0.679548 0.220169 0.160861
O O7 0.589880 0.000000 0.064312
O O8 0.598236 0.282371 0.001667
O O9 0.545160 0.500000 0.881725
O O10 0.601204 0.762538 0.840697
O O11 0.775891 0.500000 0.716263
O O12 0.681681 0.280583 0.731642
O O13 0.132575 0.500000 0.752776
O O14 0.037686 0.716934 0.668725
O O15 0.500000 0.280382 0.500000
O O16 0.490080 0.500000 0.615660
#
# Coordination Sequence:
#
# PCOD8109298 Si02
#       6
#     8   8   8   8   8   8
#     4  11  23  39  63  92 123 159 198 243 293 350
#     4  10  21  39  63  90 120 155 199 248 296 350
#     4  11  22  38  62  89 121 159 198 243 297 356
#     4  11  24  41  61  86 120 159 199 247 300 354
#     4  12  25  40  61  88 120 157 200 249 297 352
#     4  10  22  41  64  90 122 158 196 241 295 353
#
# _framework density 20.471005000000002
#
# number of rings (size 3 to 8) (size 9 to 14) (size 15 to 20)
#    0.000    1.167    0.000    7.500    0.000    9.000 
#    0.000    0.000    0.000    0.000    0.000    0.000 
#    0.000    0.000    0.000    0.000    0.000    0.000 
#
# Total GULP energy -297767.868742 kJ/mol
# GULP energy per Si atom -12406.994531 kJ/mol
# Density = 2.042441 g / cm^3
# Si number density = 20.471005 Si / 1000 Ang^3
#
#
#
# Elastic Constant Matrix: (Units=GPa)
#
#
# Indices 1 2 3 4 5 6 
#
# 1 144.5793 9.0048 54.5124 0.0000 4.0958 0.0000
# 2 9.0048 47.7873 14.9807 0.0000 12.4906 0.0000
# 3 54.5124 14.9807 89.5871 0.0000 2.9799 0.0000
# 4 0.0000 0.0000 0.0000 10.6769 0.0000 36.4627
# 5 4.0958 12.4906 2.9799 0.0000 44.7633 0.0000
# 6 0.0000 0.0000 0.0000 36.4627 0.0000 -20.9935
#
#
#
# Elastic Compliance Matrix: (Units=1/GPa)
#
#
# Indices 1 2 3 4 5 6 
#
# 1 0.008986 0.000155 -0.005477 0.000000 -0.000501 0.000000
# 2 0.000155 0.023777 -0.003857 0.000000 -0.006392 0.000000
# 3 -0.005477 -0.003857 0.015121 0.000000 0.000571 0.000000
# 4 0.000000 0.000000 0.000000 0.013512 0.000000 0.023469
# 5 -0.000501 -0.006392 0.000571 0.000000 0.024131 0.000000
# 6 0.000000 0.000000 0.000000 0.023469 0.000000 -0.006872
#
#
# Mechanical properties :
#
#
# Convention : Reuss Voigt Hill
#
# Bulk Modulus (GPa) = 33.87036 48.77215 41.32126
# Shear Modulus (GPa) = 46.79138 20.45306 33.62222
#
# Velocity S-wave (km/s) = 4.78613 3.16432 4.05709
# Velocity P-wave (km/s) = 6.86470 6.10142 6.49428
#
# Compressibility (1/GPa) = 0.02952434
#
# Stress axis : x y z
#
# Youngs Moduli (GPa) = 111.28017 42.05756 66.13235
#
# Poissons Ratio (x) = -0.00650 0.36222
# Poissons Ratio (y) = -0.01720 0.25510
# Poissons Ratio (z) = 0.60951 0.16223
#
# Static dielectric constant tensor:
#      x y z
#    x 5.062050 0.000000 -0.140850 
#    y 0.000000 3.802230 0.000000 
#    z -0.140850 0.000000 3.807820 
# 
# 
# High freq. dielectric constant tensor:
#      x y z
#    x 1.809380 0.000000 0.000730 
#    y 0.000000 1.807380 0.000000 
#    z 0.000730 0.000000 1.812050 
# 
# From -- ./inp_files/230418.got.cif
#   From: 2010.06.25/outbox.cif.g09.slc.cpg/sg12_116_cif.got.tgz:230418.got - 2010.06.28 00:19:55.
