data_PCOD8109720
_publ_section_title
;
Structure prediction by ZEFSAII (Michael W. Deem and Ramdas Pophale) SiO2 
 PCOD8109720
Probable space group: C 2/M
;
_chemical_formula_sum "Si O2"
_cell_formula_units_Z 32
_cell_length_a 7.157610
_cell_length_b 25.486696
_cell_length_c 10.799000
_cell_angle_alpha 90.000000
_cell_angle_beta 130.950744
_cell_angle_gamma 90.000000
_cell_volume 1487.884584
_symmetry_space_group_name_H-M "C 2/M"
_symmetry_group_IT_number 12
_symmetry_cell_setting 'monoclinic'
loop_
_space_group_symop_operation_xyz
x,y,z
-x,y,-z
-x,-y,-z
x,-y,z
1/2+x,1/2+y,z
1/2-x,1/2+y,-z
1/2-x,1/2-y,-z
1/2+x,1/2-y,z
loop_
_atom_site_type_symbol
_atom_site_label
_atom_site_fract_x
_atom_site_fract_y
_atom_site_fract_z
Si Si1 0.739693 0.077828 0.684999
Si Si2 0.603595 0.000000 0.836616
Si Si3 0.739282 0.216233 0.372818
Si Si4 0.133628 0.000000 0.785959
Si Si5 0.722878 0.313603 0.192268
O O1 0.500000 0.069211 0.500000
O O2 0.964654 0.051748 0.708434
O O3 0.811405 0.138974 0.726830
O O4 0.688572 0.051441 0.797020
O O5 0.310851 0.000000 0.742308
O O6 0.732355 0.000000 0.024286
O O7 0.750000 0.250000 0.500000
O O8 0.724851 0.256068 0.251424
O O9 0.500282 0.178508 0.255196
O O10 0.000000 0.183899 0.500000
O O11 0.500000 0.316729 0.000000
#
# Coordination Sequence:
#
# PCOD8109720 Si02
#       5
#     8   4   8   4   8
#     4  11  22  38  62  87 122 160 199 246 303 358
#     4  10  21  40  61  91 118 154 199 253 302 357
#     4   9  19  37  58  82 117 151 194 242 292 347
#     4  10  21  40  63  87 122 152 199 253 302 360
#     4  11  21  38  60  87 119 158 198 243 299 355
#
# _framework density 21.507045999999999
#
# number of rings (size 3 to 8) (size 9 to 14) (size 15 to 20)
#    0.000    1.750    0.000    7.500    0.000    2.000 
#   13.500    0.000    0.000    0.000    0.000    0.000 
#    0.000    0.000    0.000    0.000    0.000    0.000 
#
# Total GULP energy -198234.170731 kJ/mol
# GULP energy per Si atom -12389.635671 kJ/mol
# Density = 2.145809 g / cm^3
# Si number density = 21.507046 Si / 1000 Ang^3
#
#
#
# Elastic Constant Matrix: (Units=GPa)
#
#
# Indices 1 2 3 4 5 6 
#
# 1 94.1115 5.4677 29.4496 0.0000 36.0129 0.0000
# 2 5.4677 72.2684 2.4286 0.0000 20.5880 0.0000
# 3 29.4496 2.4286 94.5970 0.0000 39.1290 0.0000
# 4 0.0000 0.0000 0.0000 12.6175 0.0000 7.7861
# 5 36.0129 20.5880 39.1290 0.0000 50.0857 0.0000
# 6 0.0000 0.0000 0.0000 7.7861 0.0000 15.8111
#
#
#
# Elastic Compliance Matrix: (Units=1/GPa)
#
#
# Indices 1 2 3 4 5 6 
#
# 1 0.014960 0.002225 0.000167 0.000000 -0.011802 0.000000
# 2 0.002225 0.016753 0.003527 0.000000 -0.011242 0.000000
# 3 0.000167 0.003527 0.016367 0.000000 -0.014357 0.000000
# 4 0.000000 0.000000 0.000000 0.113852 0.000000 -0.056066
# 5 -0.011802 -0.011242 -0.014357 0.000000 0.044289 0.000000
# 6 0.000000 0.000000 0.000000 -0.056066 0.000000 0.090856
#
#
# Mechanical properties :
#
#
# Convention : Reuss Voigt Hill
#
# Bulk Modulus (GPa) = 16.68923 37.29653 26.99288
# Shear Modulus (GPa) = 16.38205 30.61160 23.49683
#
# Velocity S-wave (km/s) = 2.76290 3.77680 3.30891
# Velocity P-wave (km/s) = 4.23732 6.03308 5.21311
#
# Compressibility (1/GPa) = 0.05991889
#
# Stress axis : x y z
#
# Youngs Moduli (GPa) = 66.84376 59.69070 61.09828
#
# Poissons Ratio (x) = -0.13279 -0.01022
# Poissons Ratio (y) = -0.14871 -0.21551
# Poissons Ratio (z) = -0.01118 -0.21055
#
# Static dielectric constant tensor:
#      x y z
#    x 4.713040 0.000000 0.535040 
#    y 0.000000 3.254800 0.000000 
#    z 0.535040 0.000000 4.174590 
# 
# 
# High freq. dielectric constant tensor:
#      x y z
#    x 1.846620 0.000000 0.023370 
#    y 0.000000 1.819660 0.000000 
#    z 0.023370 0.000000 1.862650 
# 
# From -- ./inp_files/123265.got.cif
#   From: 2010.06.25/outbox.cif.g09.slc.cpg/sg12_62_cif.got.tgz:123265.got - 2010.06.28 00:19:55.
