data_PCOD8109304
_publ_section_title
;
Structure prediction by ZEFSAII (Michael W. Deem and Ramdas Pophale) SiO2 
 PCOD8109304
Probable space group: C 2/M
;
_chemical_formula_sum "Si O2"
_cell_formula_units_Z 56
_cell_length_a 18.457050
_cell_length_b 9.027617
_cell_length_c 18.135715
_cell_angle_alpha 90.000000
_cell_angle_beta 68.677643
_cell_angle_gamma 90.000000
_cell_volume 2814.984411
_symmetry_space_group_name_H-M "C 2/M"
_symmetry_group_IT_number 12
_symmetry_cell_setting 'monoclinic'
loop_
_space_group_symop_operation_xyz
x,y,z
-x,y,-z
-x,-y,-z
x,-y,z
1/2+x,1/2+y,z
1/2-x,1/2+y,-z
1/2-x,1/2-y,-z
1/2+x,1/2-y,z
loop_
_atom_site_type_symbol
_atom_site_label
_atom_site_fract_x
_atom_site_fract_y
_atom_site_fract_z
Si Si1 0.776084 0.824355 0.208433
Si Si2 0.189529 0.173250 0.970184
Si Si3 0.858498 0.173433 0.663271
Si Si4 0.083006 0.325478 0.770150
Si Si5 0.822163 0.172718 0.512181
Si Si6 0.039589 0.336608 0.063134
Si Si7 0.033108 0.171627 0.642310
O O1 0.799630 0.771484 0.117718
O O2 0.690132 0.763657 0.257789
O O3 0.835707 0.756136 0.245339
O O4 0.777132 0.000000 0.215330
O O5 0.201629 0.000000 0.970668
O O6 0.250000 0.250000 0.000000
O O7 0.106032 0.214939 0.033192
O O8 0.831067 0.227466 0.592825
O O9 0.949275 0.209872 0.639443
O O10 0.842616 0.000000 0.680137
O O11 0.098702 0.500000 0.764274
O O12 0.047588 0.275804 0.706268
O O13 0.022171 0.277403 0.855163
O O14 0.750000 0.250000 0.500000
O O15 0.902716 0.210994 0.442253
O O16 0.804782 0.000000 0.516164
O O17 0.071800 0.500000 0.074624
O O18 0.000000 0.352419 0.000000
O O19 0.038070 0.000000 0.664452
#
# Coordination Sequence:
#
# PCOD8109304 Si02
#       7
#     8   8   8   8   8   8   8
#     4  11  24  41  60  87 121 157 199 249 299 352
#     4  11  25  41  61  87 120 159 201 249 301 357
#     4  10  22  40  63  89 120 160 201 242 295 354
#     4  11  23  39  62  89 120 157 200 248 298 358
#     4  10  21  39  63  90 121 157 199 243 291 351
#     4  10  21  40  63  87 117 156 200 249 301 351
#     4  10  22  40  62  90 123 158 197 245 297 351
#
# _framework density 19.893536999999998
#
# number of rings (size 3 to 8) (size 9 to 14) (size 15 to 20)
#    0.000    1.571    1.429    2.571    2.000    8.857 
#    0.000    0.000    0.000    2.571    0.000    0.000 
#    0.000    0.000    0.000    0.000    0.000    0.000 
#
# Total GULP energy -347322.073900 kJ/mol
# GULP energy per Si atom -12404.359782 kJ/mol
# Density = 1.984826 g / cm^3
# Si number density = 19.893537 Si / 1000 Ang^3
#
#
#
# Elastic Constant Matrix: (Units=GPa)
#
#
# Indices 1 2 3 4 5 6 
#
# 1 134.4020 48.2859 41.7692 0.0000 -6.8169 0.0000
# 2 48.2859 65.7673 41.1579 0.0000 -3.2266 -0.0001
# 3 41.7692 41.1579 89.8530 0.0000 -11.5065 0.0000
# 4 0.0000 0.0000 0.0000 44.0517 0.0000 -6.2384
# 5 -6.8169 -3.2266 -11.5065 0.0000 40.5017 0.0000
# 6 0.0000 -0.0001 0.0000 -6.2384 0.0000 41.2740
#
#
#
# Elastic Compliance Matrix: (Units=1/GPa)
#
#
# Indices 1 2 3 4 5 6 
#
# 1 0.010344 -0.006459 -0.001756 0.000000 0.000727 0.000000
# 2 -0.006459 0.025398 -0.008832 0.000000 -0.001573 0.000000
# 3 -0.001756 -0.008832 0.016463 0.000000 0.003678 0.000000
# 4 0.000000 0.000000 0.000000 0.023197 0.000000 0.003506
# 5 0.000727 -0.001573 0.003678 0.000000 0.025732 0.000000
# 6 0.000000 0.000000 0.000000 0.003506 0.000000 0.024758
#
#
# Mechanical properties :
#
#
# Convention : Reuss Voigt Hill
#
# Bulk Modulus (GPa) = 55.22570 61.38315 58.30442
# Shear Modulus (GPa) = 30.11610 35.75278 32.93444
#
# Velocity S-wave (km/s) = 3.89506 4.24395 4.07324
# Velocity P-wave (km/s) = 6.93178 7.41199 7.17590
#
# Compressibility (1/GPa) = 0.01810751
#
# Stress axis : x y z
#
# Youngs Moduli (GPa) = 96.67649 39.37347 60.74397
#
# Poissons Ratio (x) = 0.25433 0.10670
# Poissons Ratio (y) = 0.62447 0.53652
# Poissons Ratio (z) = 0.16981 0.34776
#
# Static dielectric constant tensor:
#      x y z
#    x 3.529010 0.000000 -0.067000 
#    y 0.000000 0.790300 0.000000 
#    z -0.067000 0.000000 3.678920 
# 
# 
# High freq. dielectric constant tensor:
#      x y z
#    x 1.785400 0.000000 -0.004280 
#    y 0.000000 1.771830 0.000000 
#    z -0.004280 0.000000 1.788970 
# 
# From -- ./inp_files/275191.got.cif
#   From: 2010.06.25/outbox.cif.g09.slc.cpg/sg12_138_cif.got.tgz:275191.got - 2010.06.28 00:19:55.
