data_PCOD8109514
_publ_section_title
;
Structure prediction by ZEFSAII (Michael W. Deem and Ramdas Pophale) SiO2 
 PCOD8109514
Probable space group: C 2/M
;
_chemical_formula_sum "Si O2"
_cell_formula_units_Z 56
_cell_length_a 8.353953
_cell_length_b 18.280213
_cell_length_c 23.416230
_cell_angle_alpha 90.000000
_cell_angle_beta 137.740730
_cell_angle_gamma 90.000000
_cell_volume 2404.771763
_symmetry_space_group_name_H-M "C 2/M"
_symmetry_group_IT_number 12
_symmetry_cell_setting 'monoclinic'
loop_
_space_group_symop_operation_xyz
x,y,z
-x,y,-z
-x,-y,-z
x,-y,z
1/2+x,1/2+y,z
1/2-x,1/2+y,-z
1/2-x,1/2-y,-z
1/2+x,1/2-y,z
loop_
_atom_site_type_symbol
_atom_site_label
_atom_site_fract_x
_atom_site_fract_y
_atom_site_fract_z
Si Si1 0.423142 0.138621 0.912003
Si Si2 0.386886 0.857501 0.231847
Si Si3 0.873192 0.350016 0.413385
Si Si4 0.265126 0.000000 0.139991
Si Si5 0.261127 0.805987 0.586374
Si Si6 0.776999 0.500000 0.007742
Si Si7 0.754164 0.222554 0.914813
Si Si8 0.432642 0.417005 0.757767
O O1 0.551334 0.197291 0.904670
O O2 0.302531 0.188904 0.930788
O O3 0.211508 0.097942 0.822760
O O4 0.596756 0.074350 0.981631
O O5 0.407216 0.930499 0.200057
O O6 0.640133 0.844060 0.329618
O O7 0.318937 0.793270 0.169927
O O8 0.181141 0.862755 0.225408
O O9 0.734469 0.280608 0.402475
O O10 0.688970 0.405138 0.335692
O O11 0.000000 0.391313 0.500000
O O12 0.067832 0.321716 0.420717
O O13 0.279947 0.000000 0.076312
O O14 0.989654 0.000000 0.087904
O O15 0.000000 0.835815 0.500000
O O16 0.000000 0.182063 0.000000
O O17 0.386455 0.500000 0.765524
#
# Coordination Sequence:
#
# PCOD8109514 Si02
#       8
#     8   8   8   4   8   4   8   8
#     4  12  25  44  67 100 132 182 228 297 341 411
#     4  11  23  43  71  96 137 185 225 287 344 406
#     4  10  21  39  66  93 130 173 214 280 346 405
#     4  11  22  45  70  93 135 189 227 279 352 413
#     4  10  21  39  65 101 129 168 222 278 339 411
#     4  11  24  45  71  97 137 182 238 286 343 419
#     4  12  26  45  69  98 138 176 237 291 347 399
#     4  11  24  43  64  97 137 176 232 279 340 419
#
# _framework density 23.287033999999998
#
# number of rings (size 3 to 8) (size 9 to 14) (size 15 to 20)
#    0.000    1.000    2.857    4.714    0.000    6.000 
#    0.000    1.429    0.000    0.000    0.000    0.000 
#    0.000    0.000    0.000    0.000    0.000    0.000 
#
# Total GULP energy -347199.014032 kJ/mol
# GULP energy per Si atom -12399.964787 kJ/mol
# Density = 2.323403 g / cm^3
# Si number density = 23.287034 Si / 1000 Ang^3
#
#
#
# Elastic Constant Matrix: (Units=GPa)
#
#
# Indices 1 2 3 4 5 6 
#
# 1 70.6738 22.7670 37.6852 0.0012 -3.6061 0.0001
# 2 22.7670 109.8603 31.3883 0.0003 4.3101 0.0000
# 3 37.6852 31.3883 162.4397 0.0040 -5.0632 0.0008
# 4 0.0012 0.0003 0.0040 -127.4988 0.0030 -45.6056
# 5 -3.6061 4.3101 -5.0632 0.0030 40.7514 0.0006
# 6 0.0001 0.0000 0.0008 -45.6056 0.0006 16.9296
#
#
#
# Elastic Compliance Matrix: (Units=1/GPa)
#
#
# Indices 1 2 3 4 5 6 
#
# 1 0.016845 -0.002582 -0.003367 0.000000 0.001345 0.000000
# 2 -0.002582 0.010094 -0.001397 0.000000 -0.001470 0.000000
# 3 -0.003367 -0.001397 0.007231 0.000000 0.000748 0.000000
# 4 0.000000 0.000000 0.000000 -0.003994 0.000000 -0.010760
# 5 0.001345 -0.001470 0.000748 0.000000 0.024907 0.000000
# 6 0.000000 0.000000 0.000000 -0.010760 0.000000 0.030082
#
#
# Mechanical properties :
#
#
# Convention : Reuss Voigt Hill
#
# Bulk Modulus (GPa) = 51.34071 58.51718 54.92895
# Shear Modulus (GPa) = 47.01466 2.77866 24.89666
#
# Velocity S-wave (km/s) = 4.49811 1.09353 3.27329
# Velocity P-wave (km/s) = 7.00515 5.17471 6.15832
#
# Compressibility (1/GPa) = 0.01947772
#
# Stress axis : x y z
#
# Youngs Moduli (GPa) = 59.36359 99.06473 138.30000
#
# Poissons Ratio (x) = 0.25575 0.46569
# Poissons Ratio (y) = 0.15326 0.19326
# Poissons Ratio (z) = 0.19989 0.13843
#
# Static dielectric constant tensor:
#      x y z
#    x 4.103220 0.000000 -0.109800 
#    y 0.000000 4.104570 0.000000 
#    z -0.109800 0.000000 4.693790 
# 
# 
# High freq. dielectric constant tensor:
#      x y z
#    x 1.923000 0.000000 -0.010440 
#    y 0.000000 1.909360 0.000000 
#    z -0.010440 0.000000 1.939290 
# 
# From -- ./inp_files/356785.got.cif
#   From: 2010.06.25/outbox.cif.g09.slc.cpg/sg12_179_cif.got.tgz:356785.got - 2010.06.28 00:19:55.
