data_PCOD8109272
_publ_section_title
;
Structure prediction by ZEFSAII (Michael W. Deem and Ramdas Pophale) SiO2 
 PCOD8109272
Probable space group: C 2/M
;
_chemical_formula_sum "Si O2"
_cell_formula_units_Z 64
_cell_length_a 29.123672
_cell_length_b 8.907146
_cell_length_c 25.139556
_cell_angle_alpha 90.000000
_cell_angle_beta 149.502272
_cell_angle_gamma 90.000000
_cell_volume 3309.649036
_symmetry_space_group_name_H-M "C 2/M"
_symmetry_group_IT_number 12
_symmetry_cell_setting 'monoclinic'
loop_
_space_group_symop_operation_xyz
x,y,z
-x,y,-z
-x,-y,-z
x,-y,z
1/2+x,1/2+y,z
1/2-x,1/2+y,-z
1/2-x,1/2-y,-z
1/2+x,1/2-y,z
loop_
_atom_site_type_symbol
_atom_site_label
_atom_site_fract_x
_atom_site_fract_y
_atom_site_fract_z
Si Si1 0.611462 0.823230 0.004746
Si Si2 0.726884 0.674672 0.758471
Si Si3 0.422313 0.327020 0.566552
Si Si4 0.969872 0.673648 0.721540
Si Si5 0.329980 0.829566 0.050395
Si Si6 0.456236 0.177620 0.401106
Si Si7 0.265030 0.828255 0.676614
Si Si8 0.065117 0.823187 0.201712
O O1 0.657865 0.764575 0.996774
O O2 0.517029 0.735834 0.917306
O O3 0.589510 0.000000 0.978940
O O4 0.677512 0.783846 0.119138
O O5 0.704316 0.500000 0.743821
O O6 0.647022 0.768240 0.706032
O O7 0.733462 0.719512 0.703696
O O8 0.451871 0.500000 0.596898
O O9 0.425483 0.259713 0.628446
O O10 0.489267 0.241297 0.594152
O O11 0.319348 0.307370 0.446234
O O12 0.940691 0.500000 0.691203
O O13 0.933904 0.743363 0.740254
O O14 0.077906 0.690979 0.824622
O O15 0.300320 0.000000 0.016211
O O16 0.250000 0.750000 0.000000
O O17 0.500000 0.236319 0.500000
O O18 0.459352 0.000000 0.400811
O O19 0.342733 0.715660 0.736296
O O20 0.300495 0.000000 0.711727
O O21 0.056833 0.000000 0.201546
#
# Coordination Sequence:
#
# PCOD8109272 Si02
#       8
#     8   8   8   8   8   8   8   8
#     4   9  20  39  60  84 116 155 197 244 297 348
#     4  10  21  39  63  89 117 158 207 246 291 352
#     4  11  23  39  62  90 120 157 204 246 292 354
#     4  10  22  41  61  85 119 155 196 244 300 354
#     4   9  19  34  53  80 113 149 190 237 287 344
#     4  11  23  38  58  86 125 164 196 243 302 349
#     4  10  22  40  62  87 117 155 200 250 297 348
#     4  11  23  40  63  88 117 155 197 245 301 357
#
# _framework density 19.337399000000001
#
# number of rings (size 3 to 8) (size 9 to 14) (size 15 to 20)
#    0.000    1.875    1.250    3.000    1.750    6.000 
#    0.000    2.500    0.000    0.000    0.000    0.000 
#    0.000    0.000    0.000    0.000    0.000    0.000 
#
# Total GULP energy -396932.816448 kJ/mol
# GULP energy per Si atom -12404.150514 kJ/mol
# Density = 1.929339 g / cm^3
# Si number density = 19.337399 Si / 1000 Ang^3
#
#
#
# Elastic Constant Matrix: (Units=GPa)
#
#
# Indices 1 2 3 4 5 6 
#
# 1 46.1062 28.6743 23.6632 0.0000 19.0473 0.0000
# 2 28.6743 80.6130 42.0800 0.0000 9.4486 0.0000
# 3 23.6632 42.0800 93.2835 0.0000 -4.1125 0.0000
# 4 0.0000 0.0000 0.0000 31.8655 0.0000 2.3486
# 5 19.0473 9.4486 -4.1125 0.0000 31.8496 0.0000
# 6 0.0000 0.0000 0.0000 2.3486 0.0000 35.9266
#
#
#
# Elastic Compliance Matrix: (Units=1/GPa)
#
#
# Indices 1 2 3 4 5 6 
#
# 1 0.039491 -0.007425 -0.007656 0.000000 -0.022403 0.000000
# 2 -0.007425 0.018758 -0.006666 0.000000 -0.001985 0.000000
# 3 -0.007656 -0.006666 0.016049 0.000000 0.008629 0.000000
# 4 0.000000 0.000000 0.000000 0.031534 0.000000 -0.002061
# 5 -0.022403 -0.001985 0.008629 0.000000 0.046499 0.000000
# 6 0.000000 0.000000 0.000000 -0.002061 0.000000 0.027969
#
#
# Mechanical properties :
#
#
# Convention : Reuss Voigt Hill
#
# Bulk Modulus (GPa) = 32.46185 45.42643 38.94414
# Shear Modulus (GPa) = 21.36179 28.30067 24.83123
#
# Velocity S-wave (km/s) = 3.32729 3.82975 3.58733
# Velocity P-wave (km/s) = 5.62002 6.56494 6.11077
#
# Compressibility (1/GPa) = 0.03080539
#
# Stress axis : x y z
#
# Youngs Moduli (GPa) = 25.32212 53.30987 62.30734
#
# Poissons Ratio (x) = 0.39582 0.47703
# Poissons Ratio (y) = 0.18801 0.41533
# Poissons Ratio (z) = 0.19387 0.35536
#
# Static dielectric constant tensor:
#      x y z
#    x 3.503290 0.000000 -0.103280 
#    y 0.000000 3.519460 0.000000 
#    z -0.103280 0.000000 3.685530 
# 
# 
# High freq. dielectric constant tensor:
#      x y z
#    x 1.753230 0.000000 -0.001250 
#    y 0.000000 1.751680 0.000000 
#    z -0.001250 0.000000 1.760110 
# 
# From -- ./inp_files/353569.got.cif
#   From: 2010.06.25/outbox.cif.g09.slc.cpg/sg12_177_cif.got.tgz:353569.got - 2010.06.28 00:19:55.
