data_PCOD8109252
_publ_section_title
;
Structure prediction by ZEFSAII (Michael W. Deem and Ramdas Pophale) SiO2 
 PCOD8109252
Probable space group: C 2/M
;
_chemical_formula_sum "Si O2"
_cell_formula_units_Z 48
_cell_length_a 18.240296
_cell_length_b 14.650220
_cell_length_c 17.567433
_cell_angle_alpha 90.000000
_cell_angle_beta 148.598969
_cell_angle_gamma 90.000000
_cell_volume 2445.923607
_symmetry_space_group_name_H-M "C 2/M"
_symmetry_group_IT_number 12
_symmetry_cell_setting 'monoclinic'
loop_
_space_group_symop_operation_xyz
x,y,z
-x,y,-z
-x,-y,-z
x,-y,z
1/2+x,1/2+y,z
1/2-x,1/2+y,-z
1/2-x,1/2-y,-z
1/2+x,1/2-y,z
loop_
_atom_site_type_symbol
_atom_site_label
_atom_site_fract_x
_atom_site_fract_y
_atom_site_fract_z
Si Si1 0.965125 0.735217 0.162030
Si Si2 0.286435 0.895176 0.593733
Si Si3 0.832520 0.895661 0.670644
Si Si4 0.844114 0.393166 0.338054
Si Si5 0.299864 0.754270 0.166853
Si Si6 0.006438 0.104144 0.595245
O O1 0.886223 0.711840 0.170253
O O2 0.089289 0.662964 0.259182
O O3 0.028163 0.836973 0.220020
O O4 0.858763 0.728344 0.997122
O O5 0.279971 0.879691 0.496953
O O6 0.140072 0.860343 0.499698
O O7 0.314143 0.000000 0.639715
O O8 0.758919 0.868752 0.684022
O O9 0.883693 0.000000 0.715933
O O10 0.839679 0.500000 0.313638
O O11 0.794290 0.337546 0.220801
O O12 0.000000 0.362439 0.500000
O O13 0.365752 0.663983 0.261173
O O14 0.000000 0.114313 0.500000
O O15 0.033882 0.000000 0.644945
#
# Coordination Sequence:
#
# PCOD8109252 Si02
#       6
#     8   8   8   8   8   8
#     4  11  24  38  58  91 120 158 197 237 298 356
#     4  10  21  39  63  88 115 153 202 249 292 348
#     4  10  21  39  64  89 118 156 200 247 295 352
#     4  10  22  39  62  92 121 156 200 245 297 354
#     4  11  24  39  59  87 125 158 191 242 300 356
#     4  10  22  40  62  86 113 154 202 246 294 347
#
# _framework density 19.624489000000001
#
# number of rings (size 3 to 8) (size 9 to 14) (size 15 to 20)
#    0.000    1.667    1.667    2.000    4.667    4.000 
#    0.000    5.000    0.000    3.000    0.000    0.000 
#    0.000    0.000    0.000    0.000    0.000    0.000 
#
# Total GULP energy -297735.543737 kJ/mol
# GULP energy per Si atom -12405.647656 kJ/mol
# Density = 1.957982 g / cm^3
# Si number density = 19.624489 Si / 1000 Ang^3
#
#
#
# Elastic Constant Matrix: (Units=GPa)
#
#
# Indices 1 2 3 4 5 6 
#
# 1 108.6750 43.3408 44.2475 -0.0003 -7.8548 -0.0001
# 2 43.3408 94.0436 70.5553 -0.0001 1.5451 0.0000
# 3 44.2475 70.5553 140.8936 -0.0006 0.9327 -0.0003
# 4 -0.0003 -0.0001 -0.0006 14.5328 -0.0004 -0.0328
# 5 -7.8548 1.5451 0.9327 -0.0004 25.3934 -0.0002
# 6 -0.0001 0.0000 -0.0003 -0.0328 -0.0002 33.0179
#
#
#
# Elastic Compliance Matrix: (Units=1/GPa)
#
#
# Indices 1 2 3 4 5 6 
#
# 1 0.011868 -0.004355 -0.001573 0.000000 0.003994 0.000000
# 2 -0.004355 0.018644 -0.007954 0.000000 -0.002189 0.000000
# 3 -0.001573 -0.007954 0.011577 0.000000 -0.000428 0.000000
# 4 0.000000 0.000000 0.000000 0.068810 0.000001 0.000068
# 5 0.003994 -0.002189 -0.000428 0.000001 0.040765 0.000000
# 6 0.000000 0.000000 0.000000 0.000068 0.000000 0.030287
#
#
# Mechanical properties :
#
#
# Convention : Reuss Voigt Hill
#
# Bulk Modulus (GPa) = 69.80608 73.32216 71.56412
# Shear Modulus (GPa) = 23.31125 26.95340 25.13232
#
# Velocity S-wave (km/s) = 3.45028 3.71004 3.58252
# Velocity P-wave (km/s) = 7.17779 7.46969 7.32519
#
# Compressibility (1/GPa) = 0.01432540
#
# Stress axis : x y z
#
# Youngs Moduli (GPa) = 84.26358 53.63678 86.37517
#
# Poissons Ratio (x) = 0.23359 0.13583
# Poissons Ratio (y) = 0.36698 0.68704
# Poissons Ratio (z) = 0.13251 0.42663
#
# Static dielectric constant tensor:
#      x y z
#    x 3.687860 0.000000 -0.019800 
#    y 0.000000 3.605600 0.000000 
#    z -0.019800 0.000000 3.483810 
# 
# 
# High freq. dielectric constant tensor:
#      x y z
#    x 1.775090 0.000000 -0.000960 
#    y 0.000000 1.771560 0.000000 
#    z -0.000960 0.000000 1.753350 
# 
# From -- ./inp_files/105040.got.cif
#   From: 2010.06.25/outbox.cif.g09.slc.cpg/sg12_53_cif.got.tgz:105040.got - 2010.06.28 00:19:55.
