data_PCOD8109948
_publ_section_title
;
Structure prediction by ZEFSAII (Michael W. Deem and Ramdas Pophale) SiO2 
 PCOD8109948
Probable space group: C 2/M
;
_chemical_formula_sum "Si O2"
_cell_formula_units_Z 56
_cell_length_a 30.680674
_cell_length_b 8.468425
_cell_length_c 11.818883
_cell_angle_alpha 90.000000
_cell_angle_beta 116.531134
_cell_angle_gamma 90.000000
_cell_volume 2747.371681
_symmetry_space_group_name_H-M "C 2/M"
_symmetry_group_IT_number 12
_symmetry_cell_setting 'monoclinic'
loop_
_space_group_symop_operation_xyz
x,y,z
-x,y,-z
-x,-y,-z
x,-y,z
1/2+x,1/2+y,z
1/2-x,1/2+y,-z
1/2-x,1/2-y,-z
1/2+x,1/2-y,z
loop_
_atom_site_type_symbol
_atom_site_label
_atom_site_fract_x
_atom_site_fract_y
_atom_site_fract_z
Si Si1 0.849269 0.683920 0.071663
Si Si2 0.273204 0.316947 0.826152
Si Si3 0.204242 0.684208 0.381012
Si Si4 0.167040 0.816936 0.710461
Si Si5 0.435765 0.184861 0.008687
Si Si6 0.114829 0.315297 0.439446
Si Si7 0.463366 0.315413 0.808728
O O1 0.853511 0.500000 0.105048
O O2 0.855821 0.781330 0.194093
O O3 0.891143 0.741295 0.034587
O O4 0.796434 0.719069 0.956406
O O5 0.280296 0.500000 0.860409
O O6 0.301370 0.272329 0.744325
O O7 0.216250 0.281027 0.747888
O O8 0.211474 0.500000 0.366148
O O9 0.250000 0.750000 0.500000
O O10 0.156642 0.720900 0.397573
O O11 0.127313 0.766392 0.572225
O O12 0.179482 0.000000 0.712077
O O13 0.485849 0.221831 0.131211
O O14 0.432025 0.000000 0.977583
O O15 0.432629 0.276100 0.886037
O O16 0.107566 0.500000 0.451009
O O17 0.065233 0.239294 0.335792
O O18 0.474355 0.500000 0.816408
#
# Coordination Sequence:
#
# PCOD8109948 Si02
#       7
#     8   8   8   8   8   8   8
#     4  11  24  42  63  87 117 156 203 249 298 353
#     4  12  24  39  60  87 121 160 202 248 298 353
#     4  11  22  36  58  86 119 156 196 244 295 350
#     4  12  25  41  61  85 119 159 202 249 297 354
#     4  10  21  40  65  91 121 156 196 244 297 356
#     4  11  23  40  61  87 122 161 200 242 297 358
#     4  11  22  37  63  95 125 155 192 244 299 353
#
# _framework density 20.383116999999999
#
# number of rings (size 3 to 8) (size 9 to 14) (size 15 to 20)
#    0.000    0.857    1.429    7.714    0.000    7.429 
#    0.000    0.714    0.000    4.286    0.000    0.000 
#    0.000    0.000    0.000    0.000    0.000    0.000 
#
# Total GULP energy -347426.401262 kJ/mol
# GULP energy per Si atom -12408.085759 kJ/mol
# Density = 2.033672 g / cm^3
# Si number density = 20.383117 Si / 1000 Ang^3
#
#
#
# Elastic Constant Matrix: (Units=GPa)
#
#
# Indices 1 2 3 4 5 6 
#
# 1 50.6339 12.1525 32.4766 0.0000 -3.2251 0.0000
# 2 12.1525 71.5815 16.1386 0.0000 -6.9017 0.0000
# 3 32.4766 16.1386 140.9347 0.0000 1.9271 0.0000
# 4 0.0000 0.0000 0.0000 38.0463 0.0000 -1.6011
# 5 -3.2251 -6.9017 1.9271 0.0000 27.8876 0.0000
# 6 0.0000 0.0000 0.0000 -1.6011 0.0000 27.6294
#
#
#
# Elastic Compliance Matrix: (Units=1/GPa)
#
#
# Indices 1 2 3 4 5 6 
#
# 1 0.023901 -0.002638 -0.005239 0.000000 0.002473 0.000000
# 2 -0.002638 0.015016 -0.001159 0.000000 0.003491 0.000000
# 3 -0.005239 -0.001159 0.008456 0.000000 -0.001477 0.000000
# 4 0.000000 0.000000 0.000000 0.026348 0.000000 0.001527
# 5 0.002473 0.003491 -0.001477 0.000000 0.037110 0.000000
# 6 0.000000 0.000000 0.000000 0.001527 0.000000 0.036282
#
#
# Mechanical properties :
#
#
# Convention : Reuss Voigt Hill
#
# Bulk Modulus (GPa) = 34.13066 42.74284 38.43675
# Shear Modulus (GPa) = 28.57919 32.20482 30.39201
#
# Velocity S-wave (km/s) = 3.74853 3.97920 3.86559
# Velocity P-wave (km/s) = 5.95955 6.49056 6.23071
#
# Compressibility (1/GPa) = 0.02929917
#
# Stress axis : x y z
#
# Youngs Moduli (GPa) = 41.83960 66.59593 118.26219
#
# Poissons Ratio (x) = 0.17568 0.61962
# Poissons Ratio (y) = 0.11037 0.13711
# Poissons Ratio (z) = 0.21921 0.07721
#
# Static dielectric constant tensor:
#      x y z
#    x 3.346350 0.000000 0.031690 
#    y 0.000000 3.751660 0.000000 
#    z 0.031690 0.000000 3.789830 
# 
# 
# High freq. dielectric constant tensor:
#      x y z
#    x 1.783730 0.000000 0.002030 
#    y 0.000000 1.809300 0.000000 
#    z 0.002030 0.000000 1.807400 
# 
# From -- ./inp_files/187779.got.cif
#   From: 2010.06.25/outbox.cif.g09.slc.cpg/sg12_94_cif.got.tgz:187779.got - 2010.06.28 00:19:55.
