data_PCOD8109504
_publ_section_title
;
Structure prediction by ZEFSAII (Michael W. Deem and Ramdas Pophale) SiO2 
 PCOD8109504
Probable space group: C 2/M
;
_chemical_formula_sum "Si O2"
_cell_formula_units_Z 56
_cell_length_a 11.975249
_cell_length_b 19.275216
_cell_length_c 11.820212
_cell_angle_alpha 90.000000
_cell_angle_beta 71.094921
_cell_angle_gamma 90.000000
_cell_volume 2581.227067
_symmetry_space_group_name_H-M "C 2/M"
_symmetry_group_IT_number 12
_symmetry_cell_setting 'monoclinic'
loop_
_space_group_symop_operation_xyz
x,y,z
-x,y,-z
-x,-y,-z
x,-y,z
1/2+x,1/2+y,z
1/2-x,1/2+y,-z
1/2-x,1/2-y,-z
1/2+x,1/2-y,z
loop_
_atom_site_type_symbol
_atom_site_label
_atom_site_fract_x
_atom_site_fract_y
_atom_site_fract_z
Si Si1 0.845186 0.646154 0.251906
Si Si2 0.135061 0.078209 0.441703
Si Si3 0.069623 0.419588 0.248336
Si Si4 0.180720 0.581309 0.969097
Si Si5 0.651504 0.692452 0.037303
Si Si6 0.214595 0.078040 0.663688
Si Si7 0.409973 0.702456 0.193655
O O1 0.713062 0.621722 0.327163
O O2 0.887860 0.613762 0.116602
O O3 0.836351 0.729522 0.251852
O O4 0.947242 0.622430 0.306561
O O5 0.215538 0.078133 0.528060
O O6 0.000000 0.107964 0.500000
O O7 0.122637 0.000000 0.398799
O O8 0.037290 0.500000 0.265835
O O9 0.161018 0.399843 0.319070
O O10 0.121381 0.400409 0.108239
O O11 0.195309 0.500000 0.945756
O O12 0.306716 0.619174 0.925499
O O13 0.548992 0.720534 0.154043
O O14 0.750000 0.750000 0.000000
O O15 0.612075 0.676589 0.924637
O O16 0.117163 0.135855 0.721689
O O17 0.180938 0.000000 0.718483
#
# Coordination Sequence:
#
# PCOD8109504 Si02
#       7
#     8   8   8   8   8   8   8
#     4  12  24  39  65  98 133 171 211 265 331 388
#     4  10  24  46  69  94 127 170 222 273 321 380
#     4  10  21  39  64  96 132 166 212 267 321 388
#     4  11  22  37  64  98 130 170 216 266 320 387
#     4  11  22  40  58  91 135 173 212 256 325 391
#     4  10  23  45  68  91 126 170 221 272 318 375
#     4  11  25  37  65  94 126 175 213 263 325 390
#
# _framework density 21.695108000000001
#
# number of rings (size 3 to 8) (size 9 to 14) (size 15 to 20)
#    0.000    1.286    2.857    2.571    4.000    2.857 
#    0.000    3.571    0.000    0.000    0.000    0.000 
#    0.000    0.000    0.000    0.000    0.000    0.000 
#
# Total GULP energy -347018.193476 kJ/mol
# GULP energy per Si atom -12393.506910 kJ/mol
# Density = 2.164573 g / cm^3
# Si number density = 21.695108 Si / 1000 Ang^3
#
#
#
# Elastic Constant Matrix: (Units=GPa)
#
#
# Indices 1 2 3 4 5 6 
#
# 1 120.7048 32.4972 30.8578 0.0000 -2.5419 0.0000
# 2 32.4972 118.8393 20.7312 0.0000 -10.9691 0.0000
# 3 30.8578 20.7312 53.9806 0.0000 1.1914 0.0000
# 4 0.0000 0.0000 0.0000 21.8465 0.0000 -0.0145
# 5 -2.5419 -10.9691 1.1914 0.0000 33.0218 0.0000
# 6 0.0000 0.0000 0.0000 -0.0145 0.0000 34.3618
#
#
#
# Elastic Compliance Matrix: (Units=1/GPa)
#
#
# Indices 1 2 3 4 5 6 
#
# 1 0.010082 -0.001842 -0.005064 0.000000 0.000347 0.000000
# 2 -0.001842 0.009689 -0.002738 0.000000 0.003176 0.000000
# 3 -0.005064 -0.002738 0.022518 0.000000 -0.002112 0.000000
# 4 0.000000 0.000000 0.000000 0.045774 0.000000 0.000019
# 5 0.000347 0.003176 -0.002112 0.000000 0.031441 0.000000
# 6 0.000000 0.000000 0.000000 0.000019 0.000000 0.029102
#
#
# Mechanical properties :
#
#
# Convention : Reuss Voigt Hill
#
# Bulk Modulus (GPa) = 43.47488 51.29965 47.38727
# Shear Modulus (GPa) = 28.47998 31.80859 30.14428
#
# Velocity S-wave (km/s) = 3.62710 3.83321 3.73158
# Velocity P-wave (km/s) = 6.13382 6.57939 6.36050
#
# Compressibility (1/GPa) = 0.02300179
#
# Stress axis : x y z
#
# Youngs Moduli (GPa) = 99.18283 103.20819 44.40839
#
# Poissons Ratio (x) = 0.19007 0.22488
# Poissons Ratio (y) = 0.18266 0.12161
# Poissons Ratio (z) = 0.50226 0.28263
#
# Static dielectric constant tensor:
#      x y z
#    x 6.553370 0.000000 0.790740 
#    y 0.000000 4.017520 0.000000 
#    z 0.790740 0.000000 3.937100 
# 
# 
# High freq. dielectric constant tensor:
#      x y z
#    x 1.862670 0.000000 0.009580 
#    y 0.000000 1.849730 0.000000 
#    z 0.009580 0.000000 1.829180 
# 
# From -- ./inp_files/133889.got.cif
#   From: 2010.06.25/outbox.cif.g09.slc.cpg/sg12_67_cif.got.tgz:133889.got - 2010.06.28 00:19:55.
