data_PCOD8109009
_publ_section_title
;
Structure prediction by ZEFSAII (Michael W. Deem and Ramdas Pophale) SiO2 
 PCOD8109009
Probable space group: C 2/M
;
_chemical_formula_sum "Si O2"
_cell_formula_units_Z 40
_cell_length_a 18.157835
_cell_length_b 8.524627
_cell_length_c 15.588092
_cell_angle_alpha 90.000000
_cell_angle_beta 53.729594
_cell_angle_gamma 90.000000
_cell_volume 1945.330952
_symmetry_space_group_name_H-M "C 2/M"
_symmetry_group_IT_number 12
_symmetry_cell_setting 'monoclinic'
loop_
_space_group_symop_operation_xyz
x,y,z
-x,y,-z
-x,-y,-z
x,-y,z
1/2+x,1/2+y,z
1/2-x,1/2+y,-z
1/2-x,1/2-y,-z
1/2+x,1/2-y,z
loop_
_atom_site_type_symbol
_atom_site_label
_atom_site_fract_x
_atom_site_fract_y
_atom_site_fract_z
Si Si1 0.333707 0.683256 0.995198
Si Si2 0.462099 0.181220 0.403682
Si Si3 0.833360 0.316721 0.182088
Si Si4 0.632453 0.316897 0.373935
Si Si5 0.027948 0.179966 0.783001
O O1 0.320189 0.500000 0.024662
O O2 0.423331 0.714558 0.877469
O O3 0.250000 0.750000 0.000000
O O4 0.342402 0.779458 0.076285
O O5 0.566178 0.224878 0.354833
O O6 0.392245 0.279562 0.510630
O O7 0.441801 0.216074 0.318660
O O8 0.444899 0.000000 0.434595
O O9 0.849129 0.500000 0.186797
O O10 0.735027 0.262101 0.284707
O O11 0.910286 0.220474 0.178373
O O12 0.619730 0.500000 0.364162
O O13 0.041886 0.000000 0.748249
#
# Coordination Sequence:
#
# PCOD8109009 Si02
#       5
#     8   8   8   8   8
#     4  11  24  41  63  89 117 154 196 239 290 346
#     4  11  22  37  61  90 117 152 199 244 288 341
#     4  11  24  40  61  89 119 154 195 240 292 347
#     4  10  21  39  61  86 119 156 194 239 292 347
#     4  11  24  41  60  85 120 158 194 237 293 350
#
# _framework density 20.562052999999999
#
# number of rings (size 3 to 8) (size 9 to 14) (size 15 to 20)
#    0.000    1.200    0.000    7.200    0.000   14.400 
#    0.000    0.000    0.000    0.000    0.000    0.000 
#    0.000    0.000    0.000    0.000    0.000    0.000 
#
# Total GULP energy -248154.133672 kJ/mol
# GULP energy per Si atom -12407.706684 kJ/mol
# Density = 2.051525 g / cm^3
# Si number density = 20.562053 Si / 1000 Ang^3
#
#
#
# Elastic Constant Matrix: (Units=GPa)
#
#
# Indices 1 2 3 4 5 6 
#
# 1 71.1516 14.0399 15.9132 0.0000 22.2526 0.0000
# 2 14.0399 54.3465 20.8399 0.0000 -10.4173 0.0001
# 3 15.9132 20.8399 70.8128 0.0000 20.7431 0.0000
# 4 0.0000 0.0000 0.0000 34.9342 0.0000 5.0514
# 5 22.2526 -10.4173 20.7431 0.0000 31.6660 0.0000
# 6 0.0000 0.0001 0.0000 5.0514 0.0000 34.7360
#
#
#
# Elastic Compliance Matrix: (Units=1/GPa)
#
#
# Indices 1 2 3 4 5 6 
#
# 1 0.022699 -0.012523 0.005524 0.000000 -0.023690 0.000000
# 2 -0.012523 0.033543 -0.015923 0.000000 0.030266 0.000000
# 3 0.005524 -0.015923 0.025043 0.000000 -0.025525 0.000000
# 4 0.000000 0.000000 0.000000 0.029240 0.000000 -0.004252
# 5 -0.023690 0.030266 -0.025525 0.000000 0.074904 0.000000
# 6 0.000000 0.000000 0.000000 -0.004252 0.000000 0.029407
#
#
# Mechanical properties :
#
#
# Convention : Reuss Voigt Hill
#
# Bulk Modulus (GPa) = 28.21599 33.09965 30.65782
# Shear Modulus (GPa) = 18.34897 29.96843 24.15870
#
# Velocity S-wave (km/s) = 2.99050 3.82182 3.43142
# Velocity P-wave (km/s) = 5.06717 5.96720 5.53551
#
# Compressibility (1/GPa) = 0.03544089
#
# Stress axis : x y z
#
# Youngs Moduli (GPa) = 44.05470 29.81243 39.93056
#
# Poissons Ratio (x) = 0.37335 -0.22057
# Poissons Ratio (y) = 0.55170 0.63582
# Poissons Ratio (z) = -0.24335 0.47470
#
# Static dielectric constant tensor:
#      x y z
#    x 3.647440 0.000000 -0.095120 
#    y 0.000000 3.827840 0.000000 
#    z -0.095120 0.000000 3.814990 
# 
# 
# High freq. dielectric constant tensor:
#      x y z
#    x 1.806700 0.000000 0.001390 
#    y 0.000000 1.815690 0.000000 
#    z 0.001390 0.000000 1.816130 
# 
# From -- ./inp_files/220578.got.cif
#   From: 2010.06.25/outbox.cif.g09.slc.cpg/sg12_111_cif.got.tgz:220578.got - 2010.06.28 00:19:55.
