data_PCOD8109751
_publ_section_title
;
Structure prediction by ZEFSAII (Michael W. Deem and Ramdas Pophale) SiO2 
 PCOD8109751
Probable space group: C 2/M
;
_chemical_formula_sum "Si O2"
_cell_formula_units_Z 48
_cell_length_a 10.538116
_cell_length_b 28.320089
_cell_length_c 9.249928
_cell_angle_alpha 90.000000
_cell_angle_beta 60.455732
_cell_angle_gamma 90.000000
_cell_volume 2401.611216
_symmetry_space_group_name_H-M "C 2/M"
_symmetry_group_IT_number 12
_symmetry_cell_setting 'monoclinic'
loop_
_space_group_symop_operation_xyz
x,y,z
-x,y,-z
-x,-y,-z
x,-y,z
1/2+x,1/2+y,z
1/2-x,1/2+y,-z
1/2-x,1/2-y,-z
1/2+x,1/2-y,z
loop_
_atom_site_type_symbol
_atom_site_label
_atom_site_fract_x
_atom_site_fract_y
_atom_site_fract_z
Si Si1 0.671863 0.875646 0.777143
Si Si2 0.140786 0.054637 0.839307
Si Si3 0.604650 0.767723 0.802691
Si Si4 0.396819 0.210860 0.689361
Si Si5 0.148212 0.051784 0.500568
Si Si6 0.648404 0.117219 0.109496
O O1 0.666079 0.820308 0.744190
O O2 0.771509 0.903672 0.610941
O O3 0.514134 0.898527 0.839254
O O4 0.731335 0.881381 0.907984
O O5 0.121114 0.064637 0.681964
O O6 0.284257 0.079721 0.819038
O O7 0.159000 0.000000 0.866045
O O8 0.000000 0.075720 0.000000
O O9 0.499086 0.753988 0.727253
O O10 0.745811 0.734428 0.724267
O O11 0.500000 0.763850 0.000000
O O12 0.500000 0.193583 0.500000
O O13 0.347684 0.167934 0.817617
O O14 0.000000 0.046162 0.500000
O O15 0.228538 0.000000 0.444336
#
# Coordination Sequence:
#
# PCOD8109751 Si02
#       6
#     8   8   8   8   8   8
#     4  10  21  40  62  87 123 164 203 251 309 367
#     4  10  22  40  62  91 125 160 203 254 306 368
#     4  11  22  43  65  90 128 169 211 260 313 378
#     4  11  24  41  64  93 128 167 213 263 315 373
#     4  10  22  40  63  90 123 161 203 254 308 368
#     4  10  22  39  61  88 123 162 202 253 309 365
#
# _framework density 19.986581000000001
#
# number of rings (size 3 to 8) (size 9 to 14) (size 15 to 20)
#    0.000    1.667    3.333    2.000    4.667    4.000 
#    3.000    3.333    0.000    0.000    0.000    0.000 
#    0.000    0.000    0.000    0.000    0.000    0.000 
#
# Total GULP energy -297448.083591 kJ/mol
# GULP energy per Si atom -12393.670150 kJ/mol
# Density = 1.994109 g / cm^3
# Si number density = 19.986581 Si / 1000 Ang^3
#
#
#
# Elastic Constant Matrix: (Units=GPa)
#
#
# Indices 1 2 3 4 5 6 
#
# 1 118.3184 40.0269 43.3018 0.0000 19.4101 0.0000
# 2 40.0269 62.2155 49.0360 0.0000 -5.8306 0.0000
# 3 43.3018 49.0360 127.9936 0.0000 6.6918 0.0000
# 4 0.0000 0.0000 0.0000 31.1110 0.0000 8.4736
# 5 19.4101 -5.8306 6.6918 0.0000 36.4603 0.0000
# 6 0.0000 0.0000 0.0000 8.4736 0.0000 64.6951
#
#
#
# Elastic Compliance Matrix: (Units=1/GPa)
#
#
# Indices 1 2 3 4 5 6 
#
# 1 0.012921 -0.008542 -0.000674 0.000000 -0.008121 0.000000
# 2 -0.008542 0.029757 -0.009084 0.000000 0.010974 0.000000
# 3 -0.000674 -0.009084 0.011690 0.000000 -0.003240 0.000000
# 4 0.000000 0.000000 0.000000 0.033332 0.000000 -0.004366
# 5 -0.008121 0.010974 -0.003240 0.000000 0.034100 0.000000
# 6 0.000000 0.000000 0.000000 -0.004366 0.000000 0.016029
#
#
# Mechanical properties :
#
#
# Convention : Reuss Voigt Hill
#
# Bulk Modulus (GPa) = 56.28298 63.69521 59.98910
# Shear Modulus (GPa) = 27.72355 38.19747 32.96051
#
# Velocity S-wave (km/s) = 3.72843 4.37642 4.06536
# Velocity P-wave (km/s) = 6.83787 7.58126 7.21914
#
# Compressibility (1/GPa) = 0.01776736
#
# Stress axis : x y z
#
# Youngs Moduli (GPa) = 77.39636 33.60539 85.53987
#
# Poissons Ratio (x) = 0.28707 0.05764
# Poissons Ratio (y) = 0.66115 0.77705
# Poissons Ratio (z) = 0.05215 0.30527
#
# Static dielectric constant tensor:
#      x y z
#    x 3.935240 0.000000 0.178950 
#    y 0.000000 3.555000 0.000000 
#    z 0.178950 0.000000 3.827200 
# 
# 
# High freq. dielectric constant tensor:
#      x y z
#    x 1.788750 0.000000 0.017510 
#    y 0.000000 1.765670 0.000000 
#    z 0.017510 0.000000 1.788580 
# 
# From -- ./inp_files/52405.got.cif
#   From: 2010.06.25/outbox.cif.g09.slc.cpg/sg12_27_cif.got.tgz:52405.got - 2010.06.28 00:19:55.
