data_PCOD8109392
_publ_section_title
;
Structure prediction by ZEFSAII (Michael W. Deem and Ramdas Pophale) SiO2 
 PCOD8109392
Probable space group: C 2/M
;
_chemical_formula_sum "Si O2"
_cell_formula_units_Z 48
_cell_length_a 9.752591
_cell_length_b 26.783257
_cell_length_c 11.797645
_cell_angle_alpha 90.000000
_cell_angle_beta 131.504919
_cell_angle_gamma 90.000000
_cell_volume 2307.819699
_symmetry_space_group_name_H-M "C 2/M"
_symmetry_group_IT_number 12
_symmetry_cell_setting 'monoclinic'
loop_
_space_group_symop_operation_xyz
x,y,z
-x,y,-z
-x,-y,-z
x,-y,z
1/2+x,1/2+y,z
1/2-x,1/2+y,-z
1/2-x,1/2-y,-z
1/2+x,1/2-y,z
loop_
_atom_site_type_symbol
_atom_site_label
_atom_site_fract_x
_atom_site_fract_y
_atom_site_fract_z
Si Si1 0.796100 0.942149 0.933138
Si Si2 0.790868 0.944208 0.393086
Si Si3 0.584614 0.223247 0.346670
Si Si4 0.491465 0.885909 0.624746
Si Si5 0.355204 0.303928 0.317787
Si Si6 0.793778 0.399120 0.875329
O O1 0.663336 0.908958 0.784012
O O2 0.734549 0.000000 0.893487
O O3 0.789127 0.922795 0.057379
O O4 0.000000 0.935070 0.000000
O O5 0.697546 0.905809 0.427286
O O6 0.701523 0.941461 0.219374
O O7 0.000000 0.928076 0.500000
O O8 0.767158 0.000000 0.427823
O O9 0.750000 0.250000 0.500000
O O10 0.512715 0.173758 0.369862
O O11 0.415438 0.261839 0.259839
O O12 0.654465 0.210476 0.258310
O O13 0.500000 0.902935 0.500000
O O14 0.500000 0.310194 0.500000
O O15 0.338278 0.354735 0.238205
O O16 0.000000 0.378870 0.000000
#
# Coordination Sequence:
#
# PCOD8109392 Si02
#       6
#     8   8   8   8   8   8
#     4  11  27  46  66  96 136 184 227 274 344 404
#     4  11  25  42  68 101 129 170 227 280 334 394
#     4  10  21  39  64 101 130 171 222 271 338 395
#     4  12  25  44  69  99 137 176 224 284 336 402
#     4  10  21  39  66  96 131 170 223 276 324 396
#     4  12  23  43  68  94 134 178 220 274 335 402
#
# _framework density 20.798852
#
# number of rings (size 3 to 8) (size 9 to 14) (size 15 to 20)
#    0.000    1.000    3.333    3.000    4.667    3.333 
#    0.000    4.167    0.000    0.000    0.000    0.000 
#    0.000    0.000    0.000    0.000    0.000    0.000 
#
# Total GULP energy -297619.739794 kJ/mol
# GULP energy per Si atom -12400.822491 kJ/mol
# Density = 2.075151 g / cm^3
# Si number density = 20.798852 Si / 1000 Ang^3
#
#
#
# Elastic Constant Matrix: (Units=GPa)
#
#
# Indices 1 2 3 4 5 6 
#
# 1 127.2526 48.2617 46.1953 0.0000 -11.2094 0.0000
# 2 48.2617 138.2842 43.3061 0.0000 7.2055 0.0000
# 3 46.1953 43.3061 89.0647 0.0000 -5.2926 0.0000
# 4 0.0000 0.0000 0.0000 31.9908 0.0000 15.1574
# 5 -11.2094 7.2055 -5.2926 0.0000 35.5961 0.0000
# 6 0.0000 0.0000 0.0000 15.1574 0.0000 66.4442
#
#
#
# Elastic Compliance Matrix: (Units=1/GPa)
#
#
# Indices 1 2 3 4 5 6 
#
# 1 0.010600 -0.002605 -0.004037 0.000000 0.003265 0.000000
# 2 -0.002605 0.009373 -0.003398 0.000000 -0.003223 0.000000
# 3 -0.004037 -0.003398 0.015072 0.000000 0.001657 0.000000
# 4 0.000000 0.000000 0.000000 0.035047 0.000000 -0.007995
# 5 0.003265 -0.003223 0.001657 0.000000 0.030020 0.000000
# 6 0.000000 0.000000 0.000000 -0.007995 0.000000 0.016874
#
#
# Mechanical properties :
#
#
# Convention : Reuss Voigt Hill
#
# Bulk Modulus (GPa) = 66.82276 70.01420 68.41848
# Shear Modulus (GPa) = 35.19814 41.26211 38.23012
#
# Velocity S-wave (km/s) = 4.11823 4.45889 4.29194
# Velocity P-wave (km/s) = 7.40344 7.76174 7.58471
#
# Compressibility (1/GPa) = 0.01496496
#
# Stress axis : x y z
#
# Youngs Moduli (GPa) = 94.34394 106.69370 66.34762
#
# Poissons Ratio (x) = 0.27795 0.26784
# Poissons Ratio (y) = 0.24578 0.22542
# Poissons Ratio (z) = 0.38086 0.36250
#
# Static dielectric constant tensor:
#      x y z
#    x 4.175100 0.000000 -0.084330 
#    y 0.000000 3.919080 0.000000 
#    z -0.084330 0.000000 3.514690 
# 
# 
# High freq. dielectric constant tensor:
#      x y z
#    x 1.831750 0.000000 0.000810 
#    y 0.000000 1.829230 0.000000 
#    z 0.000810 0.000000 1.793030 
# 
# From -- ./inp_files/123876.got.cif
#   From: 2010.06.25/outbox.cif.g09.slc.cpg/sg12_62_cif.got.tgz:123876.got - 2010.06.28 00:19:55.
