data_PCOD8109582
_publ_section_title
;
Structure prediction by ZEFSAII (Michael W. Deem and Ramdas Pophale) SiO2 
 PCOD8109582
Probable space group: C 2/M
;
_chemical_formula_sum "Si O2"
_cell_formula_units_Z 44
_cell_length_a 5.175258
_cell_length_b 24.381807
_cell_length_c 16.972914
_cell_angle_alpha 90.000000
_cell_angle_beta 92.803081
_cell_angle_gamma 90.000000
_cell_volume 2139.116141
_symmetry_space_group_name_H-M "C 2/M"
_symmetry_group_IT_number 12
_symmetry_cell_setting 'monoclinic'
loop_
_space_group_symop_operation_xyz
x,y,z
-x,y,-z
-x,-y,-z
x,-y,z
1/2+x,1/2+y,z
1/2-x,1/2+y,-z
1/2-x,1/2-y,-z
1/2+x,1/2-y,z
loop_
_atom_site_type_symbol
_atom_site_label
_atom_site_fract_x
_atom_site_fract_y
_atom_site_fract_z
Si Si1 0.078217 0.628833 0.721824
Si Si2 0.855228 0.286310 0.138884
Si Si3 0.327504 0.559711 0.073965
Si Si4 0.064864 0.937536 0.751803
Si Si5 0.500000 0.149133 0.000000
Si Si6 0.527876 0.215208 0.590909
O O1 0.328052 0.591963 0.704467
O O2 0.998954 0.661110 0.642300
O O3 0.161338 0.669685 0.792304
O O4 0.839340 0.590669 0.740989
O O5 0.136569 0.258854 0.147600
O O6 0.813500 0.313570 0.051662
O O7 0.183379 0.500000 0.073867
O O8 0.496605 0.565462 0.155435
O O9 0.134981 0.610753 0.067090
O O10 0.500000 0.563113 0.000000
O O11 0.081121 0.000000 0.721993
O O12 0.500000 0.197202 0.500000
O O13 0.305329 0.257838 0.611854
#
# Coordination Sequence:
#
# PCOD8109582 Si02
#       6
#     8   8   8   8   4   8
#     4  12  22  42  66  88 125 162 202 250 309 366
#     4  12  26  40  57  83 117 160 203 242 295 364
#     4  10  22  38  59  84 111 153 211 266 314 359
#     4  11  24  41  63  92 120 158 208 258 309 368
#     4  12  23  38  58  76 120 152 201 252 314 354
#     4  10  21  39  66 100 131 161 203 251 299 357
#
# _framework density 20.569241000000002
#
# number of rings (size 3 to 8) (size 9 to 14) (size 15 to 20)
#    0.000    0.909    1.818    5.727    2.545    0.000 
#    0.000    0.000    0.000    3.273    0.000    0.000 
#    0.000    0.000    0.000    0.000    0.000    0.000 
#
# Total GULP energy -272834.557230 kJ/mol
# GULP energy per Si atom -12401.570783 kJ/mol
# Density = 2.052242 g / cm^3
# Si number density = 20.569241 Si / 1000 Ang^3
#
#
#
# Elastic Constant Matrix: (Units=GPa)
#
#
# Indices 1 2 3 4 5 6 
#
# 1 76.2167 23.9869 13.4450 0.0000 1.0057 0.0000
# 2 23.9869 115.6788 44.5184 0.0000 -0.0902 0.0000
# 3 13.4450 44.5184 73.8741 0.0000 3.0342 0.0000
# 4 0.0000 0.0000 0.0000 22.8394 0.0000 5.7341
# 5 1.0057 -0.0902 3.0342 0.0000 19.7949 0.0000
# 6 0.0000 0.0000 0.0000 5.7341 0.0000 32.3898
#
#
#
# Elastic Compliance Matrix: (Units=1/GPa)
#
#
# Indices 1 2 3 4 5 6 
#
# 1 0.014105 -0.002534 -0.001016 0.000000 -0.000572 0.000000
# 2 -0.002534 0.011734 -0.006659 0.000000 0.001203 0.000000
# 3 -0.001016 -0.006659 0.017846 0.000000 -0.002714 0.000000
# 4 0.000000 0.000000 0.000000 0.045821 0.000000 -0.008112
# 5 -0.000572 0.001203 -0.002714 0.000000 0.050969 0.000000
# 6 0.000000 0.000000 0.000000 -0.008112 0.000000 0.032310
#
#
# Mechanical properties :
#
#
# Convention : Reuss Voigt Hill
#
# Bulk Modulus (GPa) = 42.98279 47.74111 45.36195
# Shear Modulus (GPa) = 24.88076 27.25946 26.07011
#
# Velocity S-wave (km/s) = 3.48172 3.64435 3.56396
# Velocity P-wave (km/s) = 6.09140 6.40068 6.24796
#
# Compressibility (1/GPa) = 0.02326513
#
# Stress axis : x y z
#
# Youngs Moduli (GPa) = 70.89758 85.22380 56.03472
#
# Poissons Ratio (x) = 0.21596 0.05696
# Poissons Ratio (y) = 0.17965 0.37315
# Poissons Ratio (z) = 0.07207 0.56753
#
# Static dielectric constant tensor:
#      x y z
#    x 3.855310 0.000000 -0.022330 
#    y 0.000000 4.065150 0.000000 
#    z -0.022330 0.000000 3.654860 
# 
# 
# High freq. dielectric constant tensor:
#      x y z
#    x 1.804960 0.000000 -0.000960 
#    y 0.000000 1.821170 0.000000 
#    z -0.000960 0.000000 1.785570 
# 
# From -- ./inp_files/252872.got.cif
#   From: 2010.06.25/outbox.cif.g09.slc.cpg/sg12_127_cif.got.tgz:252872.got - 2010.06.28 00:19:55.
