data_PCOD8109364
_publ_section_title
;
Structure prediction by ZEFSAII (Michael W. Deem and Ramdas Pophale) SiO2 
 PCOD8109364
Probable space group: C 2/M
;
_chemical_formula_sum "Si O2"
_cell_formula_units_Z 40
_cell_length_a 23.964087
_cell_length_b 9.011229
_cell_length_c 9.324231
_cell_angle_alpha 90.000000
_cell_angle_beta 76.899816
_cell_angle_gamma 90.000000
_cell_volume 1961.127613
_symmetry_space_group_name_H-M "C 2/M"
_symmetry_group_IT_number 12
_symmetry_cell_setting 'monoclinic'
loop_
_space_group_symop_operation_xyz
x,y,z
-x,y,-z
-x,-y,-z
x,-y,z
1/2+x,1/2+y,z
1/2-x,1/2+y,-z
1/2-x,1/2-y,-z
1/2+x,1/2-y,z
loop_
_atom_site_type_symbol
_atom_site_label
_atom_site_fract_x
_atom_site_fract_y
_atom_site_fract_z
Si Si1 0.389427 0.827895 0.731230
Si Si2 0.984040 0.175258 0.847805
Si Si3 0.726649 0.668487 0.150552
Si Si4 0.420631 0.171975 0.392263
Si Si5 0.703080 0.833689 0.616348
O O1 0.424226 0.752097 0.840254
O O2 0.327649 0.752329 0.751090
O O3 0.423527 0.807910 0.562200
O O4 0.380691 0.000000 0.773661
O O5 0.031785 0.227693 0.708497
O O6 0.976639 0.000000 0.839878
O O7 0.000000 0.223649 0.000000
O O8 0.708858 0.500000 0.124393
O O9 0.779874 0.671420 0.228042
O O10 0.750000 0.750000 0.000000
O O11 0.360067 0.233820 0.367818
O O12 0.430881 0.000000 0.344307
O O13 0.750000 0.750000 0.500000
O O14 0.701194 0.000000 0.555749
#
# Coordination Sequence:
#
# PCOD8109364 Si02
#       5
#     8   8   8   8   8
#     4  11  23  42  67  92 122 162 207 257 309 366
#     4  11  26  44  62  91 125 161 205 257 311 366
#     4  11  24  40  62  94 130 168 206 250 306 365
#     4  10  22  41  65  93 123 161 206 253 305 367
#     4  10  21  39  63  93 126 161 204 248 302 364
#
# _framework density 20.396429000000001
#
# number of rings (size 3 to 8) (size 9 to 14) (size 15 to 20)
#    0.000    1.400    2.000    2.400    2.800    7.200 
#    0.000    0.000    0.000    0.000    0.000    0.000 
#    0.000    0.000    0.000    0.000    0.000    0.000 
#
# Total GULP energy -248087.798469 kJ/mol
# GULP energy per Si atom -12404.389923 kJ/mol
# Density = 2.035001 g / cm^3
# Si number density = 20.396429 Si / 1000 Ang^3
#
#
#
# Elastic Constant Matrix: (Units=GPa)
#
#
# Indices 1 2 3 4 5 6 
#
# 1 87.6958 29.0346 11.3320 0.0000 17.8612 0.0000
# 2 29.0346 103.8886 39.7049 0.0000 7.1567 0.0000
# 3 11.3320 39.7049 83.2518 0.0000 7.6453 0.0000
# 4 0.0000 0.0000 0.0000 34.9514 0.0000 -4.1707
# 5 17.8612 7.1567 7.6453 0.0000 36.9606 0.0000
# 6 0.0000 0.0000 0.0000 -4.1707 0.0000 37.1471
#
#
#
# Elastic Compliance Matrix: (Units=1/GPa)
#
#
# Indices 1 2 3 4 5 6 
#
# 1 0.013769 -0.003580 0.000388 0.000000 -0.006041 0.000000
# 2 -0.003580 0.012750 -0.005632 0.000000 0.000426 0.000000
# 3 0.000388 -0.005632 0.014844 0.000000 -0.002167 0.000000
# 4 0.000000 0.000000 0.000000 0.029000 0.000000 0.003256
# 5 -0.006041 0.000426 -0.002167 0.000000 0.030341 0.000000
# 6 0.000000 0.000000 0.000000 0.003256 0.000000 0.027286
#
#
# Mechanical properties :
#
#
# Convention : Reuss Voigt Hill
#
# Bulk Modulus (GPa) = 42.17049 48.33102 45.25076
# Shear Modulus (GPa) = 32.56441 34.79613 33.68027
#
# Velocity S-wave (km/s) = 4.00005 4.13485 4.06801
# Velocity P-wave (km/s) = 6.48492 6.82226 6.65573
#
# Compressibility (1/GPa) = 0.02371326
#
# Stress axis : x y z
#
# Youngs Moduli (GPa) = 72.62918 78.43416 67.36630
#
# Poissons Ratio (x) = 0.28081 -0.02614
# Poissons Ratio (y) = 0.26003 0.37944
# Poissons Ratio (z) = -0.02819 0.44177
#
# Static dielectric constant tensor:
#      x y z
#    x 4.111280 0.000000 0.188880 
#    y 0.000000 3.738380 0.000000 
#    z 0.188880 0.000000 3.699330 
# 
# 
# High freq. dielectric constant tensor:
#      x y z
#    x 1.811960 0.000000 0.009440 
#    y 0.000000 1.799980 0.000000 
#    z 0.009440 0.000000 1.798090 
# 
# From -- ./inp_files/92704.got.cif
#   From: 2010.06.25/outbox.cif.g09.slc.cpg/sg12_47_cif.got.tgz:92704.got - 2010.06.28 00:19:55.
