data_PCOD8109362
_publ_section_title
;
Structure prediction by ZEFSAII (Michael W. Deem and Ramdas Pophale) SiO2 
 PCOD8109362
Probable space group: C 2/M
;
_chemical_formula_sum "Si O2"
_cell_formula_units_Z 64
_cell_length_a 24.761413
_cell_length_b 8.909362
_cell_length_c 14.438961
_cell_angle_alpha 90.000000
_cell_angle_beta 89.001003
_cell_angle_gamma 90.000000
_cell_volume 3184.871797
_symmetry_space_group_name_H-M "C 2/M"
_symmetry_group_IT_number 12
_symmetry_cell_setting 'monoclinic'
loop_
_space_group_symop_operation_xyz
x,y,z
-x,y,-z
-x,-y,-z
x,-y,z
1/2+x,1/2+y,z
1/2-x,1/2+y,-z
1/2-x,1/2-y,-z
1/2+x,1/2-y,z
loop_
_atom_site_type_symbol
_atom_site_label
_atom_site_fract_x
_atom_site_fract_y
_atom_site_fract_z
Si Si1 0.559085 0.170912 0.531367
Si Si2 0.521632 0.674018 0.219839
Si Si3 0.691139 0.827454 0.822054
Si Si4 0.337611 0.323358 0.996051
Si Si5 0.594981 0.324870 0.714960
Si Si6 0.898804 0.328645 0.663836
Si Si7 0.811637 0.172797 0.789322
Si Si8 0.056890 0.674743 0.040841
O O1 0.500000 0.228301 0.500000
O O2 0.583817 0.271372 0.611570
O O3 0.603286 0.180326 0.447465
O O4 0.553175 0.000000 0.567623
O O5 0.533005 0.500000 0.200259
O O6 0.458047 0.709289 0.221633
O O7 0.548745 0.727122 0.314314
O O8 0.555149 0.773602 0.146634
O O9 0.698373 0.752063 0.922940
O O10 0.645690 0.755502 0.759226
O O11 0.748315 0.809802 0.768105
O O12 0.676183 0.000000 0.838473
O O13 0.331827 0.500000 0.006625
O O14 0.321603 0.267550 0.893850
O O15 0.398682 0.270302 0.015468
O O16 0.607621 0.500000 0.711727
O O17 0.907402 0.500000 0.696010
O O18 0.844190 0.266808 0.712188
O O19 0.830433 0.000000 0.782625
O O20 0.070677 0.500000 0.032606
O O21 0.000000 0.718243 0.000000
#
# Coordination Sequence:
#
# PCOD8109362 Si02
#       8
#     8   8   8   8   8   8   8   8
#     4  10  21  39  63  93 126 159 198 246 302 367
#     4  11  22  36  56  84 121 158 195 244 301 358
#     4  11  24  42  63  87 121 164 207 252 304 360
#     4  11  22  38  61  89 121 157 204 255 303 358
#     4  11  24  40  62  92 124 161 203 252 307 361
#     4  11  22  37  63  93 120 155 198 245 298 359
#     4  10  23  42  63  89 122 162 205 254 305 354
#     4  11  23  36  53  82 119 161 205 245 296 361
#
# _framework density 20.094999000000001
#
# number of rings (size 3 to 8) (size 9 to 14) (size 15 to 20)
#    0.000    1.250    2.500    3.375    0.000    7.250 
#    0.000    0.625    0.000    0.000    0.000    0.000 
#    0.000    0.000    0.000    0.000    0.000    0.000 
#
# Total GULP energy -396842.291742 kJ/mol
# GULP energy per Si atom -12401.321617 kJ/mol
# Density = 2.004926 g / cm^3
# Si number density = 20.094999 Si / 1000 Ang^3
#
#
#
# Elastic Constant Matrix: (Units=GPa)
#
#
# Indices 1 2 3 4 5 6 
#
# 1 104.1722 44.8768 31.3159 0.0000 -5.0419 0.0000
# 2 44.8768 75.5590 29.9624 0.0000 -7.3339 0.0000
# 3 31.3159 29.9624 76.3742 0.0000 -10.6428 0.0000
# 4 0.0000 0.0000 0.0000 32.5179 0.0000 -0.1147
# 5 -5.0419 -7.3339 -10.6428 0.0000 26.7839 0.0000
# 6 0.0000 0.0000 0.0000 -0.1147 0.0000 31.6981
#
#
#
# Elastic Compliance Matrix: (Units=1/GPa)
#
#
# Indices 1 2 3 4 5 6 
#
# 1 0.013396 -0.006867 -0.002868 0.000000 -0.000498 0.000000
# 2 -0.006867 0.019291 -0.004442 0.000000 0.002224 0.000000
# 3 -0.002868 -0.004442 0.016692 0.000000 0.004876 0.000000
# 4 0.000000 0.000000 0.000000 0.030753 0.000000 0.000111
# 5 -0.000498 0.002224 0.004876 0.000000 0.039789 0.000000
# 6 0.000000 0.000000 0.000000 0.000111 0.000000 0.031548
#
#
# Mechanical properties :
#
#
# Convention : Reuss Voigt Hill
#
# Bulk Modulus (GPa) = 47.56646 52.04616 49.80631
# Shear Modulus (GPa) = 26.76215 28.19665 27.47940
#
# Velocity S-wave (km/s) = 3.65332 3.74995 3.70195
# Velocity P-wave (km/s) = 6.44343 6.68624 6.56596
#
# Compressibility (1/GPa) = 0.02102322
#
# Stress axis : x y z
#
# Youngs Moduli (GPa) = 74.64931 51.83813 59.91009
#
# Poissons Ratio (x) = 0.35599 0.17183
# Poissons Ratio (y) = 0.51264 0.26613
# Poissons Ratio (z) = 0.21410 0.23028
#
# Static dielectric constant tensor:
#      x y z
#    x 3.636430 0.000000 -0.061280 
#    y 0.000000 3.650920 0.000000 
#    z -0.061280 0.000000 3.646130 
# 
# 
# High freq. dielectric constant tensor:
#      x y z
#    x 1.784860 0.000000 -0.008210 
#    y 0.000000 1.790340 0.000000 
#    z -0.008210 0.000000 1.778520 
# 
# From -- ./inp_files/238722.got.cif
#   From: 2010.06.25/outbox.cif.g09.slc.cpg/sg12_120_cif.got.tgz:238722.got - 2010.06.28 00:19:55.
