data_PCOD8109707
_publ_section_title
;
Structure prediction by ZEFSAII (Michael W. Deem and Ramdas Pophale) SiO2 
 PCOD8109707
Probable space group: C 2/M
;
_chemical_formula_sum "Si O2"
_cell_formula_units_Z 48
_cell_length_a 23.846829
_cell_length_b 13.509700
_cell_length_c 7.556337
_cell_angle_alpha 90.000000
_cell_angle_beta 78.341649
_cell_angle_gamma 90.000000
_cell_volume 2384.154745
_symmetry_space_group_name_H-M "C 2/M"
_symmetry_group_IT_number 12
_symmetry_cell_setting 'monoclinic'
loop_
_space_group_symop_operation_xyz
x,y,z
-x,y,-z
-x,-y,-z
x,-y,z
1/2+x,1/2+y,z
1/2-x,1/2+y,-z
1/2-x,1/2-y,-z
1/2+x,1/2-y,z
loop_
_atom_site_type_symbol
_atom_site_label
_atom_site_fract_x
_atom_site_fract_y
_atom_site_fract_z
Si Si1 0.061608 0.755856 0.001253
Si Si2 0.835961 0.607729 0.709244
Si Si3 0.565563 0.247980 0.415199
Si Si4 0.391072 0.615592 0.306824
Si Si5 0.344534 0.890498 0.107321
Si Si6 0.225570 0.221947 0.700226
O O1 0.072672 0.775429 0.202535
O O2 0.069025 0.858251 0.887566
O O3 0.101285 0.676092 0.872813
O O4 0.000000 0.711594 0.000000
O O5 0.826944 0.500000 0.623759
O O6 0.887468 0.662522 0.570966
O O7 0.776496 0.666107 0.766893
O O8 0.855056 0.591831 0.895727
O O9 0.500000 0.214705 0.500000
O O10 0.583422 0.339396 0.527452
O O11 0.390857 0.500000 0.339071
O O12 0.327690 0.650006 0.294495
O O13 0.288711 0.824860 0.189444
O O14 0.341611 0.000000 0.201043
O O15 0.250000 0.250000 0.500000
#
# Coordination Sequence:
#
# PCOD8109707 Si02
#       6
#     8   8   8   8   8   8
#     4  10  21  40  61  86 124 161 201 252 300 354
#     4  10  21  40  63  89 120 159 200 244 301 363
#     4  11  22  41  63  89 125 158 200 255 303 351
#     4  11  24  41  61  90 121 161 207 247 305 364
#     4   9  21  38  61  89 119 158 199 243 303 362
#     4  11  21  39  61  87 124 154 196 253 299 354
#
# _framework density 20.132921
#
# number of rings (size 3 to 8) (size 9 to 14) (size 15 to 20)
#    0.000    1.667    3.333    1.000    0.000    3.333 
#    0.000    0.000    0.000    0.000    0.000    0.000 
#    0.000    0.000    0.000    0.000    0.000    0.000 
#
# Total GULP energy -297358.074172 kJ/mol
# GULP energy per Si atom -12389.919757 kJ/mol
# Density = 2.008710 g / cm^3
# Si number density = 20.132921 Si / 1000 Ang^3
#
#
#
# Elastic Constant Matrix: (Units=GPa)
#
#
# Indices 1 2 3 4 5 6 
#
# 1 129.5201 61.7155 15.5508 0.0000 -17.5924 0.0000
# 2 61.7155 167.4823 44.3141 0.0000 -18.2039 0.0000
# 3 15.5508 44.3141 92.7975 0.0000 -8.1285 0.0000
# 4 0.0000 0.0000 0.0000 22.5158 0.0000 0.9088
# 5 -17.5924 -18.2039 -8.1285 0.0000 30.4336 0.0000
# 6 0.0000 0.0000 0.0000 0.9088 0.0000 17.8523
#
#
#
# Elastic Compliance Matrix: (Units=1/GPa)
#
#
# Indices 1 2 3 4 5 6 
#
# 1 0.009750 -0.003250 0.000247 0.000000 0.003758 0.000000
# 2 -0.003250 0.008256 -0.003205 0.000000 0.002204 0.000000
# 3 0.000247 -0.003205 0.012400 0.000000 0.001538 0.000000
# 4 0.000000 0.000000 0.000000 0.044505 0.000000 -0.002266
# 5 0.003758 0.002204 0.001538 0.000000 0.036760 0.000000
# 6 0.000000 0.000000 0.000000 -0.002266 0.000000 0.056130
#
#
# Mechanical properties :
#
#
# Convention : Reuss Voigt Hill
#
# Bulk Modulus (GPa) = 55.58342 70.32897 62.95620
# Shear Modulus (GPa) = 26.85107 32.04165 29.44636
#
# Velocity S-wave (km/s) = 3.65593 3.99370 3.82854
# Velocity P-wave (km/s) = 6.74458 7.50162 7.13315
#
# Compressibility (1/GPa) = 0.01799098
#
# Stress axis : x y z
#
# Youngs Moduli (GPa) = 102.56323 121.12784 80.64618
#
# Poissons Ratio (x) = 0.39363 -0.01993
# Poissons Ratio (y) = 0.33330 0.25845
# Poissons Ratio (z) = -0.02535 0.38819
#
# Static dielectric constant tensor:
#      x y z
#    x 3.556910 0.000000 -0.075200 
#    y 0.000000 3.958500 0.000000 
#    z -0.075200 0.000000 3.690520 
# 
# 
# High freq. dielectric constant tensor:
#      x y z
#    x 1.793570 0.000000 -0.005640 
#    y 0.000000 1.776790 0.000000 
#    z -0.005640 0.000000 1.793820 
# 
# From -- ./inp_files/94357.got.cif
#   From: 2010.06.25/outbox.cif.g09.slc.cpg/sg12_48_cif.got.tgz:94357.got - 2010.06.28 00:19:55.
