data_PCOD8109439
_publ_section_title
;
Structure prediction by ZEFSAII (Michael W. Deem and Ramdas Pophale) SiO2 
 PCOD8109439
Probable space group: C 2/M
;
_chemical_formula_sum "Si O2"
_cell_formula_units_Z 48
_cell_length_a 29.891980
_cell_length_b 8.752293
_cell_length_c 14.567166
_cell_angle_alpha 90.000000
_cell_angle_beta 139.779421
_cell_angle_gamma 90.000000
_cell_volume 2460.956265
_symmetry_space_group_name_H-M "C 2/M"
_symmetry_group_IT_number 12
_symmetry_cell_setting 'monoclinic'
loop_
_space_group_symop_operation_xyz
x,y,z
-x,y,-z
-x,-y,-z
x,-y,z
1/2+x,1/2+y,z
1/2-x,1/2+y,-z
1/2-x,1/2-y,-z
1/2+x,1/2-y,z
loop_
_atom_site_type_symbol
_atom_site_label
_atom_site_fract_x
_atom_site_fract_y
_atom_site_fract_z
Si Si1 0.819181 0.679258 0.649022
Si Si2 0.575350 0.821466 0.653636
Si Si3 0.676571 0.679255 0.670216
Si Si4 0.317036 0.676676 0.841151
Si Si5 0.589495 0.321405 0.355555
Si Si6 0.936640 0.823435 0.173224
O O1 0.810692 0.500000 0.631413
O O2 0.750000 0.750000 0.500000
O O3 0.830317 0.727845 0.770715
O O4 0.885486 0.730795 0.694502
O O5 0.500000 0.770565 0.500000
O O6 0.632628 0.725952 0.689548
O O7 0.583220 0.782017 0.772496
O O8 0.588167 0.000000 0.657488
O O9 0.691145 0.500000 0.695893
O O10 0.748683 0.768256 0.786699
O O11 0.636040 0.727008 0.514907
O O12 0.309183 0.500000 0.802633
O O13 0.381736 0.706123 0.007953
O O14 0.595962 0.500000 0.344970
O O15 0.511034 0.272298 0.251710
O O16 0.938321 0.000000 0.207462
#
# Coordination Sequence:
#
# PCOD8109439 Si02
#       6
#     8   8   8   8   8   8
#     4  12  24  39  63  92 124 162 205 252 303 362
#     4  11  23  38  62  94 126 160 203 255 306 360
#     4  11  22  38  65  92 122 162 205 252 303 363
#     4  11  24  42  64  91 126 161 202 254 307 363
#     4  10  21  39  64  92 121 158 207 253 301 360
#     4  10  23  43  65  90 123 164 204 251 306 363
#
# _framework density 19.504612000000002
#
# number of rings (size 3 to 8) (size 9 to 14) (size 15 to 20)
#    0.000    1.167    3.333    3.000    0.000    4.667 
#    0.000    3.333    0.000    0.000    0.000    0.000 
#    0.000    0.000    0.000    0.000    0.000    0.000 
#
# Total GULP energy -297787.441475 kJ/mol
# GULP energy per Si atom -12407.810061 kJ/mol
# Density = 1.946022 g / cm^3
# Si number density = 19.504612 Si / 1000 Ang^3
#
#
#
# Elastic Constant Matrix: (Units=GPa)
#
#
# Indices 1 2 3 4 5 6 
#
# 1 130.6982 40.0027 29.8416 0.0000 1.4095 0.0000
# 2 40.0027 79.9656 34.4783 0.0000 -1.3075 0.0000
# 3 29.8416 34.4783 63.1742 0.0000 3.6551 0.0000
# 4 0.0000 0.0000 0.0000 24.6597 0.0000 -6.0842
# 5 1.4095 -1.3075 3.6551 0.0000 31.1182 0.0000
# 6 0.0000 0.0000 0.0000 -6.0842 0.0000 33.7388
#
#
#
# Elastic Compliance Matrix: (Units=1/GPa)
#
#
# Indices 1 2 3 4 5 6 
#
# 1 0.009313 -0.003628 -0.002402 0.000000 -0.000292 0.000000
# 2 -0.003628 0.017862 -0.008143 0.000000 0.001871 0.000000
# 3 -0.002402 -0.008143 0.021568 0.000000 -0.002767 0.000000
# 4 0.000000 0.000000 0.000000 0.042440 0.000000 0.007653
# 5 -0.000292 0.001871 -0.002767 0.000000 0.032552 0.000000
# 6 0.000000 0.000000 0.000000 0.007653 0.000000 0.031020
#
#
# Mechanical properties :
#
#
# Convention : Reuss Voigt Hill
#
# Bulk Modulus (GPa) = 49.02715 53.60925 51.31820
# Shear Modulus (GPa) = 26.32950 29.20435 27.76693
#
# Velocity S-wave (km/s) = 3.67810 3.87370 3.77717
# Velocity P-wave (km/s) = 6.57485 6.89583 6.73725
#
# Compressibility (1/GPa) = 0.02039686
#
# Stress axis : x y z
#
# Youngs Moduli (GPa) = 107.37352 55.98559 46.36438
#
# Poissons Ratio (x) = 0.20311 0.11139
# Poissons Ratio (y) = 0.38954 0.37754
# Poissons Ratio (z) = 0.25796 0.45588
#
# Static dielectric constant tensor:
#      x y z
#    x 3.717850 0.000000 0.051900 
#    y 0.000000 3.609190 0.000000 
#    z 0.051900 0.000000 3.582490 
# 
# 
# High freq. dielectric constant tensor:
#      x y z
#    x 1.775160 0.000000 0.004110 
#    y 0.000000 1.765470 0.000000 
#    z 0.004110 0.000000 1.758020 
# 
# From -- ./inp_files/244696.got.cif
#   From: 2010.06.25/outbox.cif.g09.slc.cpg/sg12_123_cif.got.tgz:244696.got - 2010.06.28 00:19:55.
