data_PCOD8109499
_publ_section_title
;
Structure prediction by ZEFSAII (Michael W. Deem and Ramdas Pophale) SiO2 
 PCOD8109499
Probable space group: C 2/M
;
_chemical_formula_sum "Si O2"
_cell_formula_units_Z 64
_cell_length_a 15.391295
_cell_length_b 8.493242
_cell_length_c 30.581367
_cell_angle_alpha 90.000000
_cell_angle_beta 129.829584
_cell_angle_gamma 90.000000
_cell_volume 3070.012508
_symmetry_space_group_name_H-M "C 2/M"
_symmetry_group_IT_number 12
_symmetry_cell_setting 'monoclinic'
loop_
_space_group_symop_operation_xyz
x,y,z
-x,y,-z
-x,-y,-z
x,-y,z
1/2+x,1/2+y,z
1/2-x,1/2+y,-z
1/2-x,1/2-y,-z
1/2+x,1/2-y,z
loop_
_atom_site_type_symbol
_atom_site_label
_atom_site_fract_x
_atom_site_fract_y
_atom_site_fract_z
Si Si1 0.258738 0.317241 0.432787
Si Si2 0.917570 0.182505 0.562940
Si Si3 0.534399 0.318097 0.059681
Si Si4 0.813267 0.317692 0.752528
Si Si5 0.660593 0.180720 0.630076
Si Si6 0.445100 0.320019 0.175040
Si Si7 0.647553 0.182653 0.939345
Si Si8 0.757284 0.318638 0.832168
O O1 0.264916 0.500000 0.422753
O O2 0.136189 0.278395 0.413954
O O3 0.356701 0.267210 0.498315
O O4 0.276623 0.219064 0.394774
O O5 0.049867 0.214137 0.601148
O O6 0.896572 0.000000 0.565672
O O7 0.503678 0.500000 0.058178
O O8 0.468390 0.206869 0.071920
O O9 0.666522 0.287402 0.110948
O O10 0.500000 0.267879 0.000000
O O11 0.785017 0.500000 0.735103
O O12 0.747745 0.211249 0.696994
O O13 0.772957 0.263009 0.787414
O O14 0.947048 0.293032 0.789961
O O15 0.623413 0.000000 0.618194
O O16 0.485790 0.500000 0.183150
O O17 0.360391 0.276330 0.108482
O O18 0.373875 0.295759 0.196698
O O19 0.667719 0.000000 0.935991
O O20 0.750000 0.250000 0.000000
O O21 0.793985 0.500000 0.849409
#
# Coordination Sequence:
#
# PCOD8109499 Si02
#       8
#     8   8   8   8   8   8   8   8
#     4  10  21  39  64  95 131 171 215 266 324 383
#     4  10  21  39  64  95 132 171 213 266 325 383
#     4  11  23  38  60  91 124 157 198 249 306 370
#     4  11  24  44  65  89 123 167 214 264 318 375
#     4  12  25  40  62  92 128 172 220 267 320 378
#     4  11  23  42  66  93 123 159 203 253 314 377
#     4  12  24  39  60  89 124 161 201 249 308 368
#     4  10  23  42  65  90 120 159 200 250 312 373
#
# _framework density 20.846820999999998
#
# number of rings (size 3 to 8) (size 9 to 14) (size 15 to 20)
#    0.000    1.125    1.250    5.250    0.000    8.500 
#    0.000    3.750    0.000    0.000    0.000    0.000 
#    0.000    0.000    0.000    0.000    0.000    0.000 
#
# Total GULP energy -397034.741224 kJ/mol
# GULP energy per Si atom -12407.335663 kJ/mol
# Density = 2.079937 g / cm^3
# Si number density = 20.846821 Si / 1000 Ang^3
#
#
#
# Elastic Constant Matrix: (Units=GPa)
#
#
# Indices 1 2 3 4 5 6 
#
# 1 122.8369 20.9659 47.7410 0.0000 -10.7184 0.0000
# 2 20.9659 65.8441 22.0916 0.0000 -3.3596 0.0000
# 3 47.7410 22.0916 103.6676 0.0000 -15.8705 0.0000
# 4 0.0000 0.0000 0.0000 30.4730 0.0000 3.4279
# 5 -10.7184 -3.3596 -15.8705 0.0000 11.4000 0.0000
# 6 0.0000 0.0000 0.0000 3.4279 0.0000 35.5334
#
#
#
# Elastic Compliance Matrix: (Units=1/GPa)
#
#
# Indices 1 2 3 4 5 6 
#
# 1 0.010241 -0.001809 -0.003734 0.000000 0.003897 0.000000
# 2 -0.001809 0.016677 -0.002832 0.000000 -0.000729 0.000000
# 3 -0.003734 -0.002832 0.014366 0.000000 0.015654 0.000000
# 4 0.000000 0.000000 0.000000 0.033176 0.000000 -0.003200
# 5 0.003897 -0.000729 0.015654 0.000000 0.112961 0.000000
# 6 0.000000 0.000000 0.000000 -0.003200 0.000000 0.028451
#
#
# Mechanical properties :
#
#
# Convention : Reuss Voigt Hill
#
# Bulk Modulus (GPa) = 40.76256 52.66060 46.71158
# Shear Modulus (GPa) = 20.76415 28.91797 24.84106
#
# Velocity S-wave (km/s) = 3.15942 3.72851 3.45570
# Velocity P-wave (km/s) = 5.73630 6.62203 6.19501
#
# Compressibility (1/GPa) = 0.02453231
#
# Stress axis : x y z
#
# Youngs Moduli (GPa) = 97.64709 59.96451 69.60981
#
# Poissons Ratio (x) = 0.10849 0.25992
# Poissons Ratio (y) = 0.17667 0.19715
# Poissons Ratio (z) = 0.36461 0.16983
#
# Static dielectric constant tensor:
#      x y z
#    x 3.846470 0.000000 -0.085920 
#    y 0.000000 3.714260 0.000000 
#    z -0.085920 0.000000 3.573970 
# 
# 
# High freq. dielectric constant tensor:
#      x y z
#    x 1.827600 0.000000 -0.002640 
#    y 0.000000 1.821500 0.000000 
#    z -0.002640 0.000000 1.809480 
# 
# From -- ./inp_files/375680.got.cif
#   From: 2010.06.25/outbox.cif.g09.slc.cpg/sg12_188_cif.got.tgz:375680.got - 2010.06.28 00:19:55.
