data_PCOD8109006
_publ_section_title
;
Structure prediction by ZEFSAII (Michael W. Deem and Ramdas Pophale) SiO2 
 PCOD8109006
Probable space group: C 2/M
;
_chemical_formula_sum "Si O2"
_cell_formula_units_Z 48
_cell_length_a 20.561386
_cell_length_b 7.596261
_cell_length_c 15.778393
_cell_angle_alpha 90.000000
_cell_angle_beta 106.064240
_cell_angle_gamma 90.000000
_cell_volume 2368.191129
_symmetry_space_group_name_H-M "C 2/M"
_symmetry_group_IT_number 12
_symmetry_cell_setting 'monoclinic'
loop_
_space_group_symop_operation_xyz
x,y,z
-x,y,-z
-x,-y,-z
x,-y,z
1/2+x,1/2+y,z
1/2-x,1/2+y,-z
1/2-x,1/2-y,-z
1/2+x,1/2-y,z
loop_
_atom_site_type_symbol
_atom_site_label
_atom_site_fract_x
_atom_site_fract_y
_atom_site_fract_z
Si Si1 0.966918 0.000000 0.850630
Si Si2 0.132851 0.706414 0.745697
Si Si3 0.343344 0.793639 0.583401
Si Si4 0.519571 0.794060 0.280535
Si Si5 0.402551 0.500000 0.991641
Si Si6 0.709312 0.202716 0.611641
Si Si7 0.675223 0.793352 0.945851
O O1 0.968770 0.178612 0.798002
O O2 0.026067 0.000000 0.938561
O O3 0.901613 0.000000 0.888400
O O4 0.144251 0.500000 0.750287
O O5 0.176531 0.791596 0.684153
O O6 0.160165 0.778609 0.845314
O O7 0.053235 0.753045 0.704692
O O8 0.420618 0.742855 0.632581
O O9 0.324039 0.710346 0.484920
O O10 0.290909 0.724085 0.636422
O O11 0.333770 0.000000 0.576260
O O12 0.522832 0.000000 0.256225
O O13 0.368483 0.682655 0.004877
O O14 0.688990 0.000000 0.607175
O O15 0.657924 0.000000 0.947929
O O16 0.750000 0.750000 0.000000
#
# Coordination Sequence:
#
# PCOD8109006 Si02
#       7
#     4   8   8   8   4   8   8
#     4  11  24  40  64  84 119 160 196 245 301 359
#     4   9  19  36  59  85 111 151 197 240 291 347
#     4   9  19  35  55  84 119 153 188 239 293 347
#     4  10  21  39  61  86 119 153 198 247 293 350
#     4  11  24  42  60  91 116 156 203 239 305 360
#     4   9  18  35  58  82 115 154 193 236 291 352
#     4  11  22  40  63  88 122 155 194 250 300 353
#
# _framework density 20.268635
#
# number of rings (size 3 to 8) (size 9 to 14) (size 15 to 20)
#    0.000    2.167    2.500    0.000    1.167    2.667 
#    3.000    6.667    0.000    1.000    0.000    0.000 
#    0.000    0.000    0.000    0.000    0.000    0.000 
#
# Total GULP energy -297437.653827 kJ/mol
# GULP energy per Si atom -12393.235576 kJ/mol
# Density = 2.022250 g / cm^3
# Si number density = 20.268635 Si / 1000 Ang^3
#
#
#
# Elastic Constant Matrix: (Units=GPa)
#
#
# Indices 1 2 3 4 5 6 
#
# 1 144.6847 22.4474 80.1458 0.0000 -8.8927 0.0000
# 2 22.4474 65.5219 19.3911 0.0000 -10.7653 0.0000
# 3 80.1458 19.3911 78.0376 0.0000 -6.1571 0.0000
# 4 0.0000 0.0000 0.0000 17.0259 0.0000 4.6429
# 5 -8.8927 -10.7653 -6.1571 0.0000 46.7591 0.0000
# 6 0.0000 0.0000 0.0000 4.6429 0.0000 27.1444
#
#
#
# Elastic Compliance Matrix: (Units=1/GPa)
#
#
# Indices 1 2 3 4 5 6 
#
# 1 0.016087 -0.000552 -0.016323 0.000000 0.000783 0.000000
# 2 -0.000552 0.017008 -0.003394 0.000000 0.003364 0.000000
# 3 -0.016323 -0.003394 0.030431 0.000000 0.000121 0.000000
# 4 0.000000 0.000000 0.000000 0.061608 0.000000 -0.010538
# 5 0.000783 0.003364 0.000121 0.000000 0.022326 0.000000
# 6 0.000000 0.000000 0.000000 -0.010538 0.000000 0.038642
#
#
# Mechanical properties :
#
#
# Convention : Reuss Voigt Hill
#
# Bulk Modulus (GPa) = 43.49916 59.13477 51.31696
# Shear Modulus (GPa) = 21.33994 29.26986 25.30490
#
# Velocity S-wave (km/s) = 3.24829 3.80425 3.53721
# Velocity P-wave (km/s) = 5.96460 6.96673 6.48505
#
# Compressibility (1/GPa) = 0.02298895
#
# Stress axis : x y z
#
# Youngs Moduli (GPa) = 62.16169 58.79474 32.86124
#
# Poissons Ratio (x) = 0.03245 0.53639
# Poissons Ratio (y) = 0.03431 0.11153
# Poissons Ratio (z) = 1.01465 0.19955
#
# Static dielectric constant tensor:
#      x y z
#    x 3.578650 0.000000 -0.025480 
#    y 0.000000 3.513060 0.000000 
#    z -0.025480 0.000000 4.086590 
# 
# 
# High freq. dielectric constant tensor:
#      x y z
#    x 1.795760 0.000000 0.003820 
#    y 0.000000 1.783950 0.000000 
#    z 0.003820 0.000000 1.788750 
# 
# From -- ./inp_files/230497.got.cif
#   From: 2010.06.25/outbox.cif.g09.slc.cpg/sg12_116_cif.got.tgz:230497.got - 2010.06.28 00:19:55.
