data_PCOD8109381
_publ_section_title
;
Structure prediction by ZEFSAII (Michael W. Deem and Ramdas Pophale) SiO2 
 PCOD8109381
Probable space group: C 2/M
;
_chemical_formula_sum "Si O2"
_cell_formula_units_Z 36
_cell_length_a 9.914851
_cell_length_b 17.713741
_cell_length_c 13.016211
_cell_angle_alpha 90.000000
_cell_angle_beta 128.254524
_cell_angle_gamma 90.000000
_cell_volume 1795.142744
_symmetry_space_group_name_H-M "C 2/M"
_symmetry_group_IT_number 12
_symmetry_cell_setting 'monoclinic'
loop_
_space_group_symop_operation_xyz
x,y,z
-x,y,-z
-x,-y,-z
x,-y,z
1/2+x,1/2+y,z
1/2-x,1/2+y,-z
1/2-x,1/2-y,-z
1/2+x,1/2-y,z
loop_
_atom_site_type_symbol
_atom_site_label
_atom_site_fract_x
_atom_site_fract_y
_atom_site_fract_z
Si Si1 0.808653 0.720074 0.709383
Si Si2 0.000000 0.680394 0.500000
Si Si3 0.164693 0.912457 0.015967
Si Si4 0.984161 0.589266 0.699513
Si Si5 0.168669 0.791889 0.865893
O O1 0.660494 0.763045 0.578273
O O2 0.828205 0.632298 0.684142
O O3 0.783784 0.720234 0.819915
O O4 0.979130 0.762863 0.753495
O O5 0.003010 0.623244 0.407149
O O6 0.336915 0.891945 0.159165
O O7 0.143828 0.000000 0.989080
O O8 0.165663 0.878899 0.900979
O O9 0.000000 0.879950 0.000000
O O10 0.945532 0.500000 0.678373
O O11 0.250000 0.750000 0.000000
#
# Coordination Sequence:
#
# PCOD8109381 Si02
#       5
#     8   4   8   8   8
#     4  12  25  41  67  95 130 169 221 266 320 381
#     4  12  23  46  67  90 128 178 226 262 309 396
#     4  10  21  39  63  95 131 165 209 264 328 395
#     4  11  24  42  66  96 130 172 216 269 326 379
#     4  12  22  39  65  97 126 165 212 265 324 388
#
# _framework density 20.054114999999999
#
# number of rings (size 3 to 8) (size 9 to 14) (size 15 to 20)
#    0.000    0.667    4.444    4.333    0.000    0.889 
#    0.000    3.889    0.000    0.000    0.000    0.000 
#    0.000    0.000    0.000    0.000    0.000    0.000 
#
# Total GULP energy -223191.013017 kJ/mol
# GULP energy per Si atom -12399.500723 kJ/mol
# Density = 2.000847 g / cm^3
# Si number density = 20.054115 Si / 1000 Ang^3
#
#
#
# Elastic Constant Matrix: (Units=GPa)
#
#
# Indices 1 2 3 4 5 6 
#
# 1 100.2353 53.9307 20.3936 0.0000 -4.5297 0.0000
# 2 53.9307 128.7977 62.2832 0.0000 0.0205 0.0000
# 3 20.3936 62.2832 73.4239 0.0000 14.0808 0.0000
# 4 0.0000 0.0000 0.0000 34.2252 0.0000 -4.6207
# 5 -4.5297 0.0205 14.0808 0.0000 27.5474 0.0000
# 6 0.0000 0.0000 0.0000 -4.6207 0.0000 39.8674
#
#
#
# Elastic Compliance Matrix: (Units=1/GPa)
#
#
# Indices 1 2 3 4 5 6 
#
# 1 0.013056 -0.006056 0.001217 0.000000 0.001529 0.000000
# 2 -0.006056 0.017045 -0.013951 0.000000 0.006123 0.000000
# 3 0.001217 -0.013951 0.027800 0.000000 -0.014000 0.000000
# 4 0.000000 0.000000 0.000000 0.029683 0.000000 0.003440
# 5 0.001529 0.006123 -0.014000 0.000000 0.043704 0.000000
# 6 0.000000 0.000000 0.000000 0.003440 0.000000 0.025482
#
#
# Mechanical properties :
#
#
# Convention : Reuss Voigt Hill
#
# Bulk Modulus (GPa) = 49.20592 63.96355 56.58473
# Shear Modulus (GPa) = 24.86031 31.38462 28.12247
#
# Velocity S-wave (km/s) = 3.52470 3.96030 3.74883
# Velocity P-wave (km/s) = 6.41518 7.27163 6.85679
#
# Compressibility (1/GPa) = 0.02032276
#
# Stress axis : x y z
#
# Youngs Moduli (GPa) = 76.59164 58.66737 35.97069
#
# Poissons Ratio (x) = 0.35528 -0.04379
# Poissons Ratio (y) = 0.46383 0.50183
# Poissons Ratio (z) = -0.09324 0.81847
#
# Static dielectric constant tensor:
#      x y z
#    x 4.070130 0.000000 0.034520 
#    y 0.000000 4.166670 0.000000 
#    z 0.034520 0.000000 3.806620 
# 
# 
# High freq. dielectric constant tensor:
#      x y z
#    x 1.784480 0.000000 -0.001010 
#    y 0.000000 1.796650 0.000000 
#    z -0.001010 0.000000 1.786870 
# 
# From -- ./inp_files/169913.got.cif
#   From: 2010.06.25/outbox.cif.g09.slc.cpg/sg12_85_cif.got.tgz:169913.got - 2010.06.28 00:19:55.
