data_PCOD8109662
_publ_section_title
;
Structure prediction by ZEFSAII (Michael W. Deem and Ramdas Pophale) SiO2 
 PCOD8109662
Probable space group: C 2/M
;
_chemical_formula_sum "Si O2"
_cell_formula_units_Z 32
_cell_length_a 5.499812
_cell_length_b 30.715819
_cell_length_c 8.772546
_cell_angle_alpha 90.000000
_cell_angle_beta 88.906714
_cell_angle_gamma 90.000000
_cell_volume 1481.687202
_symmetry_space_group_name_H-M "C 2/M"
_symmetry_group_IT_number 12
_symmetry_cell_setting 'monoclinic'
loop_
_space_group_symop_operation_xyz
x,y,z
-x,y,-z
-x,-y,-z
x,-y,z
1/2+x,1/2+y,z
1/2-x,1/2+y,-z
1/2-x,1/2-y,-z
1/2+x,1/2-y,z
loop_
_atom_site_type_symbol
_atom_site_label
_atom_site_fract_x
_atom_site_fract_y
_atom_site_fract_z
Si Si1 0.284980 0.592339 0.736977
Si Si2 0.500000 0.874635 0.000000
Si Si3 0.172085 0.838237 0.757806
Si Si4 0.000000 0.776581 0.000000
Si Si5 0.752168 0.000000 0.594133
Si Si6 0.000000 0.350973 0.500000
O O1 0.550576 0.614646 0.723763
O O2 0.275270 0.541931 0.699420
O O3 0.111571 0.618168 0.625727
O O4 0.194673 0.595142 0.912184
O O5 0.377534 0.842387 0.882410
O O6 0.296366 0.822363 0.594969
O O7 0.985976 0.804356 0.840020
O O8 0.250000 0.750000 0.000000
O O9 0.500000 0.000000 0.500000
O O10 0.000000 0.000000 0.500000
#
# Coordination Sequence:
#
# PCOD8109662 Si02
#       6
#     8   4   8   4   4   4
#     4  11  22  41  68  99 137 188 231 283 343 403
#     4  10  21  39  70  95 134 182 235 282 336 418
#     4  11  22  44  68 103 134 183 232 280 353 423
#     4  12  27  46  74 104 136 179 225 292 356 421
#     4  12  26  43  63 103 147 185 236 289 337 396
#     4  10  22  37  72  94 136 188 228 276 336 415
#
# _framework density 21.597003000000001
#
# number of rings (size 3 to 8) (size 9 to 14) (size 15 to 20)
#    0.000    1.000    3.750    3.000    7.000    0.500 
#    0.000    3.750    0.000    0.000    0.000    0.000 
#    0.000    0.000    0.000    0.000    0.000    0.000 
#
# Total GULP energy -198227.837302 kJ/mol
# GULP energy per Si atom -12389.239831 kJ/mol
# Density = 2.154785 g / cm^3
# Si number density = 21.597003 Si / 1000 Ang^3
#
#
#
# Elastic Constant Matrix: (Units=GPa)
#
#
# Indices 1 2 3 4 5 6 
#
# 1 126.8077 39.2691 47.5917 0.0000 -20.5158 0.0000
# 2 39.2691 100.0163 37.6756 0.0000 -15.6164 0.0000
# 3 47.5917 37.6756 131.1615 0.0000 -49.3574 0.0000
# 4 0.0000 0.0000 0.0000 22.1409 0.0000 2.6824
# 5 -20.5158 -15.6164 -49.3574 0.0000 59.9934 0.0000
# 6 0.0000 0.0000 0.0000 2.6824 0.0000 28.1858
#
#
#
# Elastic Compliance Matrix: (Units=1/GPa)
#
#
# Indices 1 2 3 4 5 6 
#
# 1 0.009797 -0.002803 -0.002554 0.000000 0.000519 0.000000
# 2 -0.002803 0.012020 -0.002345 0.000000 0.000241 0.000000
# 3 -0.002554 -0.002345 0.012552 0.000000 0.008843 0.000000
# 4 0.000000 0.000000 0.000000 0.045692 0.000000 -0.004348
# 5 0.000519 0.000241 0.008843 0.000000 0.024184 0.000000
# 6 0.000000 0.000000 0.000000 -0.004348 0.000000 0.035893
#
#
# Mechanical properties :
#
#
# Convention : Reuss Voigt Hill
#
# Bulk Modulus (GPa) = 52.73017 67.45092 60.09055
# Shear Modulus (GPa) = 30.89023 37.62728 34.25876
#
# Velocity S-wave (km/s) = 3.78604 4.17855 3.98713
# Velocity P-wave (km/s) = 6.60156 7.38781 7.00573
#
# Compressibility (1/GPa) = 0.01896447
#
# Stress axis : x y z
#
# Youngs Moduli (GPa) = 102.07616 83.19525 79.66705
#
# Poissons Ratio (x) = 0.23322 0.20348
# Poissons Ratio (y) = 0.28614 0.18680
# Poissons Ratio (z) = 0.26071 0.19508
#
# Static dielectric constant tensor:
#      x y z
#    x 4.232850 0.000000 -0.301540 
#    y 0.000000 3.588120 0.000000 
#    z -0.301540 0.000000 4.401800 
# 
# 
# High freq. dielectric constant tensor:
#      x y z
#    x 1.869870 0.000000 -0.015770 
#    y 0.000000 1.812550 0.000000 
#    z -0.015770 0.000000 1.863780 
# 
# From -- ./inp_files/34618.got.cif
#   From: 2010.06.25/outbox.cif.g09.slc.cpg/sg12_18_cif.got.tgz:34618.got - 2010.06.28 00:19:55.
