data_PCOD8109271
_publ_section_title
;
Structure prediction by ZEFSAII (Michael W. Deem and Ramdas Pophale) SiO2 
 PCOD8109271
Probable space group: C 2/M
;
_chemical_formula_sum "Si O2"
_cell_formula_units_Z 48
_cell_length_a 24.457064
_cell_length_b 10.255889
_cell_length_c 13.643695
_cell_angle_alpha 90.000000
_cell_angle_beta 42.895183
_cell_angle_gamma 90.000000
_cell_volume 2329.374968
_symmetry_space_group_name_H-M "C 2/M"
_symmetry_group_IT_number 12
_symmetry_cell_setting 'monoclinic'
loop_
_space_group_symop_operation_xyz
x,y,z
-x,y,-z
-x,-y,-z
x,-y,z
1/2+x,1/2+y,z
1/2-x,1/2+y,-z
1/2-x,1/2-y,-z
1/2+x,1/2-y,z
loop_
_atom_site_type_symbol
_atom_site_label
_atom_site_fract_x
_atom_site_fract_y
_atom_site_fract_z
Si Si1 0.333800 0.146198 0.156809
Si Si2 0.317984 0.856114 0.398292
Si Si3 0.430038 0.143678 0.670262
Si Si4 0.542924 0.645588 0.044837
Si Si5 0.651771 0.647133 0.345530
Si Si6 0.047702 0.239843 0.657406
O O1 0.357481 0.157709 0.239622
O O2 0.239911 0.179022 0.269797
O O3 0.352510 0.000000 0.093218
O O4 0.385942 0.250876 0.028313
O O5 0.250000 0.750000 0.500000
O O6 0.387064 0.842616 0.388804
O O7 0.279074 0.000000 0.461267
O O8 0.500000 0.134892 0.500000
O O9 0.365726 0.251308 0.719288
O O10 0.469021 0.184479 0.722271
O O11 0.389278 0.000000 0.734384
O O12 0.579480 0.500000 0.990692
O O13 0.479356 0.648178 0.217435
O O14 0.500000 0.682290 0.000000
O O15 0.646452 0.500000 0.310291
O O16 0.587709 0.656152 0.517961
#
# Coordination Sequence:
#
# PCOD8109271 Si02
#       6
#     8   8   8   8   8   8
#     4  10  22  40  59  85 121 161 198 240 296 360
#     4  11  22  36  58  89 121 157 198 246 301 354
#     4   9  20  37  59  89 119 150 195 247 298 350
#     4  11  24  39  58  89 125 162 199 244 295 352
#     4  10  21  39  63  89 117 154 199 246 296 351
#     4  11  21  38  62  90 121 156 199 245 297 354
#
# _framework density 20.606385
#
# number of rings (size 3 to 8) (size 9 to 14) (size 15 to 20)
#    0.000    1.667    3.333    1.000    0.000    8.000 
#    0.000    0.833    0.000    0.000    0.000    0.000 
#    0.000    0.000    0.000    0.000    0.000    0.000 
#
# Total GULP energy -297582.170934 kJ/mol
# GULP energy per Si atom -12399.257122 kJ/mol
# Density = 2.055948 g / cm^3
# Si number density = 20.606385 Si / 1000 Ang^3
#
#
#
# Elastic Constant Matrix: (Units=GPa)
#
#
# Indices 1 2 3 4 5 6 
#
# 1 120.4475 60.1594 21.3662 0.0000 4.5446 0.0000
# 2 60.1594 165.4051 44.5185 0.0000 -13.9726 0.0000
# 3 21.3662 44.5185 68.9837 0.0000 -5.3670 0.0000
# 4 0.0000 0.0000 0.0000 26.1874 0.0000 -8.4039
# 5 4.5446 -13.9726 -5.3670 0.0000 19.9448 0.0000
# 6 0.0000 0.0000 0.0000 -8.4039 0.0000 30.6597
#
#
#
# Elastic Compliance Matrix: (Units=1/GPa)
#
#
# Indices 1 2 3 4 5 6 
#
# 1 0.010753 -0.004080 -0.001134 0.000000 -0.005614 0.000000
# 2 -0.004080 0.009180 -0.004176 0.000000 0.006237 0.000000
# 3 -0.001134 -0.004176 0.017705 0.000000 0.002098 0.000000
# 4 0.000000 0.000000 0.000000 0.041869 0.000000 0.011476
# 5 -0.005614 0.006237 0.002098 0.000000 0.056352 0.000000
# 6 0.000000 0.000000 0.000000 0.011476 0.000000 0.035762
#
#
# Mechanical properties :
#
#
# Convention : Reuss Voigt Hill
#
# Bulk Modulus (GPa) = 53.02434 67.43605 60.23020
# Shear Modulus (GPa) = 25.42096 30.61119 28.01607
#
# Velocity S-wave (km/s) = 3.51614 3.85843 3.69125
# Velocity P-wave (km/s) = 6.50170 7.25581 6.88908
#
# Compressibility (1/GPa) = 0.01885926
#
# Stress axis : x y z
#
# Youngs Moduli (GPa) = 92.99558 108.92706 56.47983
#
# Poissons Ratio (x) = 0.44442 0.06407
# Poissons Ratio (y) = 0.37942 0.23584
# Poissons Ratio (z) = 0.10549 0.45484
#
# Static dielectric constant tensor:
#      x y z
#    x 3.818920 0.000000 0.079200 
#    y 0.000000 3.946220 0.000000 
#    z 0.079200 0.000000 3.385560 
# 
# 
# High freq. dielectric constant tensor:
#      x y z
#    x 1.805380 0.000000 0.004010 
#    y 0.000000 1.815380 0.000000 
#    z 0.004010 0.000000 1.775390 
# 
# From -- ./inp_files/244649.got.cif
#   From: 2010.06.25/outbox.cif.g09.slc.cpg/sg12_123_cif.got.tgz:244649.got - 2010.06.28 00:19:55.
