data_PCOD8110459
_publ_section_title
;
Structure prediction by ZEFSAII (Michael W. Deem and Ramdas Pophale) SiO2 
 PCOD8110459
Probable space group: C 2/M
;
_chemical_formula_sum "Si O2"
_cell_formula_units_Z 36
_cell_length_a 9.011878
_cell_length_b 17.910079
_cell_length_c 12.051735
_cell_angle_alpha 90.000000
_cell_angle_beta 110.079768
_cell_angle_gamma 90.000000
_cell_volume 1826.954161
_symmetry_space_group_name_H-M "C 2/M"
_symmetry_group_IT_number 12
_symmetry_cell_setting 'monoclinic'
loop_
_space_group_symop_operation_xyz
x,y,z
-x,y,-z
-x,-y,-z
x,-y,z
1/2+x,1/2+y,z
1/2-x,1/2+y,-z
1/2-x,1/2-y,-z
1/2+x,1/2-y,z
loop_
_atom_site_type_symbol
_atom_site_label
_atom_site_fract_x
_atom_site_fract_y
_atom_site_fract_z
Si Si1 0.860200 0.000000 0.702331
Si Si2 0.540535 0.210082 0.347395
Si Si3 0.711308 0.500000 0.836005
Si Si4 0.246210 0.656887 0.589925
Si Si5 0.034401 0.622322 0.131745
Si Si6 0.780103 0.500000 0.099794
O O1 0.778640 0.928476 0.626968
O O2 0.839182 0.000000 0.828904
O O3 0.047061 0.000000 0.727521
O O4 0.589926 0.296828 0.373373
O O5 0.660374 0.157965 0.448524
O O6 0.363874 0.197854 0.347015
O O7 0.552699 0.190508 0.220788
O O8 0.806681 0.573758 0.827063
O O9 0.681624 0.500000 0.960672
O O10 0.888718 0.572756 0.134989
O O11 0.000000 0.654475 0.000000
#
# Coordination Sequence:
#
# PCOD8110459 Si02
#       6
#     4   8   4   8   8   4
#     4  12  21  37  58  98 110 153 203 244 276 356
#     4  10  21  43  59  85 117 160 189 245 291 350
#     4   9  21  32  56  89 126 154 184 248 299 333
#     4  10  24  38  65  83 123 152 195 239 302 334
#     4   9  18  37  61  83 115 161 197 231 292 355
#     4   9  17  36  57  83 121 157 191 242 294 343
#
# _framework density 19.704927999999999
#
# number of rings (size 3 to 8) (size 9 to 14) (size 15 to 20)
#    0.000    2.222    2.222    1.667    3.111    3.556 
#    0.000    4.444    0.000    0.000    0.000    0.000 
#    0.000    0.000    0.000    0.000    0.000    0.000 
#
# Total GULP energy -223204.608591 kJ/mol
# GULP energy per Si atom -12400.256033 kJ/mol
# Density = 1.966008 g / cm^3
# Si number density = 19.704928 Si / 1000 Ang^3
#
#
#
# Elastic Constant Matrix: (Units=GPa)
#
#
# Indices 1 2 3 4 5 6 
#
# 1 85.6608 35.5742 27.0693 0.0000 7.8233 0.0000
# 2 35.5742 102.1190 34.2401 0.0000 3.2211 0.0000
# 3 27.0693 34.2401 96.0065 0.0000 -13.3832 0.0000
# 4 0.0000 0.0000 0.0000 29.6223 0.0000 -1.4349
# 5 7.8233 3.2211 -13.3832 0.0000 27.8846 0.0000
# 6 0.0000 0.0000 0.0000 -1.4349 0.0000 17.6485
#
#
#
# Elastic Compliance Matrix: (Units=1/GPa)
#
#
# Indices 1 2 3 4 5 6 
#
# 1 0.014893 -0.003807 -0.003604 0.000000 -0.005468 0.000000
# 2 -0.003807 0.012408 -0.003647 0.000000 -0.002115 0.000000
# 3 -0.003604 -0.003647 0.013859 0.000000 0.008084 0.000000
# 4 0.000000 0.000000 0.000000 0.033892 0.000000 0.002755
# 5 -0.005468 -0.002115 0.008084 0.000000 0.041521 0.000000
# 6 0.000000 0.000000 0.000000 0.002755 0.000000 0.056886
#
#
# Mechanical properties :
#
#
# Convention : Reuss Voigt Hill
#
# Bulk Modulus (GPa) = 52.50546 53.06150 52.78348
# Shear Modulus (GPa) = 24.76183 27.49126 26.12654
#
# Velocity S-wave (km/s) = 3.54875 3.73922 3.64523
# Velocity P-wave (km/s) = 6.59509 6.75491 6.67548
#
# Compressibility (1/GPa) = 0.01904564
#
# Stress axis : x y z
#
# Youngs Moduli (GPa) = 67.14417 80.59109 72.15274
#
# Poissons Ratio (x) = 0.30685 0.26001
# Poissons Ratio (y) = 0.25565 0.26312
# Poissons Ratio (z) = 0.24196 0.29389
#
# Static dielectric constant tensor:
#      x y z
#    x 3.534490 0.000000 -0.076870 
#    y 0.000000 3.271570 0.000000 
#    z -0.076870 0.000000 3.565910 
# 
# 
# High freq. dielectric constant tensor:
#      x y z
#    x 1.769530 0.000000 -0.004040 
#    y 0.000000 1.745440 0.000000 
#    z -0.004040 0.000000 1.770170 
# 
# From -- ./inp_files/118820.got.cif
#   From: 2010.06.25/outbox.cif.g09.slc.cpg/sg12_60_cif.got.tgz:118820.got - 2010.06.28 00:19:55.
