data_PCOD8110218
_publ_section_title
;
Structure prediction by ZEFSAII (Michael W. Deem and Ramdas Pophale) SiO2 
 PCOD8110218
Probable space group: C 2/M
;
_chemical_formula_sum "Si O2"
_cell_formula_units_Z 56
_cell_length_a 24.991041
_cell_length_b 8.931365
_cell_length_c 14.499999
_cell_angle_alpha 90.000000
_cell_angle_beta 60.106395
_cell_angle_gamma 90.000000
_cell_volume 2805.856147
_symmetry_space_group_name_H-M "C 2/M"
_symmetry_group_IT_number 12
_symmetry_cell_setting 'monoclinic'
loop_
_space_group_symop_operation_xyz
x,y,z
-x,y,-z
-x,-y,-z
x,-y,z
1/2+x,1/2+y,z
1/2-x,1/2+y,-z
1/2-x,1/2-y,-z
1/2+x,1/2-y,z
loop_
_atom_site_type_symbol
_atom_site_label
_atom_site_fract_x
_atom_site_fract_y
_atom_site_fract_z
Si Si1 0.174680 0.331395 0.817063
Si Si2 0.950194 0.176929 0.114454
Si Si3 0.768351 0.169998 0.576885
Si Si4 0.729562 0.676974 0.111648
Si Si5 0.902411 0.173485 0.703186
Si Si6 0.608658 0.177483 0.474092
Si Si7 0.526532 0.673996 0.698839
O O1 0.153092 0.500000 0.858657
O O2 0.116436 0.223863 0.864482
O O3 0.207625 0.327305 0.690609
O O4 0.221743 0.271017 0.853444
O O5 0.963843 0.236697 0.205921
O O6 0.954149 0.000000 0.111993
O O7 0.000000 0.243722 0.000000
O O8 0.750000 0.250000 0.500000
O O9 0.822560 0.257701 0.581354
O O10 0.789882 0.000000 0.539067
O O11 0.728520 0.500000 0.100955
O O12 0.661552 0.733906 0.199005
O O13 0.750000 0.750000 0.000000
O O14 0.921323 0.265371 0.595557
O O15 0.955148 0.198239 0.733985
O O16 0.896266 0.000000 0.679760
O O17 0.569925 0.232161 0.594532
O O18 0.610752 0.000000 0.473152
O O19 0.545131 0.500000 0.674965
#
# Coordination Sequence:
#
# PCOD8110218 Si02
#       7
#     8   8   8   8   8   8   8
#     4  10  22  41  62  87 122 159 196 243 301 360
#     4  10  23  41  63  91 120 155 204 253 294 353
#     4  11  22  39  62  89 124 161 203 249 300 362
#     4  10  22  40  63  92 122 157 201 249 305 363
#     4  10  21  41  65  88 121 164 203 248 308 368
#     4  12  24  38  59  91 126 160 202 251 304 361
#     4  10  22  40  63  88 119 163 206 249 308 364
#
# _framework density 19.958259000000002
#
# number of rings (size 3 to 8) (size 9 to 14) (size 15 to 20)
#    0.000    1.571    1.429    3.000    2.000    7.714 
#    0.000    0.000    0.000    0.000    0.000    0.000 
#    0.000    0.000    0.000    0.000    0.000    0.000 
#
# Total GULP energy -347330.395248 kJ/mol
# GULP energy per Si atom -12404.656973 kJ/mol
# Density = 1.991283 g / cm^3
# Si number density = 19.958259 Si / 1000 Ang^3
#
#
#
# Elastic Constant Matrix: (Units=GPa)
#
#
# Indices 1 2 3 4 5 6 
#
# 1 107.6896 28.4973 46.5027 0.0000 -6.7924 0.0000
# 2 28.4973 70.8589 42.0426 0.0000 0.7775 0.0000
# 3 46.5027 42.0426 134.4479 0.0000 0.0620 0.0000
# 4 0.0000 0.0000 0.0000 30.0499 0.0000 -0.6605
# 5 -6.7924 0.7775 0.0620 0.0000 32.0131 0.0000
# 6 0.0000 0.0000 0.0000 -0.6605 0.0000 33.2207
#
#
#
# Elastic Compliance Matrix: (Units=1/GPa)
#
#
# Indices 1 2 3 4 5 6 
#
# 1 0.011534 -0.002822 -0.003108 0.000000 0.002522 0.000000
# 2 -0.002822 0.018023 -0.004659 0.000000 -0.001028 0.000000
# 3 -0.003108 -0.004659 0.009970 0.000000 -0.000566 0.000000
# 4 0.000000 0.000000 0.000000 0.033293 0.000000 0.000662
# 5 0.002522 -0.001028 -0.000566 0.000000 0.031798 0.000000
# 6 0.000000 0.000000 0.000000 0.000662 0.000000 0.030115
#
#
# Mechanical properties :
#
#
# Convention : Reuss Voigt Hill
#
# Bulk Modulus (GPa) = 54.50119 60.78685 57.64402
# Shear Modulus (GPa) = 30.85878 32.12031 31.48954
#
# Velocity S-wave (km/s) = 3.93640 4.01605 3.97642
# Velocity P-wave (km/s) = 6.93016 7.21305 7.07302
#
# Compressibility (1/GPa) = 0.01834822
#
# Stress axis : x y z
#
# Youngs Moduli (GPa) = 86.70067 55.48342 100.29988
#
# Poissons Ratio (x) = 0.15659 0.31173
# Poissons Ratio (y) = 0.24469 0.46734
# Poissons Ratio (z) = 0.26946 0.25852
#
# Static dielectric constant tensor:
#      x y z
#    x 3.697630 0.000000 -0.000450 
#    y 0.000000 3.547250 0.000000 
#    z -0.000450 0.000000 3.718740 
# 
# 
# High freq. dielectric constant tensor:
#      x y z
#    x 1.792430 0.000000 0.002390 
#    y 0.000000 1.765970 0.000000 
#    z 0.002390 0.000000 1.787030 
# 
# From -- ./inp_files/238232.got.cif
#   From: 2010.06.25/outbox.cif.g09.slc.cpg/sg12_120_cif.got.tgz:238232.got - 2010.06.28 00:19:55.
