data_PCOD8110529
_publ_section_title
;
Structure prediction by ZEFSAII (Michael W. Deem and Ramdas Pophale) SiO2 
 PCOD8110529
Probable space group: C 2/M
;
_chemical_formula_sum "Si O2"
_cell_formula_units_Z 56
_cell_length_a 21.538467
_cell_length_b 30.013422
_cell_length_c 9.660358
_cell_angle_alpha 90.000000
_cell_angle_beta 152.056219
_cell_angle_gamma 90.000000
_cell_volume 2926.378027
_symmetry_space_group_name_H-M "C 2/M"
_symmetry_group_IT_number 12
_symmetry_cell_setting 'monoclinic'
loop_
_space_group_symop_operation_xyz
x,y,z
-x,y,-z
-x,-y,-z
x,-y,z
1/2+x,1/2+y,z
1/2-x,1/2+y,-z
1/2-x,1/2-y,-z
1/2+x,1/2-y,z
loop_
_atom_site_type_symbol
_atom_site_label
_atom_site_fract_x
_atom_site_fract_y
_atom_site_fract_z
Si Si1 0.729611 0.645323 0.182239
Si Si2 0.730860 0.654188 0.689384
Si Si3 0.841998 0.904710 0.695756
Si Si4 0.866094 0.000000 0.650722
Si Si5 0.498165 0.291197 0.658619
Si Si6 0.001143 0.687129 0.663976
Si Si7 0.154767 0.093646 0.775879
Si Si8 0.633413 0.500000 0.676030
O O1 0.707841 0.605332 0.247576
O O2 0.866493 0.671607 0.472504
O O3 0.612139 0.681376 0.961238
O O4 0.736423 0.621976 0.046621
O O5 0.720977 0.636504 0.513804
O O6 0.643327 0.698184 0.549247
O O7 0.666830 0.614552 0.649690
O O8 0.882165 0.662121 0.026921
O O9 0.790051 0.953925 0.544580
O O10 0.000000 0.902889 0.000000
O O11 0.896527 0.000000 0.547335
O O12 0.000000 0.000000 0.000000
O O13 0.500000 0.304873 0.500000
O O14 0.524636 0.239388 0.730013
O O15 0.000000 0.674815 0.500000
O O16 0.000000 0.091825 0.500000
O O17 0.215091 0.043802 0.882279
O O18 0.500000 0.500000 0.500000
#
# Coordination Sequence:
#
# PCOD8110529 Si02
#       8
#     8   8   8   4   8   8   8   4
#     4  12  22  39  61  91 123 160 204 247 300 364
#     4  12  20  39  62  87 122 162 198 248 301 356
#     4  11  23  39  64  88 126 160 198 246 306 362
#     4  10  22  36  56  93 124 154 196 251 305 364
#     4  11  20  38  63  89 119 158 209 257 299 348
#     4  11  24  38  61  93 121 159 205 256 300 353
#     4  11  19  35  60  88 120 153 202 251 294 346
#     4  10  22  32  58  97 123 149 199 258 302 345
#
# _framework density 19.136284
#
# number of rings (size 3 to 8) (size 9 to 14) (size 15 to 20)
#    0.000    0.857    7.143    0.857    6.000    2.857 
#    0.000    4.286    0.000    5.143    0.000    0.000 
#    0.000    0.000    0.000    0.000    0.000    0.000 
#
# Total GULP energy -347161.335014 kJ/mol
# GULP energy per Si atom -12398.619108 kJ/mol
# Density = 1.909273 g / cm^3
# Si number density = 19.136284 Si / 1000 Ang^3
#
#
#
# Elastic Constant Matrix: (Units=GPa)
#
#
# Indices 1 2 3 4 5 6 
#
# 1 59.3269 23.5171 18.4392 0.0000 1.1914 0.0000
# 2 23.5171 99.6479 33.7736 0.0000 -2.9640 0.0000
# 3 18.4392 33.7736 93.7363 0.0000 8.3318 0.0000
# 4 0.0000 0.0000 0.0000 11.0000 0.0000 -17.5748
# 5 1.1914 -2.9640 8.3318 0.0000 25.2644 0.0000
# 6 0.0000 0.0000 0.0000 -17.5748 0.0000 -9.4117
#
#
#
# Elastic Compliance Matrix: (Units=1/GPa)
#
#
# Indices 1 2 3 4 5 6 
#
# 1 0.019075 -0.003717 -0.002364 0.000000 -0.000556 0.000000
# 2 -0.003717 0.012349 -0.003979 0.000000 0.002936 0.000000
# 3 -0.002364 -0.003979 0.012979 0.000000 -0.004636 0.000000
# 4 0.000000 0.000000 0.000000 0.022822 0.000000 -0.042616
# 5 -0.000556 0.002936 -0.004636 0.000000 0.041481 0.000000
# 6 0.000000 0.000000 0.000000 -0.042616 0.000000 -0.026673
#
#
# Mechanical properties :
#
#
# Convention : Reuss Voigt Hill
#
# Bulk Modulus (GPa) = 41.18123 44.90787 43.04455
# Shear Modulus (GPa) = 45.35328 17.16930 31.26129
#
# Velocity S-wave (km/s) = 4.87356 2.99860 4.04618
# Velocity P-wave (km/s) = 7.29627 5.95879 6.66118
#
# Compressibility (1/GPa) = 0.02428291
#
# Stress axis : x y z
#
# Youngs Moduli (GPa) = 52.42452 80.98125 77.04848
#
# Poissons Ratio (x) = 0.30102 0.18211
# Poissons Ratio (y) = 0.19487 0.30657
# Poissons Ratio (z) = 0.12391 0.32222
#
# Static dielectric constant tensor:
#      x y z
#    x 2.865300 0.000000 -0.002860 
#    y 0.000000 4.020460 0.000000 
#    z -0.002860 0.000000 3.236720 
# 
# 
# High freq. dielectric constant tensor:
#      x y z
#    x 1.731790 0.000000 -0.014770 
#    y 0.000000 1.761560 0.000000 
#    z -0.014770 0.000000 1.720790 
# 
# From -- ./inp_files/91574.got.cif
#   From: 2010.06.25/outbox.cif.g09.slc.cpg/sg12_46_cif.got.tgz:91574.got - 2010.06.28 00:19:55.
