data_PCOD8110375
_publ_section_title
;
Structure prediction by ZEFSAII (Michael W. Deem and Ramdas Pophale) SiO2 
 PCOD8110375
Probable space group: C 2/M
;
_chemical_formula_sum "Si O2"
_cell_formula_units_Z 52
_cell_length_a 8.259153
_cell_length_b 28.512947
_cell_length_c 15.098518
_cell_angle_alpha 90.000000
_cell_angle_beta 133.800321
_cell_angle_gamma 90.000000
_cell_volume 2566.271217
_symmetry_space_group_name_H-M "C 2/M"
_symmetry_group_IT_number 12
_symmetry_cell_setting 'monoclinic'
loop_
_space_group_symop_operation_xyz
x,y,z
-x,y,-z
-x,-y,-z
x,-y,z
1/2+x,1/2+y,z
1/2-x,1/2+y,-z
1/2-x,1/2-y,-z
1/2+x,1/2-y,z
loop_
_atom_site_type_symbol
_atom_site_label
_atom_site_fract_x
_atom_site_fract_y
_atom_site_fract_z
Si Si1 0.057380 0.294746 0.208219
Si Si2 0.248639 0.384947 0.568509
Si Si3 0.136623 0.946134 0.736835
Si Si4 0.265511 0.376378 0.384028
Si Si5 0.520271 0.304161 0.752188
Si Si6 0.670564 0.345492 0.987027
Si Si7 0.000000 0.408880 0.000000
O O1 0.089990 0.336714 0.290325
O O2 0.230362 0.298833 0.192356
O O3 0.090269 0.246384 0.273512
O O4 0.802987 0.299970 0.075389
O O5 0.392545 0.425300 0.673708
O O6 0.201898 0.401981 0.450458
O O7 0.377077 0.335064 0.629136
O O8 0.000000 0.376625 0.500000
O O9 0.214658 0.915822 0.682985
O O10 0.112632 0.000000 0.700907
O O11 0.314269 0.941221 0.883147
O O12 0.500000 0.351389 0.500000
O O13 0.523140 0.330844 0.847182
O O14 0.500000 0.365037 0.000000
O O15 0.867999 0.380520 0.027609
#
# Coordination Sequence:
#
# PCOD8110375 Si02
#       7
#     8   8   8   8   8   8   4
#     4  12  23  40  63  92 135 176 227 279 330 399
#     4  11  25  41  64  94 138 175 223 275 329 398
#     4  11  23  45  76  99 127 173 219 278 350 406
#     4  10  21  42  62  90 125 171 218 263 319 398
#     4  12  24  41  60  97 133 178 230 279 331 392
#     4  12  23  41  69  95 132 183 223 281 343 400
#     4  12  21  46  74 102 140 166 218 290 351 398
#
# _framework density 20.262864
#
# number of rings (size 3 to 8) (size 9 to 14) (size 15 to 20)
#    0.000    0.615    7.692    1.615    4.308    4.308 
#    0.000    0.000    0.000    0.923    0.000    0.000 
#    0.000    0.000    0.000    0.000    0.000    0.000 
#
# Total GULP energy -322109.985206 kJ/mol
# GULP energy per Si atom -12388.845585 kJ/mol
# Density = 2.021674 g / cm^3
# Si number density = 20.262864 Si / 1000 Ang^3
#
#
#
# Elastic Constant Matrix: (Units=GPa)
#
#
# Indices 1 2 3 4 5 6 
#
# 1 101.2352 13.3404 21.6624 0.0000 6.3752 0.0000
# 2 13.3404 119.5957 34.9490 0.0000 1.0574 0.0000
# 3 21.6624 34.9490 83.1523 0.0000 -8.5565 0.0000
# 4 0.0000 0.0000 0.0000 -8.1452 0.0000 -1.1958
# 5 6.3752 1.0574 -8.5565 0.0000 28.5809 0.0000
# 6 0.0000 0.0000 0.0000 -1.1958 0.0000 19.8556
#
#
#
# Elastic Compliance Matrix: (Units=1/GPa)
#
#
# Indices 1 2 3 4 5 6 
#
# 1 0.010771 -0.000289 -0.003024 0.000000 -0.003297 0.000000
# 2 -0.000289 0.009612 -0.004122 0.000000 -0.001525 0.000000
# 3 -0.003024 -0.004122 0.015096 0.000000 0.005347 0.000000
# 4 0.000000 0.000000 0.000000 -0.121695 0.000000 -0.007329
# 5 -0.003297 -0.001525 0.005347 0.000000 0.037381 0.000000
# 6 0.000000 0.000000 0.000000 -0.007329 0.000000 0.049922
#
#
# Mechanical properties :
#
#
# Convention : Reuss Voigt Hill
#
# Bulk Modulus (GPa) = 48.51874 49.32075 48.91974
# Shear Modulus (GPa) = 219.05907 23.66036 121.35971
#
# Velocity S-wave (km/s) = 10.40881 3.42083 7.74743
# Velocity P-wave (km/s) = 12.97900 6.32424 10.20908
#
# Compressibility (1/GPa) = 0.02061059
#
# Stress axis : x y z
#
# Youngs Moduli (GPa) = 92.84449 104.04101 66.24120
#
# Poissons Ratio (x) = 0.03003 0.20031
# Poissons Ratio (y) = 0.02680 0.27301
# Poissons Ratio (z) = 0.28075 0.42881
#
# Static dielectric constant tensor:
#      x y z
#    x 11.650850 0.000000 -5.877210 
#    y 0.000000 3.462060 0.000000 
#    z -5.877210 0.000000 8.250720 
# 
# 
# High freq. dielectric constant tensor:
#      x y z
#    x 1.790940 0.000000 -0.003120 
#    y 0.000000 1.761770 0.000000 
#    z -0.003120 0.000000 1.809650 
# 
# From -- ./inp_files/201345.got.cif
#   From: 2010.06.25/outbox.cif.g09.slc.cpg/sg12_101_cif.got.tgz:201345.got - 2010.06.28 00:19:55.
