data_PCOD8110345
_publ_section_title
;
Structure prediction by ZEFSAII (Michael W. Deem and Ramdas Pophale) SiO2 
 PCOD8110345
Probable space group: C 2/M
;
_chemical_formula_sum "Si O2"
_cell_formula_units_Z 40
_cell_length_a 18.437136
_cell_length_b 14.613692
_cell_length_c 16.695694
_cell_angle_alpha 90.000000
_cell_angle_beta 155.304681
_cell_angle_gamma 90.000000
_cell_volume 1879.398548
_symmetry_space_group_name_H-M "C 2/M"
_symmetry_group_IT_number 12
_symmetry_cell_setting 'monoclinic'
loop_
_space_group_symop_operation_xyz
x,y,z
-x,y,-z
-x,-y,-z
x,-y,z
1/2+x,1/2+y,z
1/2-x,1/2+y,-z
1/2-x,1/2-y,-z
1/2+x,1/2-y,z
loop_
_atom_site_type_symbol
_atom_site_label
_atom_site_fract_x
_atom_site_fract_y
_atom_site_fract_z
Si Si1 0.846525 0.000000 0.577773
Si Si2 0.887403 0.178609 0.719579
Si Si3 0.648846 0.500000 0.764824
Si Si4 0.843464 0.802799 0.287500
Si Si5 0.047382 0.500000 0.801470
Si Si6 0.500000 0.717232 0.000000
Si Si7 0.003200 0.698190 0.700695
O O1 0.901419 0.912697 0.683256
O O2 0.643886 0.000000 0.350065
O O3 0.956343 0.000000 0.607906
O O4 0.997605 0.258237 0.784726
O O5 0.687981 0.209477 0.529021
O O6 0.966325 0.157377 0.886462
O O7 0.661638 0.411597 0.723037
O O8 0.801760 0.500000 0.982943
O O9 0.664979 0.780199 0.151430
O O10 0.000000 0.768511 0.500000
O O11 0.861967 0.753694 0.219382
O O12 0.063470 0.591968 0.763925
#
# Coordination Sequence:
#
# PCOD8110345 Si02
#       7
#     4   8   4   8   4   4   8
#     4  10  22  42  67 100 132 172 221 273 333 389
#     4  10  21  41  69  97 131 176 221 272 331 398
#     4  12  25  41  70 100 130 176 226 269 330 406
#     4  12  26  45  65  99 139 177 219 275 337 391
#     4  10  24  39  66 104 125 171 225 277 321 392
#     4  12  26  40  68 100 134 178 220 278 332 390
#     4  10  21  44  68  92 136 177 223 269 332 396
#
# _framework density 21.283404000000001
#
# number of rings (size 3 to 8) (size 9 to 14) (size 15 to 20)
#    0.000    1.200    4.000    1.500    2.800    4.000 
#    0.000    2.500    0.000    0.000    0.000    0.000 
#    0.000    0.000    0.000    0.000    0.000    0.000 
#
# Total GULP energy -248031.477706 kJ/mol
# GULP energy per Si atom -12401.573885 kJ/mol
# Density = 2.123496 g / cm^3
# Si number density = 21.283404 Si / 1000 Ang^3
#
#
#
# Elastic Constant Matrix: (Units=GPa)
#
#
# Indices 1 2 3 4 5 6 
#
# 1 73.7357 15.2212 28.8956 0.0054 14.8429 -0.0050
# 2 15.2212 103.7933 -5.0848 0.0019 12.7966 -0.0060
# 3 28.8956 -5.0848 87.3192 0.0030 4.5928 -0.0084
# 4 0.0054 0.0019 0.0030 14.0060 0.0030 -23.7369
# 5 14.8429 12.7966 4.5928 0.0030 38.1479 -0.0047
# 6 -0.0050 -0.0060 -0.0084 -23.7369 -0.0047 9.5278
#
#
#
# Elastic Compliance Matrix: (Units=1/GPa)
#
#
# Indices 1 2 3 4 5 6 
#
# 1 0.017253 -0.002146 -0.005554 0.000001 -0.005325 0.000003
# 2 -0.002146 0.010368 0.001462 -0.000003 -0.002819 -0.000001
# 3 -0.005554 0.001462 0.013372 -0.000005 0.000061 -0.000002
# 4 0.000001 -0.000003 -0.000005 -0.022158 -0.000004 -0.055203
# 5 -0.005325 -0.002819 0.000061 -0.000004 0.029224 0.000000
# 6 0.000003 -0.000001 -0.000002 -0.055203 0.000000 -0.032573
#
#
# Mechanical properties :
#
#
# Convention : Reuss Voigt Hill
#
# Bulk Modulus (GPa) = 35.06563 38.10134 36.58349
# Shear Modulus (GPa) = 133.44289 27.39078 80.41683
#
# Velocity S-wave (km/s) = 7.92680 3.59131 6.15352
# Velocity P-wave (km/s) = 10.01450 5.92768 8.22884
#
# Compressibility (1/GPa) = 0.02851795
#
# Stress axis : x y z
#
# Youngs Moduli (GPa) = 57.95958 96.44667 74.78187
#
# Poissons Ratio (x) = 0.20696 0.41537
# Poissons Ratio (y) = 0.12437 -0.10934
# Poissons Ratio (z) = 0.32193 -0.14102
#
# Static dielectric constant tensor:
#      x y z
#    x 3.826590 -0.000010 0.099980 
#    y -0.000010 3.853750 -0.000030 
#    z 0.099980 -0.000030 3.965510 
# 
# 
# High freq. dielectric constant tensor:
#      x y z
#    x 1.831000 0.000000 0.010940 
#    y 0.000000 1.832560 0.000000 
#    z 0.010940 0.000000 1.844620 
# 
# From -- ./inp_files/112146.got.cif
#   From: 2010.06.25/outbox.cif.g09.slc.cpg/sg12_57_cif.got.tgz:112146.got - 2010.06.28 00:19:55.
