data_PCOD8110046
_publ_section_title
;
Structure prediction by ZEFSAII (Michael W. Deem and Ramdas Pophale) SiO2 
 PCOD8110046
Probable space group: C 2/M
;
_chemical_formula_sum "Si O2"
_cell_formula_units_Z 56
_cell_length_a 8.895734
_cell_length_b 30.830023
_cell_length_c 15.979596
_cell_angle_alpha 90.000000
_cell_angle_beta 39.245975
_cell_angle_gamma 90.000000
_cell_volume 2772.589539
_symmetry_space_group_name_H-M "C 2/M"
_symmetry_group_IT_number 12
_symmetry_cell_setting 'monoclinic'
loop_
_space_group_symop_operation_xyz
x,y,z
-x,y,-z
-x,-y,-z
x,-y,z
1/2+x,1/2+y,z
1/2-x,1/2+y,-z
1/2-x,1/2-y,-z
1/2+x,1/2-y,z
loop_
_atom_site_type_symbol
_atom_site_label
_atom_site_fract_x
_atom_site_fract_y
_atom_site_fract_z
Si Si1 0.268677 0.049901 0.652193
Si Si2 0.589995 0.785292 0.115325
Si Si3 0.736734 0.049603 0.149416
Si Si4 0.925906 0.381480 0.904337
Si Si5 0.385406 0.384454 0.806416
Si Si6 0.603766 0.746046 0.287988
Si Si7 0.755419 0.688507 0.629158
O O1 0.500000 0.063203 0.500000
O O2 0.289550 0.061287 0.741544
O O3 0.049854 0.075891 0.706668
O O4 0.207721 0.000000 0.665710
O O5 0.685842 0.834430 0.069183
O O6 0.573954 0.775114 0.219320
O O7 0.334465 0.784528 0.180081
O O8 0.750000 0.750000 0.000000
O O9 0.572402 0.084249 0.172230
O O10 0.651177 0.000000 0.170330
O O11 0.000000 0.055859 0.000000
O O12 0.199960 0.375061 0.812526
O O13 0.759372 0.399575 0.049657
O O14 0.557855 0.343516 0.752211
O O15 0.370250 0.714733 0.393756
O O16 0.643858 0.776708 0.348994
O O17 0.000000 0.663050 0.500000
#
# Coordination Sequence:
#
# PCOD8110046 Si02
#       7
#     8   8   8   8   8   8   8
#     4  10  22  43  69  94 125 165 208 253 315 389
#     4  11  22  36  57  86 122 162 204 258 315 371
#     4  10  21  40  66  97 126 159 207 259 313 381
#     4  11  23  38  61  91 132 161 207 266 321 372
#     4  11  23  38  59  92 124 165 206 255 314 381
#     4  10  22  37  57  84 113 157 216 253 313 372
#     4  11  22  40  60  82 119 163 210 260 308 373
#
# _framework density 20.197724000000001
#
# number of rings (size 3 to 8) (size 9 to 14) (size 15 to 20)
#    0.000    1.429    2.857    3.000    4.000    1.714 
#    0.000    2.143    0.000    2.571    0.000    0.000 
#    0.000    0.000    0.000    0.000    0.000    0.000 
#
# Total GULP energy -347022.643381 kJ/mol
# GULP energy per Si atom -12393.665835 kJ/mol
# Density = 2.015175 g / cm^3
# Si number density = 20.197724 Si / 1000 Ang^3
#
#
#
# Elastic Constant Matrix: (Units=GPa)
#
#
# Indices 1 2 3 4 5 6 
#
# 1 99.0948 45.1895 47.4389 0.0000 -15.8081 0.0000
# 2 45.1895 108.0634 35.1712 0.0000 -11.1073 0.0000
# 3 47.4389 35.1712 107.3697 0.0000 -14.2524 0.0000
# 4 0.0000 0.0000 0.0000 29.3402 0.0000 -5.6338
# 5 -15.8081 -11.1073 -14.2524 0.0000 31.9698 0.0000
# 6 0.0000 0.0000 0.0000 -5.6338 0.0000 33.1352
#
#
#
# Elastic Compliance Matrix: (Units=1/GPa)
#
#
# Indices 1 2 3 4 5 6 
#
# 1 0.014900 -0.004324 -0.004664 0.000000 0.003786 0.000000
# 2 -0.004324 0.011763 -0.001790 0.000000 0.001151 0.000000
# 3 -0.004664 -0.001790 0.012300 0.000000 0.002555 0.000000
# 4 0.000000 0.000000 0.000000 0.035233 0.000000 0.005991
# 5 0.003786 0.001151 0.002555 0.000000 0.034690 0.000000
# 6 0.000000 0.000000 0.000000 0.005991 0.000000 0.031198
#
#
# Mechanical properties :
#
#
# Convention : Reuss Voigt Hill
#
# Bulk Modulus (GPa) = 57.44939 63.34746 60.39842
# Shear Modulus (GPa) = 29.86102 31.33760 30.59931
#
# Velocity S-wave (km/s) = 3.84921 3.94323 3.89651
# Velocity P-wave (km/s) = 6.94698 7.22246 7.08606
#
# Compressibility (1/GPa) = 0.01740663
#
# Stress axis : x y z
#
# Youngs Moduli (GPa) = 67.11476 85.01431 81.30073
#
# Poissons Ratio (x) = 0.36756 0.37922
# Poissons Ratio (y) = 0.29017 0.14554
# Poissons Ratio (z) = 0.31305 0.15219
#
# Static dielectric constant tensor:
#      x y z
#    x 3.832460 0.000000 -0.229270 
#    y 0.000000 3.697350 0.000000 
#    z -0.229270 0.000000 3.801680 
# 
# 
# High freq. dielectric constant tensor:
#      x y z
#    x 1.784650 0.000000 -0.011120 
#    y 0.000000 1.793810 0.000000 
#    z -0.011120 0.000000 1.783940 
# 
# From -- ./inp_files/260110.got.cif
#   From: 2010.06.25/outbox.cif.g09.slc.cpg/sg12_131_cif.got.tgz:260110.got - 2010.06.28 00:19:55.
