data_PCOD8110881
_publ_section_title
;
Structure prediction by ZEFSAII (Michael W. Deem and Ramdas Pophale) SiO2 
 PCOD8110881
Probable space group: C 2/M
;
_chemical_formula_sum "Si O2"
_cell_formula_units_Z 56
_cell_length_a 23.643909
_cell_length_b 8.834587
_cell_length_c 15.496671
_cell_angle_alpha 90.000000
_cell_angle_beta 61.222416
_cell_angle_gamma 90.000000
_cell_volume 2837.222740
_symmetry_space_group_name_H-M "C 2/M"
_symmetry_group_IT_number 12
_symmetry_cell_setting 'monoclinic'
loop_
_space_group_symop_operation_xyz
x,y,z
-x,y,-z
-x,-y,-z
x,-y,z
1/2+x,1/2+y,z
1/2-x,1/2+y,-z
1/2-x,1/2-y,-z
1/2+x,1/2-y,z
loop_
_atom_site_type_symbol
_atom_site_label
_atom_site_fract_x
_atom_site_fract_y
_atom_site_fract_z
Si Si1 0.019206 0.819805 0.079645
Si Si2 0.220325 0.177500 0.145425
Si Si3 0.290635 0.825945 0.395784
Si Si4 0.571274 0.320020 0.698510
Si Si5 0.660772 0.678769 0.011046
Si Si6 0.825553 0.827252 0.638900
Si Si7 0.947007 0.321638 0.469070
O O1 0.090124 0.754880 0.046196
O O2 0.971601 0.762116 0.189740
O O3 0.018875 0.000000 0.079173
O O4 0.000000 0.755532 0.000000
O O5 0.181159 0.234389 0.091068
O O6 0.177546 0.223287 0.259251
O O7 0.233061 0.000000 0.134672
O O8 0.290066 0.257262 0.096447
O O9 0.250000 0.750000 0.500000
O O10 0.357081 0.737914 0.335445
O O11 0.247453 0.811494 0.341880
O O12 0.305628 0.000000 0.407919
O O13 0.572414 0.500000 0.690470
O O14 0.540710 0.256168 0.632360
O O15 0.660890 0.500000 0.003747
O O16 0.875176 0.719509 0.553175
O O17 0.849872 0.000000 0.610143
O O18 0.951925 0.500000 0.452879
O O19 0.000000 0.264534 0.500000
#
# Coordination Sequence:
#
# PCOD8110881 Si02
#       7
#     8   8   8   8   8   8   8
#     4   9  20  37  57  85 117 151 195 240 285 346
#     4   9  19  35  56  84 113 144 188 239 288 340
#     4  11  22  38  59  85 118 152 193 240 290 345
#     4  11  23  39  63  89 115 157 201 243 297 348
#     4   9  18  35  58  81 110 149 191 237 289 340
#     4  10  22  38  60  86 114 153 196 239 290 350
#     4  11  25  42  60  87 122 156 194 242 296 355
#
# _framework density 19.737611000000001
#
# number of rings (size 3 to 8) (size 9 to 14) (size 15 to 20)
#    0.000    2.000    1.429    1.286    4.000    2.286 
#    0.000    1.429    0.000    2.143    0.000    0.000 
#    0.000    0.000    0.000    0.000    0.000    0.000 
#
# Total GULP energy -347231.774863 kJ/mol
# GULP energy per Si atom -12401.134817 kJ/mol
# Density = 1.969269 g / cm^3
# Si number density = 19.737611 Si / 1000 Ang^3
#
#
#
# Elastic Constant Matrix: (Units=GPa)
#
#
# Indices 1 2 3 4 5 6 
#
# 1 131.2962 32.0739 67.0705 0.0000 -7.4590 0.0000
# 2 32.0739 56.7513 36.5266 0.0000 1.5480 0.0000
# 3 67.0705 36.5266 149.0189 0.0000 1.5231 0.0000
# 4 0.0000 0.0000 0.0000 23.9600 0.0000 -2.1602
# 5 -7.4590 1.5480 1.5231 0.0000 32.6291 0.0000
# 6 0.0000 0.0000 0.0000 -2.1602 0.0000 28.3083
#
#
#
# Elastic Compliance Matrix: (Units=1/GPa)
#
#
# Indices 1 2 3 4 5 6 
#
# 1 0.010665 -0.003557 -0.003957 0.000000 0.002792 0.000000
# 2 -0.003557 0.022126 -0.003805 0.000000 -0.001685 0.000000
# 3 -0.003957 -0.003805 0.009436 0.000000 -0.001164 0.000000
# 4 0.000000 0.000000 0.000000 0.042025 0.000000 0.003207
# 5 0.002792 -0.001685 -0.001164 0.000000 0.031420 0.000000
# 6 0.000000 0.000000 0.000000 0.003207 0.000000 0.035570
#
#
# Mechanical properties :
#
#
# Convention : Reuss Voigt Hill
#
# Bulk Modulus (GPa) = 51.04857 67.60093 59.32475
# Shear Modulus (GPa) = 27.71455 30.40586 29.06020
#
# Velocity S-wave (km/s) = 3.75126 3.92918 3.84125
# Velocity P-wave (km/s) = 6.68449 7.41005 7.05660
#
# Compressibility (1/GPa) = 0.01958919
#
# Stress axis : x y z
#
# Youngs Moduli (GPa) = 93.76315 45.19539 105.97620
#
# Poissons Ratio (x) = 0.16076 0.41933
# Poissons Ratio (y) = 0.33352 0.40327
# Poissons Ratio (z) = 0.37101 0.17198
#
# Static dielectric constant tensor:
#      x y z
#    x 3.979290 0.000000 0.111380 
#    y 0.000000 3.416360 0.000000 
#    z 0.111380 0.000000 3.729920 
# 
# 
# High freq. dielectric constant tensor:
#      x y z
#    x 1.778490 0.000000 0.003770 
#    y 0.000000 1.752320 0.000000 
#    z 0.003770 0.000000 1.776750 
# 
# From -- ./inp_files/238326.got.cif
#   From: 2010.06.25/outbox.cif.g09.slc.cpg/sg12_120_cif.got.tgz:238326.got - 2010.06.28 00:19:55.
