data_PCOD8110547
_publ_section_title
;
Structure prediction by ZEFSAII (Michael W. Deem and Ramdas Pophale) SiO2 
 PCOD8110547
Probable space group: C 2/M
;
_chemical_formula_sum "Si O2"
_cell_formula_units_Z 48
_cell_length_a 11.300967
_cell_length_b 17.741851
_cell_length_c 24.226751
_cell_angle_alpha 90.000000
_cell_angle_beta 148.652345
_cell_angle_gamma 90.000000
_cell_volume 2526.997331
_symmetry_space_group_name_H-M "C 2/M"
_symmetry_group_IT_number 12
_symmetry_cell_setting 'monoclinic'
loop_
_space_group_symop_operation_xyz
x,y,z
-x,y,-z
-x,-y,-z
x,-y,z
1/2+x,1/2+y,z
1/2-x,1/2+y,-z
1/2-x,1/2-y,-z
1/2+x,1/2-y,z
loop_
_atom_site_type_symbol
_atom_site_label
_atom_site_fract_x
_atom_site_fract_y
_atom_site_fract_z
Si Si1 0.629110 0.085858 0.341675
Si Si2 0.164505 0.661482 0.691665
Si Si3 0.795605 0.837825 0.298865
Si Si4 0.745194 0.584251 0.489908
Si Si5 0.464249 0.913601 0.896904
Si Si6 0.133854 0.086223 0.866506
O O1 0.397373 0.125454 0.272919
O O2 0.725059 0.138611 0.332118
O O3 0.804705 0.083054 0.463512
O O4 0.579561 0.000000 0.301170
O O5 0.150800 0.750682 0.685307
O O6 0.417401 0.639238 0.775976
O O7 0.980138 0.630455 0.573124
O O8 0.591070 0.860484 0.176748
O O9 0.028615 0.879393 0.373572
O O10 0.777363 0.500000 0.479529
O O11 0.281927 0.898808 0.871704
O O12 0.454841 0.000000 0.873563
O O13 0.715453 0.893757 0.019534
O O14 0.052640 0.000000 0.837251
#
# Coordination Sequence:
#
# PCOD8110547 Si02
#       6
#     8   8   8   8   8   8
#     4   9  20  37  57  80 109 154 189 216 272 344
#     4  10  22  34  57  83 113 149 181 234 281 326
#     4  12  21  33  57  86 116 137 186 241 279 319
#     4   9  19  37  57  79 109 152 188 220 273 341
#     4   9  20  35  59  82 105 146 189 227 274 335
#     4   9  18  39  59  76 107 150 189 221 273 346
#
# _framework density 18.994875
#
# number of rings (size 3 to 8) (size 9 to 14) (size 15 to 20)
#    1.000    1.333    0.000    4.500    2.333    2.000 
#    0.000    1.667    0.000    6.000    0.000    0.000 
#    0.000    0.000    0.000    0.000    0.000    0.000 
#
# Total GULP energy -297448.325804 kJ/mol
# GULP energy per Si atom -12393.680242 kJ/mol
# Density = 1.895164 g / cm^3
# Si number density = 18.994875 Si / 1000 Ang^3
#
#
#
# Elastic Constant Matrix: (Units=GPa)
#
#
# Indices 1 2 3 4 5 6 
#
# 1 24.2138 20.2552 11.7250 0.0003 6.1438 -0.0002
# 2 20.2552 121.0693 16.4053 0.0011 3.6222 0.0002
# 3 11.7250 16.4053 50.7343 0.0008 5.6633 -0.0018
# 4 0.0003 0.0011 0.0008 25.7093 0.0004 -2.0389
# 5 6.1438 3.6222 5.6633 0.0004 24.8603 0.0004
# 6 -0.0002 0.0002 -0.0018 -2.0389 0.0004 3.2373
#
#
#
# Elastic Compliance Matrix: (Units=1/GPa)
#
#
# Indices 1 2 3 4 5 6 
#
# 1 0.054657 -0.007613 -0.009015 0.000000 -0.010345 0.000000
# 2 -0.007613 0.009709 -0.001469 0.000000 0.000802 -0.000002
# 3 -0.009015 -0.001469 0.022570 0.000000 -0.002700 0.000012
# 4 0.000000 0.000000 0.000000 0.040941 -0.000001 0.025785
# 5 -0.010345 0.000802 -0.002700 -0.000001 0.043279 -0.000009
# 6 0.000000 -0.000002 0.000012 0.025785 -0.000009 0.325144
#
#
# Mechanical properties :
#
#
# Convention : Reuss Voigt Hill
#
# Bulk Modulus (GPa) = 19.70794 32.53205 26.11999
# Shear Modulus (GPa) = 9.10068 20.60351 14.85209
#
# Velocity S-wave (km/s) = 2.19124 3.29703 2.79928
# Velocity P-wave (km/s) = 4.09877 5.62653 4.92229
#
# Compressibility (1/GPa) = 0.05074098
#
# Stress axis : x y z
#
# Youngs Moduli (GPa) = 18.29581 103.00192 44.30573
#
# Poissons Ratio (x) = 0.78418 0.39942
# Poissons Ratio (y) = 0.13929 0.06510
# Poissons Ratio (z) = 0.16494 0.15135
#
# Static dielectric constant tensor:
#      x y z
#    x 3.120360 0.000000 0.007550 
#    y 0.000000 3.365760 0.000000 
#    z 0.007550 0.000000 3.468190 
# 
# 
# High freq. dielectric constant tensor:
#      x y z
#    x 1.711620 0.000000 0.007020 
#    y 0.000000 1.738860 0.000000 
#    z 0.007020 0.000000 1.732770 
# 
# From -- ./inp_files/358647.got.cif
#   From: 2010.06.25/outbox.cif.g09.slc.cpg/sg12_180_cif.got.tgz:358647.got - 2010.06.28 00:19:55.
