data_PCOD8110030
_publ_section_title
;
Structure prediction by ZEFSAII (Michael W. Deem and Ramdas Pophale) SiO2 
 PCOD8110030
Probable space group: C 2/M
;
_chemical_formula_sum "Si O2"
_cell_formula_units_Z 56
_cell_length_a 18.608891
_cell_length_b 13.848603
_cell_length_c 11.881592
_cell_angle_alpha 90.000000
_cell_angle_beta 56.175274
_cell_angle_gamma 90.000000
_cell_volume 2543.715138
_symmetry_space_group_name_H-M "C 2/M"
_symmetry_group_IT_number 12
_symmetry_cell_setting 'monoclinic'
loop_
_space_group_symop_operation_xyz
x,y,z
-x,y,-z
-x,-y,-z
x,-y,z
1/2+x,1/2+y,z
1/2-x,1/2+y,-z
1/2-x,1/2-y,-z
1/2+x,1/2-y,z
loop_
_atom_site_type_symbol
_atom_site_label
_atom_site_fract_x
_atom_site_fract_y
_atom_site_fract_z
Si Si1 0.738097 0.699887 0.181906
Si Si2 0.591366 0.391085 0.906051
Si Si3 0.133206 0.610649 0.578253
Si Si4 0.911259 0.785580 0.515781
Si Si5 0.828302 0.886317 0.389371
Si Si6 0.731789 0.393141 0.955863
Si Si7 0.093260 0.611067 0.866533
O O1 0.668621 0.680349 0.338122
O O2 0.716860 0.807206 0.151681
O O3 0.836440 0.684620 0.140869
O O4 0.724532 0.622659 0.094784
O O5 0.572210 0.500000 0.882333
O O6 0.650435 0.346015 0.754924
O O7 0.636050 0.389315 0.988118
O O8 0.500000 0.335190 0.000000
O O9 0.129158 0.500000 0.542024
O O10 0.087934 0.672414 0.518846
O O11 0.231772 0.648702 0.504247
O O12 0.086475 0.626451 0.738388
O O13 0.900662 0.844083 0.409303
O O14 0.000000 0.812874 0.500000
O O15 0.831398 0.000000 0.396215
O O16 0.773309 0.500000 0.896585
O O17 0.121071 0.500000 0.867643
O O18 0.000000 0.634235 0.000000
#
# Coordination Sequence:
#
# PCOD8110030 Si02
#       7
#     8   8   8   8   8   8   8
#     4  11  24  42  65  95 132 175 218 274 332 392
#     4   9  19  35  58  89 122 163 214 262 313 385
#     4  10  22  43  69  94 127 175 229 282 331 388
#     4  12  27  41  63  98 136 177 221 268 334 402
#     4  10  21  40  66  93 127 175 221 269 331 394
#     4  10  23  41  63  91 128 172 214 266 337 396
#     4  10  22  42  70 100 129 170 223 278 332 385
#
# _framework density 22.015044
#
# number of rings (size 3 to 8) (size 9 to 14) (size 15 to 20)
#    0.000    1.714    1.429    1.714    4.000    5.714 
#    0.000    1.429    0.000    0.000    0.000    0.000 
#    0.000    0.000    0.000    0.000    0.000    0.000 
#
# Total GULP energy -347118.365267 kJ/mol
# GULP energy per Si atom -12397.084474 kJ/mol
# Density = 2.196494 g / cm^3
# Si number density = 22.015044 Si / 1000 Ang^3
#
#
#
# Elastic Constant Matrix: (Units=GPa)
#
#
# Indices 1 2 3 4 5 6 
#
# 1 107.1723 6.1080 49.7826 0.0000 -1.8340 0.0000
# 2 6.1080 78.1322 6.9860 0.0000 3.5710 0.0000
# 3 49.7826 6.9860 125.1348 0.0000 -12.3045 0.0000
# 4 0.0000 0.0000 0.0000 16.5645 0.0000 11.0530
# 5 -1.8340 3.5710 -12.3045 0.0000 36.7684 0.0000
# 6 0.0000 0.0000 0.0000 11.0530 0.0000 31.3443
#
#
#
# Elastic Compliance Matrix: (Units=1/GPa)
#
#
# Indices 1 2 3 4 5 6 
#
# 1 0.011496 -0.000441 -0.004641 0.000000 -0.000937 0.000000
# 2 -0.000441 0.012965 -0.000697 0.000000 -0.001515 0.000000
# 3 -0.004641 -0.000697 0.010196 0.000000 0.003248 0.000000
# 4 0.000000 0.000000 0.000000 0.078946 0.000000 -0.027839
# 5 -0.000937 -0.001515 0.003248 0.000000 0.028385 0.000000
# 6 0.000000 0.000000 0.000000 -0.027839 0.000000 0.041721
#
#
# Mechanical properties :
#
#
# Convention : Reuss Voigt Hill
#
# Bulk Modulus (GPa) = 43.29314 48.46583 45.87949
# Shear Modulus (GPa) = 24.63471 33.43960 29.03715
#
# Velocity S-wave (km/s) = 3.34877 3.90159 3.63570
# Velocity P-wave (km/s) = 5.88730 6.50839 6.20562
#
# Compressibility (1/GPa) = 0.02309835
#
# Stress axis : x y z
#
# Youngs Moduli (GPa) = 86.99007 77.13158 98.07789
#
# Poissons Ratio (x) = 0.03401 0.45516
# Poissons Ratio (y) = 0.03835 0.06839
# Poissons Ratio (z) = 0.40370 0.05379
#
# Static dielectric constant tensor:
#      x y z
#    x 3.756510 0.000000 0.055730 
#    y 0.000000 4.184140 0.000000 
#    z 0.055730 0.000000 4.049070 
# 
# 
# High freq. dielectric constant tensor:
#      x y z
#    x 1.846280 0.000000 0.014080 
#    y 0.000000 1.882030 0.000000 
#    z 0.014080 0.000000 1.866070 
# 
# From -- ./inp_files/156533.got.cif
#   From: 2010.06.25/outbox.cif.g09.slc.cpg/sg12_79_cif.got.tgz:156533.got - 2010.06.28 00:19:55.
