data_PCOD8110092
_publ_section_title
;
Structure prediction by ZEFSAII (Michael W. Deem and Ramdas Pophale) SiO2 
 PCOD8110092
Probable space group: C 2/M
;
_chemical_formula_sum "Si O2"
_cell_formula_units_Z 60
_cell_length_a 20.129609
_cell_length_b 26.603797
_cell_length_c 11.562739
_cell_angle_alpha 90.000000
_cell_angle_beta 31.858175
_cell_angle_gamma 90.000000
_cell_volume 3268.317662
_symmetry_space_group_name_H-M "C 2/M"
_symmetry_group_IT_number 12
_symmetry_cell_setting 'monoclinic'
loop_
_space_group_symop_operation_xyz
x,y,z
-x,y,-z
-x,-y,-z
x,-y,z
1/2+x,1/2+y,z
1/2-x,1/2+y,-z
1/2-x,1/2-y,-z
1/2+x,1/2-y,z
loop_
_atom_site_type_symbol
_atom_site_label
_atom_site_fract_x
_atom_site_fract_y
_atom_site_fract_z
Si Si1 0.375211 0.807263 0.122002
Si Si2 0.056048 0.180845 0.293059
Si Si3 0.845226 0.144494 0.440658
Si Si4 0.995643 0.057248 0.869503
Si Si5 0.761273 0.797827 0.338988
Si Si6 0.000000 0.632447 0.500000
Si Si7 0.225034 0.875238 0.886955
Si Si8 0.024470 0.711508 0.268706
O O1 0.272588 0.850602 0.298924
O O2 0.338859 0.753466 0.228171
O O3 0.500000 0.826536 0.000000
O O4 0.384253 0.801864 0.971582
O O5 0.079795 0.240704 0.257313
O O6 0.000000 0.163646 0.500000
O O7 0.961766 0.172836 0.325717
O O8 0.180474 0.148087 0.077341
O O9 0.885330 0.086609 0.361374
O O10 0.811752 0.168320 0.367535
O O11 0.005898 0.000000 0.812541
O O12 0.000000 0.062041 0.000000
O O13 0.863354 0.079197 0.020631
O O14 0.781729 0.828249 0.190782
O O15 0.616935 0.781148 0.569673
O O16 0.868358 0.601990 0.678543
O O17 0.971380 0.664886 0.653746
#
# Coordination Sequence:
#
# PCOD8110092 Si02
#       8
#     8   8   8   8   8   4   8   8
#     4  12  22  30  52  82 119 161 196 225 284 348
#     4  11  22  34  52  77 114 165 204 235 271 329
#     4  11  22  36  53  82 118 145 187 245 290 341
#     4  10  21  40  68  91 107 136 190 257 308 337
#     4  11  20  34  51  83 117 155 191 236 283 333
#     4  10  24  36  53  78 122 162 185 236 280 346
#     4  10  22  37  58  83 118 150 195 241 290 344
#     4  11  21  34  49  77 117 162 202 227 268 333
#
# _framework density 18.358069
#
# number of rings (size 3 to 8) (size 9 to 14) (size 15 to 20)
#    0.000    1.200    6.000    1.200    3.733    0.533 
#    0.000    0.333    0.000    6.800    0.000    0.933 
#    0.000    0.000    0.000    0.000    0.000    0.000 
#
# Total GULP energy -371929.955244 kJ/mol
# GULP energy per Si atom -12397.665175 kJ/mol
# Density = 1.831628 g / cm^3
# Si number density = 18.358069 Si / 1000 Ang^3
#
#
#
# Elastic Constant Matrix: (Units=GPa)
#
#
# Indices 1 2 3 4 5 6 
#
# 1 60.6747 20.7314 33.8900 0.0005 1.9915 -0.0254
# 2 20.7314 95.8009 52.5810 0.0000 -3.2461 -0.0179
# 3 33.8900 52.5810 132.6985 -0.0093 3.3497 -0.0599
# 4 0.0005 0.0000 -0.0093 22.4881 0.0008 0.7930
# 5 1.9915 -3.2461 3.3497 0.0008 36.9227 0.0200
# 6 -0.0254 -0.0179 -0.0599 0.7930 0.0200 41.0703
#
#
#
# Elastic Compliance Matrix: (Units=1/GPa)
#
#
# Indices 1 2 3 4 5 6 
#
# 1 0.019516 -0.001953 -0.004189 -0.000002 -0.000844 0.000006
# 2 -0.001953 0.013637 -0.004949 -0.000002 0.001753 -0.000003
# 3 -0.004189 -0.004949 0.010596 0.000004 -0.001170 0.000011
# 4 -0.000002 -0.000002 0.000004 0.044498 -0.000001 -0.000859
# 5 -0.000844 0.001753 -0.001170 -0.000001 0.027389 -0.000015
# 6 0.000006 -0.000003 0.000011 -0.000859 -0.000015 0.024365
#
#
# Mechanical properties :
#
#
# Convention : Reuss Voigt Hill
#
# Bulk Modulus (GPa) = 46.36638 55.95321 51.15979
# Shear Modulus (GPa) = 29.52073 32.22768 30.87421
#
# Velocity S-wave (km/s) = 4.01440 4.19442 4.10540
# Velocity P-wave (km/s) = 6.84096 7.34864 7.09934
#
# Compressibility (1/GPa) = 0.02156735
#
# Stress axis : x y z
#
# Youngs Moduli (GPa) = 51.23976 73.33234 94.37248
#
# Poissons Ratio (x) = 0.14319 0.39534
# Poissons Ratio (y) = 0.10005 0.46705
# Poissons Ratio (z) = 0.21465 0.36292
#
# Static dielectric constant tensor:
#      x y z
#    x 3.481380 0.000000 -0.112220 
#    y 0.000000 3.033920 0.000000 
#    z -0.112220 0.000000 3.819860 
# 
# 
# High freq. dielectric constant tensor:
#      x y z
#    x 1.722410 0.000000 -0.000510 
#    y 0.000000 1.656000 0.000000 
#    z -0.000510 0.000000 1.728190 
# 
# From -- ./inp_files/136973.got.cif
#   From: 2010.06.25/outbox.cif.g09.slc.cpg/sg12_69_cif.got.tgz:136973.got - 2010.06.28 00:19:55.
