data_PCOD8110407
_publ_section_title
;
Structure prediction by ZEFSAII (Michael W. Deem and Ramdas Pophale) SiO2 
 PCOD8110407
Probable space group: C 2/M
;
_chemical_formula_sum "Si O2"
_cell_formula_units_Z 44
_cell_length_a 11.818317
_cell_length_b 21.819250
_cell_length_c 9.138290
_cell_angle_alpha 90.000000
_cell_angle_beta 120.871585
_cell_angle_gamma 90.000000
_cell_volume 2022.597007
_symmetry_space_group_name_H-M "C 2/M"
_symmetry_group_IT_number 12
_symmetry_cell_setting 'monoclinic'
loop_
_space_group_symop_operation_xyz
x,y,z
-x,y,-z
-x,-y,-z
x,-y,z
1/2+x,1/2+y,z
1/2-x,1/2+y,-z
1/2-x,1/2-y,-z
1/2+x,1/2-y,z
loop_
_atom_site_type_symbol
_atom_site_label
_atom_site_fract_x
_atom_site_fract_y
_atom_site_fract_z
Si Si1 0.878156 0.500000 0.661123
Si Si2 0.008503 0.110930 0.278677
Si Si3 0.500000 0.313061 0.000000
Si Si4 0.000000 0.793870 0.500000
Si Si5 0.230369 0.591835 0.182678
Si Si6 0.241838 0.266733 0.164435
Si Si7 0.670301 0.000000 0.900889
Si Si8 0.183102 0.000000 0.290430
O O1 0.831756 0.560810 0.715912
O O2 0.822000 0.500000 0.461687
O O3 0.031673 0.500000 0.728540
O O4 0.946263 0.145416 0.096873
O O5 0.072629 0.162220 0.428107
O O6 0.887873 0.079802 0.286785
O O7 0.109463 0.060921 0.290779
O O8 0.377744 0.274112 0.851854
O O9 0.117705 0.754533 0.656872
O O10 0.197593 0.663396 0.157962
O O11 0.171938 0.560890 0.999191
O O12 0.250000 0.250000 0.000000
O O13 0.792212 0.000000 0.867337
#
# Coordination Sequence:
#
# PCOD8110407 Si02
#       8
#     4   8   4   4   8   8   4   4
#     4  11  24  41  62  95 128 169 215 269 320 400
#     4  11  23  41  66  99 125 168 220 280 321 387
#     4  12  24  41  68  97 136 170 226 272 330 388
#     4  10  22  45  66  96 138 165 232 268 320 402
#     4  10  21  42  67  90 122 168 223 263 320 390
#     4  11  23  43  67  97 133 177 216 274 327 385
#     4  11  24  39  60  93 132 165 216 262 327 404
#     4  12  23  38  64  92 133 167 206 273 347 367
#
# _framework density 21.754208999999999
#
# number of rings (size 3 to 8) (size 9 to 14) (size 15 to 20)
#    0.000    1.091    3.636    5.727    2.545    2.909 
#    0.000    0.000    0.000    0.000    0.000    0.000 
#    0.000    0.000    0.000    0.000    0.000    0.000 
#
# Total GULP energy -272701.788443 kJ/mol
# GULP energy per Si atom -12395.535838 kJ/mol
# Density = 2.170470 g / cm^3
# Si number density = 21.754209 Si / 1000 Ang^3
#
#
#
# Elastic Constant Matrix: (Units=GPa)
#
#
# Indices 1 2 3 4 5 6 
#
# 1 74.9335 13.0750 14.9885 0.0000 15.5522 0.0000
# 2 13.0750 72.9300 26.8400 0.0000 12.3556 0.0000
# 3 14.9885 26.8400 112.0550 0.0000 19.9596 0.0000
# 4 0.0000 0.0000 0.0000 4.6299 0.0000 0.6850
# 5 15.5522 12.3556 19.9596 0.0000 47.8474 0.0000
# 6 0.0000 0.0000 0.0000 0.6850 0.0000 17.1914
#
#
#
# Elastic Compliance Matrix: (Units=1/GPa)
#
#
# Indices 1 2 3 4 5 6 
#
# 1 0.014627 -0.001633 -0.000857 0.000000 -0.003975 0.000000
# 2 -0.001633 0.015518 -0.003110 0.000000 -0.002179 0.000000
# 3 -0.000857 -0.003110 0.010361 0.000000 -0.003240 0.000000
# 4 0.000000 0.000000 0.000000 0.217266 0.000000 -0.008657
# 5 -0.003975 -0.002179 -0.003240 0.000000 0.024106 0.000000
# 6 0.000000 0.000000 0.000000 -0.008657 0.000000 0.058514
#
#
# Mechanical properties :
#
#
# Convention : Reuss Voigt Hill
#
# Bulk Modulus (GPa) = 34.12506 41.08060 37.60283
# Shear Modulus (GPa) = 13.83653 27.60141 20.71897
#
# Velocity S-wave (km/s) = 2.52472 3.56586 3.08947
# Velocity P-wave (km/s) = 4.92134 5.98989 5.48172
#
# Compressibility (1/GPa) = 0.02930398
#
# Stress axis : x y z
#
# Youngs Moduli (GPa) = 68.36866 64.43923 96.51519
#
# Poissons Ratio (x) = 0.10525 0.08273
# Poissons Ratio (y) = 0.11167 0.30021
# Poissons Ratio (z) = 0.05861 0.20044
#
# Static dielectric constant tensor:
#      x y z
#    x 3.868330 0.000000 0.016700 
#    y 0.000000 4.020490 0.000000 
#    z 0.016700 0.000000 4.104890 
# 
# 
# High freq. dielectric constant tensor:
#      x y z
#    x 1.850200 0.000000 -0.002470 
#    y 0.000000 1.847330 0.000000 
#    z -0.002470 0.000000 1.864330 
# 
# From -- ./inp_files/51622.got.cif
#   From: 2010.06.25/outbox.cif.g09.slc.cpg/sg12_26_cif.got.tgz:51622.got - 2010.06.28 00:19:55.
