data_PCOD8110199
_publ_section_title
;
Structure prediction by ZEFSAII (Michael W. Deem and Ramdas Pophale) SiO2 
 PCOD8110199
Probable space group: C 2/M
;
_chemical_formula_sum "Si O2"
_cell_formula_units_Z 40
_cell_length_a 9.930079
_cell_length_b 27.130795
_cell_length_c 16.926807
_cell_angle_alpha 90.000000
_cell_angle_beta 153.305198
_cell_angle_gamma 90.000000
_cell_volume 2048.644966
_symmetry_space_group_name_H-M "C 2/M"
_symmetry_group_IT_number 12
_symmetry_cell_setting 'monoclinic'
loop_
_space_group_symop_operation_xyz
x,y,z
-x,y,-z
-x,-y,-z
x,-y,z
1/2+x,1/2+y,z
1/2-x,1/2+y,-z
1/2-x,1/2-y,-z
1/2+x,1/2-y,z
loop_
_atom_site_type_symbol
_atom_site_label
_atom_site_fract_x
_atom_site_fract_y
_atom_site_fract_z
Si Si1 0.301585 0.896163 0.118526
Si Si2 0.381427 0.942417 0.853240
Si Si3 0.930787 0.705765 0.554876
Si Si4 0.143254 0.878897 0.493784
Si Si5 0.577773 0.709630 0.959005
O O1 0.357832 0.930055 0.072165
O O2 0.555013 0.905019 0.317720
O O3 0.282071 0.838730 0.080670
O O4 0.000000 0.915065 0.000000
O O5 0.076103 0.916875 0.664331
O O6 0.314807 0.000000 0.822069
O O7 0.500000 0.922902 0.000000
O O8 0.750000 0.750000 0.500000
O O9 0.718095 0.659909 0.464151
O O10 0.000000 0.715645 0.500000
O O11 0.258982 0.693526 0.758745
O O12 0.000000 0.855770 0.500000
O O13 0.500000 0.736695 0.000000
O O14 0.750000 0.750000 0.000000
#
# Coordination Sequence:
#
# PCOD8110199 Si02
#       5
#     8   8   8   8   8
#     4  10  21  41  64  90 127 164 208 256 307 376
#     4  10  24  43  67  95 123 158 208 262 320 376
#     4  12  25  38  60  92 128 169 213 253 306 366
#     4  10  22  41  64  88 128 164 209 255 309 371
#     4  11  23  40  59  89 129 166 210 255 302 364
#
# _framework density 19.525102
#
# number of rings (size 3 to 8) (size 9 to 14) (size 15 to 20)
#    0.000    1.400    4.000    1.800    8.400    4.800 
#    0.000    0.000    0.000    3.000    0.000    0.000 
#    0.000    0.000    0.000    0.000    0.000    0.000 
#
# Total GULP energy -247826.966942 kJ/mol
# GULP energy per Si atom -12391.348347 kJ/mol
# Density = 1.948066 g / cm^3
# Si number density = 19.525102 Si / 1000 Ang^3
#
#
#
# Elastic Constant Matrix: (Units=GPa)
#
#
# Indices 1 2 3 4 5 6 
#
# 1 159.6324 52.2561 63.9890 0.0002 -7.2722 0.0001
# 2 52.2561 75.0971 44.1301 0.0005 -3.7248 0.0002
# 3 63.9890 44.1301 147.2267 0.0002 -0.0777 0.0006
# 4 0.0002 0.0005 0.0002 34.9896 0.0005 6.3945
# 5 -7.2722 -3.7248 -0.0777 0.0005 38.8957 0.0004
# 6 0.0001 0.0002 0.0006 6.3945 0.0004 34.8547
#
#
#
# Elastic Compliance Matrix: (Units=1/GPa)
#
#
# Indices 1 2 3 4 5 6 
#
# 1 0.008817 -0.004642 -0.002440 0.000000 0.001199 0.000000
# 2 -0.004642 0.018699 -0.003587 0.000000 0.000916 0.000000
# 3 -0.002440 -0.003587 0.008928 0.000000 -0.000782 0.000000
# 4 0.000000 0.000000 0.000000 0.029571 0.000000 -0.005425
# 5 0.001199 0.000916 -0.000782 0.000000 0.026020 0.000000
# 6 0.000000 0.000000 0.000000 -0.005425 0.000000 0.029686
#
#
# Mechanical properties :
#
#
# Convention : Reuss Voigt Hill
#
# Bulk Modulus (GPa) = 66.19927 78.07851 72.13889
# Shear Modulus (GPa) = 33.76242 36.52005 35.14124
#
# Velocity S-wave (km/s) = 4.16285 4.32952 4.24700
# Velocity P-wave (km/s) = 7.55540 8.06651 7.81514
#
# Compressibility (1/GPa) = 0.01510591
#
# Stress axis : x y z
#
# Youngs Moduli (GPa) = 113.42301 53.47786 112.01303
#
# Poissons Ratio (x) = 0.24823 0.27331
# Poissons Ratio (y) = 0.52647 0.40180
# Poissons Ratio (z) = 0.27675 0.19183
#
# Static dielectric constant tensor:
#      x y z
#    x 3.803580 0.000000 0.090340 
#    y 0.000000 3.301180 -0.000010 
#    z 0.090340 -0.000010 3.768830 
# 
# 
# High freq. dielectric constant tensor:
#      x y z
#    x 1.777940 0.000000 0.002220 
#    y 0.000000 1.735960 0.000000 
#    z 0.002220 0.000000 1.778670 
# 
# From -- ./inp_files/41412.got.cif
#   From: 2010.06.25/outbox.cif.g09.slc.cpg/sg12_21_cif.got.tgz:41412.got - 2010.06.28 00:19:55.
