data_PCOD8110837
_publ_section_title
;
Structure prediction by ZEFSAII (Michael W. Deem and Ramdas Pophale) SiO2 
 PCOD8110837
Probable space group: C 2/M
;
_chemical_formula_sum "Si O2"
_cell_formula_units_Z 56
_cell_length_a 28.677476
_cell_length_b 8.797197
_cell_length_c 16.958834
_cell_angle_alpha 90.000000
_cell_angle_beta 138.902250
_cell_angle_gamma 90.000000
_cell_volume 2812.386644
_symmetry_space_group_name_H-M "C 2/M"
_symmetry_group_IT_number 12
_symmetry_cell_setting 'monoclinic'
loop_
_space_group_symop_operation_xyz
x,y,z
-x,y,-z
-x,-y,-z
x,-y,z
1/2+x,1/2+y,z
1/2-x,1/2+y,-z
1/2-x,1/2-y,-z
1/2+x,1/2-y,z
loop_
_atom_site_type_symbol
_atom_site_label
_atom_site_fract_x
_atom_site_fract_y
_atom_site_fract_z
Si Si1 0.165009 0.671545 0.550655
Si Si2 0.921709 0.677145 0.707399
Si Si3 0.015405 0.326977 0.432420
Si Si4 0.077703 0.322175 0.113816
Si Si5 0.796071 0.320726 0.989032
Si Si6 0.947164 0.177448 0.201763
Si Si7 0.786759 0.679393 0.801327
O O1 0.193890 0.500000 0.582891
O O2 0.140332 0.728604 0.432154
O O3 0.099101 0.683456 0.525686
O O4 0.226707 0.775716 0.662854
O O5 0.939342 0.500000 0.713676
O O6 0.896312 0.708144 0.763645
O O7 0.993611 0.770829 0.785233
O O8 0.988644 0.500000 0.384665
O O9 0.000000 0.269674 0.500000
O O10 0.973625 0.212450 0.323243
O O11 0.070966 0.500000 0.088282
O O12 0.137383 0.251993 0.131660
O O13 0.000000 0.247218 0.000000
O O14 0.789634 0.500000 0.988985
O O15 0.876971 0.272621 0.097703
O O16 0.750000 0.250000 0.000000
O O17 0.769062 0.265250 0.867855
O O18 0.931180 0.000000 0.172159
O O19 0.792805 0.500000 0.807571
#
# Coordination Sequence:
#
# PCOD8110837 Si02
#       7
#     8   8   8   8   8   8   8
#     4   9  19  34  53  81 117 153 187 228 283 344
#     4   9  18  36  60  84 113 153 195 231 277 342
#     4   9  19  36  58  82 108 149 195 235 282 341
#     4   9  17  33  60  87 110 145 195 242 284 336
#     4  11  24  41  59  81 112 152 194 239 293 351
#     4  11  22  36  56  85 115 146 186 236 289 339
#     4  10  22  38  58  85 114 146 190 243 291 341
#
# _framework density 19.911913999999999
#
# number of rings (size 3 to 8) (size 9 to 14) (size 15 to 20)
#    0.000    2.286    0.000    3.429    2.000    6.571 
#    0.000    0.714    0.000    1.714    0.000    0.000 
#    0.000    0.000    0.000    0.000    0.000    0.000 
#
# Total GULP energy -347149.069339 kJ/mol
# GULP energy per Si atom -12398.181048 kJ/mol
# Density = 1.986659 g / cm^3
# Si number density = 19.911914 Si / 1000 Ang^3
#
#
#
# Elastic Constant Matrix: (Units=GPa)
#
#
# Indices 1 2 3 4 5 6 
#
# 1 121.1776 33.9592 63.0196 0.0000 -17.8194 0.0000
# 2 33.9592 36.9147 18.7002 0.0000 -3.5793 0.0000
# 3 63.0196 18.7002 118.1794 0.0000 2.9537 0.0000
# 4 0.0000 0.0000 0.0000 33.2794 0.0000 2.0387
# 5 -17.8194 -3.5793 2.9537 0.0000 21.0560 0.0000
# 6 0.0000 0.0000 0.0000 2.0387 0.0000 21.4524
#
#
#
# Elastic Compliance Matrix: (Units=1/GPa)
#
#
# Indices 1 2 3 4 5 6 
#
# 1 0.017455 -0.010653 -0.007974 0.000000 0.014080 0.000000
# 2 -0.010653 0.036645 -0.000048 0.000000 -0.002780 0.000000
# 3 -0.007974 -0.000048 0.012936 0.000000 -0.008571 0.000000
# 4 0.000000 0.000000 0.000000 0.030225 0.000000 -0.002872
# 5 0.014080 -0.002780 -0.008571 0.000000 0.060138 0.000000
# 6 0.000000 0.000000 0.000000 -0.002872 0.000000 0.046888
#
#
# Mechanical properties :
#
#
# Convention : Reuss Voigt Hill
#
# Bulk Modulus (GPa) = 33.68754 56.40330 45.04542
# Shear Modulus (GPa) = 19.87815 25.86374 22.87094
#
# Velocity S-wave (km/s) = 3.16302 3.60795 3.39279
# Velocity P-wave (km/s) = 5.50406 6.76345 6.16599
#
# Compressibility (1/GPa) = 0.02968456
#
# Stress axis : x y z
#
# Youngs Moduli (GPa) = 57.28859 27.28922 77.30392
#
# Poissons Ratio (x) = 0.29071 0.61645
# Poissons Ratio (y) = 0.61030 0.00373
# Poissons Ratio (z) = 0.45684 0.00132
#
# Static dielectric constant tensor:
#      x y z
#    x 3.872810 0.000000 -0.138370 
#    y 0.000000 3.323380 0.000000 
#    z -0.138370 0.000000 3.650370 
# 
# 
# High freq. dielectric constant tensor:
#      x y z
#    x 1.784580 0.000000 -0.008970 
#    y 0.000000 1.747870 0.000000 
#    z -0.008970 0.000000 1.781630 
# 
# From -- ./inp_files/292565.got.cif
#   From: 2010.06.25/outbox.cif.g09.slc.cpg/sg12_147_cif.got.tgz:292565.got - 2010.06.28 00:19:55.
