data_PCOD8110349
_publ_section_title
;
Structure prediction by ZEFSAII (Michael W. Deem and Ramdas Pophale) SiO2 
 PCOD8110349
Probable space group: C 2/M
;
_chemical_formula_sum "Si O2"
_cell_formula_units_Z 36
_cell_length_a 13.138132
_cell_length_b 22.474487
_cell_length_c 9.027439
_cell_angle_alpha 90.000000
_cell_angle_beta 34.431697
_cell_angle_gamma 90.000000
_cell_volume 1507.168248
_symmetry_space_group_name_H-M "C 2/M"
_symmetry_group_IT_number 12
_symmetry_cell_setting 'monoclinic'
loop_
_space_group_symop_operation_xyz
x,y,z
-x,y,-z
-x,-y,-z
x,-y,z
1/2+x,1/2+y,z
1/2-x,1/2+y,-z
1/2-x,1/2-y,-z
1/2+x,1/2-y,z
loop_
_atom_site_type_symbol
_atom_site_label
_atom_site_fract_x
_atom_site_fract_y
_atom_site_fract_z
Si Si1 0.797349 0.242769 0.271262
Si Si2 0.307596 0.627895 0.654681
Si Si3 0.528658 0.566888 0.802863
Si Si4 0.500000 0.157364 0.500000
Si Si5 0.647710 0.934091 0.102942
O O1 0.750000 0.250000 0.500000
O O2 0.776912 0.307445 0.224048
O O3 0.670651 0.198110 0.332313
O O4 0.000000 0.220235 0.000000
O O5 0.500000 0.627038 0.500000
O O6 0.327675 0.607382 0.459117
O O7 0.173295 0.582716 0.899819
O O8 0.607816 0.500000 0.720373
O O9 0.500000 0.594849 0.000000
O O10 0.340462 0.565908 0.947508
O O11 0.475441 0.115112 0.671549
O O12 0.560121 0.000000 0.220033
#
# Coordination Sequence:
#
# PCOD8110349 Si02
#       5
#     8   8   8   4   8
#     4  12  29  46  73 107 143 191 244 294 357 425
#     4  10  21  41  69  99 142 182 233 290 356 419
#     4   9  19  36  65 102 138 180 234 292 352 419
#     4  12  27  46  74 102 147 186 240 296 356 424
#     4  10  22  41  69 100 136 186 234 285 359 425
#
# _framework density 23.885852
#
# number of rings (size 3 to 8) (size 9 to 14) (size 15 to 20)
#    0.000    1.556    1.111    2.333    9.333    4.444 
#    0.000    0.000    0.000    4.667    0.000    0.000 
#    0.000    0.000    0.000    0.000    0.000    0.000 
#
# Total GULP energy -223233.574253 kJ/mol
# GULP energy per Si atom -12401.865236 kJ/mol
# Density = 2.383149 g / cm^3
# Si number density = 23.885852 Si / 1000 Ang^3
#
#
#
# Elastic Constant Matrix: (Units=GPa)
#
#
# Indices 1 2 3 4 5 6 
#
# 1 61.6056 49.3041 61.8294 0.0002 13.7473 -0.0002
# 2 49.3041 171.5193 61.4511 0.0001 -0.2804 0.0001
# 3 61.8294 61.4511 162.7194 0.0006 18.9243 -0.0003
# 4 0.0002 0.0001 0.0006 29.6446 -0.0001 -1.5585
# 5 13.7473 -0.2804 18.9243 -0.0001 46.1607 0.0005
# 6 -0.0002 0.0001 -0.0003 -1.5585 0.0005 6.7307
#
#
#
# Elastic Compliance Matrix: (Units=1/GPa)
#
#
# Indices 1 2 3 4 5 6 
#
# 1 0.031100 -0.005723 -0.009004 0.000000 -0.005605 0.000001
# 2 -0.005723 0.007853 -0.001045 0.000000 0.002180 0.000000
# 3 -0.009004 -0.001045 0.010133 0.000000 -0.001479 0.000000
# 4 0.000000 0.000000 0.000000 0.034149 0.000000 0.007907
# 5 -0.005605 0.002180 -0.001479 0.000000 0.023953 -0.000002
# 6 0.000001 0.000000 0.000000 0.007907 -0.000002 0.150403
#
#
# Mechanical properties :
#
#
# Convention : Reuss Voigt Hill
#
# Bulk Modulus (GPa) = 57.00246 82.33480 69.66863
# Shear Modulus (GPa) = 16.95013 31.39117 24.17065
#
# Velocity S-wave (km/s) = 2.66678 3.62914 3.18453
# Velocity P-wave (km/s) = 5.77915 7.21844 6.53852
#
# Compressibility (1/GPa) = 0.01754310
#
# Stress axis : x y z
#
# Youngs Moduli (GPa) = 32.15401 127.33573 98.68310
#
# Poissons Ratio (x) = 0.72876 0.88855
# Poissons Ratio (y) = 0.18402 0.10310
# Poissons Ratio (z) = 0.28952 0.13303
#
# Static dielectric constant tensor:
#      x y z
#    x 4.245090 0.000000 0.227260 
#    y 0.000000 4.630430 0.000000 
#    z 0.227260 0.000000 4.446990 
# 
# 
# High freq. dielectric constant tensor:
#      x y z
#    x 1.938720 0.000000 0.010130 
#    y 0.000000 1.963200 0.000000 
#    z 0.010130 0.000000 1.948550 
# 
# From -- ./inp_files/64000.got.cif
#   From: 2010.06.25/outbox.cif.g09.slc.cpg/sg12_32_cif.got.tgz:64000.got - 2010.06.28 00:19:55.
