data_PCOD8110301
_publ_section_title
;
Structure prediction by ZEFSAII (Michael W. Deem and Ramdas Pophale) SiO2 
 PCOD8110301
Probable space group: C 2/M
;
_chemical_formula_sum "Si O2"
_cell_formula_units_Z 52
_cell_length_a 19.820942
_cell_length_b 11.920993
_cell_length_c 12.005153
_cell_angle_alpha 90.000000
_cell_angle_beta 121.353801
_cell_angle_gamma 90.000000
_cell_volume 2422.408344
_symmetry_space_group_name_H-M "C 2/M"
_symmetry_group_IT_number 12
_symmetry_cell_setting 'monoclinic'
loop_
_space_group_symop_operation_xyz
x,y,z
-x,y,-z
-x,-y,-z
x,-y,z
1/2+x,1/2+y,z
1/2-x,1/2+y,-z
1/2-x,1/2-y,-z
1/2+x,1/2-y,z
loop_
_atom_site_type_symbol
_atom_site_label
_atom_site_fract_x
_atom_site_fract_y
_atom_site_fract_z
Si Si1 0.086863 0.500000 0.313868
Si Si2 0.180947 0.125678 0.299954
Si Si3 0.097037 0.267280 0.808958
Si Si4 0.191456 0.216123 0.678031
Si Si5 0.424638 0.624457 0.997693
Si Si6 0.919843 0.255815 0.606484
Si Si7 0.584510 0.000000 0.906305
Si Si8 0.700966 0.000000 0.215429
O O1 0.090202 0.390600 0.395276
O O2 0.163730 0.500000 0.304540
O O3 0.011112 0.500000 0.164351
O O4 0.263257 0.190013 0.356242
O O5 0.120639 0.195295 0.323673
O O6 0.194949 0.000000 0.361098
O O7 0.147256 0.117121 0.147880
O O8 0.165943 0.250122 0.779314
O O9 0.109339 0.193500 0.929186
O O10 0.107672 0.394925 0.852078
O O11 0.012931 0.232165 0.685795
O O12 0.113901 0.199491 0.535073
O O13 0.244209 0.107935 0.744221
O O14 0.450745 0.500000 0.060775
O O15 0.500000 0.682209 0.000000
O O16 0.631648 0.000000 0.063280
#
# Coordination Sequence:
#
# PCOD8110301 Si02
#       8
#     4   8   8   8   8   8   4   4
#     4  10  23  43  72 100 124 184 232 279 327 385
#     4  11  24  41  70  99 130 179 220 279 333 393
#     4  11  25  45  69  98 134 180 223 278 335 396
#     4  12  28  43  64 101 141 179 216 275 341 405
#     4  10  21  41  67  96 127 168 224 269 327 397
#     4  11  24  45  69  95 134 181 231 271 322 407
#     4  10  25  43  72  96 133 176 230 284 330 400
#     4  12  25  44  67 104 138 172 223 284 350 385
#
# _framework density 21.466241
#
# number of rings (size 3 to 8) (size 9 to 14) (size 15 to 20)
#    0.000    1.077    3.077    2.077    4.308    2.462 
#    0.000    3.077    0.000    0.000    0.000    0.000 
#    0.000    0.000    0.000    0.000    0.000    0.000 
#
# Total GULP energy -322367.043047 kJ/mol
# GULP energy per Si atom -12398.732425 kJ/mol
# Density = 2.141738 g / cm^3
# Si number density = 21.466241 Si / 1000 Ang^3
#
#
#
# Elastic Constant Matrix: (Units=GPa)
#
#
# Indices 1 2 3 4 5 6 
#
# 1 82.4312 39.1047 2.9628 0.0000 -13.6521 0.0000
# 2 39.1047 124.3709 21.9261 0.0000 -6.6054 0.0000
# 3 2.9628 21.9261 86.3915 0.0000 0.8540 0.0000
# 4 0.0000 0.0000 0.0000 18.3358 0.0000 8.5918
# 5 -13.6521 -6.6054 0.8540 0.0000 28.5822 0.0000
# 6 0.0000 0.0000 0.0000 8.5918 0.0000 43.5618
#
#
#
# Elastic Compliance Matrix: (Units=1/GPa)
#
#
# Indices 1 2 3 4 5 6 
#
# 1 0.015320 -0.004587 0.000577 0.000000 0.006240 0.000000
# 2 -0.004587 0.009908 -0.002359 0.000000 0.000169 0.000000
# 3 0.000577 -0.002359 0.012160 0.000000 -0.000633 0.000000
# 4 0.000000 0.000000 0.000000 0.060092 0.000000 -0.011852
# 5 0.006240 0.000169 -0.000633 0.000000 0.038025 0.000000
# 6 0.000000 0.000000 0.000000 -0.011852 0.000000 0.025293
#
#
# Mechanical properties :
#
#
# Convention : Reuss Voigt Hill
#
# Bulk Modulus (GPa) = 40.56772 46.79787 43.68280
# Shear Modulus (GPa) = 27.50976 33.37597 30.44286
#
# Velocity S-wave (km/s) = 3.58374 3.94739 3.76995
# Velocity P-wave (km/s) = 6.00530 6.52869 6.27246
#
# Compressibility (1/GPa) = 0.02465014
#
# Stress axis : x y z
#
# Youngs Moduli (GPa) = 65.27299 100.93207 82.23444
#
# Poissons Ratio (x) = 0.46301 -0.04746
# Poissons Ratio (y) = 0.29943 0.19398
# Poissons Ratio (z) = -0.03767 0.23809
#
# Static dielectric constant tensor:
#      x y z
#    x 3.790380 0.000000 0.158010 
#    y 0.000000 4.097970 0.000000 
#    z 0.158010 0.000000 3.850450 
# 
# 
# High freq. dielectric constant tensor:
#      x y z
#    x 1.842140 0.000000 0.009680 
#    y 0.000000 1.848650 0.000000 
#    z 0.009680 0.000000 1.847840 
# 
# From -- ./inp_files/165802.got.cif
#   From: 2010.06.25/outbox.cif.g09.slc.cpg/sg12_83_cif.got.tgz:165802.got - 2010.06.28 00:19:55.
