data_PCOD8110570
_publ_section_title
;
Structure prediction by ZEFSAII (Michael W. Deem and Ramdas Pophale) SiO2 
 PCOD8110570
Probable space group: C 2/M
;
_chemical_formula_sum "Si O2"
_cell_formula_units_Z 44
_cell_length_a 8.820171
_cell_length_b 32.962436
_cell_length_c 10.262230
_cell_angle_alpha 90.000000
_cell_angle_beta 51.557758
_cell_angle_gamma 90.000000
_cell_volume 2336.847108
_symmetry_space_group_name_H-M "C 2/M"
_symmetry_group_IT_number 12
_symmetry_cell_setting 'monoclinic'
loop_
_space_group_symop_operation_xyz
x,y,z
-x,y,-z
-x,-y,-z
x,-y,z
1/2+x,1/2+y,z
1/2-x,1/2+y,-z
1/2-x,1/2-y,-z
1/2+x,1/2-y,z
loop_
_atom_site_type_symbol
_atom_site_label
_atom_site_fract_x
_atom_site_fract_y
_atom_site_fract_z
Si Si1 0.195243 0.781639 0.209800
Si Si2 0.732830 0.500000 0.031218
Si Si3 0.419918 0.202738 0.842708
Si Si4 0.500000 0.066720 0.500000
Si Si5 0.779235 0.000000 0.266919
Si Si6 0.000000 0.839746 0.500000
Si Si7 0.906013 0.380380 0.302142
Si Si8 0.000000 0.567716 0.000000
O O1 0.385747 0.782405 0.193623
O O2 0.122712 0.735045 0.248766
O O3 0.034175 0.811274 0.355973
O O4 0.240475 0.797348 0.039569
O O5 0.505023 0.500000 0.176639
O O6 0.821186 0.459939 0.049663
O O7 0.777489 0.500000 0.854406
O O8 0.448852 0.157910 0.770937
O O9 0.531951 0.092924 0.610363
O O10 0.691016 0.039741 0.380541
O O11 0.183092 0.867689 0.434156
O O12 0.928850 0.404016 0.154732
#
# Coordination Sequence:
#
# PCOD8110570 Si02
#       8
#     8   4   8   4   4   4   8   4
#     4   9  18  35  55  79 110 157 201 244 284 349
#     4  10  22  41  72  87 112 165 201 226 292 380
#     4   9  19  36  57  77 114 157 198 244 287 347
#     4  11  24  41  60  89 130 152 184 257 306 349
#     4  10  22  45  62  91 120 157 191 242 296 368
#     4  10  22  35  56  86 118 156 202 252 294 343
#     4  11  23  38  58  89 126 153 193 253 303 341
#     4  11  22  42  64  94 114 160 200 240 286 372
#
# _framework density 18.828787999999999
#
# number of rings (size 3 to 8) (size 9 to 14) (size 15 to 20)
#    0.000    2.000    1.818    2.182    2.545    5.091 
#    0.000    0.909    0.000    0.000    0.000    0.000 
#    0.000    0.000    0.000    0.000    0.000    0.000 
#
# Total GULP energy -272839.711988 kJ/mol
# GULP energy per Si atom -12401.805090 kJ/mol
# Density = 1.878593 g / cm^3
# Si number density = 18.828788 Si / 1000 Ang^3
#
#
#
# Elastic Constant Matrix: (Units=GPa)
#
#
# Indices 1 2 3 4 5 6 
#
# 1 75.8874 62.2405 51.9325 0.0000 7.1583 0.0000
# 2 62.2405 154.3693 72.5924 0.0000 0.5623 0.0000
# 3 51.9325 72.5924 117.7068 0.0000 -2.7285 0.0000
# 4 0.0000 0.0000 0.0000 32.1392 0.0000 6.6378
# 5 7.1583 0.5623 -2.7285 0.0000 28.4371 0.0000
# 6 0.0000 0.0000 0.0000 6.6378 0.0000 0.1407
#
#
#
# Elastic Compliance Matrix: (Units=1/GPa)
#
#
# Indices 1 2 3 4 5 6 
#
# 1 0.023513 -0.006350 -0.006607 0.000000 -0.006427 0.000000
# 2 -0.006350 0.010854 -0.003869 0.000000 0.001013 0.000000
# 3 -0.006607 -0.003869 0.013868 0.000000 0.003070 0.000000
# 4 0.000000 0.000000 0.000000 -0.003557 0.000000 0.167875
# 5 -0.006427 0.001013 0.003070 0.000000 0.037058 0.000000
# 6 0.000000 0.000000 0.000000 0.167875 0.000000 -0.812825
#
#
# Mechanical properties :
#
#
# Convention : Reuss Voigt Hill
#
# Bulk Modulus (GPa) = 68.57032 80.16605 74.36819
# Shear Modulus (GPa) = -7.21941 22.88993 7.83526
#
# Velocity S-wave (km/s) = -1.96025 3.49045 2.04214
# Velocity P-wave (km/s) = 5.60120 7.67549 6.71887
#
# Compressibility (1/GPa) = 0.01458357
#
# Stress axis : x y z
#
# Youngs Moduli (GPa) = 42.52962 92.13355 72.11004
#
# Poissons Ratio (x) = 0.58505 0.47642
# Poissons Ratio (y) = 0.27006 0.27897
# Poissons Ratio (z) = 0.28098 0.35644
#
# Static dielectric constant tensor:
#      x y z
#    x 3.204780 0.000000 -0.048470 
#    y 0.000000 3.643990 0.000000 
#    z -0.048470 0.000000 3.691390 
# 
# 
# High freq. dielectric constant tensor:
#      x y z
#    x 1.720830 0.000000 -0.000840 
#    y 0.000000 1.744290 0.000000 
#    z -0.000840 0.000000 1.741790 
# 
# From -- ./inp_files/41765.got.cif
#   From: 2010.06.25/outbox.cif.g09.slc.cpg/sg12_21_cif.got.tgz:41765.got - 2010.06.28 00:19:55.
