data_PCOD8110291
_publ_section_title
;
Structure prediction by ZEFSAII (Michael W. Deem and Ramdas Pophale) SiO2 
 PCOD8110291
Probable space group: C 2/M
;
_chemical_formula_sum "Si O2"
_cell_formula_units_Z 64
_cell_length_a 30.482018
_cell_length_b 8.647407
_cell_length_c 14.833810
_cell_angle_alpha 90.000000
_cell_angle_beta 48.917676
_cell_angle_gamma 90.000000
_cell_volume 2947.263483
_symmetry_space_group_name_H-M "C 2/M"
_symmetry_group_IT_number 12
_symmetry_cell_setting 'monoclinic'
loop_
_space_group_symop_operation_xyz
x,y,z
-x,y,-z
-x,-y,-z
x,-y,z
1/2+x,1/2+y,z
1/2-x,1/2+y,-z
1/2-x,1/2-y,-z
1/2+x,1/2-y,z
loop_
_atom_site_type_symbol
_atom_site_label
_atom_site_fract_x
_atom_site_fract_y
_atom_site_fract_z
Si Si1 0.137653 0.822269 0.315559
Si Si2 0.250680 0.820660 0.900159
Si Si3 0.167375 0.821441 0.854266
Si Si4 0.580960 0.319647 0.729764
Si Si5 0.547017 0.316931 0.080772
Si Si6 0.551959 0.320662 0.275791
Si Si7 0.700626 0.819540 0.631731
Si Si8 0.936681 0.677768 0.435766
O O1 0.204302 0.775854 0.220024
O O2 0.110014 0.792976 0.254490
O O3 0.110584 0.707944 0.424561
O O4 0.130359 0.000000 0.355599
O O5 0.190785 0.800962 0.925062
O O6 0.268125 0.000000 0.884383
O O7 0.250000 0.750000 0.000000
O O8 0.207150 0.732318 0.727272
O O9 0.169341 0.000000 0.822898
O O10 0.099771 0.759115 0.944652
O O11 0.592340 0.500000 0.732594
O O12 0.518809 0.266779 0.859732
O O13 0.635079 0.224752 0.693765
O O14 0.576152 0.290103 0.630328
O O15 0.549780 0.500000 0.078740
O O16 0.561164 0.256786 0.162367
O O17 0.533784 0.500000 0.301022
O O18 0.499647 0.222598 0.391242
O O19 0.750000 0.750000 0.500000
O O20 0.709232 0.000000 0.612847
O O21 0.933819 0.500000 0.409061
#
# Coordination Sequence:
#
# PCOD8110291 Si02
#       8
#     8   8   8   8   8   8   8   8
#     4  11  22  36  57  82 117 165 216 266 318 382
#     4  11  24  41  63  92 128 167 213 265 321 381
#     4  10  22  43  68  95 128 170 217 264 317 384
#     4  10  21  41  67  94 124 164 211 258 313 382
#     4   8  16  35  65  93 120 159 208 256 309 376
#     4   9  18  35  57  84 119 165 213 258 313 376
#     4  12  27  46  68  95 129 168 212 267 325 385
#     4  11  22  35  55  87 125 162 205 261 321 380
#
# _framework density 21.715059
#
# number of rings (size 3 to 8) (size 9 to 14) (size 15 to 20)
#    0.000    1.750    0.000    5.250    1.750    6.000 
#    0.000    5.625    0.000    0.000    0.000    0.000 
#    0.000    0.000    0.000    0.000    0.000    0.000 
#
# Total GULP energy -396673.281621 kJ/mol
# GULP energy per Si atom -12396.040051 kJ/mol
# Density = 2.166563 g / cm^3
# Si number density = 21.715059 Si / 1000 Ang^3
#
#
#
# Elastic Constant Matrix: (Units=GPa)
#
#
# Indices 1 2 3 4 5 6 
#
# 1 86.1919 32.5632 35.2324 0.0001 -9.8709 -0.0002
# 2 32.5632 88.1670 39.9107 0.0002 -1.7994 -0.0008
# 3 35.2324 39.9107 143.4124 0.0000 -15.0695 0.0000
# 4 0.0001 0.0002 0.0000 31.0722 0.0001 1.2855
# 5 -9.8709 -1.7994 -15.0695 0.0001 29.9811 0.0000
# 6 -0.0002 -0.0008 0.0000 1.2855 0.0000 30.0252
#
#
#
# Elastic Compliance Matrix: (Units=1/GPa)
#
#
# Indices 1 2 3 4 5 6 
#
# 1 0.014462 -0.004380 -0.001965 0.000000 0.003511 0.000000
# 2 -0.004380 0.014338 -0.003141 0.000000 -0.002160 0.000000
# 3 -0.001965 -0.003141 0.008702 0.000000 0.003538 0.000000
# 4 0.000000 0.000000 0.000000 0.032240 0.000000 -0.001380
# 5 0.003511 -0.002160 0.003538 0.000000 0.036159 0.000000
# 6 0.000000 0.000000 0.000000 -0.001380 0.000000 0.033364
#
#
# Mechanical properties :
#
#
# Convention : Reuss Voigt Hill
#
# Bulk Modulus (GPa) = 53.96983 59.24266 56.60624
# Shear Modulus (GPa) = 30.41106 32.22004 31.31555
#
# Velocity S-wave (km/s) = 3.74633 3.85615 3.80163
# Velocity P-wave (km/s) = 6.60461 6.86786 6.73752
#
# Compressibility (1/GPa) = 0.01852887
#
# Stress axis : x y z
#
# Youngs Moduli (GPa) = 69.14586 69.74653 114.92196
#
# Poissons Ratio (x) = 0.30551 0.22583
# Poissons Ratio (y) = 0.30287 0.36097
# Poissons Ratio (z) = 0.13587 0.21907
#
# Static dielectric constant tensor:
#      x y z
#    x 4.018480 0.000000 -0.104770 
#    y 0.000000 3.749440 0.000000 
#    z -0.104770 0.000000 5.436550 
# 
# 
# High freq. dielectric constant tensor:
#      x y z
#    x 1.856100 0.000000 -0.005860 
#    y 0.000000 1.832300 0.000000 
#    z -0.005860 0.000000 1.860890 
# 
# From -- ./inp_files/249844.got.cif
#   From: 2010.06.25/outbox.cif.g09.slc.cpg/sg12_125_cif.got.tgz:249844.got - 2010.06.28 00:19:55.
