data_PCOD8110155
_publ_section_title
;
Structure prediction by ZEFSAII (Michael W. Deem and Ramdas Pophale) SiO2 
 PCOD8110155
Probable space group: C 2/M
;
_chemical_formula_sum "Si O2"
_cell_formula_units_Z 56
_cell_length_a 10.044970
_cell_length_b 21.008625
_cell_length_c 14.890160
_cell_angle_alpha 90.000000
_cell_angle_beta 60.547492
_cell_angle_gamma 90.000000
_cell_volume 2736.187693
_symmetry_space_group_name_H-M "C 2/M"
_symmetry_group_IT_number 12
_symmetry_cell_setting 'monoclinic'
loop_
_space_group_symop_operation_xyz
x,y,z
-x,y,-z
-x,-y,-z
x,-y,z
1/2+x,1/2+y,z
1/2-x,1/2+y,-z
1/2-x,1/2-y,-z
1/2+x,1/2-y,z
loop_
_atom_site_type_symbol
_atom_site_label
_atom_site_fract_x
_atom_site_fract_y
_atom_site_fract_z
Si Si1 0.930340 0.636826 0.293616
Si Si2 0.423138 0.669353 0.934250
Si Si3 0.567353 0.185682 0.072546
Si Si4 0.074437 0.117926 0.385187
Si Si5 0.429955 0.753955 0.430819
Si Si6 0.100973 0.426935 0.385839
Si Si7 0.055851 0.072830 0.747259
O O1 0.752602 0.623118 0.345519
O O2 0.972422 0.700380 0.334757
O O3 0.995391 0.641236 0.172286
O O4 0.014135 0.580267 0.319644
O O5 0.476819 0.740887 0.891117
O O6 0.465665 0.619113 0.843962
O O7 0.500000 0.645519 0.000000
O O8 0.244737 0.671701 0.011198
O O9 0.500000 0.164325 0.000000
O O10 0.036450 0.071452 0.315804
O O11 0.000000 0.089544 0.500000
O O12 0.004328 0.186332 0.383957
O O13 0.500000 0.781135 0.500000
O O14 0.250000 0.750000 0.500000
O O15 0.123500 0.500000 0.401892
O O16 0.273051 0.398407 0.323636
O O17 0.000000 0.395343 0.500000
O O18 0.059176 0.000000 0.783072
#
# Coordination Sequence:
#
# PCOD8110155 Si02
#       7
#     8   8   8   8   8   8   8
#     4  12  22  37  64  88 121 166 202 257 311 374
#     4  10  21  41  62  86 118 152 203 256 313 374
#     4  10  22  39  61  89 119 156 200 254 317 376
#     4  11  23  38  57  89 128 160 203 245 305 379
#     4  11  22  38  57  95 131 162 205 251 312 376
#     4  10  23  41  61  90 126 166 214 258 308 375
#     4  11  24  41  64  89 119 165 211 260 313 364
#
# _framework density 20.466431
#
# number of rings (size 3 to 8) (size 9 to 14) (size 15 to 20)
#    0.000    1.286    2.857    3.857    2.000    4.571 
#    0.000    0.714    0.000    1.714    0.000    0.000 
#    0.000    0.000    0.000    0.000    0.000    0.000 
#
# Total GULP energy -347236.569249 kJ/mol
# GULP energy per Si atom -12401.306045 kJ/mol
# Density = 2.041985 g / cm^3
# Si number density = 20.466431 Si / 1000 Ang^3
#
#
#
# Elastic Constant Matrix: (Units=GPa)
#
#
# Indices 1 2 3 4 5 6 
#
# 1 149.9361 19.2843 46.8681 0.0000 11.4630 0.0000
# 2 19.2843 51.4195 32.0264 0.0000 1.0983 0.0000
# 3 46.8681 32.0264 133.0291 0.0000 17.5104 0.0000
# 4 0.0000 0.0000 0.0000 26.9091 0.0000 3.8793
# 5 11.4630 1.0983 17.5104 0.0000 34.3219 0.0000
# 6 0.0000 0.0000 0.0000 3.8793 0.0000 26.6169
#
#
#
# Elastic Compliance Matrix: (Units=1/GPa)
#
#
# Indices 1 2 3 4 5 6 
#
# 1 0.007641 -0.001499 -0.002146 0.000000 -0.001409 0.000000
# 2 -0.001499 0.023333 -0.005421 0.000000 0.002520 0.000000
# 3 -0.002146 -0.005421 0.010142 0.000000 -0.004284 0.000000
# 4 0.000000 0.000000 0.000000 0.037960 0.000000 -0.005532
# 5 -0.001409 0.002520 -0.004284 0.000000 0.031712 0.000000
# 6 0.000000 0.000000 0.000000 -0.005532 0.000000 0.038376
#
#
# Mechanical properties :
#
#
# Convention : Reuss Voigt Hill
#
# Bulk Modulus (GPa) = 43.50758 58.97139 51.23948
# Shear Modulus (GPa) = 28.57871 33.31665 30.94768
#
# Velocity S-wave (km/s) = 3.74086 4.03906 3.89282
# Velocity P-wave (km/s) = 6.32162 7.11536 6.73020
#
# Compressibility (1/GPa) = 0.02298450
#
# Stress axis : x y z
#
# Youngs Moduli (GPa) = 130.87754 42.85858 98.59995
#
# Poissons Ratio (x) = 0.06425 0.21155
# Poissons Ratio (y) = 0.19620 0.53448
# Poissons Ratio (z) = 0.28080 0.23232
#
# Static dielectric constant tensor:
#      x y z
#    x 3.873200 0.000000 0.014070 
#    y 0.000000 -7.433190 0.000000 
#    z 0.014070 0.000000 3.712460 
# 
# 
# High freq. dielectric constant tensor:
#      x y z
#    x 1.822060 0.000000 0.000650 
#    y 0.000000 1.782450 0.000000 
#    z 0.000650 0.000000 1.799190 
# 
# From -- ./inp_files/198768.got.cif
#   From: 2010.06.25/outbox.cif.g09.slc.cpg/sg12_100_cif.got.tgz:198768.got - 2010.06.28 00:19:55.
