data_PCOD8110797
_publ_section_title
;
Structure prediction by ZEFSAII (Michael W. Deem and Ramdas Pophale) SiO2 
 PCOD8110797
Probable space group: C 2/M
;
_chemical_formula_sum "Si O2"
_cell_formula_units_Z 48
_cell_length_a 20.808943
_cell_length_b 22.073755
_cell_length_c 16.007543
_cell_angle_alpha 90.000000
_cell_angle_beta 161.066770
_cell_angle_gamma 90.000000
_cell_volume 2385.724008
_symmetry_space_group_name_H-M "C 2/M"
_symmetry_group_IT_number 12
_symmetry_cell_setting 'monoclinic'
loop_
_space_group_symop_operation_xyz
x,y,z
-x,y,-z
-x,-y,-z
x,-y,z
1/2+x,1/2+y,z
1/2-x,1/2+y,-z
1/2-x,1/2-y,-z
1/2+x,1/2-y,z
loop_
_atom_site_type_symbol
_atom_site_label
_atom_site_fract_x
_atom_site_fract_y
_atom_site_fract_z
Si Si1 0.895384 0.930249 0.192486
Si Si2 0.071855 0.358903 0.891466
Si Si3 0.346656 0.930871 0.742358
Si Si4 0.862080 0.253512 0.904827
Si Si5 0.598062 0.681624 0.899545
Si Si6 0.487741 0.225972 0.640537
O O1 0.873497 0.890144 0.080444
O O2 0.123287 0.923399 0.502232
O O3 0.843592 0.000000 0.108103
O O4 0.747265 0.905240 0.081025
O O5 0.969137 0.328510 0.684628
O O6 0.887888 0.392897 0.709063
O O7 0.174808 0.310681 0.079895
O O8 0.390598 0.000000 0.773330
O O9 0.500000 0.907415 0.000000
O O10 0.666946 0.224307 0.624748
O O11 0.973760 0.199436 0.095329
O O12 0.000000 0.276016 0.000000
O O13 0.461787 0.709610 0.657769
O O14 0.801426 0.720196 0.144778
#
# Coordination Sequence:
#
# PCOD8110797 Si02
#       6
#     8   8   8   8   8   8
#     4  10  22  40  63  83 112 158 196 237 290 336
#     4  10  22  39  60  87 118 154 192 239 285 349
#     4  10  22  38  56  85 119 154 196 238 283 340
#     4  11  23  35  58  90 116 154 185 237 296 348
#     4   9  20  37  58  81 115 149 192 241 280 348
#     4   9  20  38  56  84 114 151 190 233 297 338
#
# _framework density 20.119679000000001
#
# number of rings (size 3 to 8) (size 9 to 14) (size 15 to 20)
#    0.000    2.167    0.000    2.500    7.000    2.000 
#    6.000    2.500    0.000    9.500    0.000    0.000 
#    0.000    0.000    0.000    0.000    0.000    0.000 
#
# Total GULP energy -297434.609064 kJ/mol
# GULP energy per Si atom -12393.108711 kJ/mol
# Density = 2.007389 g / cm^3
# Si number density = 20.119679 Si / 1000 Ang^3
#
#
#
# Elastic Constant Matrix: (Units=GPa)
#
#
# Indices 1 2 3 4 5 6 
#
# 1 77.8214 52.3161 15.1070 0.0000 -5.6846 0.0001
# 2 52.3161 135.1548 29.7620 0.0000 -9.1475 0.0000
# 3 15.1070 29.7620 69.9224 0.0002 -12.0321 0.0003
# 4 0.0000 0.0000 0.0002 20.8116 0.0001 3.5294
# 5 -5.6846 -9.1475 -12.0321 0.0001 31.2775 0.0002
# 6 0.0001 0.0000 0.0003 3.5294 0.0002 35.8801
#
#
#
# Elastic Compliance Matrix: (Units=1/GPa)
#
#
# Indices 1 2 3 4 5 6 
#
# 1 0.017457 -0.006509 -0.000838 0.000000 0.000947 0.000000
# 2 -0.006509 0.010628 -0.002984 0.000000 0.000778 0.000000
# 3 -0.000838 -0.002984 0.016681 0.000000 0.005392 0.000000
# 4 0.000000 0.000000 0.000000 0.048865 0.000000 -0.004807
# 5 0.000947 0.000778 0.005392 0.000000 0.034446 0.000000
# 6 0.000000 0.000000 0.000000 -0.004807 0.000000 0.028343
#
#
# Mechanical properties :
#
#
# Convention : Reuss Voigt Hill
#
# Bulk Modulus (GPa) = 41.48658 53.02987 47.25823
# Shear Modulus (GPa) = 27.00999 29.97473 28.49236
#
# Velocity S-wave (km/s) = 3.66794 3.86401 3.76725
# Velocity P-wave (km/s) = 6.21314 6.80602 6.51632
#
# Compressibility (1/GPa) = 0.02410418
#
# Stress axis : x y z
#
# Youngs Moduli (GPa) = 57.28228 94.09099 59.95019
#
# Poissons Ratio (x) = 0.61242 0.05026
# Poissons Ratio (y) = 0.37284 0.17887
# Poissons Ratio (z) = 0.04803 0.28074
#
# Static dielectric constant tensor:
#      x y z
#    x 3.907770 0.000000 0.048600 
#    y 0.000000 3.718860 0.000000 
#    z 0.048600 0.000000 3.535110 
# 
# 
# High freq. dielectric constant tensor:
#      x y z
#    x 1.791840 0.000000 0.009990 
#    y 0.000000 1.781020 0.000000 
#    z 0.009990 0.000000 1.767240 
# 
# From -- ./inp_files/235559.got.cif
#   From: 2010.06.25/outbox.cif.g09.slc.cpg/sg12_118_cif.got.tgz:235559.got - 2010.06.28 00:19:55.
