data_PCOD8110602
_publ_section_title
;
Structure prediction by ZEFSAII (Michael W. Deem and Ramdas Pophale) SiO2 
 PCOD8110602
Probable space group: C 2/M
;
_chemical_formula_sum "Si O2"
_cell_formula_units_Z 52
_cell_length_a 20.882208
_cell_length_b 21.575138
_cell_length_c 8.893063
_cell_angle_alpha 90.000000
_cell_angle_beta 142.073136
_cell_angle_gamma 90.000000
_cell_volume 2462.707668
_symmetry_space_group_name_H-M "C 2/M"
_symmetry_group_IT_number 12
_symmetry_cell_setting 'monoclinic'
loop_
_space_group_symop_operation_xyz
x,y,z
-x,y,-z
-x,-y,-z
x,-y,z
1/2+x,1/2+y,z
1/2-x,1/2+y,-z
1/2-x,1/2-y,-z
1/2+x,1/2-y,z
loop_
_atom_site_type_symbol
_atom_site_label
_atom_site_fract_x
_atom_site_fract_y
_atom_site_fract_z
Si Si1 0.613734 0.655099 0.147073
Si Si2 0.318543 0.889243 0.467967
Si Si3 0.030159 0.792255 0.714180
Si Si4 0.000000 0.623966 0.000000
Si Si5 0.879142 0.429772 0.258798
Si Si6 0.862918 0.676908 0.007226
Si Si7 0.173404 0.757154 0.504890
O O1 0.702426 0.600990 0.327445
O O2 0.669688 0.718752 0.321187
O O3 0.500000 0.635647 0.000000
O O4 0.610333 0.666652 0.961037
O O5 0.322337 0.920852 0.313001
O O6 0.336315 0.815636 0.486461
O O7 0.411539 0.916534 0.747313
O O8 0.080538 0.724845 0.774487
O O9 0.000000 0.823876 0.500000
O O10 0.932574 0.788704 0.640778
O O11 0.060934 0.666285 0.993382
O O12 0.860989 0.500000 0.170824
O O13 0.834599 0.385374 0.046181
O O14 0.000000 0.414196 0.500000
O O15 0.756895 0.706985 0.757865
#
# Coordination Sequence:
#
# PCOD8110602 Si02
#       7
#     8   8   8   4   8   8   8
#     4  10  22  36  54  89 132 160 191 238 302 369
#     4  12  21  37  61  88 124 168 198 243 307 366
#     4  11  22  32  50  86 126 164 196 227 288 374
#     4  12  22  34  61  92 122 164 199 240 304 374
#     4  11  25  44  60  82 120 163 208 260 303 350
#     4  12  22  37  57  87 125 158 198 243 304 364
#     4  11  21  33  56  87 126 160 189 246 304 366
#
# _framework density 21.114972000000002
#
# number of rings (size 3 to 8) (size 9 to 14) (size 15 to 20)
#    0.000    0.769    6.154    2.769    4.308    1.231 
#    0.000    1.538    0.000    0.462    0.000    7.538 
#    0.000    0.000    0.000    0.000    0.000    0.000 
#
# Total GULP energy -322161.702420 kJ/mol
# GULP energy per Si atom -12390.834708 kJ/mol
# Density = 2.106691 g / cm^3
# Si number density = 21.114972 Si / 1000 Ang^3
#
#
#
# Elastic Constant Matrix: (Units=GPa)
#
#
# Indices 1 2 3 4 5 6 
#
# 1 50.1115 22.2633 31.6117 0.0000 -2.6078 0.0000
# 2 22.2633 46.1332 31.6302 0.0000 -0.5092 0.0000
# 3 31.6117 31.6302 129.1556 0.0000 -7.7023 0.0000
# 4 0.0000 0.0000 0.0000 8.9781 0.0000 -6.1660
# 5 -2.6078 -0.5092 -7.7023 0.0000 44.6728 0.0000
# 6 0.0000 0.0000 0.0000 -6.1660 0.0000 17.6796
#
#
#
# Elastic Compliance Matrix: (Units=1/GPa)
#
#
# Indices 1 2 3 4 5 6 
#
# 1 0.027140 -0.010294 -0.004076 0.000000 0.000764 0.000000
# 2 -0.010294 0.029984 -0.004889 0.000000 -0.001102 0.000000
# 3 -0.004076 -0.004889 0.010023 0.000000 0.001434 0.000000
# 4 0.000000 0.000000 0.000000 0.146464 0.000000 0.051081
# 5 0.000764 -0.001102 0.001434 0.000000 0.022664 0.000000
# 6 0.000000 0.000000 0.000000 0.051081 0.000000 0.074377
#
#
# Mechanical properties :
#
#
# Convention : Reuss Voigt Hill
#
# Bulk Modulus (GPa) = 34.93058 44.04563 39.48810
# Shear Modulus (GPa) = 13.93863 23.59245 18.76554
#
# Velocity S-wave (km/s) = 2.57209 3.34628 2.98439
# Velocity P-wave (km/s) = 5.03982 5.98626 5.53331
#
# Compressibility (1/GPa) = 0.02862821
#
# Stress axis : x y z
#
# Youngs Moduli (GPa) = 36.84594 33.35076 99.76877
#
# Poissons Ratio (x) = 0.34332 0.40666
# Poissons Ratio (y) = 0.37930 0.48780
# Poissons Ratio (z) = 0.15019 0.16306
#
# Static dielectric constant tensor:
#      x y z
#    x 4.084710 0.000000 0.180110 
#    y 0.000000 3.185840 0.000000 
#    z 0.180110 0.000000 4.431110 
# 
# 
# High freq. dielectric constant tensor:
#      x y z
#    x 1.841900 0.000000 0.008830 
#    y 0.000000 1.753810 0.000000 
#    z 0.008830 0.000000 1.851920 
# 
# From -- ./inp_files/90725.got.cif
#   From: 2010.06.25/outbox.cif.g09.slc.cpg/sg12_46_cif.got.tgz:90725.got - 2010.06.28 00:19:55.
