data_PCOD8110286
_publ_section_title
;
Structure prediction by ZEFSAII (Michael W. Deem and Ramdas Pophale) SiO2 
 PCOD8110286
Probable space group: C 2/M
;
_chemical_formula_sum "Si O2"
_cell_formula_units_Z 56
_cell_length_a 10.267900
_cell_length_b 14.613644
_cell_length_c 21.953484
_cell_angle_alpha 90.000000
_cell_angle_beta 53.389654
_cell_angle_gamma 90.000000
_cell_volume 2644.247921
_symmetry_space_group_name_H-M "C 2/M"
_symmetry_group_IT_number 12
_symmetry_cell_setting 'monoclinic'
loop_
_space_group_symop_operation_xyz
x,y,z
-x,y,-z
-x,-y,-z
x,-y,z
1/2+x,1/2+y,z
1/2-x,1/2+y,-z
1/2-x,1/2-y,-z
1/2+x,1/2-y,z
loop_
_atom_site_type_symbol
_atom_site_label
_atom_site_fract_x
_atom_site_fract_y
_atom_site_fract_z
Si Si1 0.703016 0.608678 0.823662
Si Si2 0.988897 0.893625 0.330739
Si Si3 0.726729 0.891330 0.836248
Si Si4 0.058622 0.242017 0.550666
Si Si5 0.377981 0.109152 0.894568
Si Si6 0.671449 0.893584 0.341500
Si Si7 0.161022 0.890846 0.065327
O O1 0.694265 0.500000 0.825439
O O2 0.817905 0.645328 0.845769
O O3 0.774742 0.643156 0.739741
O O4 0.522227 0.647534 0.884712
O O5 0.004306 0.839234 0.389042
O O6 0.815485 0.875759 0.348667
O O7 0.127397 0.856563 0.246756
O O8 0.015110 0.000000 0.338145
O O9 0.558183 0.852579 0.856642
O O10 0.752132 0.854436 0.897672
O O11 0.725243 0.000000 0.838201
O O12 0.250000 0.250000 0.500000
O O13 0.000000 0.216215 0.500000
O O14 0.985527 0.338845 0.592553
O O15 0.377534 0.000000 0.895891
O O16 0.258002 0.147614 0.980083
O O17 0.623237 0.000000 0.352549
O O18 0.160009 0.000000 0.064442
#
# Coordination Sequence:
#
# PCOD8110286 Si02
#       7
#     8   8   8   8   8   8   8
#     4   9  16  28  48  77 112 155 206 247 290 356
#     4  10  21  41  67  92 125 167 205 248 304 367
#     4   9  16  28  48  76 112 156 204 245 293 358
#     4  12  26  44  67  99 127 152 198 253 309 377
#     4   9  16  23  38  75 121 153 192 258 307 332
#     4  10  21  41  68  92 123 169 208 243 301 374
#     4   9  14  23  42  71 112 158 201 248 298 348
#
# _framework density 21.178044
#
# number of rings (size 3 to 8) (size 9 to 14) (size 15 to 20)
#    0.000    2.286    2.857    0.857    0.000    5.714 
#    0.000    1.429    0.000    0.000    0.000    6.000 
#    0.000    0.000    0.000    0.000    0.000    0.000 
#
# Total GULP energy -347233.437785 kJ/mol
# GULP energy per Si atom -12401.194207 kJ/mol
# Density = 2.112984 g / cm^3
# Si number density = 21.178044 Si / 1000 Ang^3
#
#
#
# Elastic Constant Matrix: (Units=GPa)
#
#
# Indices 1 2 3 4 5 6 
#
# 1 156.1498 23.0967 65.3530 0.0000 3.1970 0.0000
# 2 23.0967 49.8995 37.4962 0.0000 3.1816 0.0000
# 3 65.3530 37.4962 146.5579 0.0000 7.7506 0.0000
# 4 0.0000 0.0000 0.0000 -3.8895 0.0000 6.4403
# 5 3.1970 3.1816 7.7506 0.0000 48.1602 0.0000
# 6 0.0000 0.0000 0.0000 6.4403 0.0000 9.0572
#
#
#
# Elastic Compliance Matrix: (Units=1/GPa)
#
#
# Indices 1 2 3 4 5 6 
#
# 1 0.007937 -0.001258 -0.003221 0.000000 0.000075 0.000000
# 2 -0.001258 0.025028 -0.005809 0.000000 -0.000635 0.000000
# 3 -0.003221 -0.005809 0.009798 0.000000 -0.000979 0.000000
# 4 0.000000 0.000000 0.000000 -0.118078 0.000000 0.083962
# 5 0.000075 -0.000635 -0.000979 0.000000 0.020959 0.000000
# 6 0.000000 0.000000 0.000000 0.083962 0.000000 0.050707
#
#
# Mechanical properties :
#
#
# Convention : Reuss Voigt Hill
#
# Bulk Modulus (GPa) = 45.07250 67.16655 56.11952
# Shear Modulus (GPa) = 205.58492 25.77634 115.68063
#
# Velocity S-wave (km/s) = 9.86333 3.49252 7.39875
# Velocity P-wave (km/s) = 12.28994 6.93164 9.97723
#
# Compressibility (1/GPa) = 0.02218648
#
# Stress axis : x y z
#
# Youngs Moduli (GPa) = 125.99472 39.95536 102.06541
#
# Poissons Ratio (x) = 0.05026 0.32879
# Poissons Ratio (y) = 0.15848 0.59288
# Poissons Ratio (z) = 0.40587 0.23209
#
# Static dielectric constant tensor:
#      x y z
#    x 3.962290 0.000000 0.036500 
#    y 0.000000 3.375570 0.000000 
#    z 0.036500 0.000000 3.985010 
# 
# 
# High freq. dielectric constant tensor:
#      x y z
#    x 1.836460 0.000000 0.002440 
#    y 0.000000 1.805420 0.000000 
#    z 0.002440 0.000000 1.837470 
# 
# From -- ./inp_files/300695.got.cif
#   From: 2010.06.25/outbox.cif.g09.slc.cpg/sg12_151_cif.got.tgz:300695.got - 2010.06.28 00:19:55.
