data_PCOD8110309
_publ_section_title
;
Structure prediction by ZEFSAII (Michael W. Deem and Ramdas Pophale) SiO2 
 PCOD8110309
Probable space group: C 2/M
;
_chemical_formula_sum "Si O2"
_cell_formula_units_Z 48
_cell_length_a 20.077503
_cell_length_b 14.619012
_cell_length_c 16.314259
_cell_angle_alpha 90.000000
_cell_angle_beta 149.980966
_cell_angle_gamma 90.000000
_cell_volume 2395.603149
_symmetry_space_group_name_H-M "C 2/M"
_symmetry_group_IT_number 12
_symmetry_cell_setting 'monoclinic'
loop_
_space_group_symop_operation_xyz
x,y,z
-x,y,-z
-x,-y,-z
x,-y,z
1/2+x,1/2+y,z
1/2-x,1/2+y,-z
1/2-x,1/2-y,-z
1/2+x,1/2-y,z
loop_
_atom_site_type_symbol
_atom_site_label
_atom_site_fract_x
_atom_site_fract_y
_atom_site_fract_z
Si Si1 0.362276 0.397717 0.315393
Si Si2 0.525963 0.601893 0.735512
Si Si3 0.351711 0.760419 0.848749
Si Si4 0.509407 0.105678 0.604854
Si Si5 0.820098 0.746577 0.487874
Si Si6 0.186024 0.893853 0.063947
O O1 0.500000 0.357455 0.500000
O O2 0.340398 0.500000 0.327813
O O3 0.365140 0.399609 0.220237
O O4 0.238308 0.335134 0.203624
O O5 0.471180 0.500000 0.693846
O O6 0.403735 0.660866 0.572439
O O7 0.596489 0.640321 0.892328
O O8 0.300371 0.742988 0.703351
O O9 0.352859 0.664728 0.898464
O O10 0.500000 0.799903 0.000000
O O11 0.500000 0.140540 0.500000
O O12 0.416367 0.161192 0.568917
O O13 0.659812 0.120551 0.795438
O O14 0.464720 0.000000 0.561481
O O15 0.750000 0.750000 0.500000
O O16 0.159452 0.000000 0.056704
#
# Coordination Sequence:
#
# PCOD8110309 Si02
#       6
#     8   8   8   8   8   8
#     4  10  21  41  68  91 120 172 225 265 317 396
#     4  10  22  41  66  94 125 169 224 273 323 393
#     4  12  25  39  61  95 135 175 215 271 336 396
#     4  10  21  41  69  96 126 175 232 278 326 395
#     4  12  25  39  61  94 136 178 216 271 339 400
#     4  10  22  41  67  97 128 170 226 279 330 391
#
# _framework density 20.036708000000001
#
# number of rings (size 3 to 8) (size 9 to 14) (size 15 to 20)
#    0.000    1.333    3.333    2.000    0.000    5.333 
#    0.000    0.000    0.000    0.000    0.000    0.000 
#    0.000    0.000    0.000    0.000    0.000    0.000 
#
# Total GULP energy -297595.916194 kJ/mol
# GULP energy per Si atom -12399.829841 kJ/mol
# Density = 1.999110 g / cm^3
# Si number density = 20.036708 Si / 1000 Ang^3
#
#
#
# Elastic Constant Matrix: (Units=GPa)
#
#
# Indices 1 2 3 4 5 6 
#
# 1 127.5193 58.1037 49.1374 0.0000 -4.3476 0.0000
# 2 58.1037 97.5974 53.6280 0.0000 7.5029 0.0000
# 3 49.1374 53.6280 137.1885 0.0000 -5.4764 0.0001
# 4 0.0000 0.0000 0.0000 20.5730 0.0000 -16.9704
# 5 -4.3476 7.5029 -5.4764 0.0000 43.1956 0.0000
# 6 0.0000 0.0000 0.0001 -16.9704 0.0000 6.7567
#
#
#
# Elastic Compliance Matrix: (Units=1/GPa)
#
#
# Indices 1 2 3 4 5 6 
#
# 1 0.011247 -0.005955 -0.001622 0.000000 0.001961 0.000000
# 2 -0.005955 0.016582 -0.004511 0.000000 -0.004051 0.000000
# 3 -0.001622 -0.004511 0.009707 0.000000 0.001851 0.000000
# 4 0.000000 0.000000 0.000000 -0.045351 0.000000 -0.113904
# 5 0.001961 -0.004051 0.001851 0.000000 0.024286 0.000000
# 6 0.000000 0.000000 0.000000 -0.113904 0.000000 -0.138085
#
#
# Mechanical properties :
#
#
# Convention : Reuss Voigt Hill
#
# Bulk Modulus (GPa) = 74.85010 76.00483 75.42746
# Shear Modulus (GPa) = -53.77319 27.53415 -13.11952
#
# Velocity S-wave (km/s) = -5.18610 3.71102 -2.56163
# Velocity P-wave (km/s) = 1.25570 7.50849 5.38304
#
# Compressibility (1/GPa) = 0.01336004
#
# Stress axis : x y z
#
# Youngs Moduli (GPa) = 88.90882 60.30794 103.01452
#
# Poissons Ratio (x) = 0.35916 0.16712
# Poissons Ratio (y) = 0.52949 0.46465
# Poissons Ratio (z) = 0.14423 0.27202
#
# Static dielectric constant tensor:
#      x y z
#    x 3.702620 0.000000 -0.095540 
#    y 0.000000 3.782370 0.000000 
#    z -0.095540 0.000000 3.971560 
# 
# 
# High freq. dielectric constant tensor:
#      x y z
#    x 1.776360 0.000000 -0.011010 
#    y 0.000000 1.786190 0.000000 
#    z -0.011010 0.000000 1.788120 
# 
# From -- ./inp_files/284104.got.cif
#   From: 2010.06.25/outbox.cif.g09.slc.cpg/sg12_143_cif.got.tgz:284104.got - 2010.06.28 00:19:55.
