data_PCOD8110204
_publ_section_title
;
Structure prediction by ZEFSAII (Michael W. Deem and Ramdas Pophale) SiO2 
 PCOD8110204
Probable space group: C 2/M
;
_chemical_formula_sum "Si O2"
_cell_formula_units_Z 48
_cell_length_a 15.317966
_cell_length_b 10.826251
_cell_length_c 18.829535
_cell_angle_alpha 90.000000
_cell_angle_beta 137.507699
_cell_angle_gamma 90.000000
_cell_volume 2109.300422
_symmetry_space_group_name_H-M "C 2/M"
_symmetry_group_IT_number 12
_symmetry_cell_setting 'monoclinic'
loop_
_space_group_symop_operation_xyz
x,y,z
-x,y,-z
-x,-y,-z
x,-y,z
1/2+x,1/2+y,z
1/2-x,1/2+y,-z
1/2-x,1/2-y,-z
1/2+x,1/2-y,z
loop_
_atom_site_type_symbol
_atom_site_label
_atom_site_fract_x
_atom_site_fract_y
_atom_site_fract_z
Si Si1 0.877810 0.246439 0.530296
Si Si2 0.485943 0.500000 0.338262
Si Si3 0.206080 0.500000 0.221206
Si Si4 0.645146 0.500000 0.877839
Si Si5 0.614577 0.138981 0.731263
Si Si6 0.073499 0.500000 0.944436
Si Si7 0.055784 0.250177 0.843062
Si Si8 0.269224 0.253794 0.697641
O O1 0.750000 0.250000 0.500000
O O2 0.842894 0.270890 0.427683
O O3 0.952024 0.117410 0.586542
O O4 0.974598 0.355993 0.609472
O O5 0.330088 0.500000 0.246966
O O6 0.483099 0.500000 0.250924
O O7 0.212073 0.610482 0.279578
O O8 0.064262 0.500000 0.095218
O O9 0.633883 0.627517 0.917657
O O10 0.792074 0.500000 0.931111
O O11 0.609832 0.229620 0.795738
O O12 0.728631 0.178795 0.746201
O O13 0.640838 0.000000 0.772336
O O14 0.076203 0.373760 0.899954
O O15 0.907696 0.201686 0.752283
#
# Coordination Sequence:
#
# PCOD8110204 Si02
#       8
#     8   4   4   4   8   4   8   8
#     4  12  24  39  60  95 131 181 221 268 327 397
#     4  12  23  39  62  93 130 169 222 296 321 389
#     4  10  21  41  64  92 126 171 221 280 344 391
#     4  12  22  42  70 101 126 170 240 282 339 401
#     4  12  25  42  64  92 139 183 220 273 335 401
#     4  10  24  42  72  96 127 181 222 282 355 421
#     4  11  23  45  68 100 139 176 219 284 347 403
#     4  11  23  40  65  97 135 180 225 265 331 409
#
# _framework density 22.756360000000001
#
# number of rings (size 3 to 8) (size 9 to 14) (size 15 to 20)
#    0.000    0.667    5.833    1.500    2.333    2.333 
#    0.000    0.000    0.000    4.000    0.000    0.000 
#    0.000    0.000    0.000    0.000    0.000    0.000 
#
# Total GULP energy -297336.012973 kJ/mol
# GULP energy per Si atom -12389.000541 kJ/mol
# Density = 2.270457 g / cm^3
# Si number density = 22.756360 Si / 1000 Ang^3
#
#
#
# Elastic Constant Matrix: (Units=GPa)
#
#
# Indices 1 2 3 4 5 6 
#
# 1 112.0319 43.4713 19.3626 0.0000 26.9724 0.0000
# 2 43.4713 143.0188 20.2226 0.0000 24.0588 0.0000
# 3 19.3626 20.2226 86.2390 0.0000 27.6432 0.0000
# 4 0.0000 0.0000 0.0000 13.1531 0.0000 6.7175
# 5 26.9724 24.0588 27.6432 0.0000 26.7762 0.0000
# 6 0.0000 0.0000 0.0000 6.7175 0.0000 23.0310
#
#
#
# Elastic Compliance Matrix: (Units=1/GPa)
#
#
# Indices 1 2 3 4 5 6 
#
# 1 0.012381 -0.001898 0.001668 0.000000 -0.012488 0.000000
# 2 -0.001898 0.008553 0.000405 0.000000 -0.006191 0.000000
# 3 0.001668 0.000405 0.017608 0.000000 -0.020223 0.000000
# 4 0.000000 0.000000 0.000000 0.089335 0.000000 -0.026057
# 5 -0.012488 -0.006191 -0.020223 0.000000 0.076367 0.000000
# 6 0.000000 0.000000 0.000000 -0.026057 0.000000 0.051020
#
#
# Mechanical properties :
#
#
# Convention : Reuss Voigt Hill
#
# Bulk Modulus (GPa) = 25.71163 56.37809 41.04486
# Shear Modulus (GPa) = 18.66513 29.80762 24.23638
#
# Velocity S-wave (km/s) = 2.86705 3.62312 3.26703
# Velocity P-wave (km/s) = 4.72050 6.50624 5.68394
#
# Compressibility (1/GPa) = 0.03889290
#
# Stress axis : x y z
#
# Youngs Moduli (GPa) = 80.76920 116.91380 56.79088
#
# Poissons Ratio (x) = 0.22194 -0.09475
# Poissons Ratio (y) = 0.15333 -0.02300
# Poissons Ratio (z) = -0.13476 -0.04735
#
# Static dielectric constant tensor:
#      x y z
#    x 4.104180 0.000000 0.412470 
#    y 0.000000 4.192230 0.000000 
#    z 0.412470 0.000000 4.287280 
# 
# 
# High freq. dielectric constant tensor:
#      x y z
#    x 1.898600 0.000000 0.022560 
#    y 0.000000 1.906560 0.000000 
#    z 0.022560 0.000000 1.893680 
# 
# From -- ./inp_files/310258.got.cif
#   From: 2010.06.25/outbox.cif.g09.slc.cpg/sg12_156_cif.got.tgz:310258.got - 2010.06.28 00:19:55.
