data_PCOD8110398
_publ_section_title
;
Structure prediction by ZEFSAII (Michael W. Deem and Ramdas Pophale) SiO2 
 PCOD8110398
Probable space group: C 2/M
;
_chemical_formula_sum "Si O2"
_cell_formula_units_Z 64
_cell_length_a 13.874225
_cell_length_b 17.630713
_cell_length_c 18.501203
_cell_angle_alpha 90.000000
_cell_angle_beta 136.554123
_cell_angle_gamma 90.000000
_cell_volume 3112.132390
_symmetry_space_group_name_H-M "C 2/M"
_symmetry_group_IT_number 12
_symmetry_cell_setting 'monoclinic'
loop_
_space_group_symop_operation_xyz
x,y,z
-x,y,-z
-x,-y,-z
x,-y,z
1/2+x,1/2+y,z
1/2-x,1/2+y,-z
1/2-x,1/2-y,-z
1/2+x,1/2-y,z
loop_
_atom_site_type_symbol
_atom_site_label
_atom_site_fract_x
_atom_site_fract_y
_atom_site_fract_z
Si Si1 0.643174 0.648686 0.394284
Si Si2 0.317302 0.912940 0.208374
Si Si3 0.062140 0.913906 0.609526
Si Si4 0.177690 0.087209 0.982060
Si Si5 0.384251 0.350717 0.786180
Si Si6 0.903015 0.319547 0.624123
Si Si7 0.545632 0.912871 0.946243
Si Si8 0.328011 0.177780 0.743407
O O1 0.555826 0.588163 0.392874
O O2 0.638739 0.623751 0.308697
O O3 0.805856 0.649380 0.506634
O O4 0.570437 0.729930 0.369742
O O5 0.205187 0.905183 0.211295
O O6 0.450069 0.861711 0.298936
O O7 0.366275 0.000000 0.228989
O O8 0.247750 0.886599 0.095353
O O9 0.191863 0.861213 0.703992
O O10 0.000000 0.884101 0.500000
O O11 0.115938 0.000000 0.630785
O O12 0.047574 0.141648 0.895136
O O13 0.126933 0.000000 0.959923
O O14 0.288324 0.096843 0.976635
O O15 0.334729 0.264763 0.771522
O O16 0.819064 0.332398 0.652599
O O17 0.468307 0.863933 0.844208
O O18 0.500098 0.000000 0.911940
O O19 0.500000 0.882687 0.000000
#
# Coordination Sequence:
#
# PCOD8110398 Si02
#       8
#     8   8   8   8   8   8   8   8
#     4  10  23  42  61  92 130 164 204 259 311 369
#     4  11  23  42  67  91 121 166 214 258 306 365
#     4  11  23  38  63  93 122 160 205 255 313 375
#     4  10  22  42  65  89 126 166 206 258 310 371
#     4  11  25  40  62  94 124 169 210 254 312 363
#     4  10  21  42  66  89 125 169 211 249 312 373
#     4  10  22  39  61  92 126 163 200 252 323 373
#     4  11  22  41  63  91 125 164 204 258 306 378
#
# _framework density 20.564677
#
# number of rings (size 3 to 8) (size 9 to 14) (size 15 to 20)
#    0.000    1.500    2.500    1.875    1.750    5.000 
#    0.000    0.625    0.000    0.000    0.000    0.000 
#    0.000    0.000    0.000    0.000    0.000    0.000 
#
# Total GULP energy -396984.954492 kJ/mol
# GULP energy per Si atom -12405.779828 kJ/mol
# Density = 2.051787 g / cm^3
# Si number density = 20.564677 Si / 1000 Ang^3
#
#
#
# Elastic Constant Matrix: (Units=GPa)
#
#
# Indices 1 2 3 4 5 6 
#
# 1 111.6781 24.8150 49.3929 0.0000 -1.7041 0.0000
# 2 24.8150 63.2965 42.9780 0.0000 3.6521 0.0000
# 3 49.3929 42.9780 130.6126 0.0000 2.6587 0.0001
# 4 0.0000 0.0000 0.0000 30.8228 0.0000 -0.1966
# 5 -1.7041 3.6521 2.6587 0.0000 30.7118 0.0000
# 6 0.0000 0.0000 0.0001 -0.1966 0.0000 17.5771
#
#
#
# Elastic Compliance Matrix: (Units=1/GPa)
#
#
# Indices 1 2 3 4 5 6 
#
# 1 0.010968 -0.001975 -0.003521 0.000000 0.001148 0.000000
# 2 -0.001975 0.020804 -0.006057 0.000000 -0.002059 0.000000
# 3 -0.003521 -0.006057 0.010989 0.000000 -0.000427 0.000000
# 4 0.000000 0.000000 0.000000 0.032446 0.000000 0.000363
# 5 0.001148 -0.002059 -0.000427 0.000000 0.032906 0.000000
# 6 0.000000 0.000000 0.000000 0.000363 0.000000 0.056896
#
#
# Mechanical properties :
#
#
# Convention : Reuss Voigt Hill
#
# Bulk Modulus (GPa) = 50.87652 59.99544 55.43598
# Shear Modulus (GPa) = 25.68468 28.38242 27.03355
#
# Velocity S-wave (km/s) = 3.53791 3.71907 3.62962
# Velocity P-wave (km/s) = 6.44070 6.90502 6.67690
#
# Compressibility (1/GPa) = 0.01965543
#
# Stress axis : x y z
#
# Youngs Moduli (GPa) = 91.17370 48.06667 90.99656
#
# Poissons Ratio (x) = 0.09495 0.32041
# Poissons Ratio (y) = 0.18011 0.55114
# Poissons Ratio (z) = 0.32103 0.29113
#
# Static dielectric constant tensor:
#      x y z
#    x 3.645720 0.000000 -0.106670 
#    y 0.000000 3.590850 0.000000 
#    z -0.106670 0.000000 3.708670 
# 
# 
# High freq. dielectric constant tensor:
#      x y z
#    x 1.807690 0.000000 -0.000940 
#    y 0.000000 1.798100 0.000000 
#    z -0.000940 0.000000 1.808200 
# 
# From -- ./inp_files/271733.got.cif
#   From: 2010.06.25/outbox.cif.g09.slc.cpg/sg12_136_cif.got.tgz:271733.got - 2010.06.28 00:19:55.
