data_PCOD8110380
_publ_section_title
;
Structure prediction by ZEFSAII (Michael W. Deem and Ramdas Pophale) SiO2 
 PCOD8110380
Probable space group: C 2/M
;
_chemical_formula_sum "Si O2"
_cell_formula_units_Z 48
_cell_length_a 13.474825
_cell_length_b 24.568672
_cell_length_c 6.973536
_cell_angle_alpha 90.000000
_cell_angle_beta 87.138610
_cell_angle_gamma 90.000000
_cell_volume 2305.770387
_symmetry_space_group_name_H-M "C 2/M"
_symmetry_group_IT_number 12
_symmetry_cell_setting 'monoclinic'
loop_
_space_group_symop_operation_xyz
x,y,z
-x,y,-z
-x,-y,-z
x,-y,z
1/2+x,1/2+y,z
1/2-x,1/2+y,-z
1/2-x,1/2-y,-z
1/2+x,1/2-y,z
loop_
_atom_site_type_symbol
_atom_site_label
_atom_site_fract_x
_atom_site_fract_y
_atom_site_fract_z
Si Si1 0.893521 0.782578 0.455352
Si Si2 0.896621 0.000000 0.113195
Si Si3 0.606267 0.407061 0.580374
Si Si4 0.304282 0.895762 0.318216
Si Si5 0.263265 0.781470 0.197225
Si Si6 0.500000 0.088892 0.500000
Si Si7 0.052596 0.500000 0.198629
Si Si8 0.209650 0.500000 0.913718
O O1 0.898640 0.843379 0.367030
O O2 0.830685 0.775629 0.654925
O O3 0.857556 0.745091 0.287936
O O4 0.000000 0.760158 0.500000
O O5 0.879091 0.945006 0.236189
O O6 0.827070 0.000000 0.931259
O O7 0.000000 0.000000 0.000000
O O8 0.500000 0.425003 0.500000
O O9 0.703189 0.413391 0.437181
O O10 0.283940 0.845951 0.173146
O O11 0.398174 0.878827 0.448485
O O12 0.334336 0.948296 0.194457
O O13 0.250000 0.750000 0.000000
O O14 0.529518 0.053937 0.315314
O O15 0.169419 0.500000 0.136443
O O16 0.000000 0.500000 0.000000
#
# Coordination Sequence:
#
# PCOD8110380 Si02
#       8
#     8   4   8   8   8   4   4   4
#     4   9  21  43  66  90 124 170 212 259 331 390
#     4  12  24  35  60 100 131 164 220 277 318 382
#     4  10  21  42  63  86 126 171 209 263 324 385
#     4  11  23  40  66  93 126 174 209 266 332 385
#     4  10  23  42  65  93 127 161 217 273 318 389
#     4  11  22  40  62  90 132 170 208 255 320 392
#     4  11  20  40  59  87 129 170 210 251 313 382
#     4  12  23  38  59  95 126 160 215 254 319 393
#
# _framework density 20.817336999999998
#
# number of rings (size 3 to 8) (size 9 to 14) (size 15 to 20)
#    0.000    1.500    1.667    3.250    3.500    0.667 
#    3.000    1.667    0.000    0.000    0.000    0.000 
#    0.000    0.000    0.000    0.000    0.000    0.000 
#
# Total GULP energy -297400.480566 kJ/mol
# GULP energy per Si atom -12391.686690 kJ/mol
# Density = 2.076996 g / cm^3
# Si number density = 20.817337 Si / 1000 Ang^3
#
#
#
# Elastic Constant Matrix: (Units=GPa)
#
#
# Indices 1 2 3 4 5 6 
#
# 1 147.6223 35.1513 46.7787 0.0000 13.3053 0.0000
# 2 35.1513 115.3276 66.1981 0.0000 4.9768 0.0000
# 3 46.7787 66.1981 114.9799 0.0000 6.6557 0.0000
# 4 0.0000 0.0000 0.0000 44.1249 0.0000 3.1496
# 5 13.3053 4.9768 6.6557 0.0000 33.8939 0.0000
# 6 0.0000 0.0000 0.0000 3.1496 0.0000 26.0929
#
#
#
# Elastic Compliance Matrix: (Units=1/GPa)
#
#
# Indices 1 2 3 4 5 6 
#
# 1 0.008036 -0.000818 -0.002653 0.000000 -0.002514 0.000000
# 2 -0.000818 0.013041 -0.007164 0.000000 -0.000187 0.000000
# 3 -0.002653 -0.007164 0.013939 0.000000 -0.000644 0.000000
# 4 0.000000 0.000000 0.000000 0.022860 0.000000 -0.002759
# 5 -0.002514 -0.000187 -0.000644 0.000000 0.030644 0.000000
# 6 0.000000 0.000000 0.000000 -0.002759 0.000000 0.038658
#
#
# Mechanical properties :
#
#
# Convention : Reuss Voigt Hill
#
# Bulk Modulus (GPa) = 72.75605 74.90957 73.83281
# Shear Modulus (GPa) = 32.67343 36.14244 34.40793
#
# Velocity S-wave (km/s) = 3.96603 4.17126 4.06994
# Velocity P-wave (km/s) = 7.48319 7.69815 7.59143
#
# Compressibility (1/GPa) = 0.01374456
#
# Stress axis : x y z
#
# Youngs Moduli (GPa) = 124.43924 76.68287 71.74363
#
# Poissons Ratio (x) = 0.06274 0.19033
# Poissons Ratio (y) = 0.10181 0.51400
# Poissons Ratio (z) = 0.33012 0.54938
#
# Static dielectric constant tensor:
#      x y z
#    x 4.336820 0.000000 -0.090880 
#    y 0.000000 3.820150 0.000000 
#    z -0.090880 0.000000 3.795860 
# 
# 
# High freq. dielectric constant tensor:
#      x y z
#    x 1.843450 0.000000 0.002050 
#    y 0.000000 1.814750 0.000000 
#    z 0.002050 0.000000 1.799360 
# 
# From -- ./inp_files/12440.got.cif
#   From: 2010.06.25/outbox.cif.g09.slc.cpg/sg12_7_cif.got.tgz:12440.got - 2010.06.28 00:19:55.
