data_PCOD8110864
_publ_section_title
;
Structure prediction by ZEFSAII (Michael W. Deem and Ramdas Pophale) SiO2 
 PCOD8110864
Probable space group: C 2/M
;
_chemical_formula_sum "Si O2"
_cell_formula_units_Z 48
_cell_length_a 9.183609
_cell_length_b 29.384136
_cell_length_c 16.446314
_cell_angle_alpha 90.000000
_cell_angle_beta 148.510647
_cell_angle_gamma 90.000000
_cell_volume 2318.185939
_symmetry_space_group_name_H-M "C 2/M"
_symmetry_group_IT_number 12
_symmetry_cell_setting 'monoclinic'
loop_
_space_group_symop_operation_xyz
x,y,z
-x,y,-z
-x,-y,-z
x,-y,z
1/2+x,1/2+y,z
1/2-x,1/2+y,-z
1/2-x,1/2-y,-z
1/2+x,1/2-y,z
loop_
_atom_site_type_symbol
_atom_site_label
_atom_site_fract_x
_atom_site_fract_y
_atom_site_fract_z
Si Si1 0.716942 0.281111 0.170983
Si Si2 0.832405 0.217164 0.670514
Si Si3 0.413542 0.949252 0.654963
Si Si4 0.874067 0.883690 0.858167
Si Si5 0.689674 0.631287 0.847645
Si Si6 0.670390 0.551547 0.708910
O O1 0.593419 0.271308 0.201013
O O2 0.759528 0.334974 0.182643
O O3 0.020838 0.257417 0.310041
O O4 0.500000 0.262448 0.000000
O O5 0.500000 0.215123 0.500000
O O6 0.971927 0.169025 0.710391
O O7 0.626524 0.916043 0.711121
O O8 0.363859 0.934025 0.724893
O O9 0.141551 0.947299 0.471238
O O10 0.536537 0.000000 0.713169
O O11 0.104485 0.882709 0.897938
O O12 0.000000 0.905196 0.000000
O O13 0.703725 0.586751 0.798166
O O14 0.000000 0.652713 0.000000
O O15 0.743042 0.500000 0.772957
#
# Coordination Sequence:
#
# PCOD8110864 Si02
#       6
#     8   8   8   8   8   8
#     4  10  22  41  62  87 123 163 201 246 301 367
#     4  11  24  41  63  91 124 155 204 255 301 361
#     4   9  19  38  61  88 121 158 198 247 301 357
#     4  10  22  38  59  88 121 158 206 245 296 359
#     4  11  24  39  62  88 122 161 200 248 303 357
#     4   9  20  38  61  88 120 158 200 244 300 360
#
# _framework density 20.705846999999999
#
# number of rings (size 3 to 8) (size 9 to 14) (size 15 to 20)
#    0.000    2.000    0.000    3.500    4.667    5.333 
#    3.000    1.667    0.000    0.000    0.000    0.000 
#    0.000    0.000    0.000    0.000    0.000    0.000 
#
# Total GULP energy -297558.893050 kJ/mol
# GULP energy per Si atom -12398.287210 kJ/mol
# Density = 2.065872 g / cm^3
# Si number density = 20.705847 Si / 1000 Ang^3
#
#
#
# Elastic Constant Matrix: (Units=GPa)
#
#
# Indices 1 2 3 4 5 6 
#
# 1 85.2878 39.2219 35.3487 0.0000 10.5018 0.0000
# 2 39.2219 81.9372 43.9027 0.0000 13.7256 0.0000
# 3 35.3487 43.9027 83.4539 0.0000 20.5708 0.0000
# 4 0.0000 0.0000 0.0000 32.5830 0.0000 4.9894
# 5 10.5018 13.7256 20.5708 0.0000 39.6408 0.0000
# 6 0.0000 0.0000 0.0000 4.9894 0.0000 28.2599
#
#
#
# Elastic Compliance Matrix: (Units=1/GPa)
#
#
# Indices 1 2 3 4 5 6 
#
# 1 0.015856 -0.005541 -0.003714 0.000000 -0.000355 0.000000
# 2 -0.005541 0.019002 -0.007327 0.000000 -0.001309 0.000000
# 3 -0.003714 -0.007327 0.018969 0.000000 -0.006323 0.000000
# 4 0.000000 0.000000 0.000000 0.031544 0.000000 -0.005569
# 5 -0.000355 -0.001309 -0.006323 0.000000 0.029055 0.000000
# 6 0.000000 0.000000 0.000000 -0.005569 0.000000 0.036369
#
#
# Mechanical properties :
#
#
# Convention : Reuss Voigt Hill
#
# Bulk Modulus (GPa) = 48.39331 54.18061 51.28696
# Shear Modulus (GPa) = 26.19938 28.91045 27.55491
#
# Velocity S-wave (km/s) = 3.56098 3.74069 3.65194
# Velocity P-wave (km/s) = 6.35059 6.69930 6.52728
#
# Compressibility (1/GPa) = 0.02066401
#
# Stress axis : x y z
#
# Youngs Moduli (GPa) = 63.06768 52.62688 52.71872
#
# Poissons Ratio (x) = 0.29158 0.19579
# Poissons Ratio (y) = 0.34943 0.38625
# Poissons Ratio (z) = 0.23423 0.38558
#
# Static dielectric constant tensor:
#      x y z
#    x 3.796730 0.000000 -0.006990 
#    y 0.000000 3.761430 0.000000 
#    z -0.006990 0.000000 3.651220 
# 
# 
# High freq. dielectric constant tensor:
#      x y z
#    x 1.813160 0.000000 0.003310 
#    y 0.000000 1.810220 0.000000 
#    z 0.003310 0.000000 1.805110 
# 
# From -- ./inp_files/200242.got.cif
#   From: 2010.06.25/outbox.cif.g09.slc.cpg/sg12_101_cif.got.tgz:200242.got - 2010.06.28 00:19:55.
