data_PCOD8111045
_publ_section_title
;
Structure prediction by ZEFSAII (Michael W. Deem and Ramdas Pophale) SiO2 
 PCOD8111045
Probable space group: C 2/M
;
_chemical_formula_sum "Si O2"
_cell_formula_units_Z 40
_cell_length_a 26.083404
_cell_length_b 10.807091
_cell_length_c 24.022819
_cell_angle_alpha 90.000000
_cell_angle_beta 163.526588
_cell_angle_gamma 90.000000
_cell_volume 1920.250576
_symmetry_space_group_name_H-M "C 2/M"
_symmetry_group_IT_number 12
_symmetry_cell_setting 'monoclinic'
loop_
_space_group_symop_operation_xyz
x,y,z
-x,y,-z
-x,-y,-z
x,-y,z
1/2+x,1/2+y,z
1/2-x,1/2+y,-z
1/2-x,1/2-y,-z
1/2+x,1/2-y,z
loop_
_atom_site_type_symbol
_atom_site_label
_atom_site_fract_x
_atom_site_fract_y
_atom_site_fract_z
Si Si1 0.288947 0.861485 0.664403
Si Si2 0.618770 0.796878 0.942127
Si Si3 0.305348 0.138967 0.230395
Si Si4 0.475824 0.635917 0.257918
Si Si5 0.272698 0.857625 0.321636
O O1 0.464035 0.881293 0.807779
O O2 0.329591 0.751434 0.751002
O O3 0.117571 0.812131 0.450632
O O4 0.250291 0.000000 0.650114
O O5 0.518240 0.714665 0.791597
O O6 0.707921 0.720726 0.084110
O O7 0.775108 0.874320 0.074882
O O8 0.515902 0.170677 0.452829
O O9 0.214800 0.156727 0.196910
O O10 0.278677 0.000000 0.182102
O O11 0.540257 0.500000 0.307840
O O12 0.227917 0.000000 0.295002
#
# Coordination Sequence:
#
# PCOD8111045 Si02
#       5
#     8   8   8   8   8
#     4  11  23  40  59  89 124 157 193 240 292 352
#     4  11  21  37  61  86 114 155 202 238 292 346
#     4   9  18  36  62  88 117 151 199 247 294 345
#     4  10  22  39  57  83 120 156 195 242 293 345
#     4   9  19  38  62  89 118 154 195 245 295 348
#
# _framework density 20.830615000000002
#
# number of rings (size 3 to 8) (size 9 to 14) (size 15 to 20)
#    0.000    2.000    2.000    3.000    0.000    2.400 
#    0.000    8.000    0.000    0.000    0.000    0.000 
#    0.000    0.000    0.000    0.000    0.000    0.000 
#
# Total GULP energy -247870.768945 kJ/mol
# GULP energy per Si atom -12393.538447 kJ/mol
# Density = 2.078320 g / cm^3
# Si number density = 20.830615 Si / 1000 Ang^3
#
#
#
# Elastic Constant Matrix: (Units=GPa)
#
#
# Indices 1 2 3 4 5 6 
#
# 1 74.2138 43.2966 4.8395 0.0247 -5.1976 0.0048
# 2 43.2966 111.1801 16.9069 0.0154 -19.0970 0.0101
# 3 4.8395 16.9069 29.2461 0.0206 -12.4947 0.0142
# 4 0.0247 0.0154 0.0206 -29.4307 0.0205 42.9002
# 5 -5.1976 -19.0970 -12.4947 0.0205 35.4501 0.0134
# 6 0.0048 0.0101 0.0142 42.9002 0.0134 -22.0974
#
#
#
# Elastic Compliance Matrix: (Units=1/GPa)
#
#
# Indices 1 2 3 4 5 6 
#
# 1 0.017498 -0.007103 0.000791 -0.000006 -0.000982 -0.000012
# 2 -0.007103 0.013222 -0.004556 -0.000004 0.004476 -0.000003
# 3 0.000791 -0.004556 0.042025 -0.000046 0.012474 -0.000056
# 4 -0.000006 -0.000004 -0.000046 0.018568 -0.000044 0.036048
# 5 -0.000982 0.004476 0.012474 -0.000044 0.034872 -0.000054
# 6 -0.000012 -0.000003 -0.000056 0.036048 -0.000054 0.024730
#
#
# Mechanical properties :
#
#
# Convention : Reuss Voigt Hill
#
# Bulk Modulus (GPa) = 19.60451 38.30289 28.95370
# Shear Modulus (GPa) = 26.36369 6.75754 16.56061
#
# Velocity S-wave (km/s) = 3.56142 1.80308 2.82266
# Velocity P-wave (km/s) = 5.13258 4.77100 4.95509
#
# Compressibility (1/GPa) = 0.05100866
#
# Stress axis : x y z
#
# Youngs Moduli (GPa) = 57.14827 75.63009 23.79557
#
# Poissons Ratio (x) = 0.53723 -0.01883
# Poissons Ratio (y) = 0.40594 0.10842
# Poissons Ratio (z) = -0.04522 0.34458
#
# Static dielectric constant tensor:
#      x y z
#    x 3.784670 -0.000010 -0.025440 
#    y -0.000010 3.558460 -0.000030 
#    z -0.025440 -0.000030 3.825610 
# 
# 
# High freq. dielectric constant tensor:
#      x y z
#    x 1.805700 0.000000 0.000030 
#    y 0.000000 1.809090 0.000000 
#    z 0.000030 0.000000 1.824400 
# 
# From -- ./inp_files/93832.got.cif
#   From: 2010.06.25/outbox.cif.g09.slc.cpg/sg12_47_cif.got.tgz:93832.got - 2010.06.28 00:19:55.
