data_PCOD8111006
_publ_section_title
;
Structure prediction by ZEFSAII (Michael W. Deem and Ramdas Pophale) SiO2 
 PCOD8111006
Probable space group: C 2/M
;
_chemical_formula_sum "Si O2"
_cell_formula_units_Z 44
_cell_length_a 25.835249
_cell_length_b 12.162430
_cell_length_c 8.793164
_cell_angle_alpha 90.000000
_cell_angle_beta 131.442957
_cell_angle_gamma 90.000000
_cell_volume 2071.173466
_symmetry_space_group_name_H-M "C 2/M"
_symmetry_group_IT_number 12
_symmetry_cell_setting 'monoclinic'
loop_
_space_group_symop_operation_xyz
x,y,z
-x,y,-z
-x,-y,-z
x,-y,z
1/2+x,1/2+y,z
1/2-x,1/2+y,-z
1/2-x,1/2-y,-z
1/2+x,1/2-y,z
loop_
_atom_site_type_symbol
_atom_site_label
_atom_site_fract_x
_atom_site_fract_y
_atom_site_fract_z
Si Si1 0.135548 0.263076 0.102149
Si Si2 0.592109 0.240573 0.350243
Si Si3 0.227010 0.278650 0.786770
Si Si4 0.391027 0.000000 0.047087
Si Si5 0.676535 0.000000 0.778588
Si Si6 0.524617 0.630273 0.718127
Si Si7 0.547871 0.000000 0.348992
O O1 0.118031 0.220356 0.235630
O O2 0.216801 0.252512 0.229479
O O3 0.117072 0.391448 0.067927
O O4 0.096147 0.193363 0.894244
O O5 0.652569 0.267921 0.589770
O O6 0.530189 0.322029 0.269874
O O7 0.566229 0.112959 0.293078
O O8 0.218883 0.407436 0.777780
O O9 0.250000 0.250000 0.000000
O O10 0.327818 0.000000 0.047077
O O11 0.469993 0.000000 0.259145
O O12 0.594852 0.000000 0.588979
O O13 0.500000 0.659293 0.500000
O O14 0.534167 0.500000 0.758834
#
# Coordination Sequence:
#
# PCOD8111006 Si02
#       7
#     8   8   8   4   4   8   4
#     4  12  25  41  69  98 135 171 216 273 333 390
#     4  11  24  44  67  99 134 171 215 272 333 389
#     4  11  23  44  65  92 129 174 225 266 321 390
#     4  12  22  38  69 103 133 170 213 270 338 387
#     4  10  23  40  64  96 127 176 222 272 320 384
#     4  11  26  46  67  95 129 175 223 266 319 392
#     4  10  22  38  69 101 136 163 211 277 327 396
#
# _framework density 21.243995000000002
#
# number of rings (size 3 to 8) (size 9 to 14) (size 15 to 20)
#    0.000    0.909    3.636    3.000    3.818    2.182 
#    3.273    0.000    0.000    0.000    0.000    0.000 
#    0.000    0.000    0.000    0.000    0.000    0.000 
#
# Total GULP energy -272649.026064 kJ/mol
# GULP energy per Si atom -12393.137548 kJ/mol
# Density = 2.119564 g / cm^3
# Si number density = 21.243995 Si / 1000 Ang^3
#
#
#
# Elastic Constant Matrix: (Units=GPa)
#
#
# Indices 1 2 3 4 5 6 
#
# 1 96.1713 27.1408 8.1653 0.0000 4.6455 0.0000
# 2 27.1408 96.0274 31.3074 0.0000 8.9639 0.0000
# 3 8.1653 31.3074 71.3702 0.0000 4.5023 0.0000
# 4 0.0000 0.0000 0.0000 25.3947 0.0000 15.6284
# 5 4.6455 8.9639 4.5023 0.0000 44.6954 0.0000
# 6 0.0000 0.0000 0.0000 15.6284 0.0000 75.8578
#
#
#
# Elastic Compliance Matrix: (Units=1/GPa)
#
#
# Indices 1 2 3 4 5 6 
#
# 1 0.011314 -0.003192 0.000141 0.000000 -0.000550 0.000000
# 2 -0.003192 0.013217 -0.005320 0.000000 -0.001783 0.000000
# 3 0.000141 -0.005320 0.016367 0.000000 -0.000596 0.000000
# 4 0.000000 0.000000 0.000000 0.045096 0.000000 -0.009291
# 5 -0.000550 -0.001783 -0.000596 0.000000 0.022848 0.000000
# 6 0.000000 0.000000 0.000000 -0.009291 0.000000 0.015097
#
#
# Mechanical properties :
#
#
# Convention : Reuss Voigt Hill
#
# Bulk Modulus (GPa) = 41.40110 44.08843 42.74476
# Shear Modulus (GPa) = 33.61735 42.31995 37.96865
#
# Velocity S-wave (km/s) = 3.98231 4.46813 4.23219
# Velocity P-wave (km/s) = 6.37775 6.88602 6.63675
#
# Compressibility (1/GPa) = 0.02415395
#
# Stress axis : x y z
#
# Youngs Moduli (GPa) = 88.38919 75.66121 61.09973
#
# Poissons Ratio (x) = 0.24152 -0.00859
# Poissons Ratio (y) = 0.28215 0.32505
# Poissons Ratio (z) = -0.01243 0.40252
#
# Static dielectric constant tensor:
#      x y z
#    x 2.962740 0.000000 -0.850150 
#    y 0.000000 3.810860 0.000000 
#    z -0.850150 0.000000 2.578290 
# 
# 
# High freq. dielectric constant tensor:
#      x y z
#    x 1.840780 0.000000 0.005350 
#    y 0.000000 1.830270 0.000000 
#    z 0.005350 0.000000 1.835110 
# 
# From -- ./inp_files/84096.got.cif
#   From: 2010.06.25/outbox.cif.g09.slc.cpg/sg12_43_cif.got.tgz:84096.got - 2010.06.28 00:19:55.
