data_PCOD8111222
_publ_section_title
;
Structure prediction by ZEFSAII (Michael W. Deem and Ramdas Pophale) SiO2 
 PCOD8111222
Probable space group: C 2/M
;
_chemical_formula_sum "Si O2"
_cell_formula_units_Z 36
_cell_length_a 17.548181
_cell_length_b 17.377142
_cell_length_c 6.408183
_cell_angle_alpha 90.000000
_cell_angle_beta 121.638922
_cell_angle_gamma 90.000000
_cell_volume 1663.658196
_symmetry_space_group_name_H-M "C 2/M"
_symmetry_group_IT_number 12
_symmetry_cell_setting 'monoclinic'
loop_
_space_group_symop_operation_xyz
x,y,z
-x,y,-z
-x,-y,-z
x,-y,z
1/2+x,1/2+y,z
1/2-x,1/2+y,-z
1/2-x,1/2-y,-z
1/2+x,1/2-y,z
loop_
_atom_site_type_symbol
_atom_site_label
_atom_site_fract_x
_atom_site_fract_y
_atom_site_fract_z
Si Si1 0.549967 0.323962 0.869835
Si Si2 0.174057 0.588739 0.747268
Si Si3 0.794268 0.827573 0.624327
Si Si4 0.660625 0.411630 0.717528
Si Si5 0.000000 0.694739 0.500000
O O1 0.574011 0.387756 0.730412
O O2 0.497651 0.249986 0.700676
O O3 0.500000 0.359982 0.000000
O O4 0.645547 0.299081 0.097369
O O5 0.143445 0.500000 0.697076
O O6 0.222955 0.608739 0.599904
O O7 0.087417 0.642220 0.643712
O O8 0.243084 0.603614 0.036392
O O9 0.750000 0.750000 0.500000
O O10 0.848664 0.862769 0.507655
O O11 0.649471 0.500000 0.644951
#
# Coordination Sequence:
#
# PCOD8111222 Si02
#       5
#     8   8   8   8   4
#     4  11  23  38  59  89 120 156 201 245 295 353
#     4  10  22  39  62  91 121 157 198 243 298 355
#     4  11  21  38  63  88 119 159 202 245 291 351
#     4  10  22  41  63  88 120 157 199 247 298 352
#     4  12  23  40  61  88 126 158 196 246 297 354
#
# _framework density 21.639061000000002
#
# number of rings (size 3 to 8) (size 9 to 14) (size 15 to 20)
#    0.000    1.333    0.000    6.333    0.000    4.889 
#    0.000    3.889    0.000    6.667    0.000    0.000 
#    0.000    0.000    0.000    0.000    0.000    0.000 
#
# Total GULP energy -223101.281651 kJ/mol
# GULP energy per Si atom -12394.515647 kJ/mol
# Density = 2.158981 g / cm^3
# Si number density = 21.639061 Si / 1000 Ang^3
#
#
#
# Elastic Constant Matrix: (Units=GPa)
#
#
# Indices 1 2 3 4 5 6 
#
# 1 84.2235 34.7395 22.9382 0.0000 -15.8194 0.0000
# 2 34.7395 132.0978 59.3848 0.0000 0.2864 0.0000
# 3 22.9382 59.3848 93.4949 0.0000 -5.8001 0.0000
# 4 0.0000 0.0000 0.0000 36.7082 0.0000 5.2970
# 5 -15.8194 0.2864 -5.8001 0.0000 42.4414 0.0000
# 6 0.0000 0.0000 0.0000 5.2970 0.0000 39.3594
#
#
#
# Elastic Compliance Matrix: (Units=1/GPa)
#
#
# Indices 1 2 3 4 5 6 
#
# 1 0.014547 -0.003332 -0.001125 0.000000 0.005291 0.000000
# 2 -0.003332 0.011401 -0.006561 0.000000 -0.002215 0.000000
# 3 -0.001125 -0.006561 0.015245 0.000000 0.001708 0.000000
# 4 0.000000 0.000000 0.000000 0.027781 0.000000 -0.003739
# 5 0.005291 -0.002215 0.001708 0.000000 0.025782 0.000000
# 6 0.000000 0.000000 0.000000 -0.003739 0.000000 0.025910
#
#
# Mechanical properties :
#
#
# Convention : Reuss Voigt Hill
#
# Bulk Modulus (GPa) = 52.19745 60.43789 56.31767
# Shear Modulus (GPa) = 33.53696 36.55204 35.04450
#
# Velocity S-wave (km/s) = 3.94106 4.11441 4.02867
# Velocity P-wave (km/s) = 6.69952 7.11068 6.90816
#
# Compressibility (1/GPa) = 0.01915802
#
# Stress axis : x y z
#
# Youngs Moduli (GPa) = 68.74041 87.71295 65.59384
#
# Poissons Ratio (x) = 0.29222 0.07378
# Poissons Ratio (y) = 0.22901 0.43039
# Poissons Ratio (z) = 0.07732 0.57553
#
# Static dielectric constant tensor:
#      x y z
#    x 4.214890 0.000000 -0.133460 
#    y 0.000000 3.878870 0.000000 
#    z -0.133460 0.000000 4.395070 
# 
# 
# High freq. dielectric constant tensor:
#      x y z
#    x 1.853410 0.000000 0.007090 
#    y 0.000000 1.844120 0.000000 
#    z 0.007090 0.000000 1.868430 
# 
# From -- ./inp_files/15940.got.cif
#   From: 2010.06.25/outbox.cif.g09.slc.cpg/sg12_8_cif.got.tgz:15940.got - 2010.06.28 00:19:55.
