data_PCOD8111245
_publ_section_title
;
Structure prediction by ZEFSAII (Michael W. Deem and Ramdas Pophale) SiO2 
 PCOD8111245
Probable space group: C 2/M
;
_chemical_formula_sum "Si O2"
_cell_formula_units_Z 40
_cell_length_a 11.475004
_cell_length_b 16.838465
_cell_length_c 17.302244
_cell_angle_alpha 90.000000
_cell_angle_beta 35.594207
_cell_angle_gamma 90.000000
_cell_volume 1945.858130
_symmetry_space_group_name_H-M "C 2/M"
_symmetry_group_IT_number 12
_symmetry_cell_setting 'monoclinic'
loop_
_space_group_symop_operation_xyz
x,y,z
-x,y,-z
-x,-y,-z
x,-y,z
1/2+x,1/2+y,z
1/2-x,1/2+y,-z
1/2-x,1/2-y,-z
1/2+x,1/2-y,z
loop_
_atom_site_type_symbol
_atom_site_label
_atom_site_fract_x
_atom_site_fract_y
_atom_site_fract_z
Si Si1 0.719476 0.811197 0.362829
Si Si2 0.167800 0.087976 0.567316
Si Si3 0.093997 0.661050 0.690295
Si Si4 0.300309 0.739719 0.150044
Si Si5 0.728454 0.910733 0.767648
O O1 0.500000 0.845347 0.500000
O O2 0.870430 0.864851 0.332131
O O3 0.725770 0.722137 0.392026
O O4 0.784062 0.809054 0.238852
O O5 0.358885 0.120555 0.416794
O O6 0.967443 0.091998 0.623293
O O7 0.223270 0.000000 0.562189
O O8 0.101459 0.598115 0.756795
O O9 0.886471 0.710577 0.801182
O O10 0.316641 0.835761 0.151605
O O11 0.500000 0.710494 0.000000
O O12 0.675676 0.000000 0.829854
#
# Coordination Sequence:
#
# PCOD8111245 Si02
#       5
#     8   8   8   8   8
#     4  11  21  37  63  92 119 157 207 258 307 364
#     4  11  21  37  63  95 126 157 202 260 316 366
#     4  11  20  38  63  91 125 160 207 252 307 366
#     4  11  24  41  65  89 124 167 212 251 303 368
#     4  10  22  39  62  95 127 158 202 258 315 365
#
# _framework density 20.556484000000001
#
# number of rings (size 3 to 8) (size 9 to 14) (size 15 to 20)
#    0.000    1.200    4.000    4.200    0.000    5.600 
#    0.000    0.000    0.000    4.200    0.000    0.000 
#    0.000    0.000    0.000    0.000    0.000    0.000 
#
# Total GULP energy -247819.909971 kJ/mol
# GULP energy per Si atom -12390.995499 kJ/mol
# Density = 2.050970 g / cm^3
# Si number density = 20.556484 Si / 1000 Ang^3
#
#
#
# Elastic Constant Matrix: (Units=GPa)
#
#
# Indices 1 2 3 4 5 6 
#
# 1 101.5242 45.9352 40.6949 0.0020 -1.6271 0.0009
# 2 45.9352 84.2059 36.6290 0.0048 4.5816 0.0021
# 3 40.6949 36.6290 111.1057 0.0139 4.4692 -0.0017
# 4 0.0020 0.0048 0.0139 11.8031 -0.0064 -1.3270
# 5 -1.6271 4.5816 4.4692 -0.0064 19.0306 -0.0007
# 6 0.0009 0.0021 -0.0017 -1.3270 -0.0007 33.0659
#
#
#
# Elastic Compliance Matrix: (Units=1/GPa)
#
#
# Indices 1 2 3 4 5 6 
#
# 1 0.014125 -0.006520 -0.003166 0.000006 0.003521 0.000000
# 2 -0.006520 0.016973 -0.003049 -0.000005 -0.003927 -0.000001
# 3 -0.003166 -0.003049 0.011253 -0.000013 -0.002179 0.000000
# 4 0.000006 -0.000005 -0.000013 0.085108 0.000033 0.003415
# 5 0.003521 -0.003927 -0.002179 0.000033 0.054305 0.000003
# 6 0.000000 -0.000001 0.000000 0.003415 0.000003 0.030380
#
#
# Mechanical properties :
#
#
# Convention : Reuss Voigt Hill
#
# Bulk Modulus (GPa) = 59.24029 60.37267 59.80648
# Shear Modulus (GPa) = 20.55579 24.35170 22.45374
#
# Velocity S-wave (km/s) = 3.16565 3.44557 3.30857
# Velocity P-wave (km/s) = 6.49944 6.72772 6.61456
#
# Compressibility (1/GPa) = 0.01688040
#
# Stress axis : x y z
#
# Youngs Moduli (GPa) = 70.79507 58.91881 88.86540
#
# Poissons Ratio (x) = 0.38415 0.28133
# Poissons Ratio (y) = 0.46158 0.27099
# Poissons Ratio (z) = 0.22413 0.17967
#
# Static dielectric constant tensor:
#      x y z
#    x 3.758140 0.000000 -0.041840 
#    y 0.000000 3.767880 0.000010 
#    z -0.041840 0.000010 3.276940 
# 
# 
# High freq. dielectric constant tensor:
#      x y z
#    x 1.812150 0.000000 -0.007710 
#    y 0.000000 1.802640 0.000000 
#    z -0.007710 0.000000 1.763990 
# 
# From -- ./inp_files/46928.got.cif
#   From: 2010.06.25/outbox.cif.g09.slc.cpg/sg12_24_cif.got.tgz:46928.got - 2010.06.28 00:19:55.
