data_PCOD8111169
_publ_section_title
;
Structure prediction by ZEFSAII (Michael W. Deem and Ramdas Pophale) SiO2 
 PCOD8111169
Probable space group: C 2/M
;
_chemical_formula_sum "Si O2"
_cell_formula_units_Z 36
_cell_length_a 22.088071
_cell_length_b 12.346732
_cell_length_c 21.757835
_cell_angle_alpha 90.000000
_cell_angle_beta 161.053027
_cell_angle_gamma 90.000000
_cell_volume 1926.630086
_symmetry_space_group_name_H-M "C 2/M"
_symmetry_group_IT_number 12
_symmetry_cell_setting 'monoclinic'
loop_
_space_group_symop_operation_xyz
x,y,z
-x,y,-z
-x,-y,-z
x,-y,z
1/2+x,1/2+y,z
1/2-x,1/2+y,-z
1/2-x,1/2-y,-z
1/2+x,1/2-y,z
loop_
_atom_site_type_symbol
_atom_site_label
_atom_site_fract_x
_atom_site_fract_y
_atom_site_fract_z
Si Si1 0.710642 0.374070 0.093510
Si Si2 0.820348 0.126184 0.367581
Si Si3 0.930346 0.873191 0.716332
Si Si4 0.000000 0.765885 0.000000
Si Si5 0.926514 0.245544 0.588315
O O1 0.760670 0.500000 0.142590
O O2 0.899919 0.307228 0.273977
O O3 0.587955 0.343600 0.916720
O O4 0.601040 0.344832 0.049695
O O5 0.853841 0.156976 0.470405
O O6 0.000000 0.156629 0.500000
O O7 0.773542 0.000000 0.318714
O O8 0.643900 0.190164 0.173357
O O9 0.989227 0.815899 0.709869
O O10 0.731468 0.833135 0.549239
O O11 0.915050 0.000000 0.690022
#
# Coordination Sequence:
#
# PCOD8111169 Si02
#       5
#     8   8   8   4   8
#     4  11  23  39  61  90 122 158 196 241 293 351
#     4  11  23  40  62  87 118 156 200 246 296 349
#     4  10  22  39  61  88 120 156 197 245 295 348
#     4  12  22  42  60  90 120 160 194 246 292 354
#     4  11  21  40  63  87 120 156 200 243 295 348
#
# _framework density 18.685476000000001
#
# number of rings (size 3 to 8) (size 9 to 14) (size 15 to 20)
#    0.000    1.111    4.444    2.667    0.000    0.000 
#    0.000    1.111    0.000    0.000    0.000    0.000 
#    0.000    0.000    0.000    0.000    0.000    0.000 
#
# Total GULP energy -223309.763501 kJ/mol
# GULP energy per Si atom -12406.097972 kJ/mol
# Density = 1.864295 g / cm^3
# Si number density = 18.685476 Si / 1000 Ang^3
#
#
#
# Elastic Constant Matrix: (Units=GPa)
#
#
# Indices 1 2 3 4 5 6 
#
# 1 107.5530 32.0187 29.4623 0.0045 -2.6140 0.0011
# 2 32.0187 56.8373 19.8114 0.0013 -7.8743 -0.0088
# 3 29.4623 19.8114 58.9146 0.0078 -6.3137 0.0028
# 4 0.0045 0.0013 0.0078 17.0128 0.0028 23.9498
# 5 -2.6140 -7.8743 -6.3137 0.0028 29.4701 -0.0037
# 6 0.0011 -0.0088 0.0028 23.9498 -0.0037 76.7873
#
#
#
# Elastic Compliance Matrix: (Units=1/GPa)
#
#
# Indices 1 2 3 4 5 6 
#
# 1 0.012086 -0.005478 -0.004344 0.000001 -0.001322 -0.000001
# 2 -0.005478 0.022880 -0.004454 -0.000006 0.004673 0.000005
# 3 -0.004344 -0.004454 0.020956 -0.000013 0.002914 0.000003
# 4 0.000001 -0.000006 -0.000013 0.104790 -0.000019 -0.032684
# 5 -0.001322 0.004673 0.002914 -0.000019 0.035688 0.000008
# 6 -0.000001 0.000005 0.000003 -0.032684 0.000008 0.023217
#
#
# Mechanical properties :
#
#
# Convention : Reuss Voigt Hill
#
# Bulk Modulus (GPa) = 36.53439 42.87664 39.70552
# Shear Modulus (GPa) = 19.43317 34.12153 26.77735
#
# Velocity S-wave (km/s) = 3.22842 4.27792 3.78968
# Velocity P-wave (km/s) = 5.78720 6.88456 6.35959
#
# Compressibility (1/GPa) = 0.02737147
#
# Stress axis : x y z
#
# Youngs Moduli (GPa) = 82.73851 43.70677 47.71908
#
# Poissons Ratio (x) = 0.23941 0.20728
# Poissons Ratio (y) = 0.45322 0.21252
# Poissons Ratio (z) = 0.35940 0.19466
#
# Static dielectric constant tensor:
#      x y z
#    x 3.602460 0.000000 -0.070740 
#    y 0.000000 3.381830 -0.000010 
#    z -0.070740 -0.000010 3.476770 
# 
# 
# High freq. dielectric constant tensor:
#      x y z
#    x 1.740820 0.000000 -0.003990 
#    y 0.000000 1.734210 0.000000 
#    z -0.003990 0.000000 1.735720 
# 
# From -- ./inp_files/27347.got.cif
#   From: 2010.06.25/outbox.cif.g09.slc.cpg/sg12_14_cif.got.tgz:27347.got - 2010.06.28 00:19:55.
