data_PCOD8111825
_publ_section_title
;
Structure prediction by ZEFSAII (Michael W. Deem and Ramdas Pophale) SiO2 
 PCOD8111825
Probable space group: C 2/M
;
_chemical_formula_sum "Si O2"
_cell_formula_units_Z 56
_cell_length_a 27.486495
_cell_length_b 13.269389
_cell_length_c 14.908400
_cell_angle_alpha 90.000000
_cell_angle_beta 153.061598
_cell_angle_gamma 90.000000
_cell_volume 2463.374940
_symmetry_space_group_name_H-M "C 2/M"
_symmetry_group_IT_number 12
_symmetry_cell_setting 'monoclinic'
loop_
_space_group_symop_operation_xyz
x,y,z
-x,y,-z
-x,-y,-z
x,-y,z
1/2+x,1/2+y,z
1/2-x,1/2+y,-z
1/2-x,1/2-y,-z
1/2+x,1/2-y,z
loop_
_atom_site_type_symbol
_atom_site_label
_atom_site_fract_x
_atom_site_fract_y
_atom_site_fract_z
Si Si1 0.124023 0.381541 0.714625
Si Si2 0.358278 0.884002 0.875115
Si Si3 0.190462 0.386979 0.011259
Si Si4 0.568259 0.613609 0.533153
Si Si5 0.363110 0.704129 0.527499
Si Si6 0.743093 0.117028 0.732419
Si Si7 0.531285 0.689969 0.957447
O O1 0.144210 0.500000 0.748721
O O2 0.198951 0.340015 0.756057
O O3 0.000000 0.353970 0.500000
O O4 0.161658 0.330713 0.870713
O O5 0.365913 0.844454 0.991657
O O6 0.236596 0.874233 0.638433
O O7 0.395261 0.000000 0.923078
O O8 0.436812 0.803902 0.958327
O O9 0.146301 0.500000 0.928441
O O10 0.315213 0.386892 0.233574
O O11 0.500000 0.665769 0.500000
O O12 0.527583 0.500000 0.446071
O O13 0.557856 0.677930 0.425322
O O14 0.318799 0.818577 0.445576
O O15 0.425776 0.690499 0.722703
O O16 0.713387 0.000000 0.670583
O O17 0.870961 0.132840 0.932077
O O18 0.500000 0.634986 0.000000
#
# Coordination Sequence:
#
# PCOD8111825 Si02
#       7
#     8   8   8   8   8   8   8
#     4   9  18  32  55  87 125 168 206 245 303 375
#     4   9  20  41  66  92 124 167 215 262 324 393
#     4   8  15  30  53  84 121 158 202 252 299 369
#     4   9  18  33  58  92 127 168 210 254 317 385
#     4  10  22  41  62  92 128 166 212 276 322 377
#     4  10  24  43  63  94 131 173 219 261 320 391
#     4  11  26  45  65  94 129 166 217 281 332 373
#
# _framework density 22.733039999999999
#
# number of rings (size 3 to 8) (size 9 to 14) (size 15 to 20)
#    0.000    2.571    0.000    1.286    4.000    5.143 
#    0.000    3.571    0.000    0.000    0.000    0.000 
#    0.000    0.000    0.000    0.000    0.000    0.000 
#
# Total GULP energy -346983.431730 kJ/mol
# GULP energy per Si atom -12392.265419 kJ/mol
# Density = 2.268130 g / cm^3
# Si number density = 22.733040 Si / 1000 Ang^3
#
#
#
# Elastic Constant Matrix: (Units=GPa)
#
#
# Indices 1 2 3 4 5 6 
#
# 1 117.1487 4.2192 60.7607 0.0000 -6.4599 0.0000
# 2 4.2192 66.4735 3.4685 0.0000 -4.8276 0.0000
# 3 60.7607 3.4685 101.7208 0.0000 -31.1700 0.0000
# 4 0.0000 0.0000 0.0000 15.6820 0.0000 4.6226
# 5 -6.4599 -4.8276 -31.1700 0.0000 32.4071 0.0000
# 6 0.0000 0.0000 0.0000 4.6226 0.0000 19.4997
#
#
#
# Elastic Compliance Matrix: (Units=1/GPa)
#
#
# Indices 1 2 3 4 5 6 
#
# 1 0.013491 -0.000852 -0.010272 0.000000 -0.007317 0.000000
# 2 -0.000852 0.015266 0.000898 0.000000 0.002968 0.000000
# 3 -0.010272 0.000898 0.021764 0.000000 0.019019 0.000000
# 4 0.000000 0.000000 0.000000 0.068558 0.000000 -0.016253
# 5 -0.007317 0.002968 0.019019 0.000000 0.048134 0.000000
# 6 0.000000 0.000000 0.000000 -0.016253 0.000000 0.055136
#
#
# Mechanical properties :
#
#
# Convention : Reuss Voigt Hill
#
# Bulk Modulus (GPa) = 33.25632 46.91554 40.08593
# Shear Modulus (GPa) = 19.77662 27.97738 23.87700
#
# Velocity S-wave (km/s) = 2.95269 3.51193 3.24438
# Velocity P-wave (km/s) = 5.12692 6.09321 5.63084
#
# Compressibility (1/GPa) = 0.03006947
#
# Stress axis : x y z
#
# Youngs Moduli (GPa) = 74.12432 65.50352 45.94797
#
# Poissons Ratio (x) = 0.05579 0.47196
# Poissons Ratio (y) = 0.06313 -0.04124
# Poissons Ratio (z) = 0.76138 -0.05880
#
# Static dielectric constant tensor:
#      x y z
#    x 5.407450 0.000000 0.238420 
#    y 0.000000 4.115250 0.000000 
#    z 0.238420 0.000000 3.892650 
# 
# 
# High freq. dielectric constant tensor:
#      x y z
#    x 1.892710 0.000000 0.003240 
#    y 0.000000 1.894000 0.000000 
#    z 0.003240 0.000000 1.879760 
# 
# From -- ./inp_files/246580.got.cif
#   From: 2010.06.25/outbox.cif.g09.slc.cpg/sg12_124_cif.got.tgz:246580.got - 2010.06.28 00:19:55.
