data_PCOD8111853
_publ_section_title
;
Structure prediction by ZEFSAII (Michael W. Deem and Ramdas Pophale) SiO2 
 PCOD8111853
Probable space group: C 2/M
;
_chemical_formula_sum "Si O2"
_cell_formula_units_Z 56
_cell_length_a 9.600217
_cell_length_b 28.300793
_cell_length_c 22.534853
_cell_angle_alpha 90.000000
_cell_angle_beta 28.148076
_cell_angle_gamma 90.000000
_cell_volume 2888.338151
_symmetry_space_group_name_H-M "C 2/M"
_symmetry_group_IT_number 12
_symmetry_cell_setting 'monoclinic'
loop_
_space_group_symop_operation_xyz
x,y,z
-x,y,-z
-x,-y,-z
x,-y,z
1/2+x,1/2+y,z
1/2-x,1/2+y,-z
1/2-x,1/2-y,-z
1/2+x,1/2-y,z
loop_
_atom_site_type_symbol
_atom_site_label
_atom_site_fract_x
_atom_site_fract_y
_atom_site_fract_z
Si Si1 0.521702 0.000000 0.193473
Si Si2 0.833890 0.830435 0.233550
Si Si3 0.199718 0.595492 0.754661
Si Si4 0.208994 0.401960 0.978064
Si Si5 0.042981 0.000000 0.080121
Si Si6 0.926784 0.766777 0.641539
Si Si7 0.656254 0.654565 0.637217
Si Si8 0.787295 0.343940 0.360604
O O1 0.298310 0.043160 0.271460
O O2 0.699707 0.000000 0.188839
O O3 0.754286 0.000000 0.053403
O O4 0.807635 0.773464 0.249761
O O5 0.900374 0.852537 0.272475
O O6 0.522018 0.845629 0.324694
O O7 0.089763 0.854119 0.097412
O O8 0.533594 0.608001 0.649930
O O9 0.092092 0.627040 0.740313
O O10 0.973505 0.602866 0.893210
O O11 0.394075 0.451484 0.906973
O O12 0.000000 0.402697 0.000000
O O13 0.783076 0.791342 0.637538
O O14 0.250000 0.750000 0.500000
O O15 0.967398 0.801992 0.681704
O O16 0.000000 0.663037 0.500000
O O17 0.500000 0.366273 0.500000
#
# Coordination Sequence:
#
# PCOD8111853 Si02
#       8
#     4   8   8   8   4   8   8   8
#     4   9  18  38  64  92 121 161 211 249 310 380
#     4  12  22  34  61  91 122 158 207 264 310 360
#     4  10  22  41  63  88 130 166 198 261 319 371
#     4  11  22  40  62  93 129 161 206 259 319 379
#     4   9  19  36  66  92 115 163 214 257 294 373
#     4  11  21  37  61  88 118 161 213 261 301 357
#     4  11  21  37  60  88 122 163 214 256 310 362
#     4  11  22  38  61  93 121 161 215 254 306 369
#
# _framework density 19.388311000000002
#
# number of rings (size 3 to 8) (size 9 to 14) (size 15 to 20)
#    0.000    1.286    4.286    2.786    0.000    1.714 
#    0.000    3.571    0.000    1.714    0.000    0.000 
#    0.000    0.000    0.000    0.000    0.000    0.000 
#
# Total GULP energy -346976.250174 kJ/mol
# GULP energy per Si atom -12392.008935 kJ/mol
# Density = 1.934418 g / cm^3
# Si number density = 19.388311 Si / 1000 Ang^3
#
#
#
# Elastic Constant Matrix: (Units=GPa)
#
#
# Indices 1 2 3 4 5 6 
#
# 1 135.8012 51.6193 27.4263 0.0013 -11.4672 0.0031
# 2 51.6193 131.1877 44.8133 0.0012 -13.7195 0.0012
# 3 27.4263 44.8133 52.6598 -0.0028 4.2564 -0.0378
# 4 0.0013 0.0012 -0.0028 29.0316 0.0032 -8.9643
# 5 -11.4672 -13.7195 4.2564 0.0032 32.2813 -0.0047
# 6 0.0031 0.0012 -0.0378 -8.9643 -0.0047 20.5686
#
#
#
# Elastic Compliance Matrix: (Units=1/GPa)
#
#
# Indices 1 2 3 4 5 6 
#
# 1 0.009053 -0.002257 -0.003009 -0.000003 0.002654 -0.000008
# 2 -0.002257 0.012519 -0.009950 -0.000009 0.005831 -0.000021
# 3 -0.003009 -0.009950 0.029770 0.000024 -0.009223 0.000064
# 4 -0.000003 -0.000009 0.000024 0.039801 -0.000009 0.017347
# 5 0.002654 0.005831 -0.009223 -0.000009 0.035614 -0.000014
# 6 -0.000008 -0.000021 0.000064 0.017347 -0.000014 0.056178
#
#
# Mechanical properties :
#
#
# Convention : Reuss Voigt Hill
#
# Bulk Modulus (GPa) = 47.82185 63.04073 55.43129
# Shear Modulus (GPa) = 22.69241 29.42895 26.06068
#
# Velocity S-wave (km/s) = 3.42485 3.90021 3.67023
# Velocity P-wave (km/s) = 6.35282 7.27101 6.82737
#
# Compressibility (1/GPa) = 0.02091094
#
# Stress axis : x y z
#
# Youngs Moduli (GPa) = 110.45637 79.87678 33.59123
#
# Poissons Ratio (x) = 0.18027 0.10108
# Poissons Ratio (y) = 0.24929 0.33422
# Poissons Ratio (z) = 0.33237 0.79475
#
# Static dielectric constant tensor:
#      x y z
#    x 3.905170 -0.000020 0.036530 
#    y -0.000020 3.922770 -0.000010 
#    z 0.036530 -0.000010 3.428470 
# 
# 
# High freq. dielectric constant tensor:
#      x y z
#    x 1.782770 0.000000 -0.000310 
#    y 0.000000 1.749780 0.000000 
#    z -0.000310 0.000000 1.724550 
# 
# From -- ./inp_files/303039.got.cif
#   From: 2010.06.25/outbox.cif.g09.slc.cpg/sg12_152_cif.got.tgz:303039.got - 2010.06.28 00:19:55.
