data_PCOD8111246
_publ_section_title
;
Structure prediction by ZEFSAII (Michael W. Deem and Ramdas Pophale) SiO2 
 PCOD8111246
Probable space group: C 2/M
;
_chemical_formula_sum "Si O2"
_cell_formula_units_Z 56
_cell_length_a 9.180069
_cell_length_b 14.397654
_cell_length_c 25.956296
_cell_angle_alpha 90.000000
_cell_angle_beta 53.760057
_cell_angle_gamma 90.000000
_cell_volume 2767.010588
_symmetry_space_group_name_H-M "C 2/M"
_symmetry_group_IT_number 12
_symmetry_cell_setting 'monoclinic'
loop_
_space_group_symop_operation_xyz
x,y,z
-x,y,-z
-x,-y,-z
x,-y,z
1/2+x,1/2+y,z
1/2-x,1/2+y,-z
1/2-x,1/2-y,-z
1/2+x,1/2-y,z
loop_
_atom_site_type_symbol
_atom_site_label
_atom_site_fract_x
_atom_site_fract_y
_atom_site_fract_z
Si Si1 0.712259 0.308076 0.457198
Si Si2 0.809631 0.610691 0.068644
Si Si3 0.078458 0.817128 0.663154
Si Si4 0.000529 0.108251 0.943831
Si Si5 0.752210 0.000000 0.406200
Si Si6 0.191806 0.249057 0.747168
Si Si7 0.868577 0.500000 0.452023
Si Si8 0.703512 0.219535 0.162810
O O1 0.500000 0.316226 0.500000
O O2 0.750000 0.250000 0.500000
O O3 0.798673 0.261492 0.388856
O O4 0.795282 0.409835 0.439328
O O5 0.790050 0.500000 0.088413
O O6 0.657676 0.644905 0.060109
O O7 0.777859 0.679715 0.124856
O O8 0.000000 0.626806 0.000000
O O9 0.122725 0.913198 0.628291
O O10 0.127729 0.818583 0.713832
O O11 0.865234 0.809632 0.694332
O O12 0.197589 0.132921 0.882780
O O13 0.975099 0.000000 0.954590
O O14 0.000000 0.156339 0.000000
O O15 0.584895 0.000000 0.401808
O O16 0.684450 0.000000 0.477959
O O17 0.259849 0.200412 0.784591
O O18 0.008171 0.301624 0.802077
#
# Coordination Sequence:
#
# PCOD8111246 Si02
#       8
#     8   8   8   8   4   8   4   8
#     4  12  23  40  69  97 133 167 205 271 327 382
#     4  10  22  39  64  96 126 160 207 259 320 379
#     4  11  23  44  64  91 126 167 208 264 309 377
#     4  10  22  39  62  95 127 159 198 257 323 375
#     4  11  22  40  68  96 130 160 211 260 321 392
#     4  10  24  42  61  85 120 167 223 248 303 361
#     4  11  23  38  64 108 124 164 208 252 340 400
#     4  11  21  42  64  88 122 169 209 265 300 378
#
# _framework density 20.238448999999999
#
# number of rings (size 3 to 8) (size 9 to 14) (size 15 to 20)
#    0.000    1.286    2.857    3.214    2.000    1.143 
#    7.714    0.000    3.143    0.000    0.000    0.000 
#    0.000    0.000    0.000    0.000    0.000    0.000 
#
# Total GULP energy -346894.399325 kJ/mol
# GULP energy per Si atom -12389.085690 kJ/mol
# Density = 2.019239 g / cm^3
# Si number density = 20.238449 Si / 1000 Ang^3
#
#
#
# Elastic Constant Matrix: (Units=GPa)
#
#
# Indices 1 2 3 4 5 6 
#
# 1 101.8866 15.5104 32.2914 0.0001 -20.6220 -0.0001
# 2 15.5104 68.3542 20.8422 0.0000 0.0808 0.0000
# 3 32.2914 20.8422 91.5310 -0.0001 -16.7045 0.0000
# 4 0.0001 0.0000 -0.0001 19.7767 0.0000 1.5087
# 5 -20.6220 0.0808 -16.7045 0.0000 51.7776 0.0000
# 6 -0.0001 0.0000 0.0000 1.5087 0.0000 20.7533
#
#
#
# Elastic Compliance Matrix: (Units=1/GPa)
#
#
# Indices 1 2 3 4 5 6 
#
# 1 0.011811 -0.001741 -0.003093 0.000000 0.003709 0.000000
# 2 -0.001741 0.016055 -0.003371 0.000000 -0.001806 0.000000
# 3 -0.003093 -0.003371 0.013346 0.000000 0.003079 0.000000
# 4 0.000000 0.000000 0.000000 0.050846 0.000000 -0.003696
# 5 0.003709 -0.001806 0.003079 0.000000 0.021787 0.000000
# 6 0.000000 0.000000 0.000000 -0.003696 0.000000 0.048454
#
#
# Mechanical properties :
#
#
# Convention : Reuss Voigt Hill
#
# Bulk Modulus (GPa) = 40.32200 44.33997 42.33099
# Shear Modulus (GPa) = 26.74121 31.33670 29.03896
#
# Velocity S-wave (km/s) = 3.63892 3.93921 3.79204
# Velocity P-wave (km/s) = 6.13371 6.53040 6.33516
#
# Compressibility (1/GPa) = 0.02480036
#
# Stress axis : x y z
#
# Youngs Moduli (GPa) = 84.66680 62.28666 74.92795
#
# Poissons Ratio (x) = 0.10845 0.23179
# Poissons Ratio (y) = 0.14742 0.25259
# Poissons Ratio (z) = 0.26192 0.20998
#
# Static dielectric constant tensor:
#      x y z
#    x 4.038320 0.000000 -0.121900 
#    y 0.000000 3.501030 0.000000 
#    z -0.121900 0.000000 4.047120 
# 
# 
# High freq. dielectric constant tensor:
#      x y z
#    x 1.810340 0.000000 -0.007100 
#    y 0.000000 1.768010 0.000000 
#    z -0.007100 0.000000 1.805840 
# 
# From -- ./inp_files/332877.got.cif
#   From: 2010.06.25/outbox.cif.g09.slc.cpg/sg12_167_cif.got.tgz:332877.got - 2010.06.28 00:19:55.
