data_PCOD8111198
_publ_section_title
;
Structure prediction by ZEFSAII (Michael W. Deem and Ramdas Pophale) SiO2 
 PCOD8111198
Probable space group: C 2/M
;
_chemical_formula_sum "Si O2"
_cell_formula_units_Z 56
_cell_length_a 16.356366
_cell_length_b 14.006033
_cell_length_c 12.164271
_cell_angle_alpha 90.000000
_cell_angle_beta 119.606392
_cell_angle_gamma 90.000000
_cell_volume 2422.855864
_symmetry_space_group_name_H-M "C 2/M"
_symmetry_group_IT_number 12
_symmetry_cell_setting 'monoclinic'
loop_
_space_group_symop_operation_xyz
x,y,z
-x,y,-z
-x,-y,-z
x,-y,z
1/2+x,1/2+y,z
1/2-x,1/2+y,-z
1/2-x,1/2-y,-z
1/2+x,1/2-y,z
loop_
_atom_site_type_symbol
_atom_site_label
_atom_site_fract_x
_atom_site_fract_y
_atom_site_fract_z
Si Si1 0.528159 0.896625 0.718368
Si Si2 0.993750 0.802350 0.370844
Si Si3 0.397152 0.697307 0.929792
Si Si4 0.307731 0.896123 0.596698
Si Si5 0.344027 0.606764 0.113594
Si Si6 0.181653 0.809624 0.348093
Si Si7 0.629111 0.894653 0.014895
O O1 0.544131 0.807473 0.647845
O O2 0.418914 0.901833 0.673208
O O3 0.588714 0.875736 0.867059
O O4 0.559085 0.000000 0.687969
O O5 0.093226 0.809435 0.373536
O O6 0.000000 0.840852 0.500000
O O7 0.918112 0.864300 0.255623
O O8 0.345456 0.652889 0.790203
O O9 0.500000 0.650774 0.000000
O O10 0.344079 0.674300 0.006915
O O11 0.407394 0.813081 0.926190
O O12 0.263154 0.880246 0.445132
O O13 0.277195 0.799176 0.640340
O O14 0.270089 0.000000 0.617216
O O15 0.368568 0.500000 0.091087
O O16 0.240988 0.612509 0.094470
O O17 0.597607 0.000000 0.036404
#
# Coordination Sequence:
#
# PCOD8111198 Si02
#       7
#     8   8   8   8   8   8   8
#     4   9  18  38  64  93 123 159 210 258 318 385
#     4  11  23  42  65  89 125 173 217 267 319 382
#     4  12  22  41  69  97 133 168 214 274 329 379
#     4   9  19  38  60  85 127 164 201 259 311 372
#     4  11  25  44  65  97 133 173 220 262 320 388
#     4  10  22  39  61  97 124 163 220 260 321 387
#     4  10  22  41  67  98 133 170 210 262 327 395
#
# _framework density 23.113219000000001
#
# number of rings (size 3 to 8) (size 9 to 14) (size 15 to 20)
#    0.000    1.714    2.857    1.286    0.000    6.286 
#    0.000    1.429    0.000    0.000    0.000    0.000 
#    0.000    0.000    0.000    0.000    0.000    0.000 
#
# Total GULP energy -346930.281711 kJ/mol
# GULP energy per Si atom -12390.367204 kJ/mol
# Density = 2.306061 g / cm^3
# Si number density = 23.113219 Si / 1000 Ang^3
#
#
#
# Elastic Constant Matrix: (Units=GPa)
#
#
# Indices 1 2 3 4 5 6 
#
# 1 40.7675 10.7969 22.8777 0.0000 6.8984 0.0000
# 2 10.7969 82.3196 6.3020 0.0000 8.3489 0.0000
# 3 22.8777 6.3020 146.1736 0.0000 7.4267 0.0000
# 4 0.0000 0.0000 0.0000 56.7299 0.0000 33.3801
# 5 6.8984 8.3489 7.4267 0.0000 37.4347 0.0000
# 6 0.0000 0.0000 0.0000 33.3801 0.0000 35.5033
#
#
#
# Elastic Compliance Matrix: (Units=1/GPa)
#
#
# Indices 1 2 3 4 5 6 
#
# 1 0.028261 -0.003015 -0.004104 0.000000 -0.003721 0.000000
# 2 -0.003015 0.012774 0.000038 0.000000 -0.002301 0.000000
# 3 -0.004104 0.000038 0.007520 0.000000 -0.000744 0.000000
# 4 0.000000 0.000000 0.000000 0.039454 0.000000 -0.037095
# 5 -0.003721 -0.002301 -0.000744 0.000000 0.028060 0.000000
# 6 0.000000 0.000000 0.000000 -0.037095 0.000000 0.063043
#
#
# Mechanical properties :
#
#
# Convention : Reuss Voigt Hill
#
# Bulk Modulus (GPa) = 29.07656 38.80153 33.93905
# Shear Modulus (GPa) = 24.42169 41.21917 32.82043
#
# Velocity S-wave (km/s) = 3.25408 4.22757 3.77236
# Velocity P-wave (km/s) = 5.16973 6.37603 5.80430
#
# Compressibility (1/GPa) = 0.03439196
#
# Stress axis : x y z
#
# Youngs Moduli (GPa) = 35.38497 78.28612 132.98465
#
# Poissons Ratio (x) = 0.23603 0.54577
# Poissons Ratio (y) = 0.10669 -0.00506
# Poissons Ratio (z) = 0.14522 -0.00298
#
# Static dielectric constant tensor:
#      x y z
#    x 3.689770 0.000000 0.421370 
#    y 0.000000 4.818210 0.000000 
#    z 0.421370 0.000000 4.249650 
# 
# 
# High freq. dielectric constant tensor:
#      x y z
#    x 1.875530 0.000000 0.035550 
#    y 0.000000 1.922000 0.000000 
#    z 0.035550 0.000000 1.926320 
# 
# From -- ./inp_files/156714.got.cif
#   From: 2010.06.25/outbox.cif.g09.slc.cpg/sg12_79_cif.got.tgz:156714.got - 2010.06.28 00:19:55.
