data_PCOD8111520
_publ_section_title
;
Structure prediction by ZEFSAII (Michael W. Deem and Ramdas Pophale) SiO2 
 PCOD8111520
Probable space group: C 2/M
;
_chemical_formula_sum "Si O2"
_cell_formula_units_Z 40
_cell_length_a 26.975068
_cell_length_b 8.591877
_cell_length_c 18.401816
_cell_angle_alpha 90.000000
_cell_angle_beta 27.211562
_cell_angle_gamma 90.000000
_cell_volume 1950.253287
_symmetry_space_group_name_H-M "C 2/M"
_symmetry_group_IT_number 12
_symmetry_cell_setting 'monoclinic'
loop_
_space_group_symop_operation_xyz
x,y,z
-x,y,-z
-x,-y,-z
x,-y,z
1/2+x,1/2+y,z
1/2-x,1/2+y,-z
1/2-x,1/2-y,-z
1/2+x,1/2-y,z
loop_
_atom_site_type_symbol
_atom_site_label
_atom_site_fract_x
_atom_site_fract_y
_atom_site_fract_z
Si Si1 0.227376 0.321127 0.248397
Si Si2 0.836459 0.318320 0.832369
Si Si3 0.365615 0.817926 0.368398
Si Si4 0.044244 0.320372 0.022735
Si Si5 0.565847 0.319437 0.569875
O O1 0.201166 0.500000 0.301385
O O2 0.207041 0.285464 0.190991
O O3 0.150660 0.210978 0.395354
O O4 0.351180 0.286064 0.105003
O O5 0.854250 0.500000 0.824485
O O6 0.948409 0.229420 0.695868
O O7 0.750000 0.250000 0.000000
O O8 0.250000 0.750000 0.500000
O O9 0.454918 0.755318 0.195304
O O10 0.400685 0.777033 0.403527
O O11 0.355688 0.000000 0.372465
O O12 0.073869 0.500000 0.000410
O O13 0.000000 0.299552 0.000000
O O14 0.566723 0.500000 0.589157
#
# Coordination Sequence:
#
# PCOD8111520 Si02
#       5
#     8   8   8   8   8
#     4  11  24  41  63  91 122 158 203 256 309 364
#     4  11  24  42  64  92 125 160 203 254 309 369
#     4  11  23  40  64  93 127 164 204 253 306 363
#     4  10  22  40  62  90 123 159 200 247 301 364
#     4  12  25  41  63  90 123 164 208 253 305 365
#
# _framework density 20.510157
#
# number of rings (size 3 to 8) (size 9 to 14) (size 15 to 20)
#    0.000    1.000    0.000    6.600    0.000   12.400 
#    0.000    0.000    0.000    0.000    0.000    0.000 
#    0.000    0.000    0.000    0.000    0.000    0.000 
#
# Total GULP energy -248155.669688 kJ/mol
# GULP energy per Si atom -12407.783484 kJ/mol
# Density = 2.046347 g / cm^3
# Si number density = 20.510157 Si / 1000 Ang^3
#
#
#
# Elastic Constant Matrix: (Units=GPa)
#
#
# Indices 1 2 3 4 5 6 
#
# 1 96.6883 13.8209 44.9216 0.0006 0.4305 0.0000
# 2 13.8209 45.3843 32.4899 0.0056 0.1223 -0.0003
# 3 44.9216 32.4899 162.1006 0.0015 1.0762 0.0001
# 4 0.0006 0.0056 0.0015 39.4041 -0.0003 -2.2711
# 5 0.4305 0.1223 1.0762 -0.0003 44.6989 -0.0002
# 6 0.0000 -0.0003 0.0001 -2.2711 -0.0002 28.3647
#
#
#
# Elastic Compliance Matrix: (Units=1/GPa)
#
#
# Indices 1 2 3 4 5 6 
#
# 1 0.011956 -0.001482 -0.003016 0.000000 -0.000038 0.000000
# 2 -0.001482 0.025909 -0.004783 -0.000003 0.000059 0.000000
# 3 -0.003016 -0.004783 0.007964 0.000000 -0.000150 0.000000
# 4 0.000000 -0.000003 0.000000 0.025496 0.000000 0.002041
# 5 -0.000038 0.000059 -0.000150 0.000000 0.022376 0.000000
# 6 0.000000 0.000000 0.000000 0.002041 0.000000 0.035419
#
#
# Mechanical properties :
#
#
# Convention : Reuss Voigt Hill
#
# Bulk Modulus (GPa) = 36.67258 54.07088 45.37173
# Shear Modulus (GPa) = 31.89402 36.68960 34.29181
#
# Velocity S-wave (km/s) = 3.94767 4.23407 4.09338
# Velocity P-wave (km/s) = 6.22076 7.09389 6.67163
#
# Compressibility (1/GPa) = 0.02726833
#
# Stress axis : x y z
#
# Youngs Moduli (GPa) = 83.64211 38.59667 125.55894
#
# Poissons Ratio (x) = 0.05719 0.37868
# Poissons Ratio (y) = 0.12393 0.60051
# Poissons Ratio (z) = 0.25226 0.18460
#
# Static dielectric constant tensor:
#      x y z
#    x 3.848110 0.000000 0.083200 
#    y 0.000000 3.769800 0.000000 
#    z 0.083200 0.000000 4.050160 
# 
# 
# High freq. dielectric constant tensor:
#      x y z
#    x 1.820130 0.000000 0.001190 
#    y 0.000000 1.808970 0.000000 
#    z 0.001190 0.000000 1.822610 
# 
# From -- ./inp_files/288590.got.cif
#   From: 2010.06.25/outbox.cif.g09.slc.cpg/sg12_145_cif.got.tgz:288590.got - 2010.06.28 00:19:55.
