data_PCOD8111511
_publ_section_title
;
Structure prediction by ZEFSAII (Michael W. Deem and Ramdas Pophale) SiO2 
 PCOD8111511
Probable space group: C 2/M
;
_chemical_formula_sum "Si O2"
_cell_formula_units_Z 56
_cell_length_a 23.397745
_cell_length_b 14.455001
_cell_length_c 9.075847
_cell_angle_alpha 90.000000
_cell_angle_beta 118.590418
_cell_angle_gamma 90.000000
_cell_volume 2695.286784
_symmetry_space_group_name_H-M "C 2/M"
_symmetry_group_IT_number 12
_symmetry_cell_setting 'monoclinic'
loop_
_space_group_symop_operation_xyz
x,y,z
-x,y,-z
-x,-y,-z
x,-y,z
1/2+x,1/2+y,z
1/2-x,1/2+y,-z
1/2-x,1/2-y,-z
1/2+x,1/2-y,z
loop_
_atom_site_type_symbol
_atom_site_label
_atom_site_fract_x
_atom_site_fract_y
_atom_site_fract_z
Si Si1 0.058506 0.608178 0.184303
Si Si2 0.206081 0.607050 0.319074
Si Si3 0.484958 0.608515 0.142405
Si Si4 0.730247 0.898315 0.683680
Si Si5 0.159327 0.896749 0.972506
Si Si6 0.949402 0.244374 0.567242
Si Si7 0.188064 0.216457 0.735144
O O1 0.052418 0.500000 0.219664
O O2 0.129128 0.626381 0.195140
O O3 0.055700 0.666182 0.332756
O O4 0.000000 0.636418 0.000000
O O5 0.222895 0.500000 0.306200
O O6 0.223630 0.633142 0.508061
O O7 0.251421 0.672948 0.278722
O O8 0.497557 0.500000 0.165945
O O9 0.412338 0.638436 0.088311
O O10 0.529689 0.655409 0.316720
O O11 0.500000 0.648137 0.000000
O O12 0.694183 0.827632 0.748195
O O13 0.698780 0.000000 0.667227
O O14 0.805655 0.898310 0.825404
O O15 0.193265 0.825210 0.904144
O O16 0.160466 0.000000 0.903864
O O17 0.882298 0.202252 0.422897
O O18 0.000000 0.269616 0.500000
#
# Coordination Sequence:
#
# PCOD8111511 Si02
#       7
#     8   8   8   8   8   8   8
#     4  10  23  46  70  94 127 168 216 268 318 377
#     4  10  22  41  66  97 125 161 212 261 315 380
#     4  10  23  41  62  89 124 168 216 262 316 383
#     4  10  22  40  62  88 124 163 207 257 308 375
#     4  10  22  41  61  89 126 164 208 261 318 379
#     4  12  25  41  63  96 131 171 216 262 321 379
#     4  12  23  39  64  94 130 165 207 260 324 374
#
# _framework density 20.777011000000002
#
# number of rings (size 3 to 8) (size 9 to 14) (size 15 to 20)
#    0.000    1.429    2.857    1.714    2.000    2.857 
#    2.571    0.000    0.000    0.000    0.000    0.000 
#    0.000    0.000    0.000    0.000    0.000    0.000 
#
# Total GULP energy -347100.147315 kJ/mol
# GULP energy per Si atom -12396.433833 kJ/mol
# Density = 2.072972 g / cm^3
# Si number density = 20.777011 Si / 1000 Ang^3
#
#
#
# Elastic Constant Matrix: (Units=GPa)
#
#
# Indices 1 2 3 4 5 6 
#
# 1 120.1168 47.8784 39.9412 0.0000 1.1176 0.0000
# 2 47.8784 71.9180 19.5778 0.0000 -9.0699 0.0000
# 3 39.9412 19.5778 97.6556 0.0000 10.8782 0.0000
# 4 0.0000 0.0000 0.0000 34.0902 0.0000 -0.5749
# 5 1.1176 -9.0699 10.8782 0.0000 37.2267 0.0000
# 6 0.0000 0.0000 0.0000 -0.5749 0.0000 30.1893
#
#
#
# Elastic Compliance Matrix: (Units=1/GPa)
#
#
# Indices 1 2 3 4 5 6 
#
# 1 0.012486 -0.007519 -0.003466 0.000000 -0.001194 0.000000
# 2 -0.007519 0.020037 -0.001561 0.000000 0.005564 0.000000
# 3 -0.003466 -0.001561 0.012405 0.000000 -0.003901 0.000000
# 4 0.000000 0.000000 0.000000 0.029343 0.000000 0.000559
# 5 -0.001194 0.005564 -0.003901 0.000000 0.029394 0.000000
# 6 0.000000 0.000000 0.000000 0.000559 0.000000 0.033135
#
#
# Mechanical properties :
#
#
# Convention : Reuss Voigt Hill
#
# Bulk Modulus (GPa) = 50.41688 56.05392 53.23540
# Shear Modulus (GPa) = 29.67228 32.45411 31.06320
#
# Velocity S-wave (km/s) = 3.78316 3.95653 3.87082
# Velocity P-wave (km/s) = 6.58798 6.92167 6.75689
#
# Compressibility (1/GPa) = 0.01983463
#
# Stress axis : x y z
#
# Youngs Moduli (GPa) = 80.08819 49.90649 80.60978
#
# Poissons Ratio (x) = 0.37527 0.27942
# Poissons Ratio (y) = 0.60222 0.12586
# Poissons Ratio (z) = 0.27762 0.07792
#
# Static dielectric constant tensor:
#      x y z
#    x 3.963420 0.000000 0.650020 
#    y 0.000000 3.882470 0.000000 
#    z 0.650020 0.000000 5.076950 
# 
# 
# High freq. dielectric constant tensor:
#      x y z
#    x 1.804940 0.000000 0.016820 
#    y 0.000000 1.825990 0.000000 
#    z 0.016820 0.000000 1.822710 
# 
# From -- ./inp_files/96969.got.cif
#   From: 2010.06.25/outbox.cif.g09.slc.cpg/sg12_49_cif.got.tgz:96969.got - 2010.06.28 00:19:55.
