data_PCOD8111014
_publ_section_title
;
Structure prediction by ZEFSAII (Michael W. Deem and Ramdas Pophale) SiO2 
 PCOD8111014
Probable space group: C 2/M
;
_chemical_formula_sum "Si O2"
_cell_formula_units_Z 56
_cell_length_a 29.278749
_cell_length_b 8.901899
_cell_length_c 11.805523
_cell_angle_alpha 90.000000
_cell_angle_beta 69.603767
_cell_angle_gamma 90.000000
_cell_volume 2884.040139
_symmetry_space_group_name_H-M "C 2/M"
_symmetry_group_IT_number 12
_symmetry_cell_setting 'monoclinic'
loop_
_space_group_symop_operation_xyz
x,y,z
-x,y,-z
-x,-y,-z
x,-y,z
1/2+x,1/2+y,z
1/2-x,1/2+y,-z
1/2-x,1/2-y,-z
1/2+x,1/2-y,z
loop_
_atom_site_type_symbol
_atom_site_label
_atom_site_fract_x
_atom_site_fract_y
_atom_site_fract_z
Si Si1 0.261259 0.676757 0.609219
Si Si2 0.829322 0.323695 0.157804
Si Si3 0.479444 0.677234 0.845467
Si Si4 0.542951 0.320579 0.383239
Si Si5 0.349171 0.678147 0.681720
Si Si6 0.575258 0.322654 0.885691
Si Si7 0.302631 0.678232 0.954955
O O1 0.262800 0.500000 0.589520
O O2 0.250000 0.750000 0.500000
O O3 0.219363 0.721952 0.733798
O O4 0.312802 0.737785 0.614750
O O5 0.831063 0.500000 0.133310
O O6 0.876093 0.268626 0.188868
O O7 0.832263 0.234461 0.037610
O O8 0.473980 0.500000 0.847240
O O9 0.464641 0.745639 0.736715
O O10 0.535351 0.719027 0.825113
O O11 0.443924 0.735497 0.975349
O O12 0.500000 0.256838 0.500000
O O13 0.540997 0.500000 0.381584
O O14 0.595375 0.265604 0.386191
O O15 0.347175 0.500000 0.682593
O O16 0.331327 0.734941 0.819491
O O17 0.585950 0.500000 0.877046
O O18 0.297679 0.500000 0.961294
O O19 0.250000 0.750000 0.000000
#
# Coordination Sequence:
#
# PCOD8111014 Si02
#       7
#     8   8   8   8   8   8   8
#     4  10  22  39  54  73 105 144 181 222 268 322
#     4  11  22  36  52  79 114 143 180 226 270 325
#     4   8  15  29  48  75 106 132 173 226 269 317
#     4   9  16  26  45  73 102 135 172 213 264 319
#     4   9  18  34  53  76 110 142 171 221 278 318
#     4   9  17  31  53  77 103 138 176 220 272 322
#     4  11  20  34  57  82 110 144 180 223 278 331
#
# _framework density 19.417206
#
# number of rings (size 3 to 8) (size 9 to 14) (size 15 to 20)
#    0.000    2.429    1.429    2.571    0.000    4.571 
#    0.000    4.286    0.000    0.000    0.000    0.000 
#    0.000    8.571    0.000    0.000    0.000    0.000 
#
# Total GULP energy -347122.685054 kJ/mol
# GULP energy per Si atom -12397.238752 kJ/mol
# Density = 1.937301 g / cm^3
# Si number density = 19.417206 Si / 1000 Ang^3
#
#
#
# Elastic Constant Matrix: (Units=GPa)
#
#
# Indices 1 2 3 4 5 6 
#
# 1 176.0369 26.0600 75.7572 0.0000 -6.3205 0.0000
# 2 26.0600 31.3489 24.3575 0.0000 -2.8138 0.0000
# 3 75.7572 24.3575 105.3808 0.0000 4.8272 0.0000
# 4 0.0000 0.0000 0.0000 21.0091 0.0000 -0.5114
# 5 -6.3205 -2.8138 4.8272 0.0000 39.0022 0.0000
# 6 0.0000 0.0000 0.0000 -0.5114 0.0000 27.7996
#
#
#
# Elastic Compliance Matrix: (Units=1/GPa)
#
#
# Indices 1 2 3 4 5 6 
#
# 1 0.008558 -0.002554 -0.005649 0.000000 0.001902 0.000000
# 2 -0.002554 0.040256 -0.007626 0.000000 0.003434 0.000000
# 3 -0.005649 -0.007626 0.015468 0.000000 -0.003380 0.000000
# 4 0.000000 0.000000 0.000000 0.047620 0.000000 0.000876
# 5 0.001902 0.003434 -0.003380 0.000000 0.026614 0.000000
# 6 0.000000 0.000000 0.000000 0.000876 0.000000 0.035988
#
#
# Mechanical properties :
#
#
# Convention : Reuss Voigt Hill
#
# Bulk Modulus (GPa) = 30.65268 62.79064 46.72166
# Shear Modulus (GPa) = 23.03770 30.00165 26.51967
#
# Velocity S-wave (km/s) = 3.44824 3.93505 3.69966
# Velocity P-wave (km/s) = 5.62800 7.28382 6.50878
#
# Compressibility (1/GPa) = 0.03262358
#
# Stress axis : x y z
#
# Youngs Moduli (GPa) = 116.84824 24.84123 64.65030
#
# Poissons Ratio (x) = 0.06345 0.36521
# Poissons Ratio (y) = 0.29847 0.49300
# Poissons Ratio (z) = 0.66008 0.18943
#
# Static dielectric constant tensor:
#      x y z
#    x 3.947710 0.000000 0.072420 
#    y 0.000000 3.043940 0.000000 
#    z 0.072420 0.000000 3.701460 
# 
# 
# High freq. dielectric constant tensor:
#      x y z
#    x 1.779300 0.000000 -0.001820 
#    y 0.000000 1.702310 0.000000 
#    z -0.001820 0.000000 1.748760 
# 
# From -- ./inp_files/187268.got.cif
#   From: 2010.06.25/outbox.cif.g09.slc.cpg/sg12_94_cif.got.tgz:187268.got - 2010.06.28 00:19:55.
