data_PCOD8111559
_publ_section_title
;
Structure prediction by ZEFSAII (Michael W. Deem and Ramdas Pophale) SiO2 
 PCOD8111559
Probable space group: C 2/M
;
_chemical_formula_sum "Si O2"
_cell_formula_units_Z 56
_cell_length_a 23.403666
_cell_length_b 8.575534
_cell_length_c 15.056266
_cell_angle_alpha 90.000000
_cell_angle_beta 116.362051
_cell_angle_gamma 90.000000
_cell_volume 2707.530085
_symmetry_space_group_name_H-M "C 2/M"
_symmetry_group_IT_number 12
_symmetry_cell_setting 'monoclinic'
loop_
_space_group_symop_operation_xyz
x,y,z
-x,y,-z
-x,-y,-z
x,-y,z
1/2+x,1/2+y,z
1/2-x,1/2+y,-z
1/2-x,1/2-y,-z
1/2+x,1/2-y,z
loop_
_atom_site_type_symbol
_atom_site_label
_atom_site_fract_x
_atom_site_fract_y
_atom_site_fract_z
Si Si1 0.988341 0.815529 0.593412
Si Si2 0.058271 0.317025 0.802206
Si Si3 0.319179 0.318066 0.029976
Si Si4 0.158791 0.677865 0.140393
Si Si5 0.965029 0.177495 0.882903
Si Si6 0.771887 0.319340 0.641114
Si Si7 0.349455 0.682942 0.544110
O O1 0.918982 0.746972 0.572268
O O2 0.000000 0.769448 0.500000
O O3 0.041314 0.730813 0.690077
O O4 0.994135 0.000000 0.612402
O O5 0.051605 0.500000 0.811917
O O6 0.130746 0.266219 0.871147
O O7 0.010990 0.229900 0.836190
O O8 0.320098 0.500000 0.052158
O O9 0.250000 0.250000 0.000000
O O10 0.337670 0.293096 0.940096
O O11 0.156933 0.500000 0.104494
O O12 0.096555 0.712483 0.156322
O O13 0.219313 0.705174 0.247222
O O14 0.944102 0.000000 0.849764
O O15 0.000000 0.193489 0.000000
O O16 0.778793 0.500000 0.619859
O O17 0.702522 0.254852 0.563774
O O18 0.827474 0.228159 0.627500
O O19 0.355444 0.500000 0.539130
#
# Coordination Sequence:
#
# PCOD8111559 Si02
#       7
#     8   8   8   8   8   8   8
#     4  10  22  40  63  89 119 161 209 255 307 369
#     4  12  25  42  65  93 126 163 205 260 318 372
#     4  12  26  45  65  88 121 161 205 251 303 370
#     4  11  22  37  60  92 126 161 202 251 307 369
#     4  11  22  37  61  91 124 163 205 255 310 370
#     4   9  19  34  55  85 119 154 193 241 299 357
#     4   9  18  35  57  83 116 153 197 245 297 356
#
# _framework density 20.683057000000002
#
# number of rings (size 3 to 8) (size 9 to 14) (size 15 to 20)
#    0.000    1.429    1.429    4.286    0.000    6.000 
#    0.000    2.857    0.000    0.000    0.000    0.000 
#    0.000    0.000    0.000    0.000    0.000    0.000 
#
# Total GULP energy -347294.702157 kJ/mol
# GULP energy per Si atom -12403.382220 kJ/mol
# Density = 2.063598 g / cm^3
# Si number density = 20.683057 Si / 1000 Ang^3
#
#
#
# Elastic Constant Matrix: (Units=GPa)
#
#
# Indices 1 2 3 4 5 6 
#
# 1 98.0241 7.6713 48.2302 0.0000 12.9590 0.0000
# 2 7.6713 61.1686 34.0662 0.0000 -0.5859 0.0000
# 3 48.2302 34.0662 138.2725 0.0000 6.0205 0.0000
# 4 0.0000 0.0000 0.0000 30.6565 0.0000 -0.5036
# 5 12.9590 -0.5859 6.0205 0.0000 26.4010 0.0000
# 6 0.0000 0.0000 0.0000 -0.5036 0.0000 30.8277
#
#
#
# Elastic Compliance Matrix: (Units=1/GPa)
#
#
# Indices 1 2 3 4 5 6 
#
# 1 0.013076 0.000833 -0.004533 0.000000 -0.005366 0.000000
# 2 0.000833 0.019060 -0.005037 0.000000 0.001163 0.000000
# 3 -0.004533 -0.005037 0.010062 0.000000 -0.000182 0.000000
# 4 0.000000 0.000000 0.000000 0.032628 0.000000 0.000533
# 5 -0.005366 0.001163 -0.000182 0.000000 0.040579 0.000000
# 6 0.000000 0.000000 0.000000 0.000533 0.000000 0.032447
#
#
# Mechanical properties :
#
#
# Convention : Reuss Voigt Hill
#
# Bulk Modulus (GPa) = 40.44508 53.04452 46.74480
# Shear Modulus (GPa) = 28.80735 31.41019 30.10877
#
# Velocity S-wave (km/s) = 3.73607 3.90121 3.81953
# Velocity P-wave (km/s) = 6.18127 6.78193 6.48856
#
# Compressibility (1/GPa) = 0.02472489
#
# Stress axis : x y z
#
# Youngs Moduli (GPa) = 76.47645 52.46539 99.38438
#
# Poissons Ratio (x) = -0.04370 0.45046
# Poissons Ratio (y) = -0.06370 0.50060
# Poissons Ratio (z) = 0.34663 0.26427
#
# Static dielectric constant tensor:
#      x y z
#    x 3.844900 0.000000 0.099960 
#    y 0.000000 3.658680 0.000000 
#    z 0.099960 0.000000 4.194350 
# 
# 
# High freq. dielectric constant tensor:
#      x y z
#    x 1.800570 0.000000 0.011760 
#    y 0.000000 1.804430 0.000000 
#    z 0.011760 0.000000 1.824970 
# 
# From -- ./inp_files/238957.got.cif
#   From: 2010.06.25/outbox.cif.g09.slc.cpg/sg12_120_cif.got.tgz:238957.got - 2010.06.28 00:19:55.
