data_PCOD8111532
_publ_section_title
;
Structure prediction by ZEFSAII (Michael W. Deem and Ramdas Pophale) SiO2 
 PCOD8111532
Probable space group: C 2/M
;
_chemical_formula_sum "Si O2"
_cell_formula_units_Z 36
_cell_length_a 17.973715
_cell_length_b 9.901994
_cell_length_c 20.716880
_cell_angle_alpha 90.000000
_cell_angle_beta 151.410855
_cell_angle_gamma 90.000000
_cell_volume 1764.371182
_symmetry_space_group_name_H-M "C 2/M"
_symmetry_group_IT_number 12
_symmetry_cell_setting 'monoclinic'
loop_
_space_group_symop_operation_xyz
x,y,z
-x,y,-z
-x,-y,-z
x,-y,z
1/2+x,1/2+y,z
1/2-x,1/2+y,-z
1/2-x,1/2-y,-z
1/2+x,1/2-y,z
loop_
_atom_site_type_symbol
_atom_site_label
_atom_site_fract_x
_atom_site_fract_y
_atom_site_fract_z
Si Si1 0.506383 0.500000 0.429616
Si Si2 0.402425 0.500000 0.763401
Si Si3 0.821415 0.000000 0.845220
Si Si4 0.927075 0.751741 0.155230
Si Si5 0.125407 0.500000 0.314208
Si Si6 0.907297 0.270416 0.291273
Si Si7 0.377033 0.000000 0.536823
O O1 0.500000 0.500000 0.500000
O O2 0.688981 0.500000 0.551810
O O3 0.410345 0.629680 0.331508
O O4 0.302909 0.500000 0.753448
O O5 0.510091 0.371580 0.840427
O O6 0.297140 0.500000 0.619338
O O7 0.747967 0.138068 0.818713
O O8 0.000000 0.000000 0.000000
O O9 0.937679 0.769465 0.240214
O O10 0.034844 0.626968 0.214684
O O11 0.750000 0.750000 0.000000
O O12 0.096781 0.500000 0.367709
O O13 0.042875 0.362104 0.426518
#
# Coordination Sequence:
#
# PCOD8111532 Si02
#       7
#     4   4   4   8   4   8   4
#     4  12  26  39  60  91 138 169 215 261 327 385
#     4  12  23  35  68  92 117 161 222 254 315 388
#     4  11  25  44  64  93 129 170 216 265 322 389
#     4  11  22  40  66  94 122 165 215 263 323 393
#     4  10  22  40  62  91 132 160 204 274 318 371
#     4  10  23  42  63  90 133 165 205 273 322 383
#     4   9  20  39  66  91 116 158 213 257 322 376
#
# _framework density 20.403867999999999
#
# number of rings (size 3 to 8) (size 9 to 14) (size 15 to 20)
#    0.000    1.333    0.000    6.000    6.222    4.444 
#    0.000    0.556    0.000    0.000    0.000    0.000 
#    0.000    0.000    0.000    0.000    0.000    0.000 
#
# Total GULP energy -223080.378063 kJ/mol
# GULP energy per Si atom -12393.354337 kJ/mol
# Density = 2.035743 g / cm^3
# Si number density = 20.403868 Si / 1000 Ang^3
#
#
#
# Elastic Constant Matrix: (Units=GPa)
#
#
# Indices 1 2 3 4 5 6 
#
# 1 74.2117 36.7705 -6.0074 0.0003 3.4286 0.0004
# 2 36.7705 160.1658 31.8085 0.0018 7.2967 0.0013
# 3 -6.0074 31.8085 97.5323 0.0010 20.5658 0.0013
# 4 0.0003 0.0018 0.0010 36.8751 0.0002 -4.0850
# 5 3.4286 7.2967 20.5658 0.0002 38.2002 0.0004
# 6 0.0004 0.0013 0.0013 -4.0850 0.0004 36.8619
#
#
#
# Elastic Compliance Matrix: (Units=1/GPa)
#
#
# Indices 1 2 3 4 5 6 
#
# 1 0.015818 -0.004082 0.002753 0.000000 -0.002122 0.000000
# 2 -0.004082 0.007730 -0.002863 0.000000 0.000431 0.000000
# 3 0.002753 -0.002863 0.012739 0.000000 -0.006559 0.000000
# 4 0.000000 0.000000 0.000000 0.027456 0.000000 0.003043
# 5 -0.002122 0.000431 -0.006559 0.000000 0.029817 0.000000
# 6 0.000000 0.000000 0.000000 0.003043 0.000000 0.027465
#
#
# Mechanical properties :
#
#
# Convention : Reuss Voigt Hill
#
# Bulk Modulus (GPa) = 35.83795 50.78368 43.31082
# Shear Modulus (GPa) = 36.04647 40.34333 38.19490
#
# Velocity S-wave (km/s) = 4.20771 4.45144 4.33129
# Velocity P-wave (km/s) = 6.41941 7.16685 6.80340
#
# Compressibility (1/GPa) = 0.02790338
#
# Stress axis : x y z
#
# Youngs Moduli (GPa) = 63.21837 129.37385 78.49708
#
# Poissons Ratio (x) = 0.52805 -0.21610
# Poissons Ratio (y) = 0.25803 0.22475
# Poissons Ratio (z) = -0.17404 0.37042
#
# Static dielectric constant tensor:
#      x y z
#    x 3.482780 0.000000 -0.051120 
#    y 0.000000 4.151780 -0.000010 
#    z -0.051120 -0.000010 3.630300 
# 
# 
# High freq. dielectric constant tensor:
#      x y z
#    x 1.792340 0.000000 0.004880 
#    y 0.000000 1.813580 0.000000 
#    z 0.004880 0.000000 1.802090 
# 
# From -- ./inp_files/314988.got.cif
#   From: 2010.06.25/outbox.cif.g09.slc.cpg/sg12_158_cif.got.tgz:314988.got - 2010.06.28 00:19:55.
