data_PCOD8111913
_publ_section_title
;
Structure prediction by ZEFSAII (Michael W. Deem and Ramdas Pophale) SiO2 
 PCOD8111913
Probable space group: C 2/M
;
_chemical_formula_sum "Si O2"
_cell_formula_units_Z 56
_cell_length_a 11.908159
_cell_length_b 16.968426
_cell_length_c 15.362515
_cell_angle_alpha 90.000000
_cell_angle_beta 120.010589
_cell_angle_gamma 90.000000
_cell_volume 2688.021793
_symmetry_space_group_name_H-M "C 2/M"
_symmetry_group_IT_number 12
_symmetry_cell_setting 'monoclinic'
loop_
_space_group_symop_operation_xyz
x,y,z
-x,y,-z
-x,-y,-z
x,-y,z
1/2+x,1/2+y,z
1/2-x,1/2+y,-z
1/2-x,1/2-y,-z
1/2+x,1/2-y,z
loop_
_atom_site_type_symbol
_atom_site_label
_atom_site_fract_x
_atom_site_fract_y
_atom_site_fract_z
Si Si1 0.116564 0.589979 0.982501
Si Si2 0.417333 0.592930 0.340737
Si Si3 0.137840 0.647917 0.808286
Si Si4 0.317838 0.593247 0.485066
Si Si5 0.424254 0.589759 0.881017
Si Si6 0.034731 0.593391 0.415741
Si Si7 0.135858 0.828445 0.852304
O O1 0.151578 0.500000 0.019891
O O2 0.241756 0.645086 0.042836
O O3 0.081419 0.594803 0.865990
O O4 0.000000 0.619445 0.000000
O O5 0.401418 0.500000 0.323843
O O6 0.348753 0.625120 0.401010
O O7 0.569334 0.618022 0.403500
O O8 0.343977 0.634613 0.234333
O O9 0.283006 0.625364 0.839041
O O10 0.052586 0.637664 0.688833
O O11 0.131354 0.735537 0.842518
O O12 0.315156 0.500000 0.479126
O O13 0.180270 0.625968 0.461993
O O14 0.413052 0.500000 0.842299
O O15 0.501267 0.641185 0.840597
O O16 0.500000 0.592423 0.000000
O O17 0.020818 0.500000 0.395649
O O18 0.000000 0.617839 0.500000
#
# Coordination Sequence:
#
# PCOD8111913 Si02
#       7
#     8   8   8   8   8   8   8
#     4  11  25  44  69  97 130 171 220 270 326 404
#     4   9  18  36  61  90 121 163 221 272 321 385
#     4  12  27  43  65  98 139 174 215 280 343 391
#     4   8  17  35  61  88 117 160 215 279 322 367
#     4  11  24  44  70  95 129 180 232 270 317 404
#     4  10  22  41  64  90 125 175 231 276 325 398
#     4  12  26  40  66  99 134 173 216 270 339 397
#
# _framework density 20.833164
#
# number of rings (size 3 to 8) (size 9 to 14) (size 15 to 20)
#    0.000    1.571    1.429    3.857    6.000    0.000 
#    2.571    0.714    0.000    0.000    0.000    0.000 
#    0.000    0.000    0.000    0.000    0.000    0.000 
#
# Total GULP energy -347225.582225 kJ/mol
# GULP energy per Si atom -12400.913651 kJ/mol
# Density = 2.078575 g / cm^3
# Si number density = 20.833164 Si / 1000 Ang^3
#
#
#
# Elastic Constant Matrix: (Units=GPa)
#
#
# Indices 1 2 3 4 5 6 
#
# 1 157.9267 36.6936 43.8634 0.0000 4.5820 0.0000
# 2 36.6936 87.2188 21.2338 0.0000 2.1329 0.0000
# 3 43.8634 21.2338 108.6671 0.0000 -7.6752 0.0000
# 4 0.0000 0.0000 0.0000 58.8843 0.0000 -15.1229
# 5 4.5820 2.1329 -7.6752 0.0000 26.7574 0.0000
# 6 0.0000 0.0000 0.0000 -15.1229 0.0000 32.4952
#
#
#
# Elastic Compliance Matrix: (Units=1/GPa)
#
#
# Indices 1 2 3 4 5 6 
#
# 1 0.007746 -0.002538 -0.002766 0.000000 -0.001917 0.000000
# 2 -0.002538 0.012943 -0.001579 0.000000 -0.001050 0.000000
# 3 -0.002766 -0.001579 0.010890 0.000000 0.003723 0.000000
# 4 0.000000 0.000000 0.000000 0.019288 0.000000 0.008976
# 5 -0.001917 -0.001050 0.003723 0.000000 0.038853 0.000000
# 6 0.000000 0.000000 0.000000 0.008976 0.000000 0.034951
#
#
# Mechanical properties :
#
#
# Convention : Reuss Voigt Hill
#
# Bulk Modulus (GPa) = 56.13784 61.93268 59.03526
# Shear Modulus (GPa) = 34.63201 40.42885 37.53043
#
# Velocity S-wave (km/s) = 4.08162 4.41000 4.24898
# Velocity P-wave (km/s) = 7.01553 7.46480 7.24365
#
# Compressibility (1/GPa) = 0.01781330
#
# Stress axis : x y z
#
# Youngs Moduli (GPa) = 129.10381 77.25972 91.82440
#
# Poissons Ratio (x) = 0.19612 0.25398
# Poissons Ratio (y) = 0.32772 0.14496
# Poissons Ratio (z) = 0.35710 0.12197
#
# Static dielectric constant tensor:
#      x y z
#    x 3.948950 0.000000 -0.104290 
#    y 0.000000 3.540930 0.000000 
#    z -0.104290 0.000000 3.818950 
# 
# 
# High freq. dielectric constant tensor:
#      x y z
#    x 1.826360 0.000000 -0.004740 
#    y 0.000000 1.794730 0.000000 
#    z -0.004740 0.000000 1.823990 
# 
# From -- ./inp_files/206757.got.cif
#   From: 2010.06.25/outbox.cif.g09.slc.cpg/sg12_104_cif.got.tgz:206757.got - 2010.06.28 00:19:55.
