data_PCOD8111739
_publ_section_title
;
Structure prediction by ZEFSAII (Michael W. Deem and Ramdas Pophale) SiO2 
 PCOD8111739
Probable space group: C 2/M
;
_chemical_formula_sum "Si O2"
_cell_formula_units_Z 40
_cell_length_a 21.414528
_cell_length_b 15.594095
_cell_length_c 15.158895
_cell_angle_alpha 90.000000
_cell_angle_beta 20.327702
_cell_angle_gamma 90.000000
_cell_volume 1758.540519
_symmetry_space_group_name_H-M "C 2/M"
_symmetry_group_IT_number 12
_symmetry_cell_setting 'monoclinic'
loop_
_space_group_symop_operation_xyz
x,y,z
-x,y,-z
-x,-y,-z
x,-y,z
1/2+x,1/2+y,z
1/2-x,1/2+y,-z
1/2-x,1/2-y,-z
1/2+x,1/2-y,z
loop_
_atom_site_type_symbol
_atom_site_label
_atom_site_fract_x
_atom_site_fract_y
_atom_site_fract_z
Si Si1 0.259670 0.601645 0.129817
Si Si2 0.121985 0.841298 0.566433
Si Si3 0.443905 0.903010 0.245215
Si Si4 0.173225 0.096147 0.314476
Si Si5 0.062773 0.343054 0.559320
O O1 0.227766 0.500000 0.170445
O O2 0.217359 0.637559 0.283295
O O3 0.131854 0.645915 0.227086
O O4 0.462529 0.626015 0.839518
O O5 0.299588 0.839972 0.391581
O O6 0.153124 0.907833 0.446052
O O7 0.083575 0.751063 0.571958
O O8 0.417626 0.907889 0.385080
O O9 0.425860 0.000000 0.231586
O O10 0.638558 0.860676 0.964138
O O11 0.000000 0.144385 0.500000
O O12 0.178891 0.000000 0.268385
#
# Coordination Sequence:
#
# PCOD8111739 Si02
#       5
#     8   8   8   8   8
#     4  11  24  46  72  98 134 182 230 276 339 412
#     4  12  25  40  67  99 139 172 226 283 339 393
#     4  11  23  43  67  96 138 179 221 275 340 410
#     4  10  22  40  67  96 130 176 226 275 334 407
#     4  11  25  42  68  98 135 176 227 282 338 396
#
# _framework density 22.746134999999999
#
# number of rings (size 3 to 8) (size 9 to 14) (size 15 to 20)
#    0.000    1.000    0.000    7.200    5.600    4.000 
#    3.600    2.000    0.000    0.000    0.000    0.000 
#    0.000    0.000    0.000    0.000    0.000    0.000 
#
# Total GULP energy -248043.959780 kJ/mol
# GULP energy per Si atom -12402.197989 kJ/mol
# Density = 2.269436 g / cm^3
# Si number density = 22.746135 Si / 1000 Ang^3
#
#
#
# Elastic Constant Matrix: (Units=GPa)
#
#
# Indices 1 2 3 4 5 6 
#
# 1 135.9427 13.4419 99.4827 -0.0046 1.0070 0.0067
# 2 13.4419 91.1897 28.3808 0.0010 -7.0604 0.0013
# 3 99.4827 28.3808 179.1194 0.0059 -11.2162 -0.0013
# 4 -0.0046 0.0010 0.0059 25.2666 -0.0027 13.0059
# 5 1.0070 -7.0604 -11.2162 -0.0027 42.3327 -0.0015
# 6 0.0067 0.0013 -0.0013 13.0059 -0.0015 5.5603
#
#
#
# Elastic Compliance Matrix: (Units=1/GPa)
#
#
# Indices 1 2 3 4 5 6 
#
# 1 0.012593 0.000205 -0.007162 -0.000062 -0.002163 0.000128
# 2 0.000205 0.011628 -0.001866 -0.000008 0.001440 0.000016
# 3 -0.007162 -0.001866 0.010014 0.000047 0.002512 -0.000097
# 4 -0.000062 -0.000008 0.000047 -0.193968 0.000016 0.453708
# 5 -0.002163 0.001440 0.002512 0.000016 0.024580 -0.000028
# 6 0.000128 0.000016 -0.000097 0.453708 -0.000028 -0.881416
#
#
# Mechanical properties :
#
#
# Convention : Reuss Voigt Hill
#
# Bulk Modulus (GPa) = 60.28188 76.54029 68.41108
# Shear Modulus (GPa) = -5.03326 32.29500 13.63087
#
# Velocity S-wave (km/s) = -1.48916 3.77211 2.45064
# Velocity P-wave (km/s) = 4.85827 7.25911 6.17646
#
# Compressibility (1/GPa) = 0.01658873
#
# Stress axis : x y z
#
# Youngs Moduli (GPa) = 79.40948 85.99758 99.86322
#
# Poissons Ratio (x) = -0.01766 0.71523
# Poissons Ratio (y) = -0.01630 0.18637
# Poissons Ratio (z) = 0.56874 0.16050
#
# Static dielectric constant tensor:
#      x y z
#    x 4.213460 0.000000 0.101700 
#    y 0.000000 3.912020 0.000000 
#    z 0.101700 0.000000 4.344940 
# 
# 
# High freq. dielectric constant tensor:
#      x y z
#    x 1.905860 0.000000 0.004630 
#    y 0.000000 1.892410 0.000000 
#    z 0.004630 0.000000 1.908760 
# 
# From -- ./inp_files/46919.got.cif
#   From: 2010.06.25/outbox.cif.g09.slc.cpg/sg12_24_cif.got.tgz:46919.got - 2010.06.28 00:19:55.
