data_PCOD8111561
_publ_section_title
;
Structure prediction by ZEFSAII (Michael W. Deem and Ramdas Pophale) SiO2 
 PCOD8111561
Probable space group: C 2/M
;
_chemical_formula_sum "Si O2"
_cell_formula_units_Z 40
_cell_length_a 22.756067
_cell_length_b 12.176780
_cell_length_c 6.872152
_cell_angle_alpha 90.000000
_cell_angle_beta 83.903970
_cell_angle_gamma 90.000000
_cell_volume 1893.475314
_symmetry_space_group_name_H-M "C 2/M"
_symmetry_group_IT_number 12
_symmetry_cell_setting 'monoclinic'
loop_
_space_group_symop_operation_xyz
x,y,z
-x,y,-z
-x,-y,-z
x,-y,z
1/2+x,1/2+y,z
1/2-x,1/2+y,-z
1/2-x,1/2-y,-z
1/2+x,1/2-y,z
loop_
_atom_site_type_symbol
_atom_site_label
_atom_site_fract_x
_atom_site_fract_y
_atom_site_fract_z
Si Si1 0.020191 0.302658 0.196438
Si Si2 0.890779 0.128115 0.942718
Si Si3 0.677342 0.264465 0.686309
Si Si4 0.084752 0.625330 0.521562
Si Si5 0.284158 0.375731 0.694495
O O1 0.046753 0.181764 0.141225
O O2 0.071585 0.370154 0.293256
O O3 0.962831 0.297129 0.353284
O O4 0.000000 0.359518 0.000000
O O5 0.843024 0.151116 0.793108
O O6 0.901620 0.000000 0.974541
O O7 0.868955 0.184885 0.148151
O O8 0.648438 0.172612 0.554470
O O9 0.702527 0.360430 0.539610
O O10 0.731294 0.205103 0.780164
O O11 0.079222 0.500000 0.594768
O O12 0.263711 0.500000 0.739981
#
# Coordination Sequence:
#
# PCOD8111561 Si02
#       5
#     8   8   8   8   8
#     4  11  22  42  61  88 125 158 202 249 295 359
#     4  11  23  41  63  91 123 160 202 246 299 356
#     4  11  21  41  64  90 124 155 203 249 298 361
#     4  11  24  41  62  91 122 158 202 249 303 359
#     4  10  22  40  63  89 122 161 198 248 303 355
#
# _framework density 21.125177000000001
#
# number of rings (size 3 to 8) (size 9 to 14) (size 15 to 20)
#    0.000    1.200    4.000    3.000    0.000    2.000 
#    0.000    2.000    0.000    0.000    0.000    0.000 
#    0.000    0.000    0.000    0.000    0.000    0.000 
#
# Total GULP energy -247940.507771 kJ/mol
# GULP energy per Si atom -12397.025389 kJ/mol
# Density = 2.107709 g / cm^3
# Si number density = 21.125177 Si / 1000 Ang^3
#
#
#
# Elastic Constant Matrix: (Units=GPa)
#
#
# Indices 1 2 3 4 5 6 
#
# 1 76.7861 44.0757 24.0672 0.0000 5.7107 0.0000
# 2 44.0757 106.8949 39.8146 0.0000 -5.7772 0.0000
# 3 24.0672 39.8146 89.3776 0.0000 10.7612 0.0000
# 4 0.0000 0.0000 0.0000 24.4758 0.0000 1.1901
# 5 5.7107 -5.7772 10.7612 0.0000 34.3857 0.0000
# 6 0.0000 0.0000 0.0000 1.1901 0.0000 27.8711
#
#
#
# Elastic Compliance Matrix: (Units=1/GPa)
#
#
# Indices 1 2 3 4 5 6 
#
# 1 0.017734 -0.007081 -0.001167 0.000000 -0.003770 0.000000
# 2 -0.007081 0.014485 -0.005175 0.000000 0.005229 0.000000
# 3 -0.001167 -0.005175 0.014433 0.000000 -0.005193 0.000000
# 4 0.000000 0.000000 0.000000 0.040942 0.000000 -0.001748
# 5 -0.003770 0.005229 -0.005193 0.000000 0.032212 0.000000
# 6 0.000000 0.000000 0.000000 -0.001748 0.000000 0.035954
#
#
# Mechanical properties :
#
#
# Convention : Reuss Voigt Hill
#
# Bulk Modulus (GPa) = 50.49196 54.33039 52.41118
# Shear Modulus (GPa) = 26.42583 28.35328 27.38955
#
# Velocity S-wave (km/s) = 3.54067 3.66752 3.60465
# Velocity P-wave (km/s) = 6.37717 6.61123 6.49526
#
# Compressibility (1/GPa) = 0.01980513
#
# Stress axis : x y z
#
# Youngs Moduli (GPa) = 56.38879 69.03662 69.28377
#
# Poissons Ratio (x) = 0.48887 0.08085
# Poissons Ratio (y) = 0.39931 0.35857
# Poissons Ratio (z) = 0.06581 0.35729
#
# Static dielectric constant tensor:
#      x y z
#    x 3.879060 0.000000 0.320220 
#    y 0.000000 3.578630 0.000000 
#    z 0.320220 0.000000 3.902850 
# 
# 
# High freq. dielectric constant tensor:
#      x y z
#    x 1.838390 0.000000 0.018910 
#    y 0.000000 1.812790 0.000000 
#    z 0.018910 0.000000 1.825650 
# 
# From -- ./inp_files/27415.got.cif
#   From: 2010.06.25/outbox.cif.g09.slc.cpg/sg12_14_cif.got.tgz:27415.got - 2010.06.28 00:19:55.
