data_PCOD8111391
_publ_section_title
;
Structure prediction by ZEFSAII (Michael W. Deem and Ramdas Pophale) SiO2 
 PCOD8111391
Probable space group: C 2/M
;
_chemical_formula_sum "Si O2"
_cell_formula_units_Z 48
_cell_length_a 9.891337
_cell_length_b 9.118364
_cell_length_c 26.188278
_cell_angle_alpha 90.000000
_cell_angle_beta 90.193215
_cell_angle_gamma 90.000000
_cell_volume 2361.980983
_symmetry_space_group_name_H-M "C 2/M"
_symmetry_group_IT_number 12
_symmetry_cell_setting 'monoclinic'
loop_
_space_group_symop_operation_xyz
x,y,z
-x,y,-z
-x,-y,-z
x,-y,z
1/2+x,1/2+y,z
1/2-x,1/2+y,-z
1/2-x,1/2-y,-z
1/2+x,1/2-y,z
loop_
_atom_site_type_symbol
_atom_site_label
_atom_site_fract_x
_atom_site_fract_y
_atom_site_fract_z
Si Si1 0.773414 0.329061 0.780423
Si Si2 0.980084 0.668557 0.608499
Si Si3 0.954947 0.669758 0.276809
Si Si4 0.790140 0.830394 0.448730
Si Si5 0.272568 0.329729 0.886401
Si Si6 0.045657 0.830435 0.944190
O O1 0.744703 0.500000 0.787459
O O2 0.672667 0.268109 0.737533
O O3 0.745002 0.250423 0.833482
O O4 0.925437 0.298020 0.762843
O O5 0.022502 0.500000 0.600157
O O6 0.824102 0.694114 0.594212
O O7 0.996796 0.716719 0.667005
O O8 0.070080 0.767391 0.571867
O O9 0.912630 0.500000 0.275135
O O10 0.750000 0.750000 0.500000
O O11 0.811140 0.000000 0.461543
O O12 0.240245 0.500000 0.879006
O O13 0.173381 0.266771 0.929200
O O14 0.425747 0.303167 0.903912
O O15 0.089741 0.000000 0.945157
O O16 0.000000 0.778741 0.000000
#
# Coordination Sequence:
#
# PCOD8111391 Si02
#       6
#     8   8   8   8   8   8
#     4  11  23  39  60  86 117 153 193 238 287 340
#     4  10  22  40  60  85 118 152 190 239 289 340
#     4  10  22  40  61  86 116 151 192 238 289 343
#     4  11  23  39  60  87 118 153 194 237 285 341
#     4  11  23  38  59  87 117 153 195 236 285 343
#     4  10  22  40  61  87 118 151 191 239 288 340
#
# _framework density 20.321923999999999
#
# number of rings (size 3 to 8) (size 9 to 14) (size 15 to 20)
#    0.000    1.500    0.000    4.500    0.000   11.000 
#    0.000    0.000    0.000    0.000    0.000    0.000 
#    0.000    0.000    0.000    0.000    0.000    0.000 
#
# Total GULP energy -297786.113442 kJ/mol
# GULP energy per Si atom -12407.754727 kJ/mol
# Density = 2.027567 g / cm^3
# Si number density = 20.321924 Si / 1000 Ang^3
#
#
#
# Elastic Constant Matrix: (Units=GPa)
#
#
# Indices 1 2 3 4 5 6 
#
# 1 51.8701 32.5741 -6.1072 0.0000 -5.2014 0.0000
# 2 32.5741 92.4982 27.6391 0.0000 -5.0176 0.0000
# 3 -6.1072 27.6391 85.5902 0.0000 -1.8670 0.0000
# 4 0.0000 0.0000 0.0000 34.6613 0.0000 -2.4467
# 5 -5.2014 -5.0176 -1.8670 0.0000 38.5070 0.0000
# 6 0.0000 0.0000 0.0000 -2.4467 0.0000 36.7121
#
#
#
# Elastic Compliance Matrix: (Units=1/GPa)
#
#
# Indices 1 2 3 4 5 6 
#
# 1 0.027150 -0.011091 0.005573 0.000000 0.002492 0.000000
# 2 -0.011091 0.016570 -0.006134 0.000000 0.000363 0.000000
# 3 0.005573 -0.006134 0.014076 0.000000 0.000636 0.000000
# 4 0.000000 0.000000 0.000000 0.028987 0.000000 0.001932
# 5 0.002492 0.000363 0.000636 0.000000 0.026384 0.000000
# 6 0.000000 0.000000 0.000000 0.001932 0.000000 0.027368
#
#
# Mechanical properties :
#
#
# Convention : Reuss Voigt Hill
#
# Bulk Modulus (GPa) = 28.99269 37.57452 33.28360
# Shear Modulus (GPa) = 28.51657 33.69958 31.10807
#
# Velocity S-wave (km/s) = 3.75005 4.07662 3.91674
# Velocity P-wave (km/s) = 5.74875 6.37874 6.07192
#
# Compressibility (1/GPa) = 0.03449145
#
# Stress axis : x y z
#
# Youngs Moduli (GPa) = 36.83187 60.35139 71.04280
#
# Poissons Ratio (x) = 0.66938 -0.39594
# Poissons Ratio (y) = 0.40852 0.43579
# Poissons Ratio (z) = -0.20528 0.37021
#
# Static dielectric constant tensor:
#      x y z
#    x 3.720070 0.000000 0.009150 
#    y 0.000000 3.709640 0.000000 
#    z 0.009150 0.000000 3.854430 
# 
# 
# High freq. dielectric constant tensor:
#      x y z
#    x 1.801380 0.000000 0.002580 
#    y 0.000000 1.796830 0.000000 
#    z 0.002580 0.000000 1.809060 
# 
# From -- ./inp_files/334812.got.cif
#   From: 2010.06.25/outbox.cif.g09.slc.cpg/sg12_168_cif.got.tgz:334812.got - 2010.06.28 00:19:55.
