data_PCOD8111202
_publ_section_title
;
Structure prediction by ZEFSAII (Michael W. Deem and Ramdas Pophale) SiO2 
 PCOD8111202
Probable space group: C 2/M
;
_chemical_formula_sum "Si O2"
_cell_formula_units_Z 56
_cell_length_a 10.009973
_cell_length_b 24.895038
_cell_length_c 21.162909
_cell_angle_alpha 90.000000
_cell_angle_beta 145.949390
_cell_angle_gamma 90.000000
_cell_volume 2952.914754
_symmetry_space_group_name_H-M "C 2/M"
_symmetry_group_IT_number 12
_symmetry_cell_setting 'monoclinic'
loop_
_space_group_symop_operation_xyz
x,y,z
-x,y,-z
-x,-y,-z
x,-y,z
1/2+x,1/2+y,z
1/2-x,1/2+y,-z
1/2-x,1/2-y,-z
1/2+x,1/2-y,z
loop_
_atom_site_type_symbol
_atom_site_label
_atom_site_fract_x
_atom_site_fract_y
_atom_site_fract_z
Si Si1 0.102600 0.377725 0.701801
Si Si2 0.613620 0.623171 0.699099
Si Si3 0.996306 0.186460 0.072739
Si Si4 0.739672 0.939259 0.633374
Si Si5 0.331014 0.302095 0.494696
Si Si6 0.767139 0.937964 0.371540
Si Si7 0.512936 0.808273 0.079699
O O1 0.318034 0.356132 0.827914
O O2 0.211598 0.397007 0.678761
O O3 0.908441 0.330840 0.622172
O O4 0.973151 0.428978 0.682742
O O5 0.453636 0.580641 0.673570
O O6 0.457003 0.663762 0.597798
O O7 0.771737 0.590035 0.711156
O O8 0.775140 0.655090 0.811719
O O9 0.054987 0.246969 0.119637
O O10 0.000000 0.184087 0.000000
O O11 0.734592 0.168724 0.991617
O O12 0.500000 0.939410 0.500000
O O13 0.796160 0.000000 0.679110
O O14 0.500000 0.289514 0.500000
O O15 0.250000 0.250000 0.500000
O O16 0.000000 0.913491 0.500000
O O17 0.813035 0.000000 0.378102
O O18 0.500000 0.811563 0.000000
#
# Coordination Sequence:
#
# PCOD8111202 Si02
#       7
#     8   8   8   8   8   8   8
#     4  12  21  41  61  91 124 157 201 255 309 366
#     4  12  21  41  63  89 124 159 207 251 308 368
#     4  10  22  39  62  86 116 158 210 249 295 360
#     4  11  23  38  61  93 127 161 204 251 309 374
#     4  12  26  40  59  95 130 163 194 248 319 377
#     4  11  21  38  63  89 121 159 204 251 302 375
#     4  10  22  41  60  86 116 164 210 245 293 367
#
# _framework density 18.964313000000001
#
# number of rings (size 3 to 8) (size 9 to 14) (size 15 to 20)
#    0.000    0.857    4.286    3.429    2.000    2.286 
#    5.143    0.000    0.000   17.143    0.000    0.000 
#    0.000    0.000    0.000    0.000    0.000    0.000 
#
# Total GULP energy -347248.046212 kJ/mol
# GULP energy per Si atom -12401.715936 kJ/mol
# Density = 1.892115 g / cm^3
# Si number density = 18.964313 Si / 1000 Ang^3
#
#
#
# Elastic Constant Matrix: (Units=GPa)
#
#
# Indices 1 2 3 4 5 6 
#
# 1 100.4493 23.7989 14.5052 0.0006 0.5350 0.0072
# 2 23.7989 76.6342 28.9029 0.0055 1.4550 0.0184
# 3 14.5052 28.9029 78.7495 0.0127 7.5244 0.0763
# 4 0.0006 0.0055 0.0127 24.6786 0.0007 -11.5517
# 5 0.5350 1.4550 7.5244 0.0007 26.9366 0.0058
# 6 0.0072 0.0184 0.0763 -11.5517 0.0058 -5.0556
#
#
#
# Elastic Compliance Matrix: (Units=1/GPa)
#
#
# Indices 1 2 3 4 5 6 
#
# 1 0.010799 -0.003018 -0.000901 -0.000002 0.000200 -0.000005
# 2 -0.003018 0.016004 -0.005385 -0.000006 0.000700 -0.000012
# 3 -0.000901 -0.005385 0.015217 0.000043 -0.003942 0.000106
# 4 -0.000002 -0.000006 0.000043 0.019580 -0.000002 -0.044738
# 5 0.000200 0.000700 -0.003942 -0.000002 0.038184 -0.000007
# 6 -0.000005 -0.000012 0.000106 -0.044738 -0.000007 -0.095577
#
#
# Mechanical properties :
#
#
# Convention : Reuss Voigt Hill
#
# Bulk Modulus (GPa) = 42.70978 43.36078 43.03528
# Shear Modulus (GPa) = 163.30202 21.88701 92.59452
#
# Velocity S-wave (km/s) = 9.28962 3.40091 6.99512
# Velocity P-wave (km/s) = 11.73170 6.19158 9.37999
#
# Compressibility (1/GPa) = 0.02341384
#
# Stress axis : x y z
#
# Youngs Moduli (GPa) = 92.59894 62.48513 65.71486
#
# Poissons Ratio (x) = 0.18857 0.05919
# Poissons Ratio (y) = 0.27945 0.35386
# Poissons Ratio (z) = 0.08340 0.33647
#
# Static dielectric constant tensor:
#      x y z
#    x 4.214810 0.000020 0.254560 
#    y 0.000020 3.688170 0.000010 
#    z 0.254560 0.000010 3.487380 
# 
# 
# High freq. dielectric constant tensor:
#      x y z
#    x 1.759130 0.000000 -0.002970 
#    y 0.000000 1.739540 0.000000 
#    z -0.002970 0.000000 1.724990 
# 
# From -- ./inp_files/124211.got.cif
#   From: 2010.06.25/outbox.cif.g09.slc.cpg/sg12_63_cif.got.tgz:124211.got - 2010.06.28 00:19:55.
