data_PCOD8111643
_publ_section_title
;
Structure prediction by ZEFSAII (Michael W. Deem and Ramdas Pophale) SiO2 
 PCOD8111643
Probable space group: C 2/M
;
_chemical_formula_sum "Si O2"
_cell_formula_units_Z 64
_cell_length_a 30.853483
_cell_length_b 13.281093
_cell_length_c 22.782325
_cell_angle_alpha 90.000000
_cell_angle_beta 19.318683
_cell_angle_gamma 90.000000
_cell_volume 3088.379150
_symmetry_space_group_name_H-M "C 2/M"
_symmetry_group_IT_number 12
_symmetry_cell_setting 'monoclinic'
loop_
_space_group_symop_operation_xyz
x,y,z
-x,y,-z
-x,-y,-z
x,-y,z
1/2+x,1/2+y,z
1/2-x,1/2+y,-z
1/2-x,1/2-y,-z
1/2+x,1/2-y,z
loop_
_atom_site_type_symbol
_atom_site_label
_atom_site_fract_x
_atom_site_fract_y
_atom_site_fract_z
Si Si1 0.481241 0.619767 0.787518
Si Si2 0.802779 0.618749 0.885259
Si Si3 0.321146 0.618749 0.366890
Si Si4 0.948666 0.618966 0.227818
Si Si5 0.107000 0.727756 0.816318
Si Si6 0.046365 0.772242 0.376952
Si Si7 0.638778 0.619751 0.472443
Si Si8 0.801632 0.381034 0.021885
O O1 0.482788 0.500000 0.784429
O O2 0.554585 0.656622 0.752905
O O3 0.559847 0.657755 0.630305
O O4 0.330438 0.656619 0.977052
O O5 0.823666 0.500000 0.853124
O O6 0.925094 0.672146 0.697682
O O7 0.793988 0.652648 0.964026
O O8 0.322759 0.500000 0.354029
O O9 0.189984 0.652647 0.568028
O O10 0.329353 0.672147 0.293422
O O11 0.958578 0.500000 0.211378
O O12 0.962077 0.660838 0.145262
O O13 0.064381 0.662564 0.121238
O O14 0.215182 0.662344 0.711517
O O15 0.000000 0.762894 0.000000
O O16 0.176755 0.839161 0.215907
O O17 0.000000 0.737103 0.500000
O O18 0.931421 0.837655 0.495278
O O19 0.644647 0.500000 0.460704
O O20 0.798486 0.500000 0.031559
#
# Coordination Sequence:
#
# PCOD8111643 Si02
#       8
#     8   8   8   8   8   8   8   8
#     4   9  18  37  66  93 115 155 211 260 306 351
#     4  10  22  41  66  93 124 162 211 263 306 359
#     4  10  22  41  66  93 124 162 211 263 306 359
#     4  10  22  40  64  94 123 159 208 265 318 360
#     4  12  27  40  61  93 129 168 207 244 313 379
#     4  12  27  40  61  93 129 168 207 244 313 379
#     4  11  24  43  65  93 125 161 208 256 309 373
#     4  10  22  40  64  94 123 159 208 265 318 360
#
# _framework density 20.722843999999998
#
# number of rings (size 3 to 8) (size 9 to 14) (size 15 to 20)
#    0.000    1.500    2.500    1.500    5.250    2.500 
#    0.000    0.000    0.000    0.000    0.000    0.000 
#    0.000    0.000    0.000    0.000    0.000    0.000 
#
# Total GULP energy -396979.616549 kJ/mol
# GULP energy per Si atom -12405.613017 kJ/mol
# Density = 2.067568 g / cm^3
# Si number density = 20.722844 Si / 1000 Ang^3
#
#
#
# Elastic Constant Matrix: (Units=GPa)
#
#
# Indices 1 2 3 4 5 6 
#
# 1 106.5400 38.4649 70.3469 -0.0001 -16.3399 0.0001
# 2 38.4649 42.2395 34.1281 0.0001 -5.5028 -0.0001
# 3 70.3469 34.1281 101.8856 0.0001 10.4364 0.0000
# 4 -0.0001 0.0001 0.0001 24.7007 -0.0001 -7.4897
# 5 -16.3399 -5.5028 10.4364 -0.0001 45.6265 0.0000
# 6 0.0001 -0.0001 0.0000 -7.4897 0.0000 30.6043
#
#
#
# Elastic Compliance Matrix: (Units=1/GPa)
#
#
# Indices 1 2 3 4 5 6 
#
# 1 0.023823 -0.008338 -0.014773 0.000000 0.010905 0.000000
# 2 -0.008338 0.037412 -0.007098 0.000000 0.003150 0.000000
# 3 -0.014773 -0.007098 0.023574 0.000000 -0.011539 0.000000
# 4 0.000000 0.000000 0.000000 0.043730 0.000000 0.010702
# 5 0.010905 0.003150 -0.011539 0.000000 0.028842 0.000000
# 6 0.000000 0.000000 0.000000 0.010702 0.000000 0.035294
#
#
# Mechanical properties :
#
#
# Convention : Reuss Voigt Hill
#
# Bulk Modulus (GPa) = 40.99509 59.61611 50.30560
# Shear Modulus (GPa) = 19.14073 27.36797 23.25435
#
# Velocity S-wave (km/s) = 3.04246 3.63804 3.35350
# Velocity P-wave (km/s) = 5.67165 6.81747 6.27079
#
# Compressibility (1/GPa) = 0.02439317
#
# Stress axis : x y z
#
# Youngs Moduli (GPa) = 41.97579 26.72932 42.41883
#
# Poissons Ratio (x) = 0.22286 0.62666
# Poissons Ratio (y) = 0.34997 0.30108
# Poissons Ratio (z) = 0.62011 0.18972
#
# Static dielectric constant tensor:
#      x y z
#    x 3.881140 0.000000 -0.295100 
#    y 0.000000 3.745010 0.000000 
#    z -0.295100 0.000000 3.648530 
# 
# 
# High freq. dielectric constant tensor:
#      x y z
#    x 1.812000 0.000000 -0.019290 
#    y 0.000000 1.830150 0.000000 
#    z -0.019290 0.000000 1.796790 
# 
# From -- ./inp_files/330359.got.cif
#   From: 2010.06.25/outbox.cif.g09.slc.cpg/sg12_166_cif.got.tgz:330359.got - 2010.06.28 00:19:55.
