data_PCOD8111026
_publ_section_title
;
Structure prediction by ZEFSAII (Michael W. Deem and Ramdas Pophale) SiO2 
 PCOD8111026
Probable space group: C 2/M
;
_chemical_formula_sum "Si O2"
_cell_formula_units_Z 56
_cell_length_a 14.871888
_cell_length_b 8.452456
_cell_length_c 24.320998
_cell_angle_alpha 90.000000
_cell_angle_beta 63.764798
_cell_angle_gamma 90.000000
_cell_volume 2742.309942
_symmetry_space_group_name_H-M "C 2/M"
_symmetry_group_IT_number 12
_symmetry_cell_setting 'monoclinic'
loop_
_space_group_symop_operation_xyz
x,y,z
-x,y,-z
-x,-y,-z
x,-y,z
1/2+x,1/2+y,z
1/2-x,1/2+y,-z
1/2-x,1/2-y,-z
1/2+x,1/2-y,z
loop_
_atom_site_type_symbol
_atom_site_label
_atom_site_fract_x
_atom_site_fract_y
_atom_site_fract_z
Si Si1 0.473217 0.184443 0.069036
Si Si2 0.821582 0.186468 0.721335
Si Si3 0.034071 0.814093 0.624607
Si Si4 0.760873 0.817962 0.145350
Si Si5 0.778348 0.684528 0.363408
Si Si6 0.331185 0.315915 0.936176
Si Si7 0.655593 0.685671 0.494423
O O1 0.378620 0.282339 0.115556
O O2 0.565189 0.223253 0.084111
O O3 0.446971 0.000000 0.079017
O O4 0.500000 0.236665 0.000000
O O5 0.786647 0.283370 0.783106
O O6 0.742074 0.222726 0.694484
O O7 0.929831 0.257259 0.674535
O O8 0.824984 0.000000 0.733677
O O9 0.123766 0.777270 0.642851
O O10 0.059021 0.749342 0.555171
O O11 0.018247 0.000000 0.626437
O O12 0.706563 0.708548 0.115352
O O13 0.743907 0.000000 0.134257
O O14 0.799903 0.500000 0.367220
O O15 0.675410 0.732227 0.425242
O O16 0.347993 0.500000 0.943253
O O17 0.250000 0.250000 0.000000
O O18 0.649800 0.500000 0.502265
O O19 0.750000 0.750000 0.500000
#
# Coordination Sequence:
#
# PCOD8111026 Si02
#       7
#     8   8   8   8   8   8   8
#     4  11  23  41  68  97 125 157 193 240 295 350
#     4  10  22  39  56  79 114 156 198 243 294 352
#     4   9  18  33  55  80 111 149 191 241 295 352
#     4  12  26  43  63  89 123 162 204 249 297 354
#     4   9  18  33  55  80 111 149 190 241 297 352
#     4  12  24  41  67  97 127 158 194 239 292 351
#     4   8  14  27  49  79 108 140 186 238 293 350
#
# _framework density 20.420741
#
# number of rings (size 3 to 8) (size 9 to 14) (size 15 to 20)
#    0.000    1.857    1.429    3.000    0.000    3.429 
#    0.000    5.714    0.000    0.000    0.000   11.000 
#    0.000    0.000    0.000    0.000    0.000    0.000 
#
# Total GULP energy -347030.152519 kJ/mol
# GULP energy per Si atom -12393.934019 kJ/mol
# Density = 2.037426 g / cm^3
# Si number density = 20.420741 Si / 1000 Ang^3
#
#
#
# Elastic Constant Matrix: (Units=GPa)
#
#
# Indices 1 2 3 4 5 6 
#
# 1 65.1066 0.0635 20.2181 0.0000 -9.8392 0.0000
# 2 0.0635 44.7732 19.5120 0.0000 -3.8106 0.0001
# 3 20.2181 19.5120 117.7495 0.0000 -6.5455 0.0000
# 4 0.0000 0.0000 0.0000 25.1586 0.0000 0.8029
# 5 -9.8392 -3.8106 -6.5455 0.0000 35.2246 0.0000
# 6 0.0000 0.0001 0.0000 0.8029 0.0000 28.2914
#
#
#
# Elastic Compliance Matrix: (Units=1/GPa)
#
#
# Indices 1 2 3 4 5 6 
#
# 1 0.016928 0.001625 -0.002934 0.000000 0.004359 0.000000
# 2 0.001625 0.024353 -0.004186 0.000000 0.002311 0.000000
# 3 -0.002934 -0.004186 0.009720 0.000000 0.000534 0.000000
# 4 0.000000 0.000000 0.000000 0.039784 0.000000 -0.001129
# 5 0.004359 0.002311 0.000534 0.000000 0.029956 0.000000
# 6 0.000000 0.000000 0.000000 -0.001129 0.000000 0.035379
#
#
# Mechanical properties :
#
#
# Convention : Reuss Voigt Hill
#
# Bulk Modulus (GPa) = 24.99249 34.13516 29.56382
# Shear Modulus (GPa) = 27.70924 30.25729 28.98327
#
# Velocity S-wave (km/s) = 3.68763 3.85345 3.77145
# Velocity P-wave (km/s) = 5.51333 6.04574 5.78567
#
# Compressibility (1/GPa) = 0.04001202
#
# Stress axis : x y z
#
# Youngs Moduli (GPa) = 59.07516 41.06194 102.88419
#
# Poissons Ratio (x) = -0.06674 0.30182
# Poissons Ratio (y) = -0.09602 0.43069
# Poissons Ratio (z) = 0.17330 0.17189
#
# Static dielectric constant tensor:
#      x y z
#    x 3.692410 0.000000 0.027990 
#    y 0.000000 4.621200 0.000000 
#    z 0.027990 0.000000 4.218010 
# 
# 
# High freq. dielectric constant tensor:
#      x y z
#    x 1.793480 0.000000 -0.003630 
#    y 0.000000 1.785890 0.000000 
#    z -0.003630 0.000000 1.809200 
# 
# From -- ./inp_files/359674.got.cif
#   From: 2010.06.25/outbox.cif.g09.slc.cpg/sg12_180_cif.got.tgz:359674.got - 2010.06.28 00:19:55.
