data_PCOD8111804
_publ_section_title
;
Structure prediction by ZEFSAII (Michael W. Deem and Ramdas Pophale) SiO2 
 PCOD8111804
Probable space group: C 2/M
;
_chemical_formula_sum "Si O2"
_cell_formula_units_Z 48
_cell_length_a 30.043194
_cell_length_b 8.777034
_cell_length_c 14.805220
_cell_angle_alpha 90.000000
_cell_angle_beta 140.228353
_cell_angle_gamma 90.000000
_cell_volume 2497.497608
_symmetry_space_group_name_H-M "C 2/M"
_symmetry_group_IT_number 12
_symmetry_cell_setting 'monoclinic'
loop_
_space_group_symop_operation_xyz
x,y,z
-x,y,-z
-x,-y,-z
x,-y,z
1/2+x,1/2+y,z
1/2-x,1/2+y,-z
1/2-x,1/2-y,-z
1/2+x,1/2-y,z
loop_
_atom_site_type_symbol
_atom_site_label
_atom_site_fract_x
_atom_site_fract_y
_atom_site_fract_z
Si Si1 0.333141 0.178895 0.357437
Si Si2 0.566876 0.179598 0.849177
Si Si3 0.818901 0.823473 0.647131
Si Si4 0.423025 0.322822 0.650998
Si Si5 0.070719 0.680000 0.651486
Si Si6 0.686924 0.821800 0.173453
O O1 0.389923 0.221504 0.520747
O O2 0.363484 0.227577 0.307120
O O3 0.263078 0.270202 0.263399
O O4 0.317870 0.000000 0.339643
O O5 0.501936 0.270334 0.788920
O O6 0.581968 0.237761 0.770979
O O7 0.551095 0.000000 0.827750
O O8 0.633976 0.223671 0.012037
O O9 0.750000 0.750000 0.500000
O O10 0.883463 0.790967 0.682592
O O11 0.838431 0.756168 0.774446
O O12 0.803133 0.000000 0.633799
O O13 0.418937 0.500000 0.617804
O O14 0.062970 0.500000 0.638590
O O15 0.000000 0.752477 0.500000
O O16 0.689028 0.000000 0.194576
#
# Coordination Sequence:
#
# PCOD8111804 Si02
#       6
#     8   8   8   8   8   8
#     4  11  21  36  63  89 116 158 202 242 294 357
#     4  10  22  41  62  86 121 162 198 241 298 357
#     4  11  23  39  62  88 118 157 199 246 298 353
#     4  11  23  38  60  90 120 150 196 252 299 350
#     4   9  17  34  61  89 115 152 203 245 287 352
#     4  11  24  40  59  88 125 157 196 249 299 350
#
# _framework density 19.219238000000001
#
# number of rings (size 3 to 8) (size 9 to 14) (size 15 to 20)
#    0.000    1.500    3.333    2.000    0.000    4.667 
#    0.000    5.833    0.000    0.000    0.000    0.000 
#    0.000    0.000    0.000    0.000    0.000    0.000 
#
# Total GULP energy -297692.048949 kJ/mol
# GULP energy per Si atom -12403.835373 kJ/mol
# Density = 1.917549 g / cm^3
# Si number density = 19.219238 Si / 1000 Ang^3
#
#
#
# Elastic Constant Matrix: (Units=GPa)
#
#
# Indices 1 2 3 4 5 6 
#
# 1 109.5176 27.0033 24.9891 0.0000 -17.8887 0.0000
# 2 27.0033 52.1840 14.7160 0.0000 -10.1457 0.0000
# 3 24.9891 14.7160 80.6343 0.0000 -19.0982 0.0000
# 4 0.0000 0.0000 0.0000 26.1815 0.0000 2.2634
# 5 -17.8887 -10.1457 -19.0982 0.0000 34.6388 0.0000
# 6 0.0000 0.0000 0.0000 2.2634 0.0000 28.9101
#
#
#
# Elastic Compliance Matrix: (Units=1/GPa)
#
#
# Indices 1 2 3 4 5 6 
#
# 1 0.011254 -0.004639 -0.001825 0.000000 0.003447 0.000000
# 2 -0.004639 0.022734 -0.001957 0.000000 0.003184 0.000000
# 3 -0.001825 -0.001957 0.014913 0.000000 0.006707 0.000000
# 4 0.000000 0.000000 0.000000 0.038455 0.000000 -0.003011
# 5 0.003447 0.003184 0.006707 0.000000 0.035280 0.000000
# 6 0.000000 0.000000 0.000000 -0.003011 0.000000 0.034826
#
#
# Mechanical properties :
#
#
# Convention : Reuss Voigt Hill
#
# Bulk Modulus (GPa) = 31.19181 41.75031 36.47106
# Shear Modulus (GPa) = 27.02844 29.65459 28.34152
#
# Velocity S-wave (km/s) = 3.75416 3.93232 3.84427
# Velocity P-wave (km/s) = 5.92084 6.51060 6.22271
#
# Compressibility (1/GPa) = 0.03205969
#
# Stress axis : x y z
#
# Youngs Moduli (GPa) = 88.85609 43.98621 67.05645
#
# Poissons Ratio (x) = 0.20404 0.12235
# Poissons Ratio (y) = 0.41219 0.13125
# Poissons Ratio (z) = 0.16213 0.08610
#
# Static dielectric constant tensor:
#      x y z
#    x 3.781420 0.000000 -0.078120 
#    y 0.000000 3.481160 0.000000 
#    z -0.078120 0.000000 3.494430 
# 
# 
# High freq. dielectric constant tensor:
#      x y z
#    x 1.765850 0.000000 -0.001960 
#    y 0.000000 1.741090 0.000000 
#    z -0.001960 0.000000 1.744760 
# 
# From -- ./inp_files/230413.got.cif
#   From: 2010.06.25/outbox.cif.g09.slc.cpg/sg12_116_cif.got.tgz:230413.got - 2010.06.28 00:19:55.
