data_PCOD8111798
_publ_section_title
;
Structure prediction by ZEFSAII (Michael W. Deem and Ramdas Pophale) SiO2 
 PCOD8111798
Probable space group: C 2/M
;
_chemical_formula_sum "Si O2"
_cell_formula_units_Z 56
_cell_length_a 15.170787
_cell_length_b 23.645545
_cell_length_c 9.365311
_cell_angle_alpha 90.000000
_cell_angle_beta 122.773929
_cell_angle_gamma 90.000000
_cell_volume 2824.743803
_symmetry_space_group_name_H-M "C 2/M"
_symmetry_group_IT_number 12
_symmetry_cell_setting 'monoclinic'
loop_
_space_group_symop_operation_xyz
x,y,z
-x,y,-z
-x,-y,-z
x,-y,z
1/2+x,1/2+y,z
1/2-x,1/2+y,-z
1/2-x,1/2-y,-z
1/2+x,1/2-y,z
loop_
_atom_site_type_symbol
_atom_site_label
_atom_site_fract_x
_atom_site_fract_y
_atom_site_fract_z
Si Si1 0.129328 0.261589 0.363093
Si Si2 0.615438 0.144965 0.574073
Si Si3 0.118454 0.647054 0.126810
Si Si4 0.045848 0.063160 0.391697
Si Si5 0.709756 0.063984 0.432324
Si Si6 0.241240 0.683960 0.964110
Si Si7 0.981685 0.838449 0.149241
O O1 0.250000 0.250000 0.500000
O O2 0.086441 0.302485 0.447384
O O3 0.125407 0.291555 0.206322
O O4 0.054404 0.206777 0.297484
O O5 0.500000 0.118065 0.500000
O O6 0.686967 0.097954 0.558857
O O7 0.680982 0.168142 0.765729
O O8 0.158786 0.595543 0.255516
O O9 0.179919 0.650652 0.032928
O O10 0.000000 0.630655 0.000000
O O11 0.169752 0.062872 0.501680
O O12 0.000000 0.088572 0.500000
O O13 0.012077 0.099506 0.226726
O O14 0.000616 0.000000 0.330884
O O15 0.666229 0.000000 0.409326
O O16 0.250000 0.750000 0.000000
O O17 0.359715 0.664310 0.072300
O O18 0.000000 0.830353 0.000000
#
# Coordination Sequence:
#
# PCOD8111798 Si02
#       7
#     8   8   8   8   8   8   8
#     4  11  22  38  59  84 120 162 199 237 293 366
#     4  11  23  40  60  86 121 160 200 245 299 360
#     4  11  22  39  59  85 121 154 194 250 303 354
#     4  10  22  41  62  85 115 152 197 246 297 360
#     4  10  22  42  64  84 113 158 206 249 298 361
#     4  12  23  37  59  91 124 155 193 243 304 364
#     4  12  23  37  59  89 121 153 194 243 299 358
#
# _framework density 19.824808000000001
#
# number of rings (size 3 to 8) (size 9 to 14) (size 15 to 20)
#    0.000    1.000    0.000    9.857    0.000    2.571 
#    0.000    1.429    0.000    0.000    0.000    0.000 
#    0.000    0.000    0.000    0.000    0.000    0.000 
#
# Total GULP energy -347177.344259 kJ/mol
# GULP energy per Si atom -12399.190866 kJ/mol
# Density = 1.977969 g / cm^3
# Si number density = 19.824808 Si / 1000 Ang^3
#
#
#
# Elastic Constant Matrix: (Units=GPa)
#
#
# Indices 1 2 3 4 5 6 
#
# 1 135.3481 41.1068 48.3071 0.0000 4.2206 0.0000
# 2 41.1068 122.9004 61.5058 0.0000 -1.9394 0.0000
# 3 48.3071 61.5058 103.9496 0.0000 -3.0618 0.0000
# 4 0.0000 0.0000 0.0000 19.3561 0.0000 -4.1203
# 5 4.2206 -1.9394 -3.0618 0.0000 41.0313 0.0000
# 6 0.0000 0.0000 0.0000 -4.1203 0.0000 22.7190
#
#
#
# Elastic Compliance Matrix: (Units=1/GPa)
#
#
# Indices 1 2 3 4 5 6 
#
# 1 0.009066 -0.001314 -0.003472 0.000000 -0.001254 0.000000
# 2 -0.001314 0.011750 -0.006335 0.000000 0.000218 0.000000
# 3 -0.003472 -0.006335 0.015017 0.000000 0.001178 0.000000
# 4 0.000000 0.000000 0.000000 0.053738 0.000000 0.009746
# 5 -0.001254 0.000218 0.001178 0.000000 0.024599 0.000000
# 6 0.000000 0.000000 0.000000 0.009746 0.000000 0.045783
#
#
# Mechanical properties :
#
#
# Convention : Reuss Voigt Hill
#
# Bulk Modulus (GPa) = 73.58796 73.78196 73.68496
# Shear Modulus (GPa) = 26.77708 30.70651 28.74180
#
# Velocity S-wave (km/s) = 3.67915 3.93987 3.81174
# Velocity P-wave (km/s) = 7.43290 7.61541 7.52471
#
# Compressibility (1/GPa) = 0.01358918
#
# Stress axis : x y z
#
# Youngs Moduli (GPa) = 110.30281 85.10489 66.59171
#
# Poissons Ratio (x) = 0.11186 0.23123
# Poissons Ratio (y) = 0.14498 0.42187
# Poissons Ratio (z) = 0.38301 0.53916
#
# Static dielectric constant tensor:
#      x y z
#    x 3.829120 0.000000 -0.059620 
#    y 0.000000 3.545750 0.000000 
#    z -0.059620 0.000000 3.681410 
# 
# 
# High freq. dielectric constant tensor:
#      x y z
#    x 1.796000 0.000000 0.003280 
#    y 0.000000 1.768380 0.000000 
#    z 0.003280 0.000000 1.781180 
# 
# From -- ./inp_files/65967.got.cif
#   From: 2010.06.25/outbox.cif.g09.slc.cpg/sg12_33_cif.got.tgz:65967.got - 2010.06.28 00:19:55.
