data_PCOD8111600
_publ_section_title
;
Structure prediction by ZEFSAII (Michael W. Deem and Ramdas Pophale) SiO2 
 PCOD8111600
Probable space group: C 2/M
;
_chemical_formula_sum "Si O2"
_cell_formula_units_Z 48
_cell_length_a 29.137999
_cell_length_b 13.210686
_cell_length_c 11.581046
_cell_angle_alpha 90.000000
_cell_angle_beta 30.590111
_cell_angle_gamma 90.000000
_cell_volume 2268.606792
_symmetry_space_group_name_H-M "C 2/M"
_symmetry_group_IT_number 12
_symmetry_cell_setting 'monoclinic'
loop_
_space_group_symop_operation_xyz
x,y,z
-x,y,-z
-x,-y,-z
x,-y,z
1/2+x,1/2+y,z
1/2-x,1/2+y,-z
1/2-x,1/2-y,-z
1/2+x,1/2-y,z
loop_
_atom_site_type_symbol
_atom_site_label
_atom_site_fract_x
_atom_site_fract_y
_atom_site_fract_z
Si Si1 0.078733 0.890417 0.990899
Si Si2 0.991152 0.210731 0.386856
Si Si3 0.716772 0.735497 0.200706
Si Si4 0.376571 0.116927 0.967830
Si Si5 0.282061 0.111922 0.608329
Si Si6 0.588738 0.814474 0.856328
O O1 0.185507 0.895780 0.760897
O O2 0.053700 0.799321 0.960049
O O3 0.040821 0.000000 0.030890
O O4 0.043646 0.870616 0.196428
O O5 0.038157 0.320934 0.267799
O O6 0.000000 0.177740 0.500000
O O7 0.887741 0.205287 0.570737
O O8 0.724853 0.841896 0.249149
O O9 0.750000 0.750000 0.000000
O O10 0.780669 0.652820 0.123918
O O11 0.390978 0.000000 0.904385
O O12 0.371815 0.130548 0.116327
O O13 0.338367 0.185780 0.403195
O O14 0.326160 0.000000 0.521280
O O15 0.500000 0.871955 0.000000
#
# Coordination Sequence:
#
# PCOD8111600 Si02
#       6
#     8   8   8   8   8   8
#     4  10  22  40  63  94 130 174 222 270 337 409
#     4  11  22  43  68  93 137 179 222 285 342 406
#     4  12  24  44  69  99 138 180 228 286 346 408
#     4  11  25  45  69 103 140 180 233 286 346 416
#     4  11  22  40  68  94 127 177 226 275 339 410
#     4  11  23  43  68  97 136 178 222 287 350 405
#
# _framework density 21.158360999999999
#
# number of rings (size 3 to 8) (size 9 to 14) (size 15 to 20)
#    0.000    1.000    5.000    3.000    0.000    5.667 
#    0.000    0.000    0.000    0.000    0.000    0.000 
#    0.000    0.000    0.000    0.000    0.000    0.000 
#
# Total GULP energy -297534.831771 kJ/mol
# GULP energy per Si atom -12397.284657 kJ/mol
# Density = 2.111020 g / cm^3
# Si number density = 21.158361 Si / 1000 Ang^3
#
#
#
# Elastic Constant Matrix: (Units=GPa)
#
#
# Indices 1 2 3 4 5 6 
#
# 1 126.5665 35.7786 45.1181 0.0000 -2.3062 0.0000
# 2 35.7786 109.4757 40.4867 0.0000 5.5059 0.0000
# 3 45.1181 40.4867 129.3989 0.0000 2.9215 0.0000
# 4 0.0000 0.0000 0.0000 8.1856 0.0000 -3.1142
# 5 -2.3062 5.5059 2.9215 0.0000 52.0709 0.0000
# 6 0.0000 0.0000 0.0000 -3.1142 0.0000 8.0278
#
#
#
# Elastic Compliance Matrix: (Units=1/GPa)
#
#
# Indices 1 2 3 4 5 6 
#
# 1 0.009468 -0.002156 -0.002644 0.000000 0.000796 0.000000
# 2 -0.002156 0.010864 -0.002623 0.000000 -0.001097 0.000000
# 3 -0.002644 -0.002623 0.009479 0.000000 -0.000372 0.000000
# 4 0.000000 0.000000 0.000000 0.143318 0.000000 0.055597
# 5 0.000796 -0.001097 -0.000372 0.000000 0.019377 0.000000
# 6 0.000000 0.000000 0.000000 0.055597 0.000000 0.146136
#
#
# Mechanical properties :
#
#
# Convention : Reuss Voigt Hill
#
# Bulk Modulus (GPa) = 66.82560 67.57866 67.20213
# Shear Modulus (GPa) = 13.94793 29.92735 21.93764
#
# Velocity S-wave (km/s) = 2.57031 3.76499 3.22348
# Velocity P-wave (km/s) = 6.36088 7.13506 6.75906
#
# Compressibility (1/GPa) = 0.01496432
#
# Stress axis : x y z
#
# Youngs Moduli (GPa) = 105.62209 92.04507 105.49556
#
# Poissons Ratio (x) = 0.19847 0.27898
# Poissons Ratio (y) = 0.22775 0.27668
# Poissons Ratio (z) = 0.27931 0.24140
#
# Static dielectric constant tensor:
#      x y z
#    x 3.998910 0.000000 -0.110780 
#    y 0.000000 4.086490 0.000000 
#    z -0.110780 0.000000 3.957420 
# 
# 
# High freq. dielectric constant tensor:
#      x y z
#    x 1.838960 0.000000 -0.002240 
#    y 0.000000 1.817170 0.000000 
#    z -0.002240 0.000000 1.841430 
# 
# From -- ./inp_files/189367.got.cif
#   From: 2010.06.25/outbox.cif.g09.slc.cpg/sg12_95_cif.got.tgz:189367.got - 2010.06.28 00:19:55.
