data_PCOD8112817
_publ_section_title
;
Structure prediction by ZEFSAII (Michael W. Deem and Ramdas Pophale) SiO2 
 PCOD8112817
Probable space group: C 2/M
;
_chemical_formula_sum "Si O2"
_cell_formula_units_Z 56
_cell_length_a 26.780824
_cell_length_b 8.818884
_cell_length_c 11.630421
_cell_angle_alpha 90.000000
_cell_angle_beta 103.194176
_cell_angle_gamma 90.000000
_cell_volume 2674.326989
_symmetry_space_group_name_H-M "C 2/M"
_symmetry_group_IT_number 12
_symmetry_cell_setting 'monoclinic'
loop_
_space_group_symop_operation_xyz
x,y,z
-x,y,-z
-x,-y,-z
x,-y,z
1/2+x,1/2+y,z
1/2-x,1/2+y,-z
1/2-x,1/2-y,-z
1/2+x,1/2-y,z
loop_
_atom_site_type_symbol
_atom_site_label
_atom_site_fract_x
_atom_site_fract_y
_atom_site_fract_z
Si Si1 0.101860 0.674505 0.308452
Si Si2 0.305068 0.673853 0.532123
Si Si3 0.125488 0.327937 0.069136
Si Si4 0.993272 0.178270 0.627727
Si Si5 0.680637 0.327703 0.720200
Si Si6 0.768315 0.177270 0.892279
Si Si7 0.412780 0.823754 0.197513
O O1 0.096077 0.500000 0.343984
O O2 0.159409 0.731950 0.362599
O O3 0.091591 0.692303 0.166451
O O4 0.063046 0.777650 0.359512
O O5 0.300047 0.500000 0.571697
O O6 0.250000 0.750000 0.500000
O O7 0.331456 0.680623 0.420922
O O8 0.146948 0.500000 0.072806
O O9 0.172677 0.213191 0.099172
O O10 0.090017 0.292124 0.940561
O O11 0.000000 0.232243 0.500000
O O12 0.033801 0.259817 0.730384
O O13 0.001464 0.000000 0.642581
O O14 0.686561 0.500000 0.765578
O O15 0.733868 0.241218 0.770650
O O16 0.634408 0.254806 0.765056
O O17 0.759900 0.000000 0.895184
O O18 0.750000 0.250000 0.000000
O O19 0.410121 0.000000 0.225059
#
# Coordination Sequence:
#
# PCOD8112817 Si02
#       7
#     8   8   8   8   8   8   8
#     4  11  24  43  67  93 126 166 208 258 314 374
#     4  11  24  41  62  91 127 165 208 258 311 370
#     4  10  23  42  62  91 129 165 206 258 314 369
#     4  11  25  45  67  92 125 162 204 259 317 372
#     4  11  23  39  60  89 126 164 207 261 315 367
#     4  12  23  36  59  90 126 168 211 255 306 368
#     4  11  23  40  65  93 122 160 207 257 311 372
#
# _framework density 20.939845999999999
#
# number of rings (size 3 to 8) (size 9 to 14) (size 15 to 20)
#    0.000    1.000    1.429    5.143    0.000   12.571 
#    0.000    2.857    0.000    0.000    0.000    0.000 
#    0.000    0.000    0.000    0.000    0.000    0.000 
#
# Total GULP energy -347385.068946 kJ/mol
# GULP energy per Si atom -12406.609605 kJ/mol
# Density = 2.089219 g / cm^3
# Si number density = 20.939846 Si / 1000 Ang^3
#
#
#
# Elastic Constant Matrix: (Units=GPa)
#
#
# Indices 1 2 3 4 5 6 
#
# 1 82.5966 27.3385 32.6781 0.0000 -5.4169 0.0000
# 2 27.3385 122.7210 41.0126 0.0000 -3.0391 0.0000
# 3 32.6781 41.0126 109.3126 0.0000 -4.9938 0.0000
# 4 0.0000 0.0000 0.0000 32.4909 0.0000 4.9290
# 5 -5.4169 -3.0391 -4.9938 0.0000 33.1414 0.0000
# 6 0.0000 0.0000 0.0000 4.9290 0.0000 40.7743
#
#
#
# Elastic Compliance Matrix: (Units=1/GPa)
#
#
# Indices 1 2 3 4 5 6 
#
# 1 0.014229 -0.001981 -0.003436 0.000000 0.001626 0.000000
# 2 -0.001981 0.009596 -0.003003 0.000000 0.000104 0.000000
# 3 -0.003436 -0.003003 0.011342 0.000000 0.000872 0.000000
# 4 0.000000 0.000000 0.000000 0.031353 0.000000 -0.003790
# 5 0.001626 0.000104 0.000872 0.000000 0.030580 0.000000
# 6 0.000000 0.000000 0.000000 -0.003790 0.000000 0.024983
#
#
# Mechanical properties :
#
#
# Convention : Reuss Voigt Hill
#
# Bulk Modulus (GPa) = 54.56778 57.40985 55.98882
# Shear Modulus (GPa) = 34.47483 35.52138 34.99810
#
# Velocity S-wave (km/s) = 4.06196 4.12315 4.09267
# Velocity P-wave (km/s) = 6.93651 7.08119 7.00922
#
# Compressibility (1/GPa) = 0.01832583
#
# Stress axis : x y z
#
# Youngs Moduli (GPa) = 70.27978 104.20812 88.16865
#
# Poissons Ratio (x) = 0.20646 0.30295
# Poissons Ratio (y) = 0.13924 0.26480
# Poissons Ratio (z) = 0.24148 0.31298
#
# Static dielectric constant tensor:
#      x y z
#    x 3.670420 0.000000 0.017830 
#    y 0.000000 3.935130 0.000000 
#    z 0.017830 0.000000 4.117120 
# 
# 
# High freq. dielectric constant tensor:
#      x y z
#    x 1.814170 0.000000 -0.003310 
#    y 0.000000 1.832630 0.000000 
#    z -0.003310 0.000000 1.836430 
# 
# From -- ./inp_files/181150.got.cif
#   From: 2010.06.25/outbox.cif.g09.slc.cpg/sg12_91_cif.got.tgz:181150.got - 2010.06.28 00:19:55.
