data_PCOD8112974
_publ_section_title
;
Structure prediction by ZEFSAII (Michael W. Deem and Ramdas Pophale) SiO2 
 PCOD8112974
Probable space group: C 2/M
;
_chemical_formula_sum "Si O2"
_cell_formula_units_Z 48
_cell_length_a 24.840904
_cell_length_b 10.745855
_cell_length_c 22.456011
_cell_angle_alpha 90.000000
_cell_angle_beta 156.491044
_cell_angle_gamma 90.000000
_cell_volume 2391.094602
_symmetry_space_group_name_H-M "C 2/M"
_symmetry_group_IT_number 12
_symmetry_cell_setting 'monoclinic'
loop_
_space_group_symop_operation_xyz
x,y,z
-x,y,-z
-x,-y,-z
x,-y,z
1/2+x,1/2+y,z
1/2-x,1/2+y,-z
1/2-x,1/2-y,-z
1/2+x,1/2-y,z
loop_
_atom_site_type_symbol
_atom_site_label
_atom_site_fract_x
_atom_site_fract_y
_atom_site_fract_z
Si Si1 0.627474 0.151073 0.376743
Si Si2 0.101455 0.500000 0.548857
Si Si3 0.241437 0.750306 0.169527
Si Si4 0.354790 0.500000 0.881660
Si Si5 0.516402 0.229318 0.386734
Si Si6 0.024952 0.358083 0.146016
Si Si7 0.725291 0.643271 0.671136
O O1 0.750000 0.250000 0.500000
O O2 0.532030 0.193993 0.333804
O O3 0.540359 0.183969 0.229915
O O4 0.665457 0.000000 0.418934
O O5 0.254444 0.500000 0.724585
O O6 0.078951 0.619225 0.487356
O O7 0.000000 0.500000 0.500000
O O8 0.358932 0.749232 0.239614
O O9 0.305372 0.714846 0.298266
O O10 0.169798 0.883670 0.100003
O O11 0.126209 0.656628 0.030996
O O12 0.500000 0.500000 0.000000
O O13 0.605184 0.346132 0.500176
O O14 0.066463 0.500000 0.185102
O O15 0.137321 0.295296 0.216849
O O16 0.741310 0.500000 0.704695
#
# Coordination Sequence:
#
# PCOD8112974 Si02
#       7
#     8   4   8   4   8   8   8
#     4  11  24  45  72  94 127 177 227 272 329 395
#     4  12  20  42  62  96 132 166 205 260 335 391
#     4  12  24  39  61  96 133 166 212 266 336 390
#     4  12  24  36  62  94 134 166 212 265 318 394
#     4  12  23  39  68  94 128 170 213 269 324 395
#     4  10  23  43  63  89 129 174 218 270 328 391
#     4  11  22  39  65  96 131 171 216 263 324 394
#
# _framework density 20.074487999999999
#
# number of rings (size 3 to 8) (size 9 to 14) (size 15 to 20)
#    0.000    0.667    5.833    2.500    0.000    4.000 
#    1.500    0.000    0.000    0.000    0.000    0.000 
#    0.000    0.000    0.000    0.000    0.000    0.000 
#
# Total GULP energy -297496.415589 kJ/mol
# GULP energy per Si atom -12395.683983 kJ/mol
# Density = 2.002880 g / cm^3
# Si number density = 20.074488 Si / 1000 Ang^3
#
#
#
# Elastic Constant Matrix: (Units=GPa)
#
#
# Indices 1 2 3 4 5 6 
#
# 1 145.0955 31.1493 35.6371 -0.0007 16.5450 -0.0003
# 2 31.1493 62.0130 11.7501 -0.0005 4.6321 -0.0003
# 3 35.6371 11.7501 93.7297 -0.0015 22.7444 -0.0008
# 4 -0.0007 -0.0005 -0.0015 31.7373 -0.0006 -4.2522
# 5 16.5450 4.6321 22.7444 -0.0006 44.8902 -0.0003
# 6 -0.0003 -0.0003 -0.0008 -4.2522 -0.0003 22.6092
#
#
#
# Elastic Compliance Matrix: (Units=1/GPa)
#
#
# Indices 1 2 3 4 5 6 
#
# 1 0.008439 -0.003674 -0.002377 0.000000 -0.001527 0.000000
# 2 -0.003674 0.018140 -0.000857 0.000000 -0.000083 0.000000
# 3 -0.002377 -0.000857 0.013051 0.000001 -0.005648 0.000000
# 4 0.000000 0.000000 0.000001 0.032323 0.000000 0.006079
# 5 -0.001527 -0.000083 -0.005648 0.000000 0.025709 0.000000
# 6 0.000000 0.000000 0.000000 0.006079 0.000000 0.045373
#
#
# Mechanical properties :
#
#
# Convention : Reuss Voigt Hill
#
# Bulk Modulus (GPa) = 38.74118 50.87901 44.81009
# Shear Modulus (GPa) = 30.21944 34.66746 32.44345
#
# Velocity S-wave (km/s) = 3.88411 4.16016 4.02450
# Velocity P-wave (km/s) = 6.28138 6.96247 6.63068
#
# Compressibility (1/GPa) = 0.02581233
#
# Stress axis : x y z
#
# Youngs Moduli (GPa) = 118.49982 55.12722 76.62359
#
# Poissons Ratio (x) = 0.20256 0.18217
# Poissons Ratio (y) = 0.43541 0.06565
# Poissons Ratio (z) = 0.28173 0.04723
#
# Static dielectric constant tensor:
#      x y z
#    x 3.899020 0.000000 0.331710 
#    y 0.000000 3.841800 -0.000020 
#    z 0.331710 -0.000020 4.749600 
# 
# 
# High freq. dielectric constant tensor:
#      x y z
#    x 1.790420 0.000000 0.004980 
#    y 0.000000 1.789980 0.000000 
#    z 0.004980 0.000000 1.775990 
# 
# From -- ./inp_files/321355.got.cif
#   From: 2010.06.25/outbox.cif.g09.slc.cpg/sg12_161_cif.got.tgz:321355.got - 2010.06.28 00:19:55.
