data_PCOD8112798
_publ_section_title
;
Structure prediction by ZEFSAII (Michael W. Deem and Ramdas Pophale) SiO2 
 PCOD8112798
Probable space group: C 2/M
;
_chemical_formula_sum "Si O2"
_cell_formula_units_Z 56
_cell_length_a 27.878857
_cell_length_b 13.476256
_cell_length_c 15.842589
_cell_angle_alpha 90.000000
_cell_angle_beta 154.986379
_cell_angle_gamma 90.000000
_cell_volume 2516.749398
_symmetry_space_group_name_H-M "C 2/M"
_symmetry_group_IT_number 12
_symmetry_cell_setting 'monoclinic'
loop_
_space_group_symop_operation_xyz
x,y,z
-x,y,-z
-x,-y,-z
x,-y,z
1/2+x,1/2+y,z
1/2-x,1/2+y,-z
1/2-x,1/2-y,-z
1/2+x,1/2-y,z
loop_
_atom_site_type_symbol
_atom_site_label
_atom_site_fract_x
_atom_site_fract_y
_atom_site_fract_z
Si Si1 0.314977 0.385676 0.825059
Si Si2 0.547246 0.791804 0.985378
Si Si3 0.250271 0.882887 0.780372
Si Si4 0.579936 0.115174 0.368678
Si Si5 0.998842 0.882092 0.593479
Si Si6 0.871636 0.616729 0.139658
Si Si7 0.282306 0.618457 0.960840
O O1 0.350555 0.500000 0.884639
O O2 0.426917 0.326333 0.974289
O O3 0.211302 0.365779 0.596293
O O4 0.273753 0.345261 0.850754
O O5 0.669286 0.843276 0.165568
O O6 0.500000 0.825690 0.000000
O O7 0.455535 0.819845 0.768321
O O8 0.120863 0.850991 0.554912
O O9 0.261826 0.000000 0.801267
O O10 0.291913 0.839858 0.937544
O O11 0.503046 0.143366 0.328556
O O12 0.557124 0.000000 0.309976
O O13 0.000000 0.841096 0.500000
O O14 0.102172 0.835942 0.813083
O O15 0.013298 0.000000 0.614718
O O16 0.854720 0.500000 0.115466
O O17 0.826277 0.657105 0.157831
O O18 0.288608 0.500000 0.971092
#
# Coordination Sequence:
#
# PCOD8112798 Si02
#       7
#     8   8   8   8   8   8   8
#     4  10  23  42  61  86 122 163 206 252 304 367
#     4  11  24  41  65  89 115 154 209 267 317 361
#     4   9  17  31  54  89 128 159 194 246 308 364
#     4   9  20  40  64  90 125 161 195 246 309 368
#     4   9  14  24  49  85 125 166 196 230 289 355
#     4   8  13  26  52  83 115 156 198 234 284 353
#     4   9  16  28  52  84 118 161 206 238 280 357
#
# _framework density 22.250924000000001
#
# number of rings (size 3 to 8) (size 9 to 14) (size 15 to 20)
#    0.000    2.714    1.429    1.286    0.000    3.714 
#    0.000    5.714    3.143    4.286    0.000    0.000 
#    0.000    0.000    0.000    0.000    0.000    0.000 
#
# Total GULP energy -347097.007561 kJ/mol
# GULP energy per Si atom -12396.321699 kJ/mol
# Density = 2.220028 g / cm^3
# Si number density = 22.250924 Si / 1000 Ang^3
#
#
#
# Elastic Constant Matrix: (Units=GPa)
#
#
# Indices 1 2 3 4 5 6 
#
# 1 140.9521 6.4290 44.7785 0.0000 -1.1193 0.0000
# 2 6.4290 29.2999 29.4074 0.0000 0.8803 0.0000
# 3 44.7785 29.4074 108.0075 0.0000 -8.6023 0.0000
# 4 0.0000 0.0000 0.0000 16.8842 0.0000 7.8593
# 5 -1.1193 0.8803 -8.6023 0.0000 19.3772 0.0000
# 6 0.0000 0.0000 0.0000 7.8593 0.0000 24.6110
#
#
#
# Elastic Compliance Matrix: (Units=1/GPa)
#
#
# Indices 1 2 3 4 5 6 
#
# 1 0.008318 0.002481 -0.004245 0.000000 -0.001517 0.000000
# 2 0.002481 0.048962 -0.015058 0.000000 -0.008766 0.000000
# 3 -0.004245 -0.015058 0.015709 0.000000 0.007413 0.000000
# 4 0.000000 0.000000 0.000000 0.069568 0.000000 -0.022216
# 5 -0.001517 -0.008766 0.007413 0.000000 0.055208 0.000000
# 6 0.000000 0.000000 0.000000 -0.022216 0.000000 0.047727
#
#
# Mechanical properties :
#
#
# Convention : Reuss Voigt Hill
#
# Bulk Modulus (GPa) = 25.41615 48.83217 37.12416
# Shear Modulus (GPa) = 17.10868 25.35079 21.22974
#
# Velocity S-wave (km/s) = 2.77591 3.37903 3.09221
# Velocity P-wave (km/s) = 4.66064 6.10062 5.42859
#
# Compressibility (1/GPa) = 0.03934506
#
# Stress axis : x y z
#
# Youngs Moduli (GPa) = 120.22264 20.42416 63.65966
#
# Poissons Ratio (x) = -0.05067 0.27022
# Poissons Ratio (y) = -0.29824 0.95856
# Poissons Ratio (z) = 0.51031 0.30754
#
# Static dielectric constant tensor:
#      x y z
#    x 3.836760 0.000000 0.061610 
#    y 0.000000 3.958130 0.000000 
#    z 0.061610 0.000000 3.946020 
# 
# 
# High freq. dielectric constant tensor:
#      x y z
#    x 1.847920 0.000000 0.007940 
#    y 0.000000 1.884450 0.000000 
#    z 0.007940 0.000000 1.864850 
# 
# From -- ./inp_files/246570.got.cif
#   From: 2010.06.25/outbox.cif.g09.slc.cpg/sg12_124_cif.got.tgz:246570.got - 2010.06.28 00:19:55.
