data_PCOD8112863
_publ_section_title
;
Structure prediction by ZEFSAII (Michael W. Deem and Ramdas Pophale) SiO2 
 PCOD8112863
Probable space group: C 2/M
;
_chemical_formula_sum "Si O2"
_cell_formula_units_Z 64
_cell_length_a 29.590845
_cell_length_b 8.634251
_cell_length_c 18.314174
_cell_angle_alpha 90.000000
_cell_angle_beta 139.924645
_cell_angle_gamma 90.000000
_cell_volume 3012.427949
_symmetry_space_group_name_H-M "C 2/M"
_symmetry_group_IT_number 12
_symmetry_cell_setting 'monoclinic'
loop_
_space_group_symop_operation_xyz
x,y,z
-x,y,-z
-x,-y,-z
x,-y,z
1/2+x,1/2+y,z
1/2-x,1/2+y,-z
1/2-x,1/2-y,-z
1/2+x,1/2-y,z
loop_
_atom_site_type_symbol
_atom_site_label
_atom_site_fract_x
_atom_site_fract_y
_atom_site_fract_z
Si Si1 0.674655 0.181926 0.926094
Si Si2 0.312922 0.319153 0.624757
Si Si3 0.806818 0.678307 0.774050
Si Si4 0.038017 0.677447 0.409106
Si Si5 0.904346 0.679238 0.025672
Si Si6 0.038826 0.181612 0.253819
Si Si7 0.828411 0.322947 0.337291
Si Si8 0.091681 0.179752 0.695939
O O1 0.654248 0.215140 0.984971
O O2 0.617683 0.273241 0.808305
O O3 0.673587 0.000000 0.907098
O O4 0.750000 0.250000 0.000000
O O5 0.307880 0.500000 0.607871
O O6 0.250000 0.250000 0.500000
O O7 0.306381 0.281945 0.701772
O O8 0.388332 0.257913 0.690638
O O9 0.809305 0.500000 0.753668
O O10 0.736383 0.708923 0.732483
O O11 0.872044 0.721045 0.906845
O O12 0.014734 0.500000 0.389785
O O13 0.025600 0.725915 0.311150
O O14 0.118963 0.702442 0.529874
O O15 0.991167 0.780372 0.406691
O O16 0.926106 0.500000 0.056546
O O17 0.974450 0.781256 0.120168
O O18 0.041632 0.000000 0.273924
O O19 0.802328 0.500000 0.301630
O O20 0.866901 0.283081 0.310151
O O21 0.104155 0.000000 0.694820
#
# Coordination Sequence:
#
# PCOD8112863 Si02
#       8
#     8   8   8   8   8   8   8   8
#     4  11  22  38  61  89 125 170 219 269 319 379
#     4  11  25  45  69 100 132 168 213 263 322 386
#     4  11  24  43  67  97 130 166 212 263 318 385
#     4  11  23  40  62  90 126 166 212 264 323 389
#     4  10  23  42  64  91 127 169 214 261 318 383
#     4  11  24  41  66  96 127 166 215 267 321 383
#     4  11  24  41  63  91 126 170 215 266 326 385
#     4  12  24  38  59  90 126 166 215 266 320 383
#
# _framework density 21.245321000000001
#
# number of rings (size 3 to 8) (size 9 to 14) (size 15 to 20)
#    0.000    1.000    1.250    5.250    0.000   10.500 
#    0.000    2.500    0.000    0.000    0.000    0.000 
#    0.000    0.000    0.000    0.000    0.000    0.000 
#
# Total GULP energy -396992.970316 kJ/mol
# GULP energy per Si atom -12406.030322 kJ/mol
# Density = 2.119697 g / cm^3
# Si number density = 21.245321 Si / 1000 Ang^3
#
#
#
# Elastic Constant Matrix: (Units=GPa)
#
#
# Indices 1 2 3 4 5 6 
#
# 1 105.3551 17.7506 42.5476 0.0000 10.1000 0.0000
# 2 17.7506 68.3275 39.6154 0.0000 8.1895 0.0000
# 3 42.5476 39.6154 113.0909 0.0000 3.2717 0.0000
# 4 0.0000 0.0000 0.0000 35.8464 0.0000 2.1246
# 5 10.1000 8.1895 3.2717 0.0000 39.2963 0.0000
# 6 0.0000 0.0000 0.0000 2.1246 0.0000 34.8036
#
#
#
# Elastic Compliance Matrix: (Units=1/GPa)
#
#
# Indices 1 2 3 4 5 6 
#
# 1 0.011453 -0.000270 -0.004141 0.000000 -0.002543 0.000000
# 2 -0.000270 0.018809 -0.006391 0.000000 -0.003318 0.000000
# 3 -0.004141 -0.006391 0.012600 0.000000 0.001347 0.000000
# 4 0.000000 0.000000 0.000000 0.027998 0.000000 -0.001709
# 5 -0.002543 -0.003318 0.001347 0.000000 0.026681 0.000000
# 6 0.000000 0.000000 0.000000 -0.001709 0.000000 0.028837
#
#
# Mechanical properties :
#
#
# Convention : Reuss Voigt Hill
#
# Bulk Modulus (GPa) = 47.04015 54.06676 50.55346
# Shear Modulus (GPa) = 32.24399 34.44660 33.34529
#
# Velocity S-wave (km/s) = 3.89999 4.03100 3.96603
# Velocity P-wave (km/s) = 6.51685 6.86799 6.69472
#
# Compressibility (1/GPa) = 0.02125844
#
# Stress axis : x y z
#
# Youngs Moduli (GPa) = 87.31152 53.16688 79.36390
#
# Poissons Ratio (x) = 0.01434 0.32864
# Poissons Ratio (y) = 0.02356 0.50723
# Poissons Ratio (z) = 0.36155 0.33980
#
# Static dielectric constant tensor:
#      x y z
#    x 3.568380 0.000000 -0.497360 
#    y 0.000000 3.831360 0.000000 
#    z -0.497360 0.000000 2.823540 
# 
# 
# High freq. dielectric constant tensor:
#      x y z
#    x 1.834940 0.000000 0.003510 
#    y 0.000000 1.837260 0.000000 
#    z 0.003510 0.000000 1.845880 
# 
# From -- ./inp_files/295858.got.cif
#   From: 2010.06.25/outbox.cif.g09.slc.cpg/sg12_148_cif.got.tgz:295858.got - 2010.06.28 00:19:55.
