data_PCOD8112412
_publ_section_title
;
Structure prediction by ZEFSAII (Michael W. Deem and Ramdas Pophale) SiO2 
 PCOD8112412
Probable space group: C 2/M
;
_chemical_formula_sum "Si O2"
_cell_formula_units_Z 44
_cell_length_a 17.614555
_cell_length_b 22.329602
_cell_length_c 14.842560
_cell_angle_alpha 90.000000
_cell_angle_beta 159.869904
_cell_angle_gamma 90.000000
_cell_volume 2009.152684
_symmetry_space_group_name_H-M "C 2/M"
_symmetry_group_IT_number 12
_symmetry_cell_setting 'monoclinic'
loop_
_space_group_symop_operation_xyz
x,y,z
-x,y,-z
-x,-y,-z
x,-y,z
1/2+x,1/2+y,z
1/2-x,1/2+y,-z
1/2-x,1/2-y,-z
1/2+x,1/2-y,z
loop_
_atom_site_type_symbol
_atom_site_label
_atom_site_fract_x
_atom_site_fract_y
_atom_site_fract_z
Si Si1 0.341751 0.500000 0.908920
Si Si2 0.742184 0.181190 0.079567
Si Si3 0.253078 0.500000 0.534496
Si Si4 0.500000 0.600707 0.500000
Si Si5 0.363937 0.872657 0.535367
Si Si6 0.500000 0.899187 0.500000
Si Si7 0.536035 0.288736 0.245479
Si Si8 0.759886 0.500000 0.690242
O O1 0.203919 0.560332 0.756283
O O2 0.500000 0.500000 0.000000
O O3 0.483619 0.500000 0.158888
O O4 0.817100 0.142307 0.248386
O O5 0.950864 0.186872 0.246284
O O6 0.538719 0.150479 0.802389
O O7 0.655977 0.247583 0.014379
O O8 0.145244 0.443911 0.465021
O O9 0.200437 0.500000 0.371278
O O10 0.625517 0.559391 0.567684
O O11 0.440625 0.857152 0.519154
O O12 0.118318 0.844471 0.276268
O O13 0.750000 0.250000 0.500000
O O14 0.000000 0.500000 0.000000
#
# Coordination Sequence:
#
# PCOD8112412 Si02
#       8
#     4   8   4   4   8   4   8   4
#     4  11  22  42  58  95 134 173 219 267 333 410
#     4  10  22  43  70  93 135 175 224 279 336 393
#     4  12  23  41  72  92 134 184 210 273 343 394
#     4  11  24  42  67  99 135 176 216 278 330 395
#     4  11  23  40  65 100 134 176 220 276 335 406
#     4  11  24  38  61  97 135 169 224 273 336 404
#     4   9  21  45  67  93 125 172 226 274 331 395
#     4  11  25  42  62 107 137 169 228 266 331 405
#
# _framework density 21.89978
#
# number of rings (size 3 to 8) (size 9 to 14) (size 15 to 20)
#    0.000    1.455    1.818    2.727    5.091    2.182 
#    0.000   10.000    0.000    0.000    0.000    0.000 
#    0.000    0.000    0.000    0.000    0.000    0.000 
#
# Total GULP energy -272792.617124 kJ/mol
# GULP energy per Si atom -12399.664415 kJ/mol
# Density = 2.184994 g / cm^3
# Si number density = 21.899780 Si / 1000 Ang^3
#
#
#
# Elastic Constant Matrix: (Units=GPa)
#
#
# Indices 1 2 3 4 5 6 
#
# 1 131.3444 50.8049 40.9285 0.0003 5.3054 0.0001
# 2 50.8049 114.0044 32.3211 -0.0002 3.6199 -0.0001
# 3 40.9285 32.3211 112.6711 0.0021 -7.3284 0.0004
# 4 0.0003 -0.0002 0.0021 31.4796 0.0007 3.4010
# 5 5.3054 3.6199 -7.3284 0.0007 45.1905 0.0001
# 6 0.0001 -0.0001 0.0004 3.4010 0.0001 25.6896
#
#
#
# Elastic Compliance Matrix: (Units=1/GPa)
#
#
# Indices 1 2 3 4 5 6 
#
# 1 0.009887 -0.003617 -0.002639 0.000000 -0.001299 0.000000
# 2 -0.003617 0.010938 -0.001873 0.000000 -0.000755 0.000000
# 3 -0.002639 -0.001873 0.010512 -0.000001 0.002165 0.000000
# 4 0.000000 0.000000 -0.000001 0.032228 -0.000001 -0.004266
# 5 -0.001299 -0.000755 0.002165 -0.000001 0.022693 0.000000
# 6 0.000000 0.000000 0.000000 -0.004266 0.000000 0.039491
#
#
# Mechanical properties :
#
#
# Convention : Reuss Voigt Hill
#
# Bulk Modulus (GPa) = 66.31025 67.34764 66.82894
# Shear Modulus (GPa) = 34.00601 36.06962 35.03782
#
# Velocity S-wave (km/s) = 3.94483 4.06277 4.00423
# Velocity P-wave (km/s) = 7.14798 7.26825 7.20837
#
# Compressibility (1/GPa) = 0.01508062
#
# Stress axis : x y z
#
# Youngs Moduli (GPa) = 101.14013 91.42081 95.12958
#
# Poissons Ratio (x) = 0.33066 0.25101
# Poissons Ratio (y) = 0.36581 0.17819
# Poissons Ratio (z) = 0.26686 0.17124
#
# Static dielectric constant tensor:
#      x y z
#    x 4.125550 0.000000 0.332200 
#    y 0.000000 4.267990 0.000000 
#    z 0.332200 0.000000 4.191340 
# 
# 
# High freq. dielectric constant tensor:
#      x y z
#    x 1.855680 0.000000 0.018160 
#    y 0.000000 1.870890 0.000000 
#    z 0.018160 0.000000 1.866120 
# 
# From -- ./inp_files/17054.got.cif
#   From: 2010.06.25/outbox.cif.g09.slc.cpg/sg12_9_cif.got.tgz:17054.got - 2010.06.28 00:19:55.
