data_PCOD8112529
_publ_section_title
;
Structure prediction by ZEFSAII (Michael W. Deem and Ramdas Pophale) SiO2 
 PCOD8112529
Probable space group: C 2/M
;
_chemical_formula_sum "Si O2"
_cell_formula_units_Z 60
_cell_length_a 22.428422
_cell_length_b 26.357928
_cell_length_c 15.031890
_cell_angle_alpha 90.000000
_cell_angle_beta 160.015231
_cell_angle_gamma 90.000000
_cell_volume 3037.091912
_symmetry_space_group_name_H-M "C 2/M"
_symmetry_group_IT_number 12
_symmetry_cell_setting 'monoclinic'
loop_
_space_group_symop_operation_xyz
x,y,z
-x,y,-z
-x,-y,-z
x,-y,z
1/2+x,1/2+y,z
1/2-x,1/2+y,-z
1/2-x,1/2-y,-z
1/2+x,1/2-y,z
loop_
_atom_site_type_symbol
_atom_site_label
_atom_site_fract_x
_atom_site_fract_y
_atom_site_fract_z
Si Si1 0.083873 0.682914 0.986388
Si Si2 0.575977 0.836591 0.419758
Si Si3 0.147737 0.941727 0.468188
Si Si4 0.604546 0.703375 0.029478
Si Si5 0.956819 0.868766 0.534106
Si Si6 0.500000 0.103518 0.000000
Si Si7 0.369079 0.609564 0.744979
Si Si8 0.763327 0.193443 0.984014
O O1 0.049172 0.739251 0.974226
O O2 0.960915 0.641175 0.861782
O O3 0.030816 0.688924 0.810075
O O4 0.277085 0.662328 0.277769
O O5 0.675698 0.886713 0.520302
O O6 0.418828 0.839855 0.271978
O O7 0.727558 0.802735 0.672942
O O8 0.023737 0.909618 0.359174
O O9 0.137568 0.924570 0.351777
O O10 0.092353 0.000000 0.395375
O O11 0.337498 0.934053 0.777940
O O12 0.444409 0.666045 0.829060
O O13 0.658183 0.691916 0.004077
O O14 0.000000 0.895497 0.500000
O O15 0.106906 0.828822 0.761427
O O16 0.500000 0.583399 0.000000
O O17 0.750000 0.250000 0.000000
#
# Coordination Sequence:
#
# PCOD8112529 Si02
#       8
#     8   8   8   8   8   4   8   8
#     4  11  22  35  58  85 122 166 194 245 302 357
#     4  11  22  37  56  81 121 162 201 243 300 349
#     4  11  23  42  66  88 116 160 208 263 314 355
#     4  11  23  37  57  88 123 166 207 241 292 372
#     4  11  22  39  59  88 125 156 208 253 296 368
#     4  10  23  38  58  92 120 152 199 258 306 370
#     4  10  23  41  60  92 122 152 205 256 302 370
#     4  12  21  37  57  86 123 169 205 242 296 364
#
# _framework density 19.755739999999999
#
# number of rings (size 3 to 8) (size 9 to 14) (size 15 to 20)
#    0.000    1.067    5.333    1.400    2.800    1.067 
#    0.000    0.000    0.000    0.800    0.000    1.867 
#    0.000    0.000    0.000    0.000    0.000    0.000 
#
# Total GULP energy -371642.432112 kJ/mol
# GULP energy per Si atom -12388.081070 kJ/mol
# Density = 1.971078 g / cm^3
# Si number density = 19.755740 Si / 1000 Ang^3
#
#
#
# Elastic Constant Matrix: (Units=GPa)
#
#
# Indices 1 2 3 4 5 6 
#
# 1 104.3082 20.1401 13.6752 0.0000 -4.6094 0.0000
# 2 20.1401 84.3937 22.1916 0.0000 -7.7626 0.0000
# 3 13.6752 22.1916 75.9968 0.0000 -4.2242 0.0000
# 4 0.0000 0.0000 0.0000 17.0209 0.0000 -4.4282
# 5 -4.6094 -7.7626 -4.2242 0.0000 37.5702 0.0000
# 6 0.0000 0.0000 0.0000 -4.4282 0.0000 18.3417
#
#
#
# Elastic Compliance Matrix: (Units=1/GPa)
#
#
# Indices 1 2 3 4 5 6 
#
# 1 0.010170 -0.002050 -0.001193 0.000000 0.000690 0.000000
# 2 -0.002050 0.013439 -0.003436 0.000000 0.002139 0.000000
# 3 -0.001193 -0.003436 0.014419 0.000000 0.000765 0.000000
# 4 0.000000 0.000000 0.000000 0.062689 0.000000 0.015135
# 5 0.000690 0.002139 0.000765 0.000000 0.027229 0.000000
# 6 0.000000 0.000000 0.000000 0.015135 0.000000 0.058175
#
#
# Mechanical properties :
#
#
# Convention : Reuss Voigt Hill
#
# Bulk Modulus (GPa) = 40.53682 41.85693 41.19687
# Shear Modulus (GPa) = 24.07292 28.49933 26.28613
#
# Velocity S-wave (km/s) = 3.49453 3.80226 3.65164
# Velocity P-wave (km/s) = 6.07008 6.36470 6.21914
#
# Compressibility (1/GPa) = 0.02466893
#
# Stress axis : x y z
#
# Youngs Moduli (GPa) = 98.33171 74.41168 69.35231
#
# Poissons Ratio (x) = 0.15252 0.08274
# Poissons Ratio (y) = 0.20155 0.23833
# Poissons Ratio (z) = 0.11732 0.25571
#
# Static dielectric constant tensor:
#      x y z
#    x 4.168230 0.000000 -0.045450 
#    y 0.000000 3.225890 0.000000 
#    z -0.045450 0.000000 3.728210 
# 
# 
# High freq. dielectric constant tensor:
#      x y z
#    x 1.791400 0.000000 -0.009030 
#    y 0.000000 1.722000 0.000000 
#    z -0.009030 0.000000 1.782220 
# 
# From -- ./inp_files/242372.got.cif
#   From: 2010.06.25/outbox.cif.g09.slc.cpg/sg12_122_cif.got.tgz:242372.got - 2010.06.28 00:19:55.
