data_PCOD8112408
_publ_section_title
;
Structure prediction by ZEFSAII (Michael W. Deem and Ramdas Pophale) SiO2 
 PCOD8112408
Probable space group: C 2/M
;
_chemical_formula_sum "Si O2"
_cell_formula_units_Z 56
_cell_length_a 17.921687
_cell_length_b 19.458229
_cell_length_c 8.829417
_cell_angle_alpha 90.000000
_cell_angle_beta 60.209925
_cell_angle_gamma 90.000000
_cell_volume 2672.142776
_symmetry_space_group_name_H-M "C 2/M"
_symmetry_group_IT_number 12
_symmetry_cell_setting 'monoclinic'
loop_
_space_group_symop_operation_xyz
x,y,z
-x,y,-z
-x,-y,-z
x,-y,z
1/2+x,1/2+y,z
1/2-x,1/2+y,-z
1/2-x,1/2-y,-z
1/2+x,1/2-y,z
loop_
_atom_site_type_symbol
_atom_site_label
_atom_site_fract_x
_atom_site_fract_y
_atom_site_fract_z
Si Si1 0.190309 0.810597 0.618198
Si Si2 0.754694 0.186937 0.112590
Si Si3 0.913181 0.422086 0.996049
Si Si4 0.642735 0.579311 0.163497
Si Si5 0.432832 0.174620 0.699709
Si Si6 0.249904 0.578442 0.657218
Si Si7 0.999683 0.815105 0.321336
O O1 0.250000 0.750000 0.500000
O O2 0.182101 0.804055 0.808105
O O3 0.233477 0.880887 0.514742
O O4 0.094164 0.810293 0.652819
O O5 0.660755 0.179789 0.282465
O O6 0.750000 0.250000 0.000000
O O7 0.780006 0.116557 0.002819
O O8 0.887762 0.500000 0.984124
O O9 0.930027 0.386216 0.821071
O O10 0.833760 0.390164 0.172155
O O11 0.000000 0.416023 0.000000
O O12 0.634711 0.500000 0.119750
O O13 0.666127 0.584065 0.318376
O O14 0.553296 0.618022 0.213406
O O15 0.500000 0.158143 0.500000
O O16 0.451754 0.244879 0.773719
O O17 0.232403 0.500000 0.627695
O O18 0.000000 0.815987 0.500000
#
# Coordination Sequence:
#
# PCOD8112408 Si02
#       7
#     8   8   8   8   8   8   8
#     4  12  26  41  70 100 133 178 234 284 347 411
#     4  12  25  45  67  95 140 181 226 287 348 420
#     4  10  23  41  65  96 132 175 228 284 344 415
#     4  11  23  44  72  98 134 187 227 278 357 430
#     4  11  24  40  66  96 135 175 222 282 342 409
#     4  10  22  43  69  99 136 183 230 280 350 420
#     4  11  23  42  65 101 135 171 230 287 341 413
#
# _framework density 20.956963999999999
#
# number of rings (size 3 to 8) (size 9 to 14) (size 15 to 20)
#    0.000    1.000    4.286    2.571    4.000    2.286 
#    0.000    0.714    0.000    0.000    0.000    0.000 
#    0.000    0.000    0.000    0.000    0.000    0.000 
#
# Total GULP energy -347137.098798 kJ/mol
# GULP energy per Si atom -12397.753529 kJ/mol
# Density = 2.090927 g / cm^3
# Si number density = 20.956964 Si / 1000 Ang^3
#
#
#
# Elastic Constant Matrix: (Units=GPa)
#
#
# Indices 1 2 3 4 5 6 
#
# 1 131.4240 66.4364 60.9624 0.0000 -9.9687 0.0000
# 2 66.4364 97.1587 44.2915 0.0000 -0.2453 0.0000
# 3 60.9624 44.2915 95.3526 0.0000 3.7493 0.0000
# 4 0.0000 0.0000 0.0000 40.9932 0.0000 -5.3046
# 5 -9.9687 -0.2453 3.7493 0.0000 42.3542 0.0000
# 6 0.0000 0.0000 0.0000 -5.3046 0.0000 21.9450
#
#
#
# Elastic Compliance Matrix: (Units=1/GPa)
#
#
# Indices 1 2 3 4 5 6 
#
# 1 0.014204 -0.006970 -0.005994 0.000000 0.003833 0.000000
# 2 -0.006970 0.016494 -0.003155 0.000000 -0.001266 0.000000
# 3 -0.005994 -0.003155 0.015897 0.000000 -0.002836 0.000000
# 4 0.000000 0.000000 0.000000 0.025182 0.000000 0.006087
# 5 0.003833 -0.001266 -0.002836 0.000000 0.024756 0.000000
# 6 0.000000 0.000000 0.000000 0.006087 0.000000 0.047040
#
#
# Mechanical properties :
#
#
# Convention : Reuss Voigt Hill
#
# Bulk Modulus (GPa) = 69.66120 74.14619 71.90370
# Shear Modulus (GPa) = 27.68605 31.20813 29.44709
#
# Velocity S-wave (km/s) = 3.63862 3.86314 3.75256
# Velocity P-wave (km/s) = 7.13898 7.44013 7.29111
#
# Compressibility (1/GPa) = 0.01435519
#
# Stress axis : x y z
#
# Youngs Moduli (GPa) = 70.40477 60.62870 62.90612
#
# Poissons Ratio (x) = 0.42259 0.37705
# Poissons Ratio (y) = 0.49074 0.19849
# Poissons Ratio (z) = 0.42200 0.19130
#
# Static dielectric constant tensor:
#      x y z
#    x 3.553280 0.000000 -0.206080 
#    y 0.000000 4.020980 0.000000 
#    z -0.206080 0.000000 3.765840 
# 
# 
# High freq. dielectric constant tensor:
#      x y z
#    x 1.827730 0.000000 -0.015690 
#    y 0.000000 1.825110 0.000000 
#    z -0.015690 0.000000 1.814200 
# 
# From -- ./inp_files/77364.got.cif
#   From: 2010.06.25/outbox.cif.g09.slc.cpg/sg12_39_cif.got.tgz:77364.got - 2010.06.28 00:19:55.
