data_PCOD8112784
_publ_section_title
;
Structure prediction by ZEFSAII (Michael W. Deem and Ramdas Pophale) SiO2 
 PCOD8112784
Probable space group: C 2/M
;
_chemical_formula_sum "Si O2"
_cell_formula_units_Z 40
_cell_length_a 5.508558
_cell_length_b 20.609180
_cell_length_c 19.605773
_cell_angle_alpha 90.000000
_cell_angle_beta 129.367501
_cell_angle_gamma 90.000000
_cell_volume 1720.737479
_symmetry_space_group_name_H-M "C 2/M"
_symmetry_group_IT_number 12
_symmetry_cell_setting 'monoclinic'
loop_
_space_group_symop_operation_xyz
x,y,z
-x,y,-z
-x,-y,-z
x,-y,z
1/2+x,1/2+y,z
1/2-x,1/2+y,-z
1/2-x,1/2-y,-z
1/2+x,1/2-y,z
loop_
_atom_site_type_symbol
_atom_site_label
_atom_site_fract_x
_atom_site_fract_y
_atom_site_fract_z
Si Si1 0.861660 0.391215 0.803539
Si Si2 0.000000 0.381964 0.500000
Si Si3 0.724712 0.280100 0.103061
Si Si4 0.132294 0.500000 0.431005
Si Si5 0.260416 0.000000 0.894607
Si Si6 0.937774 0.500000 0.247776
Si Si7 0.052100 0.791286 0.342138
O O1 0.805786 0.433909 0.860643
O O2 0.597305 0.337903 0.741839
O O3 0.197915 0.355754 0.873364
O O4 0.869569 0.436707 0.739066
O O5 0.043496 0.430865 0.445533
O O6 0.283330 0.334339 0.570119
O O7 0.559126 0.255111 0.143301
O O8 0.500000 0.267484 0.000000
O O9 0.500000 0.500000 0.500000
O O10 0.927041 0.500000 0.326340
O O11 0.895902 0.000000 0.851353
O O12 0.500000 0.000000 0.000000
O O13 0.291049 0.747695 0.339784
#
# Coordination Sequence:
#
# PCOD8112784 Si02
#       7
#     8   4   8   4   4   4   8
#     4  11  26  45  70 104 142 187 248 302 376 439
#     4  11  26  46  74 112 150 191 254 306 368 453
#     4  10  23  41  68  99 134 182 235 291 358 429
#     4  11  24  45  80 107 147 202 246 307 381 443
#     4  11  28  45  74 106 143 196 254 319 382 437
#     4  11  26  45  74 101 146 192 246 312 380 447
#     4  12  28  47  77 111 152 200 246 306 378 448
#
# _framework density 23.245847999999999
#
# number of rings (size 3 to 8) (size 9 to 14) (size 15 to 20)
#    0.000    1.000    0.000    4.200   14.000    4.800 
#    0.000    0.000    0.000    0.000    0.000    0.000 
#    0.000    0.000    0.000    0.000    0.000    0.000 
#
# Total GULP energy -247792.229053 kJ/mol
# GULP energy per Si atom -12389.611453 kJ/mol
# Density = 2.319294 g / cm^3
# Si number density = 23.245848 Si / 1000 Ang^3
#
#
#
# Elastic Constant Matrix: (Units=GPa)
#
#
# Indices 1 2 3 4 5 6 
#
# 1 139.7235 73.8389 45.0242 0.0000 4.7489 0.0000
# 2 73.8389 172.8416 59.7457 0.0000 2.4292 0.0000
# 3 45.0242 59.7457 132.2947 0.0000 -0.6642 0.0000
# 4 0.0000 0.0000 0.0000 17.4119 0.0000 23.9746
# 5 4.7489 2.4292 -0.6642 0.0000 37.7859 0.0000
# 6 0.0000 0.0000 0.0000 23.9746 0.0000 25.1067
#
#
#
# Elastic Compliance Matrix: (Units=1/GPa)
#
#
# Indices 1 2 3 4 5 6 
#
# 1 0.009583 -0.003496 -0.001687 0.000000 -0.001009 0.000000
# 2 -0.003496 0.008141 -0.002487 0.000000 -0.000128 0.000000
# 3 -0.001687 -0.002487 0.009259 0.000000 0.000535 0.000000
# 4 0.000000 0.000000 0.000000 -0.182426 0.000000 0.174200
# 5 -0.001009 -0.000128 0.000535 0.000000 0.026609 0.000000
# 6 0.000000 0.000000 0.000000 0.174200 0.000000 -0.126515
#
#
# Mechanical properties :
#
#
# Convention : Reuss Voigt Hill
#
# Bulk Modulus (GPa) = 85.90501 89.11973 87.51237
# Shear Modulus (GPa) = -21.17513 33.81095 6.31791
#
# Velocity S-wave (km/s) = -3.02142 3.81792 1.65038
# Velocity P-wave (km/s) = 4.98630 7.60635 6.43116
#
# Compressibility (1/GPa) = 0.01164077
#
# Stress axis : x y z
#
# Youngs Moduli (GPa) = 104.35443 122.83738 108.00185
#
# Poissons Ratio (x) = 0.42948 0.18224
# Poissons Ratio (y) = 0.36486 0.26862
# Poissons Ratio (z) = 0.17609 0.30552
#
# Static dielectric constant tensor:
#      x y z
#    x 4.284610 0.000000 0.119100 
#    y 0.000000 4.470620 0.000000 
#    z 0.119100 0.000000 4.284390 
# 
# 
# High freq. dielectric constant tensor:
#      x y z
#    x 1.916720 0.000000 0.006980 
#    y 0.000000 1.943230 0.000000 
#    z 0.006980 0.000000 1.933030 
# 
# From -- ./inp_files/297863.got.cif
#   From: 2010.06.25/outbox.cif.g09.slc.cpg/sg12_149_cif.got.tgz:297863.got - 2010.06.28 00:19:55.
