data_PCOD8112373
_publ_section_title
;
Structure prediction by ZEFSAII (Michael W. Deem and Ramdas Pophale) SiO2 
 PCOD8112373
Probable space group: C 2/M
;
_chemical_formula_sum "Si O2"
_cell_formula_units_Z 56
_cell_length_a 9.270135
_cell_length_b 24.328828
_cell_length_c 12.970753
_cell_angle_alpha 90.000000
_cell_angle_beta 66.091390
_cell_angle_gamma 90.000000
_cell_volume 2674.301436
_symmetry_space_group_name_H-M "C 2/M"
_symmetry_group_IT_number 12
_symmetry_cell_setting 'monoclinic'
loop_
_space_group_symop_operation_xyz
x,y,z
-x,y,-z
-x,-y,-z
x,-y,z
1/2+x,1/2+y,z
1/2-x,1/2+y,-z
1/2-x,1/2-y,-z
1/2+x,1/2-y,z
loop_
_atom_site_type_symbol
_atom_site_label
_atom_site_fract_x
_atom_site_fract_y
_atom_site_fract_z
Si Si1 0.519379 0.637513 0.110576
Si Si2 0.939246 0.936105 0.318825
Si Si3 0.349376 0.842537 0.112013
Si Si4 0.855499 0.396694 0.472337
Si Si5 0.530709 0.222958 0.602534
Si Si6 0.208333 0.438359 0.727404
Si Si7 0.185511 0.766571 0.750241
O O1 0.449734 0.589517 0.202045
O O2 0.701984 0.649534 0.079408
O O3 0.424611 0.693962 0.151924
O O4 0.500000 0.616660 0.000000
O O5 0.807360 0.903926 0.420151
O O6 0.104389 0.926522 0.329406
O O7 0.895239 0.000000 0.322361
O O8 0.380473 0.897598 0.168891
O O9 0.317528 0.793980 0.201367
O O10 0.500000 0.828581 0.000000
O O11 0.872176 0.332732 0.440891
O O12 0.857527 0.432288 0.368326
O O13 0.000000 0.417956 0.500000
O O14 0.500000 0.251793 0.500000
O O15 0.362121 0.209547 0.703584
O O16 0.628348 0.263943 0.647504
O O17 0.174573 0.500000 0.776400
#
# Coordination Sequence:
#
# PCOD8112373 Si02
#       7
#     8   8   8   8   8   8   8
#     4  11  25  42  66  94 126 168 218 273 323 373
#     4  10  23  44  67  94 128 171 217 261 320 388
#     4  11  25  42  64  92 126 169 219 269 320 383
#     4  11  22  39  64  99 131 165 208 263 317 384
#     4  11  24  40  64  96 134 170 209 258 316 384
#     4  10  22  43  67  93 127 171 218 264 320 384
#     4  12  23  44  64  95 131 171 215 262 319 386
#
# _framework density 20.940047
#
# number of rings (size 3 to 8) (size 9 to 14) (size 15 to 20)
#    0.000    1.143    2.857    3.429    2.000    5.143 
#    0.000    0.000    0.000    0.000    0.000    0.000 
#    0.000    0.000    0.000    0.000    0.000    0.000 
#
# Total GULP energy -347373.543663 kJ/mol
# GULP energy per Si atom -12406.197988 kJ/mol
# Density = 2.089239 g / cm^3
# Si number density = 20.940047 Si / 1000 Ang^3
#
#
#
# Elastic Constant Matrix: (Units=GPa)
#
#
# Indices 1 2 3 4 5 6 
#
# 1 81.0764 33.2012 39.8763 0.0000 9.0538 0.0000
# 2 33.2012 84.5864 42.2193 0.0000 -3.9557 0.0000
# 3 39.8763 42.2193 107.4226 0.0000 8.9861 0.0000
# 4 0.0000 0.0000 0.0000 17.0685 0.0000 8.9121
# 5 9.0538 -3.9557 8.9861 0.0000 42.6993 0.0000
# 6 0.0000 0.0000 0.0000 8.9121 0.0000 18.4607
#
#
#
# Elastic Compliance Matrix: (Units=1/GPa)
#
#
# Indices 1 2 3 4 5 6 
#
# 1 0.016575 -0.004613 -0.004082 0.000000 -0.003083 0.000000
# 2 -0.004613 0.016286 -0.004984 0.000000 0.003536 0.000000
# 3 -0.004082 -0.004984 0.012978 0.000000 -0.002327 0.000000
# 4 0.000000 0.000000 0.000000 0.078332 0.000000 -0.037816
# 5 -0.003083 0.003536 -0.002327 0.000000 0.024891 0.000000
# 6 0.000000 0.000000 0.000000 -0.037816 0.000000 0.072425
#
#
# Mechanical properties :
#
#
# Convention : Reuss Voigt Hill
#
# Bulk Modulus (GPa) = 54.10965 55.96431 55.03698
# Shear Modulus (GPa) = 19.60752 26.16495 22.88623
#
# Velocity S-wave (km/s) = 3.06333 3.53869 3.30955
# Velocity P-wave (km/s) = 6.19745 6.59397 6.39878
#
# Compressibility (1/GPa) = 0.01848099
#
# Stress axis : x y z
#
# Youngs Moduli (GPa) = 60.33243 61.40315 77.05401
#
# Poissons Ratio (x) = 0.28322 0.31454
# Poissons Ratio (y) = 0.27829 0.38405
# Poissons Ratio (z) = 0.24628 0.30605
#
# Static dielectric constant tensor:
#      x y z
#    x 3.981970 0.000000 0.088220 
#    y 0.000000 3.693280 0.000000 
#    z 0.088220 0.000000 3.793490 
# 
# 
# High freq. dielectric constant tensor:
#      x y z
#    x 1.830840 0.000000 0.002320 
#    y 0.000000 1.816640 0.000000 
#    z 0.002320 0.000000 1.822380 
# 
# From -- ./inp_files/124236.got.cif
#   From: 2010.06.25/outbox.cif.g09.slc.cpg/sg12_63_cif.got.tgz:124236.got - 2010.06.28 00:19:55.
