data_PCOD8112315
_publ_section_title
;
Structure prediction by ZEFSAII (Michael W. Deem and Ramdas Pophale) SiO2 
 PCOD8112315
Probable space group: C 2/M
;
_chemical_formula_sum "Si O2"
_cell_formula_units_Z 44
_cell_length_a 17.043572
_cell_length_b 14.546896
_cell_length_c 10.889226
_cell_angle_alpha 90.000000
_cell_angle_beta 52.954876
_cell_angle_gamma 90.000000
_cell_volume 2154.857864
_symmetry_space_group_name_H-M "C 2/M"
_symmetry_group_IT_number 12
_symmetry_cell_setting 'monoclinic'
loop_
_space_group_symop_operation_xyz
x,y,z
-x,y,-z
-x,-y,-z
x,-y,z
1/2+x,1/2+y,z
1/2-x,1/2+y,-z
1/2-x,1/2-y,-z
1/2+x,1/2-y,z
loop_
_atom_site_type_symbol
_atom_site_label
_atom_site_fract_x
_atom_site_fract_y
_atom_site_fract_z
Si Si1 0.310453 0.398771 0.437058
Si Si2 0.345006 0.108395 0.223533
Si Si3 0.534714 0.245651 0.732514
Si Si4 0.792213 0.399391 0.707363
Si Si5 0.173647 0.752532 0.962696
Si Si6 0.000000 0.322534 0.500000
O O1 0.359540 0.500000 0.394163
O O2 0.261848 0.375468 0.613929
O O3 0.389576 0.327127 0.315517
O O4 0.218608 0.397212 0.429552
O O5 0.430108 0.154997 0.226795
O O6 0.336778 0.154947 0.097471
O O7 0.369636 0.000000 0.186490
O O8 0.529439 0.236762 0.590432
O O9 0.431597 0.279492 0.883819
O O10 0.766908 0.500000 0.784665
O O11 0.711838 0.329862 0.835057
O O12 0.905913 0.380949 0.632348
O O13 0.250000 0.750000 0.000000
#
# Coordination Sequence:
#
# PCOD8112315 Si02
#       6
#     8   8   8   8   8   4
#     4  10  22  42  70  95 124 171 222 265 317 385
#     4  11  24  44  68  96 129 170 217 268 320 382
#     4  12  24  41  69  94 132 170 217 266 322 388
#     4  11  23  42  67  95 128 166 215 269 321 380
#     4  12  26  43  61  95 134 170 209 262 330 385
#     4  12  23  40  69  96 128 168 215 274 319 374
#
# _framework density 20.418980000000001
#
# number of rings (size 3 to 8) (size 9 to 14) (size 15 to 20)
#    0.000    0.727    5.455    2.455    0.000    3.636 
#    0.000    2.273    0.000    0.000    0.000    0.000 
#    0.000    0.000    0.000    0.000    0.000    0.000 
#
# Total GULP energy -272770.420907 kJ/mol
# GULP energy per Si atom -12398.655496 kJ/mol
# Density = 2.037251 g / cm^3
# Si number density = 20.418980 Si / 1000 Ang^3
#
#
#
# Elastic Constant Matrix: (Units=GPa)
#
#
# Indices 1 2 3 4 5 6 
#
# 1 110.1544 43.1584 38.3554 0.0000 -0.8591 0.0000
# 2 43.1584 112.9201 41.6107 0.0000 -11.3619 0.0000
# 3 38.3554 41.6107 95.4690 0.0000 -12.6984 0.0000
# 4 0.0000 0.0000 0.0000 19.5457 0.0000 5.5654
# 5 -0.8591 -11.3619 -12.6984 0.0000 45.5328 0.0000
# 6 0.0000 0.0000 0.0000 5.5654 0.0000 18.0030
#
#
#
# Elastic Compliance Matrix: (Units=1/GPa)
#
#
# Indices 1 2 3 4 5 6 
#
# 1 0.011550 -0.003318 -0.003402 0.000000 -0.001559 0.000000
# 2 -0.003318 0.011590 -0.003471 0.000000 0.001862 0.000000
# 3 -0.003402 -0.003471 0.013740 0.000000 0.002902 0.000000
# 4 0.000000 0.000000 0.000000 0.056100 0.000000 -0.017343
# 5 -0.001559 0.001862 0.002902 0.000000 0.023207 0.000000
# 6 0.000000 0.000000 0.000000 -0.017343 0.000000 0.060908
#
#
# Mechanical properties :
#
#
# Convention : Reuss Voigt Hill
#
# Bulk Modulus (GPa) = 60.60806 62.75473 61.68140
# Shear Modulus (GPa) = 24.63336 29.64421 27.13878
#
# Velocity S-wave (km/s) = 3.47709 3.81438 3.64963
# Velocity P-wave (km/s) = 6.77251 7.08517 6.93060
#
# Compressibility (1/GPa) = 0.01649946
#
# Stress axis : x y z
#
# Youngs Moduli (GPa) = 86.57696 86.27870 72.77973
#
# Poissons Ratio (x) = 0.28627 0.24757
# Poissons Ratio (y) = 0.28726 0.25263
# Poissons Ratio (z) = 0.29450 0.29948
#
# Static dielectric constant tensor:
#      x y z
#    x 3.664700 0.000000 0.223810 
#    y 0.000000 3.911660 0.000000 
#    z 0.223810 0.000000 2.924230 
# 
# 
# High freq. dielectric constant tensor:
#      x y z
#    x 1.799860 0.000000 0.001860 
#    y 0.000000 1.795200 0.000000 
#    z 0.001860 0.000000 1.806530 
# 
# From -- ./inp_files/155814.got.cif
#   From: 2010.06.25/outbox.cif.g09.slc.cpg/sg12_78_cif.got.tgz:155814.got - 2010.06.28 00:19:55.
