data_PCOD8112216
_publ_section_title
;
Structure prediction by ZEFSAII (Michael W. Deem and Ramdas Pophale) SiO2 
 PCOD8112216
Probable space group: C 2/M
;
_chemical_formula_sum "Si O2"
_cell_formula_units_Z 56
_cell_length_a 25.012590
_cell_length_b 8.701751
_cell_length_c 14.448926
_cell_angle_alpha 90.000000
_cell_angle_beta 120.020202
_cell_angle_gamma 90.000000
_cell_volume 2722.971338
_symmetry_space_group_name_H-M "C 2/M"
_symmetry_group_IT_number 12
_symmetry_cell_setting 'monoclinic'
loop_
_space_group_symop_operation_xyz
x,y,z
-x,y,-z
-x,-y,-z
x,-y,z
1/2+x,1/2+y,z
1/2-x,1/2+y,-z
1/2-x,1/2-y,-z
1/2+x,1/2-y,z
loop_
_atom_site_type_symbol
_atom_site_label
_atom_site_fract_x
_atom_site_fract_y
_atom_site_fract_z
Si Si1 0.455365 0.321769 0.379881
Si Si2 0.185244 0.826217 0.708555
Si Si3 0.271257 0.679026 0.923254
Si Si4 0.602608 0.681323 0.215473
Si Si5 0.492731 0.180764 0.220554
Si Si6 0.770289 0.323603 0.612651
Si Si7 0.900186 0.318502 0.980169
O O1 0.500000 0.264532 0.500000
O O2 0.466821 0.500000 0.366360
O O3 0.386918 0.289983 0.357341
O O4 0.467401 0.224024 0.298795
O O5 0.216532 0.703779 0.803215
O O6 0.211695 0.806255 0.628834
O O7 0.197503 0.000000 0.755463
O O8 0.285657 0.500000 0.947084
O O9 0.331159 0.765584 0.939470
O O10 0.250000 0.750000 0.000000
O O11 0.603470 0.500000 0.211764
O O12 0.557983 0.736637 0.259171
O O13 0.671675 0.737970 0.292987
O O14 0.576573 0.746588 0.096018
O O15 0.502874 0.000000 0.223389
O O16 0.443717 0.237624 0.101259
O O17 0.788648 0.500000 0.612992
O O18 0.750000 0.250000 0.500000
O O19 0.901512 0.500000 0.970451
#
# Coordination Sequence:
#
# PCOD8112216 Si02
#       7
#     8   8   8   8   8   8   8
#     4  10  23  43  67  95 127 168 215 266 320 383
#     4  10  22  42  66  93 130 170 212 264 324 382
#     4  12  24  38  62  93 128 170 216 264 320 383
#     4  12  25  42  67  98 131 171 218 267 323 387
#     4  11  25  43  65  95 130 172 215 266 326 387
#     4  11  24  42  67  98 134 173 217 267 323 385
#     4  11  23  42  65  94 132 168 211 266 326 390
#
# _framework density 20.565769
#
# number of rings (size 3 to 8) (size 9 to 14) (size 15 to 20)
#    0.000    1.000    1.429    5.143    2.000    7.714 
#    0.000    0.000    0.000    0.000    0.000    0.000 
#    0.000    0.000    0.000    0.000    0.000    0.000 
#
# Total GULP energy -347405.552180 kJ/mol
# GULP energy per Si atom -12407.341149 kJ/mol
# Density = 2.051896 g / cm^3
# Si number density = 20.565769 Si / 1000 Ang^3
#
#
#
# Elastic Constant Matrix: (Units=GPa)
#
#
# Indices 1 2 3 4 5 6 
#
# 1 134.2254 42.8396 51.6528 0.0000 1.3879 0.0000
# 2 42.8396 111.2980 50.0284 0.0000 -5.1109 0.0000
# 3 51.6528 50.0284 131.9968 0.0000 -7.0172 0.0000
# 4 0.0000 0.0000 0.0000 36.5412 0.0000 -5.6973
# 5 1.3879 -5.1109 -7.0172 0.0000 35.0496 0.0000
# 6 0.0000 0.0000 0.0000 -5.6973 0.0000 27.7730
#
#
#
# Elastic Compliance Matrix: (Units=1/GPa)
#
#
# Indices 1 2 3 4 5 6 
#
# 1 0.009302 -0.002377 -0.002807 0.000000 -0.001277 0.000000
# 2 -0.002377 0.011458 -0.003354 0.000000 0.001093 0.000000
# 3 -0.002807 -0.003354 0.010032 0.000000 0.001631 0.000000
# 4 0.000000 0.000000 0.000000 0.028271 0.000000 0.005799
# 5 -0.001277 0.001093 0.001631 0.000000 0.029067 0.000000
# 6 0.000000 0.000000 0.000000 0.005799 0.000000 0.037196
#
#
# Mechanical properties :
#
#
# Convention : Reuss Voigt Hill
#
# Bulk Modulus (GPa) = 72.91136 74.06240 73.48688
# Shear Modulus (GPa) = 34.01927 35.40605 34.71266
#
# Velocity S-wave (km/s) = 4.07156 4.15372 4.11285
# Velocity P-wave (km/s) = 7.59165 7.68734 7.63965
#
# Compressibility (1/GPa) = 0.01371528
#
# Stress axis : x y z
#
# Youngs Moduli (GPa) = 107.49984 87.27582 99.67767
#
# Poissons Ratio (x) = 0.20749 0.27979
# Poissons Ratio (y) = 0.25558 0.33434
# Poissons Ratio (z) = 0.30175 0.29274
#
# Static dielectric constant tensor:
#      x y z
#    x 3.860860 0.000000 0.031150 
#    y 0.000000 3.789200 0.000000 
#    z 0.031150 0.000000 3.825720 
# 
# 
# High freq. dielectric constant tensor:
#      x y z
#    x 1.821510 0.000000 -0.001670 
#    y 0.000000 1.809310 0.000000 
#    z -0.001670 0.000000 1.809940 
# 
# From -- ./inp_files/239025.got.cif
#   From: 2010.06.25/outbox.cif.g09.slc.cpg/sg12_120_cif.got.tgz:239025.got - 2010.06.28 00:19:55.
