data_PCOD8112828
_publ_section_title
;
Structure prediction by ZEFSAII (Michael W. Deem and Ramdas Pophale) SiO2 
 PCOD8112828
Probable space group: C 2/M
;
_chemical_formula_sum "Si O2"
_cell_formula_units_Z 56
_cell_length_a 20.925157
_cell_length_b 9.012489
_cell_length_c 14.046150
_cell_angle_alpha 90.000000
_cell_angle_beta 98.799082
_cell_angle_gamma 90.000000
_cell_volume 2617.756065
_symmetry_space_group_name_H-M "C 2/M"
_symmetry_group_IT_number 12
_symmetry_cell_setting 'monoclinic'
loop_
_space_group_symop_operation_xyz
x,y,z
-x,y,-z
-x,-y,-z
x,-y,z
1/2+x,1/2+y,z
1/2-x,1/2+y,-z
1/2-x,1/2-y,-z
1/2+x,1/2-y,z
loop_
_atom_site_type_symbol
_atom_site_label
_atom_site_fract_x
_atom_site_fract_y
_atom_site_fract_z
Si Si1 0.999610 0.165349 0.245704
Si Si2 0.095619 0.325586 0.155163
Si Si3 0.080983 0.166490 0.958897
Si Si4 0.202025 0.322638 0.564856
Si Si5 0.800654 0.338545 0.070756
Si Si6 0.278087 0.662384 0.765865
Si Si7 0.435647 0.674339 0.424840
O O1 0.974827 0.161990 0.131660
O O2 0.950840 0.221143 0.317752
O O3 0.061198 0.273100 0.246040
O O4 0.022313 0.000000 0.280899
O O5 0.089212 0.500000 0.145239
O O6 0.170025 0.278120 0.181783
O O7 0.064815 0.255961 0.051592
O O8 0.135797 0.243072 0.910752
O O9 0.100025 0.000000 0.995381
O O10 0.197296 0.500000 0.549858
O O11 0.250000 0.250000 0.500000
O O12 0.239806 0.274592 0.667848
O O13 0.128285 0.258595 0.550201
O O14 0.813643 0.500000 0.026393
O O15 0.778103 0.359888 0.171771
O O16 0.750000 0.250000 0.000000
O O17 0.310289 0.500000 0.752731
O O18 0.500000 0.716973 0.500000
O O19 0.420797 0.500000 0.429679
#
# Coordination Sequence:
#
# PCOD8112828 Si02
#       7
#     8   8   8   8   8   8   8
#     4  10  23  42  64  89 126 172 214 262 324 390
#     4  12  25  38  60  93 127 168 216 270 320 380
#     4  11  22  38  60  87 124 169 214 262 318 383
#     4  11  25  45  71 102 135 172 216 273 329 389
#     4  11  21  35  58  87 119 161 208 258 314 375
#     4  10  23  42  63  88 127 172 213 260 325 390
#     4  10  23  45  72 101 132 172 219 270 331 397
#
# _framework density 21.392368000000001
#
# number of rings (size 3 to 8) (size 9 to 14) (size 15 to 20)
#    0.000    1.286    1.429    3.857    2.000    5.429 
#    0.000    0.000    0.000    0.000    0.000    0.000 
#    0.000    0.000    0.000    0.000    0.000    0.000 
#
# Total GULP energy -346923.957139 kJ/mol
# GULP energy per Si atom -12390.141326 kJ/mol
# Density = 2.134368 g / cm^3
# Si number density = 21.392368 Si / 1000 Ang^3
#
#
#
# Elastic Constant Matrix: (Units=GPa)
#
#
# Indices 1 2 3 4 5 6 
#
# 1 109.0646 51.2206 48.8391 0.0000 -30.0066 0.0000
# 2 51.2206 133.4405 45.2377 0.0000 -16.2576 0.0000
# 3 48.8391 45.2377 114.4838 0.0000 -8.2018 0.0000
# 4 0.0000 0.0000 0.0000 25.4323 0.0000 -7.1847
# 5 -30.0066 -16.2576 -8.2018 0.0000 36.3854 0.0000
# 6 0.0000 0.0000 0.0000 -7.1847 0.0000 32.8031
#
#
#
# Elastic Compliance Matrix: (Units=1/GPa)
#
#
# Indices 1 2 3 4 5 6 
#
# 1 0.015596 -0.003136 -0.004668 0.000000 0.010408 0.000000
# 2 -0.003136 0.009653 -0.002392 0.000000 0.001188 0.000000
# 3 -0.004668 -0.002392 0.011505 0.000000 -0.002325 0.000000
# 4 0.000000 0.000000 0.000000 0.041913 0.000000 0.009180
# 5 0.010408 0.001188 -0.002325 0.000000 0.036074 0.000000
# 6 0.000000 0.000000 0.000000 0.009180 0.000000 0.032496
#
#
# Mechanical properties :
#
#
# Convention : Reuss Voigt Hill
#
# Bulk Modulus (GPa) = 61.11627 71.95376 66.53501
# Shear Modulus (GPa) = 28.88812 33.03692 30.96252
#
# Velocity S-wave (km/s) = 3.67876 3.93406 3.80855
# Velocity P-wave (km/s) = 6.83195 7.37184 7.10703
#
# Compressibility (1/GPa) = 0.01636226
#
# Stress axis : x y z
#
# Youngs Moduli (GPa) = 64.12102 103.59366 86.91964
#
# Poissons Ratio (x) = 0.32483 0.40578
# Poissons Ratio (y) = 0.20106 0.20788
# Poissons Ratio (z) = 0.29934 0.24776
#
# Static dielectric constant tensor:
#      x y z
#    x 6.980150 0.000000 -0.411840 
#    y 0.000000 4.013860 0.000000 
#    z -0.411840 0.000000 3.784310 
# 
# 
# High freq. dielectric constant tensor:
#      x y z
#    x 1.845240 0.000000 -0.013080 
#    y 0.000000 1.839470 0.000000 
#    z -0.013080 0.000000 1.844360 
# 
# From -- ./inp_files/230901.got.cif
#   From: 2010.06.25/outbox.cif.g09.slc.cpg/sg12_116_cif.got.tgz:230901.got - 2010.06.28 00:19:55.
