data_PCOD8112892
_publ_section_title
;
Structure prediction by ZEFSAII (Michael W. Deem and Ramdas Pophale) SiO2 
 PCOD8112892
Probable space group: C 2/M
;
_chemical_formula_sum "Si O2"
_cell_formula_units_Z 48
_cell_length_a 22.915717
_cell_length_b 11.000968
_cell_length_c 12.932539
_cell_angle_alpha 90.000000
_cell_angle_beta 137.382766
_cell_angle_gamma 90.000000
_cell_volume 2207.492630
_symmetry_space_group_name_H-M "C 2/M"
_symmetry_group_IT_number 12
_symmetry_cell_setting 'monoclinic'
loop_
_space_group_symop_operation_xyz
x,y,z
-x,y,-z
-x,-y,-z
x,-y,z
1/2+x,1/2+y,z
1/2-x,1/2+y,-z
1/2-x,1/2-y,-z
1/2+x,1/2-y,z
loop_
_atom_site_type_symbol
_atom_site_label
_atom_site_fract_x
_atom_site_fract_y
_atom_site_fract_z
Si Si1 0.623504 0.137865 0.706339
Si Si2 0.039788 0.752609 0.785886
Si Si3 0.689687 0.363203 0.114915
Si Si4 0.946687 0.633397 0.839299
Si Si5 0.263464 0.793030 0.633107
Si Si6 0.593752 0.365711 0.520310
O O1 0.582447 0.153582 0.765573
O O2 0.726617 0.148260 0.849500
O O3 0.589033 0.248020 0.589082
O O4 0.599625 0.000000 0.634257
O O5 0.960494 0.697189 0.747282
O O6 0.993511 0.860721 0.662107
O O7 0.112964 0.792307 0.960604
O O8 0.658417 0.500000 0.087175
O O9 0.714200 0.317730 0.261102
O O10 0.986891 0.500000 0.880162
O O11 0.846729 0.621023 0.738979
O O12 0.000000 0.702125 0.000000
O O13 0.250000 0.750000 0.500000
O O14 0.180012 0.864375 0.564083
O O15 0.592426 0.500000 0.573883
#
# Coordination Sequence:
#
# PCOD8112892 Si02
#       6
#     8   8   8   8   8   8
#     4  10  24  45  68  96 130 173 223 269 326 389
#     4  12  22  41  66  95 130 169 218 267 330 386
#     4  10  23  42  65  93 127 168 215 272 326 384
#     4  11  23  40  63  92 128 166 216 269 321 385
#     4  11  22  44  64  93 129 172 215 266 322 393
#     4  11  25  42  67  99 133 173 217 270 330 388
#
# _framework density 21.744128
#
# number of rings (size 3 to 8) (size 9 to 14) (size 15 to 20)
#    0.000    1.167    3.333    2.500    0.000    5.333 
#    0.000    3.333    0.000    0.000    0.000    0.000 
#    0.000    0.000    0.000    0.000    0.000    0.000 
#
# Total GULP energy -297397.371184 kJ/mol
# GULP energy per Si atom -12391.557133 kJ/mol
# Density = 2.169464 g / cm^3
# Si number density = 21.744128 Si / 1000 Ang^3
#
#
#
# Elastic Constant Matrix: (Units=GPa)
#
#
# Indices 1 2 3 4 5 6 
#
# 1 136.4931 36.3613 36.8585 0.0000 -0.9660 0.0000
# 2 36.3613 140.5010 39.2352 0.0000 -16.3257 0.0000
# 3 36.8585 39.2352 115.9261 0.0000 5.7992 0.0000
# 4 0.0000 0.0000 0.0000 21.9502 0.0000 0.6327
# 5 -0.9660 -16.3257 5.7992 0.0000 34.6668 0.0000
# 6 0.0000 0.0000 0.0000 0.6327 0.0000 11.1965
#
#
#
# Elastic Compliance Matrix: (Units=1/GPa)
#
#
# Indices 1 2 3 4 5 6 
#
# 1 0.008314 -0.001585 -0.002099 0.000000 -0.000163 0.000000
# 2 -0.001585 0.008813 -0.002707 0.000000 0.004559 0.000000
# 3 -0.002099 -0.002707 0.010363 0.000000 -0.003067 0.000000
# 4 0.000000 0.000000 0.000000 0.045632 0.000000 -0.002579
# 5 -0.000163 0.004559 -0.003067 0.000000 0.031502 0.000000
# 6 0.000000 0.000000 0.000000 -0.002579 0.000000 0.089459
#
#
# Mechanical properties :
#
#
# Convention : Reuss Voigt Hill
#
# Bulk Modulus (GPa) = 67.98430 68.64779 68.31605
# Shear Modulus (GPa) = 23.61081 32.26039 27.93560
#
# Velocity S-wave (km/s) = 3.29879 3.85598 3.58822
# Velocity P-wave (km/s) = 6.77074 7.17384 6.97520
#
# Compressibility (1/GPa) = 0.01470928
#
# Stress axis : x y z
#
# Youngs Moduli (GPa) = 120.27687 113.46659 96.49522
#
# Poissons Ratio (x) = 0.17979 0.20255
# Poissons Ratio (y) = 0.19058 0.26122
# Poissons Ratio (z) = 0.25246 0.30716
#
# Static dielectric constant tensor:
#      x y z
#    x 4.250880 0.000000 0.172310 
#    y 0.000000 3.786570 0.000000 
#    z 0.172310 0.000000 3.961010 
# 
# 
# High freq. dielectric constant tensor:
#      x y z
#    x 1.873120 0.000000 0.013310 
#    y 0.000000 1.843630 0.000000 
#    z 0.013310 0.000000 1.855160 
# 
# From -- ./inp_files/165841.got.cif
#   From: 2010.06.25/outbox.cif.g09.slc.cpg/sg12_83_cif.got.tgz:165841.got - 2010.06.28 00:19:55.
