data_PCOD8112559
_publ_section_title
;
Structure prediction by ZEFSAII (Michael W. Deem and Ramdas Pophale) SiO2 
 PCOD8112559
Probable space group: C 2/M
;
_chemical_formula_sum "Si O2"
_cell_formula_units_Z 52
_cell_length_a 13.801935
_cell_length_b 10.933487
_cell_length_c 20.987338
_cell_angle_alpha 90.000000
_cell_angle_beta 53.202856
_cell_angle_gamma 90.000000
_cell_volume 2536.057319
_symmetry_space_group_name_H-M "C 2/M"
_symmetry_group_IT_number 12
_symmetry_cell_setting 'monoclinic'
loop_
_space_group_symop_operation_xyz
x,y,z
-x,y,-z
-x,-y,-z
x,-y,z
1/2+x,1/2+y,z
1/2-x,1/2+y,-z
1/2-x,1/2-y,-z
1/2+x,1/2-y,z
loop_
_atom_site_type_symbol
_atom_site_label
_atom_site_fract_x
_atom_site_fract_y
_atom_site_fract_z
Si Si1 0.370359 0.639833 0.255575
Si Si2 0.882197 0.759144 0.851011
Si Si3 0.095622 0.500000 0.103620
Si Si4 0.816433 0.500000 0.203198
Si Si5 0.447052 0.701902 0.455351
Si Si6 0.232052 0.132394 0.575694
Si Si7 0.333725 0.263464 0.723337
Si Si8 0.269598 0.000000 0.074775
O O1 0.413684 0.500000 0.245624
O O2 0.480071 0.716458 0.181875
O O3 0.333941 0.699326 0.338899
O O4 0.256365 0.649736 0.252935
O O5 0.843232 0.624409 0.891597
O O6 0.882964 0.759844 0.774693
O O7 0.803214 0.872820 0.908565
O O8 0.953197 0.500000 0.175156
O O9 0.120276 0.500000 0.018441
O O10 0.743404 0.385403 0.259565
O O11 0.822918 0.500000 0.124280
O O12 0.500000 0.641318 0.500000
O O13 0.361716 0.814773 0.506803
O O14 0.358813 0.615685 0.448782
O O15 0.556866 0.747144 0.368958
O O16 0.264032 0.000000 0.589858
#
# Coordination Sequence:
#
# PCOD8112559 Si02
#       8
#     8   8   4   4   8   8   8   4
#     4  11  21  39  64  85 123 167 211 256 302 379
#     4  11  23  41  65  95 128 165 207 253 312 380
#     4  12  23  42  67 101 129 151 206 272 310 367
#     4  10  23  40  67  90 122 162 211 248 311 384
#     4  11  22  38  56  84 122 156 206 261 310 355
#     4  10  23  39  57  84 115 164 213 257 309 366
#     4  11  23  40  60  91 124 164 210 255 311 370
#     4  10  23  44  69  91 126 174 200 243 322 392
#
# _framework density 20.504269000000001
#
# number of rings (size 3 to 8) (size 9 to 14) (size 15 to 20)
#    0.000    1.231    5.385    0.692    2.154    1.231 
#    0.000    0.000    0.000    0.923    0.000    0.000 
#    0.000    0.000    0.000    0.000    0.000    0.000 
#
# Total GULP energy -322202.930030 kJ/mol
# GULP energy per Si atom -12392.420386 kJ/mol
# Density = 2.045760 g / cm^3
# Si number density = 20.504269 Si / 1000 Ang^3
#
#
#
# Elastic Constant Matrix: (Units=GPa)
#
#
# Indices 1 2 3 4 5 6 
#
# 1 71.3889 12.8193 10.3306 0.0000 -10.5754 0.0000
# 2 12.8193 103.7879 17.1466 0.0000 -5.1509 0.0000
# 3 10.3306 17.1466 73.2346 0.0000 -10.4964 0.0000
# 4 0.0000 0.0000 0.0000 12.1548 0.0000 18.8160
# 5 -10.5754 -5.1509 -10.4964 0.0000 23.2748 0.0000
# 6 0.0000 0.0000 0.0000 18.8160 0.0000 -4.7487
#
#
#
# Elastic Compliance Matrix: (Units=1/GPa)
#
#
# Indices 1 2 3 4 5 6 
#
# 1 0.015322 -0.001429 -0.000935 0.000000 0.006224 0.000000
# 2 -0.001429 0.010190 -0.002089 0.000000 0.000664 0.000000
# 3 -0.000935 -0.002089 0.015126 0.000000 0.005935 0.000000
# 4 0.000000 0.000000 0.000000 0.011533 0.000000 0.045696
# 5 0.006224 0.000664 0.005935 0.000000 0.048616 0.000000
# 6 0.000000 0.000000 0.000000 0.045696 0.000000 -0.029519
#
#
# Mechanical properties :
#
#
# Convention : Reuss Voigt Hill
#
# Bulk Modulus (GPa) = 31.51398 36.55604 34.03501
# Shear Modulus (GPa) = 55.09640 20.01053 37.55347
#
# Velocity S-wave (km/s) = 5.18932 3.12736 4.28424
# Velocity P-wave (km/s) = 7.16298 5.55947 6.41155
#
# Compressibility (1/GPa) = 0.03173195
#
# Stress axis : x y z
#
# Youngs Moduli (GPa) = 65.26707 98.13921 66.11012
#
# Poissons Ratio (x) = 0.14026 0.06179
# Poissons Ratio (y) = 0.09328 0.13811
# Poissons Ratio (z) = 0.06100 0.20501
#
# Static dielectric constant tensor:
#      x y z
#    x 3.723860 0.000000 0.007390 
#    y 0.000000 3.658010 0.000000 
#    z 0.007390 0.000000 3.623760 
# 
# 
# High freq. dielectric constant tensor:
#      x y z
#    x 1.803170 0.000000 -0.006140 
#    y 0.000000 1.792890 0.000000 
#    z -0.006140 0.000000 1.802670 
# 
# From -- ./inp_files/309800.got.cif
#   From: 2010.06.25/outbox.cif.g09.slc.cpg/sg12_155_cif.got.tgz:309800.got - 2010.06.28 00:19:55.
