data_PCOD8112608
_publ_section_title
;
Structure prediction by ZEFSAII (Michael W. Deem and Ramdas Pophale) SiO2 
 PCOD8112608
Probable space group: C 2/M
;
_chemical_formula_sum "Si O2"
_cell_formula_units_Z 40
_cell_length_a 21.568773
_cell_length_b 13.391973
_cell_length_c 22.566817
_cell_angle_alpha 90.000000
_cell_angle_beta 162.099702
_cell_angle_gamma 90.000000
_cell_volume 2003.502431
_symmetry_space_group_name_H-M "C 2/M"
_symmetry_group_IT_number 12
_symmetry_cell_setting 'monoclinic'
loop_
_space_group_symop_operation_xyz
x,y,z
-x,y,-z
-x,-y,-z
x,-y,z
1/2+x,1/2+y,z
1/2-x,1/2+y,-z
1/2-x,1/2-y,-z
1/2+x,1/2-y,z
loop_
_atom_site_type_symbol
_atom_site_label
_atom_site_fract_x
_atom_site_fract_y
_atom_site_fract_z
Si Si1 0.592339 0.000000 0.335693
Si Si2 0.634147 0.794832 0.040569
Si Si3 0.214483 0.193530 0.692251
Si Si4 0.162876 0.000000 0.564064
Si Si5 0.740073 0.162361 0.944317
Si Si6 0.991620 0.000000 0.771256
Si Si7 0.766875 0.000000 0.128026
O O1 0.682240 0.000000 0.351030
O O2 0.762262 0.000000 0.541437
O O3 0.460752 0.098493 0.227781
O O4 0.729062 0.826125 0.188876
O O5 0.624595 0.902374 0.999498
O O6 0.405954 0.749399 0.837546
O O7 0.769619 0.713603 0.129543
O O8 0.183635 0.094074 0.625883
O O9 0.000000 0.253399 0.500000
O O10 0.938109 0.000000 0.333618
O O11 0.947558 0.098316 0.135940
O O12 0.750000 0.250000 0.000000
O O13 0.142114 0.000000 0.853644
#
# Coordination Sequence:
#
# PCOD8112608 Si02
#       7
#     4   8   8   4   8   4   4
#     4  10  25  41  64  95 126 166 205 254 312 374
#     4  11  23  36  59  87 125 164 204 245 297 375
#     4  11  22  36  54  88 123 162 197 247 307 366
#     4  11  20  36  58  89 131 163 193 242 315 388
#     4  11  22  40  63  89 124 167 211 254 307 366
#     4  10  23  40  58  90 125 165 206 252 308 355
#     4  11  19  36  57  90 128 164 195 239 309 375
#
# _framework density 19.965036999999999
#
# number of rings (size 3 to 8) (size 9 to 14) (size 15 to 20)
#    0.000    1.200    4.000    2.700    2.800    4.000 
#    0.000    0.000    0.000    9.600    0.000   11.200 
#    0.000    0.000    0.000    0.000    0.000    0.000 
#
# Total GULP energy -247761.264528 kJ/mol
# GULP energy per Si atom -12388.063226 kJ/mol
# Density = 1.991960 g / cm^3
# Si number density = 19.965037 Si / 1000 Ang^3
#
#
#
# Elastic Constant Matrix: (Units=GPa)
#
#
# Indices 1 2 3 4 5 6 
#
# 1 108.6955 46.2694 49.9444 0.1332 7.7411 -0.3132
# 2 46.2694 97.3700 30.9872 -0.8621 3.8470 0.8440
# 3 49.9444 30.9872 110.1466 -0.3261 21.0521 0.4131
# 4 0.1332 -0.8621 -0.3261 18.3566 -0.0703 9.6602
# 5 7.7411 3.8470 21.0521 -0.0703 38.3095 0.1131
# 6 -0.3132 0.8440 0.4131 9.6602 0.1131 13.8882
#
#
#
# Elastic Compliance Matrix: (Units=1/GPa)
#
#
# Indices 1 2 3 4 5 6 
#
# 1 0.013484 -0.004915 -0.004820 -0.001268 0.000410 0.001625
# 2 -0.004915 0.013111 -0.001550 0.001706 0.000537 -0.002053
# 3 -0.004820 -0.001550 0.012836 0.000553 -0.005921 -0.000733
# 4 -0.001268 0.001706 0.000553 0.086212 0.000117 -0.060116
# 5 0.000410 0.000537 -0.005921 0.000117 0.029221 -0.000166
# 6 0.001625 -0.002053 -0.000733 -0.060116 -0.000166 0.114003
#
#
# Mechanical properties :
#
#
# Convention : Reuss Voigt Hill
#
# Bulk Modulus (GPa) = 59.30501 63.40156 61.35329
# Shear Modulus (GPa) = 16.83186 26.71161 21.77173
#
# Velocity S-wave (km/s) = 2.90671 3.66173 3.30584
# Velocity P-wave (km/s) = 6.40580 7.05003 6.73562
#
# Compressibility (1/GPa) = 0.01686198
#
# Stress axis : x y z
#
# Youngs Moduli (GPa) = 74.16293 76.27450 77.90457
#
# Poissons Ratio (x) = 0.37490 0.37547
# Poissons Ratio (y) = 0.36452 0.12072
# Poissons Ratio (z) = 0.35743 0.11820
#
# Static dielectric constant tensor:
#      x y z
#    x 3.940510 -0.000120 0.163650 
#    y -0.000120 3.494010 -0.000080 
#    z 0.163650 -0.000080 4.284800 
# 
# 
# High freq. dielectric constant tensor:
#      x y z
#    x 1.788860 -0.000010 0.001710 
#    y -0.000010 1.738910 -0.000030 
#    z 0.001710 -0.000030 1.795600 
# 
# From -- ./inp_files/322180.got.cif
#   From: 2010.06.25/outbox.cif.g09.slc.cpg/sg12_162_cif.got.tgz:322180.got - 2010.06.28 00:19:55.
