data_PCOD8112459
_publ_section_title
;
Structure prediction by ZEFSAII (Michael W. Deem and Ramdas Pophale) SiO2 
 PCOD8112459
Probable space group: C 2/M
;
_chemical_formula_sum "Si O2"
_cell_formula_units_Z 48
_cell_length_a 8.758118
_cell_length_b 13.995718
_cell_length_c 18.955998
_cell_angle_alpha 90.000000
_cell_angle_beta 79.225506
_cell_angle_gamma 90.000000
_cell_volume 2282.590327
_symmetry_space_group_name_H-M "C 2/M"
_symmetry_group_IT_number 12
_symmetry_cell_setting 'monoclinic'
loop_
_space_group_symop_operation_xyz
x,y,z
-x,y,-z
-x,-y,-z
x,-y,z
1/2+x,1/2+y,z
1/2-x,1/2+y,-z
1/2-x,1/2-y,-z
1/2+x,1/2-y,z
loop_
_atom_site_type_symbol
_atom_site_label
_atom_site_fract_x
_atom_site_fract_y
_atom_site_fract_z
Si Si1 0.894268 0.784070 0.754400
Si Si2 0.684313 0.351525 0.986190
Si Si3 0.537395 0.887608 0.415171
Si Si4 0.101078 0.608235 0.157337
Si Si5 0.281324 0.102180 0.123469
Si Si6 0.315558 0.252423 0.346741
O O1 0.887434 0.670271 0.772202
O O2 0.855663 0.834492 0.831467
O O3 0.773567 0.811193 0.703544
O O4 0.060273 0.814203 0.708850
O O5 0.746734 0.383987 0.904870
O O6 0.500000 0.356164 0.000000
O O7 0.750000 0.250000 0.000000
O O8 0.750969 0.416137 0.043491
O O9 0.500000 0.889312 0.500000
O O10 0.400584 0.824364 0.390399
O O11 0.700909 0.829883 0.392919
O O12 0.545664 0.000000 0.388051
O O13 0.082970 0.500000 0.184500
O O14 0.952400 0.645431 0.124227
O O15 0.273671 0.000000 0.162184
#
# Coordination Sequence:
#
# PCOD8112459 Si02
#       6
#     8   8   8   8   8   8
#     4  11  22  40  61  93 129 171 208 263 318 384
#     4  12  25  40  62  85 116 157 214 281 334 387
#     4  10  22  44  74 105 138 178 221 266 319 383
#     4  11  24  42  64  87 120 165 216 270 333 393
#     4  11  24  41  61  87 120 162 209 264 332 390
#     4  10  23  40  67  99 140 173 216 263 324 382
#
# _framework density 21.028739999999999
#
# number of rings (size 3 to 8) (size 9 to 14) (size 15 to 20)
#    0.000    1.167    3.333    2.500    2.333    6.667 
#    0.000    2.500    0.000    9.000    0.000    0.000 
#    0.000    0.000    0.000    0.000    0.000    0.000 
#
# Total GULP energy -297361.311547 kJ/mol
# GULP energy per Si atom -12390.054648 kJ/mol
# Density = 2.098088 g / cm^3
# Si number density = 21.028740 Si / 1000 Ang^3
#
#
#
# Elastic Constant Matrix: (Units=GPa)
#
#
# Indices 1 2 3 4 5 6 
#
# 1 142.1605 41.6689 38.5946 0.0000 -8.2876 0.0000
# 2 41.6689 122.2169 29.2207 0.0000 -3.0647 0.0000
# 3 38.5946 29.2207 80.2111 0.0000 -9.7707 0.0000
# 4 0.0000 0.0000 0.0000 19.2805 0.0000 3.6483
# 5 -8.2876 -3.0647 -9.7707 0.0000 27.5768 0.0000
# 6 0.0000 0.0000 0.0000 3.6483 0.0000 26.8551
#
#
#
# Elastic Compliance Matrix: (Units=1/GPa)
#
#
# Indices 1 2 3 4 5 6 
#
# 1 0.008603 -0.002134 -0.003215 0.000000 0.001209 0.000000
# 2 -0.002134 0.009493 -0.002488 0.000000 -0.000468 0.000000
# 3 -0.003215 -0.002488 0.015435 0.000000 0.004226 0.000000
# 4 0.000000 0.000000 0.000000 0.053234 0.000000 -0.007232
# 5 0.001209 -0.000468 0.004226 0.000000 0.038071 0.000000
# 6 0.000000 0.000000 0.000000 -0.007232 0.000000 0.038219
#
#
# Mechanical properties :
#
#
# Convention : Reuss Voigt Hill
#
# Bulk Modulus (GPa) = 56.00136 62.61744 59.30940
# Shear Modulus (GPa) = 27.07343 30.41611 28.74477
#
# Velocity S-wave (km/s) = 3.59200 3.80729 3.70121
# Velocity P-wave (km/s) = 6.62510 7.01206 6.82132
#
# Compressibility (1/GPa) = 0.01785671
#
# Stress axis : x y z
#
# Youngs Moduli (GPa) = 116.23691 105.34031 64.78693
#
# Poissons Ratio (x) = 0.22482 0.20827
# Poissons Ratio (y) = 0.24808 0.16122
# Poissons Ratio (z) = 0.37367 0.26213
#
# Static dielectric constant tensor:
#      x y z
#    x 4.183810 0.000000 0.122380 
#    y 0.000000 3.880280 0.000000 
#    z 0.122380 0.000000 5.273400 
# 
# 
# High freq. dielectric constant tensor:
#      x y z
#    x 1.835380 0.000000 -0.002800 
#    y 0.000000 1.820530 0.000000 
#    z -0.002800 0.000000 1.821910 
# 
# From -- ./inp_files/255765.got.cif
#   From: 2010.06.25/outbox.cif.g09.slc.cpg/sg12_128_cif.got.tgz:255765.got - 2010.06.28 00:19:55.
