data_PCOD8112423
_publ_section_title
;
Structure prediction by ZEFSAII (Michael W. Deem and Ramdas Pophale) SiO2 
 PCOD8112423
Probable space group: C 2/M
;
_chemical_formula_sum "Si O2"
_cell_formula_units_Z 44
_cell_length_a 14.651747
_cell_length_b 10.450237
_cell_length_c 26.795233
_cell_angle_alpha 90.000000
_cell_angle_beta 147.557457
_cell_angle_gamma 90.000000
_cell_volume 2200.924938
_symmetry_space_group_name_H-M "C 2/M"
_symmetry_group_IT_number 12
_symmetry_cell_setting 'monoclinic'
loop_
_space_group_symop_operation_xyz
x,y,z
-x,y,-z
-x,-y,-z
x,-y,z
1/2+x,1/2+y,z
1/2-x,1/2+y,-z
1/2-x,1/2-y,-z
1/2+x,1/2-y,z
loop_
_atom_site_type_symbol
_atom_site_label
_atom_site_fract_x
_atom_site_fract_y
_atom_site_fract_z
Si Si1 0.350293 0.500000 0.330248
Si Si2 0.261915 0.151539 0.095126
Si Si3 0.321142 0.500000 0.572686
Si Si4 0.917855 0.852472 0.890645
Si Si5 0.178845 0.000000 0.538372
Si Si6 0.374675 0.246640 0.765215
Si Si7 0.801168 0.721952 0.413807
O O1 0.473173 0.500000 0.338479
O O2 0.469702 0.500000 0.435986
O O3 0.229377 0.619571 0.273050
O O4 0.220579 0.196998 0.132889
O O5 0.428441 0.224174 0.154133
O O6 0.293787 0.000000 0.105611
O O7 0.106815 0.202814 0.988712
O O8 0.239140 0.500000 0.479350
O O9 0.264989 0.630017 0.573374
O O10 0.854552 0.829879 0.805608
O O11 0.936829 0.000000 0.910839
O O12 0.243296 0.128967 0.595348
O O13 0.291540 0.320050 0.680037
O O14 0.000000 0.699094 0.500000
#
# Coordination Sequence:
#
# PCOD8112423 Si02
#       7
#     4   8   4   8   4   8   8
#     4  10  23  41  60  86 119 164 204 254 294 377
#     4   9  19  39  63  87 117 162 204 244 298 370
#     4  10  25  42  61  86 128 160 213 261 313 347
#     4   9  21  40  60  89 124 153 200 256 304 354
#     4  10  22  44  62  84 122 172 208 246 299 369
#     4  12  22  36  65  90 124 157 206 245 308 368
#     4  12  23  41  63  91 128 165 206 255 309 366
#
# _framework density 19.991595
#
# number of rings (size 3 to 8) (size 9 to 14) (size 15 to 20)
#    0.545    1.091    2.727    3.273    3.818    0.000 
#    0.000    0.000    0.000    1.091    0.000    0.000 
#    0.000    0.000    0.000    0.000    0.000    0.000 
#
# Total GULP energy -272714.673229 kJ/mol
# GULP energy per Si atom -12396.121510 kJ/mol
# Density = 1.994609 g / cm^3
# Si number density = 19.991595 Si / 1000 Ang^3
#
#
#
# Elastic Constant Matrix: (Units=GPa)
#
#
# Indices 1 2 3 4 5 6 
#
# 1 104.7725 22.1274 37.6106 0.0001 -7.4634 0.0000
# 2 22.1274 48.9972 11.5236 0.0000 3.5612 0.0000
# 3 37.6106 11.5236 78.5459 -0.0005 -17.5794 0.0000
# 4 0.0001 0.0000 -0.0005 12.6528 0.0000 -5.1441
# 5 -7.4634 3.5612 -17.5794 0.0000 43.4773 0.0000
# 6 0.0000 0.0000 0.0000 -5.1441 0.0000 33.1520
#
#
#
# Elastic Compliance Matrix: (Units=1/GPa)
#
#
# Indices 1 2 3 4 5 6 
#
# 1 0.012362 -0.004390 -0.005189 0.000000 0.000383 0.000000
# 2 -0.004390 0.023133 -0.002072 0.000000 -0.003486 0.000000
# 3 -0.005189 -0.002072 0.016887 0.000001 0.006107 0.000000
# 4 0.000000 0.000000 0.000001 0.084356 0.000000 0.013089
# 5 0.000383 -0.003486 0.006107 0.000000 0.025821 0.000000
# 6 0.000000 0.000000 0.000000 0.013089 0.000000 0.032195
#
#
# Mechanical properties :
#
#
# Convention : Reuss Voigt Hill
#
# Bulk Modulus (GPa) = 34.38945 41.64875 38.01910
# Shear Modulus (GPa) = 21.95400 28.59336 25.27368
#
# Velocity S-wave (km/s) = 3.31745 3.78599 3.55944
# Velocity P-wave (km/s) = 5.64918 6.32377 5.99597
#
# Compressibility (1/GPa) = 0.02907868
#
# Stress axis : x y z
#
# Youngs Moduli (GPa) = 80.89433 43.22911 59.21701
#
# Poissons Ratio (x) = 0.18978 0.30730
# Poissons Ratio (y) = 0.35513 0.12269
# Poissons Ratio (z) = 0.41979 0.08957
#
# Static dielectric constant tensor:
#      x y z
#    x 3.825430 0.000000 -0.040310 
#    y 0.000000 2.752310 0.000000 
#    z -0.040310 0.000000 3.665570 
# 
# 
# High freq. dielectric constant tensor:
#      x y z
#    x 1.799270 0.000000 -0.001040 
#    y 0.000000 1.754610 0.000000 
#    z -0.001040 0.000000 1.778460 
# 
# From -- ./inp_files/360926.got.cif
#   From: 2010.06.25/outbox.cif.g09.slc.cpg/sg12_181_cif.got.tgz:360926.got - 2010.06.28 00:19:55.
