data_PCOD8112284
_publ_section_title
;
Structure prediction by ZEFSAII (Michael W. Deem and Ramdas Pophale) SiO2 
 PCOD8112284
Probable space group: C 2/M
;
_chemical_formula_sum "Si O2"
_cell_formula_units_Z 48
_cell_length_a 21.964528
_cell_length_b 11.711224
_cell_length_c 11.361868
_cell_angle_alpha 90.000000
_cell_angle_beta 51.630047
_cell_angle_gamma 90.000000
_cell_volume 2291.398056
_symmetry_space_group_name_H-M "C 2/M"
_symmetry_group_IT_number 12
_symmetry_cell_setting 'monoclinic'
loop_
_space_group_symop_operation_xyz
x,y,z
-x,y,-z
-x,-y,-z
x,-y,z
1/2+x,1/2+y,z
1/2-x,1/2+y,-z
1/2-x,1/2-y,-z
1/2+x,1/2-y,z
loop_
_atom_site_type_symbol
_atom_site_label
_atom_site_fract_x
_atom_site_fract_y
_atom_site_fract_z
Si Si1 0.399639 0.500000 0.471829
Si Si2 0.424095 0.500000 0.720519
Si Si3 0.551637 0.134671 0.615324
Si Si4 0.334038 0.368962 0.149310
Si Si5 0.607330 0.735445 0.144902
Si Si6 0.337610 0.291997 0.399724
Si Si7 0.664786 0.870561 0.274156
O O1 0.409195 0.500000 0.599951
O O2 0.489428 0.500000 0.326138
O O3 0.354417 0.387016 0.480489
O O4 0.381741 0.609559 0.819873
O O5 0.474529 0.206930 0.727800
O O6 0.612436 0.177751 0.639696
O O7 0.588375 0.162341 0.442605
O O8 0.536207 0.000000 0.650281
O O9 0.354490 0.500000 0.089842
O O10 0.363872 0.346715 0.244752
O O11 0.241453 0.347788 0.258841
O O12 0.374975 0.275183 0.015256
O O13 0.670932 0.805518 0.142625
O O14 0.250000 0.250000 0.500000
O O15 0.657621 0.000000 0.245349
#
# Coordination Sequence:
#
# PCOD8112284 Si02
#       7
#     4   4   8   8   8   8   8
#     4  11  24  43  67  99 137 175 228 287 332 399
#     4  11  24  39  65 103 133 169 221 286 346 391
#     4  11  24  43  69  98 130 178 225 283 332 405
#     4  11  24  43  67  97 137 181 223 273 342 407
#     4  12  23  42  64 101 137 172 222 277 346 404
#     4  12  24  43  69  97 132 180 231 277 330 405
#     4  10  22  42  68  97 131 177 226 281 333 403
#
# _framework density 20.947908999999999
#
# number of rings (size 3 to 8) (size 9 to 14) (size 15 to 20)
#    0.000    0.833    5.000    2.500    3.500    2.000 
#    0.000    4.167    0.000    0.000    0.000    0.000 
#    0.000    0.000    0.000    0.000    0.000    0.000 
#
# Total GULP energy -297499.755045 kJ/mol
# GULP energy per Si atom -12395.823127 kJ/mol
# Density = 2.090023 g / cm^3
# Si number density = 20.947909 Si / 1000 Ang^3
#
#
#
# Elastic Constant Matrix: (Units=GPa)
#
#
# Indices 1 2 3 4 5 6 
#
# 1 97.9547 47.0323 25.8510 0.0000 18.6417 0.0000
# 2 47.0323 114.3281 49.8005 0.0000 7.8110 0.0000
# 3 25.8510 49.8005 86.5090 0.0000 8.8717 0.0000
# 4 0.0000 0.0000 0.0000 30.3156 0.0000 7.6841
# 5 18.6417 7.8110 8.8717 0.0000 24.1200 0.0000
# 6 0.0000 0.0000 0.0000 7.6841 0.0000 36.1620
#
#
#
# Elastic Compliance Matrix: (Units=1/GPa)
#
#
# Indices 1 2 3 4 5 6 
#
# 1 0.014606 -0.005184 -0.000411 0.000000 -0.009459 0.000000
# 2 -0.005184 0.013557 -0.006460 0.000000 0.001992 0.000000
# 3 -0.000411 -0.006460 0.015748 0.000000 -0.003383 0.000000
# 4 0.000000 0.000000 0.000000 0.034864 0.000000 -0.007408
# 5 -0.009459 0.001992 -0.003383 0.000000 0.049369 0.000000
# 6 0.000000 0.000000 0.000000 -0.007408 0.000000 0.029228
#
#
# Mechanical properties :
#
#
# Convention : Reuss Voigt Hill
#
# Bulk Modulus (GPa) = 50.49683 60.46216 55.47950
# Shear Modulus (GPa) = 26.58442 29.86006 28.22224
#
# Velocity S-wave (km/s) = 3.56627 3.77960 3.67448
# Velocity P-wave (km/s) = 6.41217 6.92625 6.67416
#
# Compressibility (1/GPa) = 0.01980322
#
# Stress axis : x y z
#
# Youngs Moduli (GPa) = 68.46417 73.76365 63.50146
#
# Poissons Ratio (x) = 0.38236 0.02607
# Poissons Ratio (y) = 0.35489 0.41019
# Poissons Ratio (z) = 0.02811 0.47648
#
# Static dielectric constant tensor:
#      x y z
#    x 3.994060 0.000000 0.056700 
#    y 0.000000 3.991610 0.000000 
#    z 0.056700 0.000000 3.736980 
# 
# 
# High freq. dielectric constant tensor:
#      x y z
#    x 1.831320 0.000000 0.003740 
#    y 0.000000 1.830520 0.000000 
#    z 0.003740 0.000000 1.806740 
# 
# From -- ./inp_files/174437.got.cif
#   From: 2010.06.25/outbox.cif.g09.slc.cpg/sg12_88_cif.got.tgz:174437.got - 2010.06.28 00:19:55.
