data_PCOD8112258
_publ_section_title
;
Structure prediction by ZEFSAII (Michael W. Deem and Ramdas Pophale) SiO2 
 PCOD8112258
Probable space group: C 2/M
;
_chemical_formula_sum "Si O2"
_cell_formula_units_Z 48
_cell_length_a 33.612672
_cell_length_b 13.526536
_cell_length_c 15.944255
_cell_angle_alpha 90.000000
_cell_angle_beta 17.184039
_cell_angle_gamma 90.000000
_cell_volume 2141.736242
_symmetry_space_group_name_H-M "C 2/M"
_symmetry_group_IT_number 12
_symmetry_cell_setting 'monoclinic'
loop_
_space_group_symop_operation_xyz
x,y,z
-x,y,-z
-x,-y,-z
x,-y,z
1/2+x,1/2+y,z
1/2-x,1/2+y,-z
1/2-x,1/2-y,-z
1/2+x,1/2-y,z
loop_
_atom_site_type_symbol
_atom_site_label
_atom_site_fract_x
_atom_site_fract_y
_atom_site_fract_z
Si Si1 0.151053 0.892364 0.704572
Si Si2 0.029189 0.890714 0.280695
Si Si3 0.752930 0.249773 0.633699
Si Si4 0.175318 0.611352 0.380850
Si Si5 0.521820 0.184864 0.362094
Si Si6 0.266305 0.110914 0.185907
O O1 0.186678 0.827382 0.552641
O O2 0.163538 0.828987 0.764202
O O3 0.229151 0.000000 0.550940
O O4 0.000000 0.922791 0.000000
O O5 0.029900 0.804294 0.348292
O O6 0.895220 0.878208 0.493767
O O7 0.026458 0.000000 0.329243
O O8 0.162569 0.881803 0.955156
O O9 0.862242 0.316770 0.465225
O O10 0.674671 0.183467 0.860874
O O11 0.128762 0.500000 0.494404
O O12 0.103119 0.648455 0.442196
O O13 0.500000 0.145607 0.500000
O O14 0.662307 0.140460 0.045156
O O15 0.307526 0.000000 0.126819
#
# Coordination Sequence:
#
# PCOD8112258 Si02
#       6
#     8   8   8   8   8   8
#     4  10  24  42  68 100 134 172 216 273 332 401
#     4  10  22  42  67  96 127 169 225 281 327 384
#     4  11  22  42  69  96 132 170 219 274 332 389
#     4  11  24  42  69  99 130 176 229 277 331 399
#     4  12  25  45  66  97 140 179 219 280 345 393
#     4  11  24  42  69  99 130 176 229 277 331 399
#
# _framework density 22.411722999999999
#
# number of rings (size 3 to 8) (size 9 to 14) (size 15 to 20)
#    0.000    1.167    3.333    1.500    4.667    4.333 
#    0.000    3.333    0.000    3.000    0.000    0.000 
#    0.000    0.000    0.000    0.000    0.000    0.000 
#
# Total GULP energy -297349.980146 kJ/mol
# GULP energy per Si atom -12389.582506 kJ/mol
# Density = 2.236071 g / cm^3
# Si number density = 22.411723 Si / 1000 Ang^3
#
#
#
# Elastic Constant Matrix: (Units=GPa)
#
#
# Indices 1 2 3 4 5 6 
#
# 1 91.9126 39.9646 -4.1716 0.0000 -5.2072 0.0000
# 2 39.9646 196.4789 2.9141 0.0000 -5.5585 0.0000
# 3 -4.1716 2.9141 63.9780 0.0001 -22.3195 0.0000
# 4 0.0000 0.0000 0.0001 23.9525 0.0000 -2.3898
# 5 -5.2072 -5.5585 -22.3195 0.0000 21.5701 0.0000
# 6 0.0000 0.0000 0.0000 -2.3898 0.0000 23.6790
#
#
#
# Elastic Compliance Matrix: (Units=1/GPa)
#
#
# Indices 1 2 3 4 5 6 
#
# 1 0.012342 -0.002404 0.002719 0.000000 0.005173 0.000000
# 2 -0.002404 0.005601 -0.000173 0.000000 0.000683 0.000000
# 3 0.002719 -0.000173 0.025084 0.000000 0.026567 0.000000
# 4 0.000000 0.000000 0.000000 0.042174 0.000000 0.004256
# 5 0.005173 0.000683 0.026567 0.000000 0.075275 0.000000
# 6 0.000000 0.000000 0.000000 0.004256 0.000000 0.042661
#
#
# Mechanical properties :
#
#
# Convention : Reuss Voigt Hill
#
# Bulk Modulus (GPa) = 23.09020 47.75376 35.42198
# Shear Modulus (GPa) = 23.01073 34.75116 28.88094
#
# Velocity S-wave (km/s) = 3.20773 3.94201 3.59368
# Velocity P-wave (km/s) = 4.90352 6.48637 5.74968
#
# Compressibility (1/GPa) = 0.04330841
#
# Stress axis : x y z
#
# Youngs Moduli (GPa) = 81.02526 178.55348 39.86653
#
# Poissons Ratio (x) = 0.42931 -0.10840
# Poissons Ratio (y) = 0.19481 0.00692
# Poissons Ratio (z) = -0.22031 0.03098
#
# Static dielectric constant tensor:
#      x y z
#    x 3.858370 0.000000 -0.022190 
#    y 0.000000 4.631110 0.000000 
#    z -0.022190 0.000000 3.837910 
# 
# 
# High freq. dielectric constant tensor:
#      x y z
#    x 1.863810 0.000000 -0.003800 
#    y 0.000000 1.925900 0.000000 
#    z -0.003800 0.000000 1.858790 
# 
# From -- ./inp_files/251405.got.cif
#   From: 2010.06.25/outbox.cif.g09.slc.cpg/sg12_126_cif.got.tgz:251405.got - 2010.06.28 00:19:55.
