data_PCOD8112437
_publ_section_title
;
Structure prediction by ZEFSAII (Michael W. Deem and Ramdas Pophale) SiO2 
 PCOD8112437
Probable space group: C 2/M
;
_chemical_formula_sum "Si O2"
_cell_formula_units_Z 40
_cell_length_a 9.218733
_cell_length_b 25.660177
_cell_length_c 15.870328
_cell_angle_alpha 90.000000
_cell_angle_beta 29.517577
_cell_angle_gamma 90.000000
_cell_volume 1849.656198
_symmetry_space_group_name_H-M "C 2/M"
_symmetry_group_IT_number 12
_symmetry_cell_setting 'monoclinic'
loop_
_space_group_symop_operation_xyz
x,y,z
-x,y,-z
-x,-y,-z
x,-y,z
1/2+x,1/2+y,z
1/2-x,1/2+y,-z
1/2-x,1/2-y,-z
1/2+x,1/2-y,z
loop_
_atom_site_type_symbol
_atom_site_label
_atom_site_fract_x
_atom_site_fract_y
_atom_site_fract_z
Si Si1 0.368717 0.717696 0.658743
Si Si2 0.638112 0.673513 0.841174
Si Si3 0.440797 0.866580 0.932071
Si Si4 0.903450 0.060200 0.644191
Si Si5 0.816732 0.643526 0.506442
O O1 0.500000 0.717570 0.500000
O O2 0.234748 0.773279 0.747975
O O3 0.622965 0.696855 0.594909
O O4 0.095260 0.678505 0.799870
O O5 0.939417 0.639949 0.692162
O O6 0.500000 0.686588 0.000000
O O7 0.408500 0.639289 0.902981
O O8 0.567159 0.921582 0.832278
O O9 0.500000 0.859892 0.000000
O O10 0.000000 0.071639 0.500000
O O11 0.109916 0.093074 0.603351
O O12 0.935000 0.000000 0.651604
O O13 0.000000 0.645098 0.500000
#
# Coordination Sequence:
#
# PCOD8112437 Si02
#       5
#     8   8   8   8   8
#     4  11  23  41  60  84 123 171 210 239 290 361
#     4  12  23  37  59  90 125 160 203 253 303 350
#     4  11  23  40  61  90 124 157 201 254 306 355
#     4  10  22  44  69  89 116 160 205 245 303 373
#     4  11  23  40  61  89 123 160 203 250 298 357
#
# _framework density 21.625641000000002
#
# number of rings (size 3 to 8) (size 9 to 14) (size 15 to 20)
#    0.000    1.000    0.000    9.600    0.000    4.000 
#    0.000    2.000    0.000    3.600    0.000    0.000 
#    0.000    0.000    0.000    0.000    0.000    0.000 
#
# Total GULP energy -247930.975839 kJ/mol
# GULP energy per Si atom -12396.548792 kJ/mol
# Density = 2.157642 g / cm^3
# Si number density = 21.625641 Si / 1000 Ang^3
#
#
#
# Elastic Constant Matrix: (Units=GPa)
#
#
# Indices 1 2 3 4 5 6 
#
# 1 97.8226 53.8987 20.1819 0.0002 -11.4289 0.0001
# 2 53.8987 131.4862 57.1312 0.0003 -4.7954 -0.0001
# 3 20.1819 57.1312 120.9001 0.0005 -11.1556 -0.0003
# 4 0.0002 0.0003 0.0005 31.2857 -0.0003 -0.0352
# 5 -11.4289 -4.7954 -11.1556 -0.0003 47.1962 0.0003
# 6 0.0001 -0.0001 -0.0003 -0.0352 0.0003 18.2021
#
#
#
# Elastic Compliance Matrix: (Units=1/GPa)
#
#
# Indices 1 2 3 4 5 6 
#
# 1 0.013596 -0.005785 0.000730 0.000000 0.002877 0.000000
# 2 -0.005785 0.012033 -0.004842 0.000000 -0.001323 0.000000
# 3 0.000730 -0.004842 0.010641 0.000000 0.002200 0.000000
# 4 0.000000 0.000000 0.000000 0.031964 0.000000 0.000062
# 5 0.002877 -0.001323 0.002200 0.000000 0.022270 0.000000
# 6 0.000000 0.000000 0.000000 0.000062 0.000000 0.054939
#
#
# Mechanical properties :
#
#
# Convention : Reuss Voigt Hill
#
# Bulk Modulus (GPa) = 60.70425 68.07028 64.38727
# Shear Modulus (GPa) = 29.28620 33.93659 31.61139
#
# Velocity S-wave (km/s) = 3.68399 3.96571 3.82744
# Velocity P-wave (km/s) = 6.79905 7.24666 7.02642
#
# Compressibility (1/GPa) = 0.01647331
#
# Stress axis : x y z
#
# Youngs Moduli (GPa) = 73.55230 83.10728 93.97878
#
# Poissons Ratio (x) = 0.48080 -0.06858
# Poissons Ratio (y) = 0.42552 0.45508
# Poissons Ratio (z) = -0.05368 0.40243
#
# Static dielectric constant tensor:
#      x y z
#    x 3.926380 0.000000 -0.256460 
#    y 0.000000 3.784250 0.000000 
#    z -0.256460 0.000000 4.751210 
# 
# 
# High freq. dielectric constant tensor:
#      x y z
#    x 1.849550 0.000000 -0.000110 
#    y 0.000000 1.821070 0.000000 
#    z -0.000110 0.000000 1.884460 
# 
# From -- ./inp_files/41867.got.cif
#   From: 2010.06.25/outbox.cif.g09.slc.cpg/sg12_21_cif.got.tgz:41867.got - 2010.06.28 00:19:55.
