data_PCOD8113020
_publ_section_title
;
Structure prediction by ZEFSAII (Michael W. Deem and Ramdas Pophale) SiO2 
 PCOD8113020
Probable space group: C 2/M
;
_chemical_formula_sum "Si O2"
_cell_formula_units_Z 48
_cell_length_a 27.214649
_cell_length_b 8.782756
_cell_length_c 16.849489
_cell_angle_alpha 90.000000
_cell_angle_beta 36.011128
_cell_angle_gamma 90.000000
_cell_volume 2367.854689
_symmetry_space_group_name_H-M "C 2/M"
_symmetry_group_IT_number 12
_symmetry_cell_setting 'monoclinic'
loop_
_space_group_symop_operation_xyz
x,y,z
-x,y,-z
-x,-y,-z
x,-y,z
1/2+x,1/2+y,z
1/2-x,1/2+y,-z
1/2-x,1/2-y,-z
1/2+x,1/2-y,z
loop_
_atom_site_type_symbol
_atom_site_label
_atom_site_fract_x
_atom_site_fract_y
_atom_site_fract_z
Si Si1 0.609627 0.320836 0.998216
Si Si2 0.850350 0.321335 0.215002
Si Si3 0.058147 0.322260 0.744130
Si Si4 0.671609 0.822894 0.447405
Si Si5 0.906688 0.174577 0.599159
Si Si6 0.744761 0.324502 0.092260
O O1 0.618044 0.500000 0.989874
O O2 0.527771 0.269596 0.152993
O O3 0.602010 0.264379 0.917834
O O4 0.692069 0.252030 0.929241
O O5 0.858678 0.500000 0.188832
O O6 0.893699 0.270797 0.239758
O O7 0.753766 0.278391 0.344547
O O8 0.036839 0.500000 0.773511
O O9 0.115044 0.277806 0.595725
O O10 0.621521 0.786722 0.433286
O O11 0.696573 0.000000 0.415937
O O12 0.848581 0.197122 0.752185
O O13 0.000000 0.222014 0.500000
O O14 0.902362 0.000000 0.574928
O O15 0.769179 0.500000 0.052297
O O16 0.750000 0.250000 0.000000
#
# Coordination Sequence:
#
# PCOD8113020 Si02
#       6
#     8   8   8   8   8   8
#     4  12  25  41  64  94 128 166 213 263 313 372
#     4  11  22  41  66  90 126 171 211 258 318 375
#     4  10  24  42  62  93 129 168 212 260 315 373
#     4  11  23  40  64  95 128 163 210 260 311 374
#     4  10  23  43  66  92 124 164 208 252 310 375
#     4  11  24  43  67  94 128 165 205 258 316 373
#
# _framework density 20.271514
#
# number of rings (size 3 to 8) (size 9 to 14) (size 15 to 20)
#    0.000    1.167    1.667    4.000    2.333    5.667 
#    0.000    0.000    0.000    0.000    0.000    0.000 
#    0.000    0.000    0.000    0.000    0.000    0.000 
#
# Total GULP energy -297786.921971 kJ/mol
# GULP energy per Si atom -12407.788415 kJ/mol
# Density = 2.022538 g / cm^3
# Si number density = 20.271514 Si / 1000 Ang^3
#
#
#
# Elastic Constant Matrix: (Units=GPa)
#
#
# Indices 1 2 3 4 5 6 
#
# 1 81.2299 26.4487 32.9836 0.0030 2.1371 -0.0020
# 2 26.4487 79.2870 17.8397 0.0124 5.9121 -0.0060
# 3 32.9836 17.8397 74.3560 0.0092 3.1642 -0.0047
# 4 0.0030 0.0124 0.0092 28.2720 -0.0030 5.0169
# 5 2.1371 5.9121 3.1642 -0.0030 43.2489 0.0016
# 6 -0.0020 -0.0060 -0.0047 5.0169 0.0016 30.6072
#
#
#
# Elastic Compliance Matrix: (Units=1/GPa)
#
#
# Indices 1 2 3 4 5 6 
#
# 1 0.016126 -0.003999 -0.006203 0.000002 0.000204 -0.000001
# 2 -0.003999 0.014434 -0.001619 -0.000006 -0.001657 0.000003
# 3 -0.006203 -0.001619 0.016618 -0.000005 -0.000688 0.000003
# 4 0.000002 -0.000006 -0.000005 0.036430 0.000004 -0.005971
# 5 0.000204 -0.001657 -0.000688 0.000004 0.023389 -0.000002
# 6 -0.000001 0.000003 0.000003 -0.005971 -0.000002 0.033651
#
#
# Mechanical properties :
#
#
# Convention : Reuss Voigt Hill
#
# Bulk Modulus (GPa) = 42.48513 43.26855 42.87684
# Shear Modulus (GPa) = 29.04711 30.93235 29.98973
#
# Velocity S-wave (km/s) = 3.78948 3.91052 3.85047
# Velocity P-wave (km/s) = 6.33643 6.46377 6.40042
#
# Compressibility (1/GPa) = 0.02353765
#
# Stress axis : x y z
#
# Youngs Moduli (GPa) = 62.01158 69.28017 60.17622
#
# Poissons Ratio (x) = 0.27705 0.37325
# Poissons Ratio (y) = 0.24798 0.09741
# Poissons Ratio (z) = 0.38463 0.11214
#
# Static dielectric constant tensor:
#      x y z
#    x 3.746380 -0.000010 0.009490 
#    y -0.000010 3.695400 0.000010 
#    z 0.009490 0.000010 3.849610 
# 
# 
# High freq. dielectric constant tensor:
#      x y z
#    x 1.797260 0.000000 -0.000330 
#    y 0.000000 1.796250 0.000000 
#    z -0.000330 0.000000 1.809940 
# 
# From -- ./inp_files/244880.got.cif
#   From: 2010.06.25/outbox.cif.g09.slc.cpg/sg12_123_cif.got.tgz:244880.got - 2010.06.28 00:19:55.
