data_PCOD8113606
_publ_section_title
;
Structure prediction by ZEFSAII (Michael W. Deem and Ramdas Pophale) SiO2 
 PCOD8113606
Probable space group: C 2/M
;
_chemical_formula_sum "Si O2"
_cell_formula_units_Z 56
_cell_length_a 11.563749
_cell_length_b 24.024489
_cell_length_c 14.628760
_cell_angle_alpha 90.000000
_cell_angle_beta 39.991631
_cell_angle_gamma 90.000000
_cell_volume 2611.873962
_symmetry_space_group_name_H-M "C 2/M"
_symmetry_group_IT_number 12
_symmetry_cell_setting 'monoclinic'
loop_
_space_group_symop_operation_xyz
x,y,z
-x,y,-z
-x,-y,-z
x,-y,z
1/2+x,1/2+y,z
1/2-x,1/2+y,-z
1/2-x,1/2-y,-z
1/2+x,1/2-y,z
loop_
_atom_site_type_symbol
_atom_site_label
_atom_site_fract_x
_atom_site_fract_y
_atom_site_fract_z
Si Si1 0.327509 0.936506 0.168423
Si Si2 0.951983 0.854609 0.746282
Si Si3 0.147737 0.211969 0.486789
Si Si4 0.533521 0.821882 0.379154
Si Si5 0.954596 0.357885 0.242307
Si Si6 0.863680 0.708185 0.007112
Si Si7 0.054933 0.177438 0.871290
O O1 0.159817 0.907750 0.219129
O O2 0.366286 0.910767 0.245546
O O3 0.272281 0.000000 0.218796
O O4 0.500000 0.931578 0.000000
O O5 0.103529 0.839968 0.580398
O O6 0.037801 0.864605 0.795610
O O7 0.831510 0.798430 0.828539
O O8 0.373375 0.225581 0.452304
O O9 0.320253 0.195257 0.322460
O O10 0.000000 0.223669 0.500000
O O11 0.500000 0.847662 0.500000
O O12 0.509096 0.869528 0.315709
O O13 0.739548 0.799276 0.248968
O O14 0.128145 0.335480 0.082269
O O15 0.911316 0.771067 0.948873
O O16 0.000000 0.684766 0.000000
O O17 0.000000 0.147009 0.000000
#
# Coordination Sequence:
#
# PCOD8113606 Si02
#       7
#     8   8   8   8   8   8   8
#     4  11  24  42  67  92 110 146 205 264 312 343
#     4  12  20  38  57  82 120 153 193 250 299 339
#     4  11  20  33  55  87 121 159 194 230 286 358
#     4  11  23  36  52  86 127 163 197 223 280 364
#     4  12  20  38  60  81 119 159 197 245 291 346
#     4  11  18  33  53  84 116 153 196 235 293 356
#     4  11  23  33  53  86 122 160 196 231 282 365
#
# _framework density 21.440543999999999
#
# number of rings (size 3 to 8) (size 9 to 14) (size 15 to 20)
#    0.000    0.714    4.286    6.857    0.000    0.000 
#    0.000    1.429    0.000    1.714    0.000    0.000 
#    0.000    0.000    0.000    0.000    0.000    0.000 
#
# Total GULP energy -346963.689411 kJ/mol
# GULP energy per Si atom -12391.560336 kJ/mol
# Density = 2.139174 g / cm^3
# Si number density = 21.440544 Si / 1000 Ang^3
#
#
#
# Elastic Constant Matrix: (Units=GPa)
#
#
# Indices 1 2 3 4 5 6 
#
# 1 82.1417 56.1474 17.1311 -0.0009 31.5954 -0.0010
# 2 56.1474 94.2098 22.7429 0.0001 13.3186 -0.0002
# 3 17.1311 22.7429 69.2192 -0.0027 16.7894 -0.0024
# 4 -0.0009 0.0001 -0.0027 12.2661 0.0013 -3.4297
# 5 31.5954 13.3186 16.7894 0.0013 46.9578 0.0014
# 6 -0.0010 -0.0002 -0.0024 -3.4297 0.0014 14.4459
#
#
#
# Elastic Compliance Matrix: (Units=1/GPa)
#
#
# Indices 1 2 3 4 5 6 
#
# 1 0.027739 -0.014802 0.001650 0.000005 -0.015056 0.000005
# 2 -0.014802 0.019619 -0.004214 -0.000004 0.005901 -0.000003
# 3 0.001650 -0.004214 0.016865 0.000006 -0.005945 0.000005
# 4 0.000005 -0.000004 0.000006 0.087322 -0.000008 0.020732
# 5 -0.015056 0.005901 -0.005945 -0.000008 0.031878 -0.000007
# 6 0.000005 -0.000003 0.000005 0.020732 -0.000007 0.074146
#
#
# Mechanical properties :
#
#
# Convention : Reuss Voigt Hill
#
# Bulk Modulus (GPa) = 33.90853 48.62373 41.26613
# Shear Modulus (GPa) = 16.54914 24.70391 20.62653
#
# Velocity S-wave (km/s) = 2.78125 3.39810 3.10503
# Velocity P-wave (km/s) = 5.11501 6.17444 5.66953
#
# Compressibility (1/GPa) = 0.02949111
#
# Stress axis : x y z
#
# Youngs Moduli (GPa) = 36.05092 50.97063 59.29393
#
# Poissons Ratio (x) = 0.75445 -0.09784
# Poissons Ratio (y) = 0.53361 0.24988
# Poissons Ratio (z) = -0.05948 0.21481
#
# Static dielectric constant tensor:
#      x y z
#    x 4.583560 0.000000 0.117410 
#    y 0.000000 3.243000 0.000000 
#    z 0.117410 0.000000 4.199570 
# 
# 
# High freq. dielectric constant tensor:
#      x y z
#    x 1.884300 0.000000 0.006980 
#    y 0.000000 1.740920 0.000000 
#    z 0.006980 0.000000 1.869540 
# 
# From -- ./inp_files/209681.got.cif
#   From: 2010.06.25/outbox.cif.g09.slc.cpg/sg12_105_cif.got.tgz:209681.got - 2010.06.28 00:19:55.
