data_PCOD8113469
_publ_section_title
;
Structure prediction by ZEFSAII (Michael W. Deem and Ramdas Pophale) SiO2 
 PCOD8113469
Probable space group: C 2/M
;
_chemical_formula_sum "Si O2"
_cell_formula_units_Z 56
_cell_length_a 28.873508
_cell_length_b 21.026598
_cell_length_c 8.725900
_cell_angle_alpha 90.000000
_cell_angle_beta 30.307341
_cell_angle_gamma 90.000000
_cell_volume 2673.369283
_symmetry_space_group_name_H-M "C 2/M"
_symmetry_group_IT_number 12
_symmetry_cell_setting 'monoclinic'
loop_
_space_group_symop_operation_xyz
x,y,z
-x,y,-z
-x,-y,-z
x,-y,z
1/2+x,1/2+y,z
1/2-x,1/2+y,-z
1/2-x,1/2-y,-z
1/2+x,1/2-y,z
loop_
_atom_site_type_symbol
_atom_site_label
_atom_site_fract_x
_atom_site_fract_y
_atom_site_fract_z
Si Si1 0.166524 0.287585 0.811537
Si Si2 0.749321 0.183100 0.086857
Si Si3 0.891835 0.365797 0.297403
Si Si4 0.099625 0.500000 0.643338
Si Si5 0.264102 0.888217 0.168332
Si Si6 0.086188 0.168382 0.146929
Si Si7 0.915037 0.925989 0.135412
Si Si8 0.898420 0.500000 0.725860
O O1 0.250000 0.250000 0.500000
O O2 0.134475 0.344501 0.796167
O O3 0.200031 0.320526 0.871466
O O4 0.082300 0.238305 0.079238
O O5 0.649698 0.179324 0.452208
O O6 0.750000 0.250000 0.000000
O O7 0.766126 0.125847 0.919372
O O8 0.822350 0.171504 0.012592
O O9 0.849550 0.436600 0.442193
O O10 0.000000 0.364927 0.000000
O O11 0.095331 0.500000 0.473649
O O12 0.000000 0.500000 0.000000
O O13 0.178299 0.915272 0.505947
O O14 0.346417 0.938254 0.936906
O O15 0.000000 0.155698 0.500000
O O16 0.088517 0.114067 0.011232
O O17 0.925652 0.000000 0.060989
O O18 0.000000 0.903962 0.000000
O O19 0.000000 0.500000 0.500000
#
# Coordination Sequence:
#
# PCOD8113469 Si02
#       8
#     8   8   8   4   8   8   8   4
#     4  12  24  45  67 100 142 179 233 277 345 419
#     4  12  24  45  67 101 143 179 229 287 340 416
#     4  11  25  42  70  98 134 183 224 281 342 408
#     4  10  24  48  64  99 136 174 231 273 342 405
#     4  12  24  45  73 102 141 186 227 287 353 409
#     4  12  27  47  72 106 139 184 233 293 352 413
#     4  11  25  49  76 105 138 183 237 293 355 417
#     4  12  28  44  71 107 139 182 237 287 343 424
#
# _framework density 20.947348999999999
#
# number of rings (size 3 to 8) (size 9 to 14) (size 15 to 20)
#    0.000    0.429    6.429    0.857    6.000    1.429 
#    5.143    0.000    0.000    0.000    0.000    0.000 
#    0.000    0.000    0.000    0.000    0.000    0.000 
#
# Total GULP energy -347209.086891 kJ/mol
# GULP energy per Si atom -12400.324532 kJ/mol
# Density = 2.089967 g / cm^3
# Si number density = 20.947349 Si / 1000 Ang^3
#
#
#
# Elastic Constant Matrix: (Units=GPa)
#
#
# Indices 1 2 3 4 5 6 
#
# 1 137.7722 75.8725 51.3822 0.0000 7.8232 0.0000
# 2 75.8725 134.0297 52.1758 0.0000 1.5524 0.0000
# 3 51.3822 52.1758 147.5029 0.0000 7.8460 0.0000
# 4 0.0000 0.0000 0.0000 26.3438 0.0000 1.6452
# 5 7.8232 1.5524 7.8460 0.0000 33.8373 0.0000
# 6 0.0000 0.0000 0.0000 1.6452 0.0000 41.8049
#
#
#
# Elastic Compliance Matrix: (Units=1/GPa)
#
#
# Indices 1 2 3 4 5 6 
#
# 1 0.011099 -0.005561 -0.001799 0.000000 -0.001894 0.000000
# 2 -0.005561 0.011442 -0.002178 0.000000 0.001266 0.000000
# 3 -0.001799 -0.002178 0.008251 0.000000 -0.001397 0.000000
# 4 0.000000 0.000000 0.000000 0.038053 0.000000 -0.001498
# 5 -0.001894 0.001266 -0.001397 0.000000 0.030257 0.000000
# 6 0.000000 0.000000 0.000000 -0.001498 0.000000 0.023980
#
#
# Mechanical properties :
#
#
# Convention : Reuss Voigt Hill
#
# Bulk Modulus (GPa) = 85.34099 86.46286 85.90193
# Shear Modulus (GPa) = 34.23210 36.38882 35.31046
#
# Velocity S-wave (km/s) = 4.04691 4.17244 4.11015
# Velocity P-wave (km/s) = 7.91617 8.03606 7.97634
#
# Compressibility (1/GPa) = 0.01171770
#
# Stress axis : x y z
#
# Youngs Moduli (GPa) = 90.09678 87.39666 121.20295
#
# Poissons Ratio (x) = 0.48601 0.21799
# Poissons Ratio (y) = 0.50103 0.26392
# Poissons Ratio (z) = 0.16204 0.19031
#
# Static dielectric constant tensor:
#      x y z
#    x 3.710200 0.000000 -0.030140 
#    y 0.000000 4.436780 0.000000 
#    z -0.030140 0.000000 3.983380 
# 
# 
# High freq. dielectric constant tensor:
#      x y z
#    x 1.824610 0.000000 0.016720 
#    y 0.000000 1.835860 0.000000 
#    z 0.016720 0.000000 1.830770 
# 
# From -- ./inp_files/113378.got.cif
#   From: 2010.06.25/outbox.cif.g09.slc.cpg/sg12_57_cif.got.tgz:113378.got - 2010.06.28 00:19:55.
