data_PCOD8113899
_publ_section_title
;
Structure prediction by ZEFSAII (Michael W. Deem and Ramdas Pophale) SiO2 
 PCOD8113899
Probable space group: C 2/M
;
_chemical_formula_sum "Si O2"
_cell_formula_units_Z 64
_cell_length_a 30.974108
_cell_length_b 8.397170
_cell_length_c 19.621759
_cell_angle_alpha 90.000000
_cell_angle_beta 142.572622
_cell_angle_gamma 90.000000
_cell_volume 3101.690760
_symmetry_space_group_name_H-M "C 2/M"
_symmetry_group_IT_number 12
_symmetry_cell_setting 'monoclinic'
loop_
_space_group_symop_operation_xyz
x,y,z
-x,y,-z
-x,-y,-z
x,-y,z
1/2+x,1/2+y,z
1/2-x,1/2+y,-z
1/2-x,1/2-y,-z
1/2+x,1/2-y,z
loop_
_atom_site_type_symbol
_atom_site_label
_atom_site_fract_x
_atom_site_fract_y
_atom_site_fract_z
Si Si1 0.544839 0.684587 0.491432
Si Si2 0.190811 0.814624 0.875315
Si Si3 0.287428 0.686120 0.729575
Si Si4 0.688585 0.185050 0.722950
Si Si5 0.543906 0.183232 0.738333
Si Si6 0.061922 0.190125 0.125705
Si Si7 0.452500 0.313328 0.738320
Si Si8 0.303293 0.188758 0.510041
O O1 0.500000 0.742915 0.500000
O O2 0.531258 0.500000 0.458835
O O3 0.626742 0.713505 0.610540
O O4 0.519442 0.783839 0.394367
O O5 0.200291 0.725366 0.815929
O O6 0.112663 0.787848 0.807431
O O7 0.202517 0.000000 0.877427
O O8 0.250000 0.750000 0.000000
O O9 0.297700 0.500000 0.732149
O O10 0.261021 0.726890 0.772800
O O11 0.364073 0.763960 0.809775
O O12 0.228259 0.743913 0.601896
O O13 0.669053 0.000000 0.690719
O O14 0.516263 0.225414 0.778977
O O15 0.566400 0.000000 0.763357
O O16 0.048607 0.250718 0.185730
O O17 0.063148 0.000000 0.126215
O O18 0.000000 0.257587 0.000000
O O19 0.467362 0.500000 0.753766
O O20 0.377995 0.276224 0.609537
O O21 0.250000 0.250000 0.500000
O O22 0.313988 0.000000 0.529325
#
# Coordination Sequence:
#
# PCOD8113899 Si02
#       8
#     8   8   8   8   8   8   8   8
#     4  11  22  38  63  93 126 162 204 256 310 372
#     4  12  26  46  67  91 124 164 213 263 313 371
#     4   9  19  35  56  87 122 156 201 250 300 369
#     4  11  22  38  64  94 127 166 206 256 317 376
#     4  12  25  42  65  94 128 165 207 256 316 380
#     4   9  18  35  59  86 117 157 205 253 297 355
#     4  11  22  38  62  92 124 160 207 256 311 375
#     4  11  20  35  59  89 125 164 205 253 311 372
#
# _framework density 20.633908000000002
#
# number of rings (size 3 to 8) (size 9 to 14) (size 15 to 20)
#    0.000    1.250    2.500    4.500    0.000    2.500 
#    0.000    4.375    0.000    1.500    0.000    0.000 
#    0.000    0.000    0.000    0.000    0.000    0.000 
#
# Total GULP energy -396919.893478 kJ/mol
# GULP energy per Si atom -12403.746671 kJ/mol
# Density = 2.058694 g / cm^3
# Si number density = 20.633908 Si / 1000 Ang^3
#
#
#
# Elastic Constant Matrix: (Units=GPa)
#
#
# Indices 1 2 3 4 5 6 
#
# 1 158.5950 15.0981 59.0331 0.0000 -11.9768 0.0000
# 2 15.0981 51.2722 2.8345 0.0000 -1.1727 0.0000
# 3 59.0331 2.8345 135.3947 0.0000 -5.5323 0.0000
# 4 0.0000 0.0000 0.0000 29.5998 0.0000 0.5560
# 5 -11.9768 -1.1727 -5.5323 0.0000 12.8314 0.0000
# 6 0.0000 0.0000 0.0000 0.5560 0.0000 29.3810
#
#
#
# Elastic Compliance Matrix: (Units=1/GPa)
#
#
# Indices 1 2 3 4 5 6 
#
# 1 0.008179 -0.002089 -0.003276 0.000000 0.006031 0.000000
# 2 -0.002089 0.020094 0.000494 0.000000 0.000099 0.000000
# 3 -0.003276 0.000494 0.008836 0.000000 0.000797 0.000000
# 4 0.000000 0.000000 0.000000 0.033796 0.000000 -0.000640
# 5 0.006031 0.000099 0.000797 0.000000 0.083916 0.000000
# 6 0.000000 0.000000 0.000000 -0.000640 0.000000 0.034048
#
#
# Mechanical properties :
#
#
# Convention : Reuss Voigt Hill
#
# Bulk Modulus (GPa) = 36.53980 55.46592 46.00286
# Shear Modulus (GPa) = 24.06926 32.24885 28.15906
#
# Velocity S-wave (km/s) = 3.41910 3.95765 3.69819
# Velocity P-wave (km/s) = 5.77356 6.91544 6.37014
#
# Compressibility (1/GPa) = 0.02736742
#
# Stress axis : x y z
#
# Youngs Moduli (GPa) = 122.26222 49.76618 113.16836
#
# Poissons Ratio (x) = 0.10398 0.37074
# Poissons Ratio (y) = 0.25546 -0.05595
# Poissons Ratio (z) = 0.40053 -0.02461
#
# Static dielectric constant tensor:
#      x y z
#    x 3.937510 0.000000 -0.082170 
#    y 0.000000 3.603460 0.000000 
#    z -0.082170 0.000000 3.517240 
# 
# 
# High freq. dielectric constant tensor:
#      x y z
#    x 1.825800 0.000000 -0.002030 
#    y 0.000000 1.791230 0.000000 
#    z -0.002030 0.000000 1.803380 
# 
# From -- ./inp_files/295843.got.cif
#   From: 2010.06.25/outbox.cif.g09.slc.cpg/sg12_148_cif.got.tgz:295843.got - 2010.06.28 00:19:55.
