data_PCOD8113538
_publ_section_title
;
Structure prediction by ZEFSAII (Michael W. Deem and Ramdas Pophale) SiO2 
 PCOD8113538
Probable space group: C 2/M
;
_chemical_formula_sum "Si O2"
_cell_formula_units_Z 64
_cell_length_a 11.779862
_cell_length_b 29.751804
_cell_length_c 16.738722
_cell_angle_alpha 90.000000
_cell_angle_beta 148.033609
_cell_angle_gamma 90.000000
_cell_volume 3105.829117
_symmetry_space_group_name_H-M "C 2/M"
_symmetry_group_IT_number 12
_symmetry_cell_setting 'monoclinic'
loop_
_space_group_symop_operation_xyz
x,y,z
-x,y,-z
-x,-y,-z
x,-y,z
1/2+x,1/2+y,z
1/2-x,1/2+y,-z
1/2-x,1/2-y,-z
1/2+x,1/2-y,z
loop_
_atom_site_type_symbol
_atom_site_label
_atom_site_fract_x
_atom_site_fract_y
_atom_site_fract_z
Si Si1 0.295331 0.550681 0.324451
Si Si2 0.301751 0.287101 0.826714
Si Si3 0.327316 0.304200 0.331946
Si Si4 0.389974 0.076774 0.630812
Si Si5 0.996729 0.869077 0.850190
Si Si6 0.536359 0.384987 0.688651
Si Si7 0.823889 0.550321 0.331349
Si Si8 0.432937 0.159735 0.192587
O O1 0.500000 0.565138 0.500000
O O2 0.309915 0.500000 0.300834
O O3 0.107854 0.556222 0.277878
O O4 0.269623 0.584076 0.232687
O O5 0.235678 0.242312 0.744050
O O6 0.349027 0.326925 0.790111
O O7 0.119133 0.297979 0.782676
O O8 0.500000 0.275439 0.000000
O O9 0.500000 0.291019 0.500000
O O10 0.456264 0.337325 0.350767
O O11 0.109392 0.327705 0.232193
O O12 0.551243 0.045849 0.677638
O O13 0.474456 0.126881 0.686001
O O14 0.164822 0.082211 0.449510
O O15 0.875521 0.915710 0.798033
O O16 0.051867 0.871527 0.789750
O O17 0.223035 0.863880 0.029583
O O18 0.741790 0.500000 0.305614
O O19 0.000000 0.568650 0.500000
#
# Coordination Sequence:
#
# PCOD8113538 Si02
#       8
#     8   8   8   8   8   8   8   8
#     4   9  18  34  59  90 123 165 210 259 317 377
#     4  10  26  44  65  92 129 173 215 265 327 398
#     4  12  25  42  66 100 127 166 221 272 323 383
#     4  11  19  40  65  94 131 168 214 264 322 379
#     4  11  25  43  64  95 132 174 212 262 331 386
#     4  11  22  38  63  96 129 166 218 267 322 385
#     4  11  23  40  68 103 132 169 221 271 321 382
#     4  11  24  44  67  89 134 171 211 267 322 389
#
# _framework density 20.606414000000001
#
# number of rings (size 3 to 8) (size 9 to 14) (size 15 to 20)
#    0.000    1.250    5.000    0.750    3.500    4.000 
#    0.000    1.875    0.000    0.750    0.000    0.000 
#    0.000    0.000    0.000    0.000    0.000    0.000 
#
# Total GULP energy -396455.986711 kJ/mol
# GULP energy per Si atom -12389.249585 kJ/mol
# Density = 2.055951 g / cm^3
# Si number density = 20.606414 Si / 1000 Ang^3
#
#
#
# Elastic Constant Matrix: (Units=GPa)
#
#
# Indices 1 2 3 4 5 6 
#
# 1 120.9696 37.7192 25.1922 -0.0001 -14.2117 -0.0001
# 2 37.7192 118.6492 39.9150 0.0000 -3.8172 0.0000
# 3 25.1922 39.9150 50.8240 -0.0003 -2.2374 -0.0006
# 4 -0.0001 0.0000 -0.0003 16.0340 -0.0001 -9.6154
# 5 -14.2117 -3.8172 -2.2374 -0.0001 24.6014 -0.0002
# 6 -0.0001 0.0000 -0.0006 -9.6154 -0.0002 22.0019
#
#
#
# Elastic Compliance Matrix: (Units=1/GPa)
#
#
# Indices 1 2 3 4 5 6 
#
# 1 0.010181 -0.001967 -0.003269 0.000000 0.005279 0.000000
# 2 -0.001967 0.011857 -0.008340 0.000000 -0.000055 0.000000
# 3 -0.003269 -0.008340 0.027817 0.000001 -0.000653 0.000001
# 4 0.000000 0.000000 0.000001 0.084518 0.000001 0.036937
# 5 0.005279 -0.000055 -0.000653 0.000001 0.043630 0.000001
# 6 0.000000 0.000000 0.000001 0.036937 0.000001 0.061593
#
#
# Mechanical properties :
#
#
# Convention : Reuss Voigt Hill
#
# Bulk Modulus (GPa) = 44.04601 55.12175 49.58388
# Shear Modulus (GPa) = 18.22717 25.03520 21.63119
#
# Velocity S-wave (km/s) = 2.97735 3.48936 3.24347
# Velocity P-wave (km/s) = 5.76548 6.56064 6.17587
#
# Compressibility (1/GPa) = 0.02270353
#
# Stress axis : x y z
#
# Youngs Moduli (GPa) = 98.22398 84.33626 35.94904
#
# Poissons Ratio (x) = 0.16588 0.11753
# Poissons Ratio (y) = 0.19319 0.29980
# Poissons Ratio (z) = 0.32112 0.70334
#
# Static dielectric constant tensor:
#      x y z
#    x 4.000620 -0.000020 -0.218690 
#    y -0.000020 4.241960 -0.000020 
#    z -0.218690 -0.000020 2.866620 
# 
# 
# High freq. dielectric constant tensor:
#      x y z
#    x 1.825680 0.000000 0.006180 
#    y 0.000000 1.811670 0.000000 
#    z 0.006180 0.000000 1.776890 
# 
# From -- ./inp_files/100247.got.cif
#   From: 2010.06.25/outbox.cif.g09.slc.cpg/sg12_51_cif.got.tgz:100247.got - 2010.06.28 00:19:55.
