data_PCOD8113336
_publ_section_title
;
Structure prediction by ZEFSAII (Michael W. Deem and Ramdas Pophale) SiO2 
 PCOD8113336
Probable space group: C 2/M
;
_chemical_formula_sum "Si O2"
_cell_formula_units_Z 48
_cell_length_a 29.355091
_cell_length_b 8.754057
_cell_length_c 14.896490
_cell_angle_alpha 90.000000
_cell_angle_beta 140.284031
_cell_angle_gamma 90.000000
_cell_volume 2446.051144
_symmetry_space_group_name_H-M "C 2/M"
_symmetry_group_IT_number 12
_symmetry_cell_setting 'monoclinic'
loop_
_space_group_symop_operation_xyz
x,y,z
-x,y,-z
-x,-y,-z
x,-y,z
1/2+x,1/2+y,z
1/2-x,1/2+y,-z
1/2-x,1/2-y,-z
1/2+x,1/2-y,z
loop_
_atom_site_type_symbol
_atom_site_label
_atom_site_fract_x
_atom_site_fract_y
_atom_site_fract_z
Si Si1 0.324054 0.820782 0.642717
Si Si2 0.828465 0.823241 0.353215
Si Si3 0.908624 0.678639 0.114027
Si Si4 0.175117 0.821345 0.859752
Si Si5 0.817671 0.179646 0.818333
Si Si6 0.572819 0.177071 0.361478
O O1 0.250000 0.750000 0.500000
O O2 0.349151 0.754103 0.775962
O O3 0.385153 0.777689 0.664645
O O4 0.313486 0.000000 0.635680
O O5 0.841183 0.787881 0.268451
O O6 0.764970 0.722182 0.296772
O O7 0.900059 0.778034 0.514232
O O8 0.809627 0.000000 0.340130
O O9 0.891676 0.500000 0.083548
O O10 0.887832 0.741548 0.180180
O O11 0.990653 0.716060 0.219804
O O12 0.861261 0.762214 0.968917
O O13 0.177055 0.000000 0.884552
O O14 0.250000 0.750000 0.000000
O O15 0.824882 0.000000 0.821385
O O16 0.583478 0.000000 0.402101
#
# Coordination Sequence:
#
# PCOD8113336 Si02
#       6
#     8   8   8   8   8   8
#     4  11  22  39  64  94 125 163 210 260 310 369
#     4  11  23  39  64  93 124 162 208 258 308 370
#     4  11  24  43  64  91 127 166 208 259 315 370
#     4  11  23  39  63  94 125 164 209 258 310 370
#     4  12  24  39  63  93 125 164 210 259 311 372
#     4  10  24  43  64  91 127 166 206 256 316 374
#
# _framework density 19.623464999999999
#
# number of rings (size 3 to 8) (size 9 to 14) (size 15 to 20)
#    0.000    1.000    3.333    3.500    0.000    5.333 
#    0.000    6.667    0.000    0.000    0.000    0.000 
#    0.000    0.000    0.000    0.000    0.000    0.000 
#
# Total GULP energy -297776.921443 kJ/mol
# GULP energy per Si atom -12407.371727 kJ/mol
# Density = 1.957880 g / cm^3
# Si number density = 19.623465 Si / 1000 Ang^3
#
#
#
# Elastic Constant Matrix: (Units=GPa)
#
#
# Indices 1 2 3 4 5 6 
#
# 1 123.0548 42.7305 24.4924 0.0000 -3.3990 0.0000
# 2 42.7305 94.5232 20.6915 0.0000 -5.4861 0.0000
# 3 24.4924 20.6915 57.2997 0.0000 -8.9187 0.0000
# 4 0.0000 0.0000 0.0000 35.3202 0.0000 -4.2374
# 5 -3.3990 -5.4861 -8.9187 0.0000 37.0234 0.0000
# 6 0.0000 0.0000 0.0000 -4.2374 0.0000 34.2418
#
#
#
# Elastic Compliance Matrix: (Units=1/GPa)
#
#
# Indices 1 2 3 4 5 6 
#
# 1 0.010066 -0.003928 -0.002941 0.000000 -0.000366 0.000000
# 2 -0.003928 0.013039 -0.002894 0.000000 0.000874 0.000000
# 3 -0.002941 -0.002894 0.020411 0.000000 0.004218 0.000000
# 4 0.000000 0.000000 0.000000 0.028739 0.000000 0.003556
# 5 -0.000366 0.000874 0.004218 0.000000 0.028122 0.000000
# 6 0.000000 0.000000 0.000000 0.003556 0.000000 0.029644
#
#
# Mechanical properties :
#
#
# Convention : Reuss Voigt Hill
#
# Bulk Modulus (GPa) = 41.68308 50.07847 45.88077
# Shear Modulus (GPa) = 31.73746 33.78132 32.75939
#
# Velocity S-wave (km/s) = 4.02596 4.15357 4.09026
# Velocity P-wave (km/s) = 6.54971 6.96979 6.76301
#
# Compressibility (1/GPa) = 0.02399055
#
# Stress axis : x y z
#
# Youngs Moduli (GPa) = 99.34794 76.69199 48.99388
#
# Poissons Ratio (x) = 0.30123 0.14410
# Poissons Ratio (y) = 0.39021 0.14177
# Poissons Ratio (z) = 0.29220 0.22191
#
# Static dielectric constant tensor:
#      x y z
#    x 3.995370 0.000000 -0.044890 
#    y 0.000000 3.753560 0.000000 
#    z -0.044890 0.000000 3.661640 
# 
# 
# High freq. dielectric constant tensor:
#      x y z
#    x 1.774990 0.000000 -0.011220 
#    y 0.000000 1.778220 0.000000 
#    z -0.011220 0.000000 1.766160 
# 
# From -- ./inp_files/249361.got.cif
#   From: 2010.06.25/outbox.cif.g09.slc.cpg/sg12_125_cif.got.tgz:249361.got - 2010.06.28 00:19:55.
