data_PCOD8113617
_publ_section_title
;
Structure prediction by ZEFSAII (Michael W. Deem and Ramdas Pophale) SiO2 
 PCOD8113617
Probable space group: C 2/M
;
_chemical_formula_sum "Si O2"
_cell_formula_units_Z 40
_cell_length_a 11.915730
_cell_length_b 20.166432
_cell_length_c 8.341487
_cell_angle_alpha 90.000000
_cell_angle_beta 83.424777
_cell_angle_gamma 90.000000
_cell_volume 1991.256174
_symmetry_space_group_name_H-M "C 2/M"
_symmetry_group_IT_number 12
_symmetry_cell_setting 'monoclinic'
loop_
_space_group_symop_operation_xyz
x,y,z
-x,y,-z
-x,-y,-z
x,-y,z
1/2+x,1/2+y,z
1/2-x,1/2+y,-z
1/2-x,1/2-y,-z
1/2+x,1/2-y,z
loop_
_atom_site_type_symbol
_atom_site_label
_atom_site_fract_x
_atom_site_fract_y
_atom_site_fract_z
Si Si1 0.732463 0.156145 0.810974
Si Si2 0.029547 0.199080 0.174009
Si Si3 0.441263 0.922496 0.345993
Si Si4 0.201871 0.787214 0.663761
Si Si5 0.624967 0.153552 0.159136
O O1 0.868521 0.153137 0.776062
O O2 0.677555 0.114326 0.673047
O O3 0.696904 0.233220 0.807707
O O4 0.690239 0.131188 0.989300
O O5 0.061707 0.276343 0.162093
O O6 0.927501 0.187155 0.319769
O O7 0.000000 0.174212 0.000000
O O8 0.500000 0.897146 0.500000
O O9 0.531327 0.903374 0.194805
O O10 0.416415 0.000000 0.354039
O O11 0.250000 0.750000 0.500000
O O12 0.286278 0.845575 0.706387
#
# Coordination Sequence:
#
# PCOD8113617 Si02
#       5
#     8   8   8   8   8
#     4  11  21  35  58  84 116 157 195 238 292 359
#     4  11  18  35  57  87 125 155 187 237 297 354
#     4  11  24  41  59  83 117 155 202 257 304 351
#     4  11  21  33  55  89 127 158 190 238 296 357
#     4  11  20  33  58  86 117 156 197 236 292 355
#
# _framework density 20.087821000000002
#
# number of rings (size 3 to 8) (size 9 to 14) (size 15 to 20)
#    0.000    1.000    6.000    3.000    0.000    4.000 
#    0.000    0.000    0.000    1.800    0.000    4.200 
#    0.000    0.000    0.000    0.000    0.000    0.000 
#
# Total GULP energy -247891.842210 kJ/mol
# GULP energy per Si atom -12394.592110 kJ/mol
# Density = 2.004210 g / cm^3
# Si number density = 20.087821 Si / 1000 Ang^3
#
#
#
# Elastic Constant Matrix: (Units=GPa)
#
#
# Indices 1 2 3 4 5 6 
#
# 1 182.7082 28.4132 48.3237 0.0000 1.7253 0.0000
# 2 28.4132 35.7095 -1.1875 0.0000 11.4562 0.0000
# 3 48.3237 -1.1875 87.1606 0.0000 -0.9637 0.0000
# 4 0.0000 0.0000 0.0000 19.3684 0.0000 2.9529
# 5 1.7253 11.4562 -0.9637 0.0000 38.8212 0.0000
# 6 0.0000 0.0000 0.0000 2.9529 0.0000 21.9114
#
#
#
# Elastic Compliance Matrix: (Units=1/GPa)
#
#
# Indices 1 2 3 4 5 6 
#
# 1 0.007644 -0.006718 -0.004313 0.000000 0.001536 0.000000
# 2 -0.006718 0.036846 0.004111 0.000000 -0.010473 0.000000
# 3 -0.004313 0.004111 0.013913 0.000000 -0.000676 0.000000
# 4 0.000000 0.000000 0.000000 0.052714 0.000000 -0.007104
# 5 0.001536 -0.010473 -0.000676 0.000000 0.028765 0.000000
# 6 0.000000 0.000000 0.000000 -0.007104 0.000000 0.046596
#
#
# Mechanical properties :
#
#
# Convention : Reuss Voigt Hill
#
# Bulk Modulus (GPa) = 22.44025 50.74189 36.59107
# Shear Modulus (GPa) = 23.23735 31.35546 27.29640
#
# Velocity S-wave (km/s) = 3.40485 3.95513 3.69026
# Velocity P-wave (km/s) = 5.16262 6.79502 6.03427
#
# Compressibility (1/GPa) = 0.04456278
#
# Stress axis : x y z
#
# Youngs Moduli (GPa) = 130.81959 27.14002 71.87715
#
# Poissons Ratio (x) = 0.18234 0.30998
# Poissons Ratio (y) = 0.87890 -0.29549
# Poissons Ratio (z) = 0.56418 -0.11157
#
# Static dielectric constant tensor:
#      x y z
#    x 4.176800 0.000000 0.111630 
#    y 0.000000 3.080500 0.000000 
#    z 0.111630 0.000000 3.659670 
# 
# 
# High freq. dielectric constant tensor:
#      x y z
#    x 1.808050 0.000000 0.004580 
#    y 0.000000 1.708450 0.000000 
#    z 0.004580 0.000000 1.790880 
# 
# From -- ./inp_files/46923.got.cif
#   From: 2010.06.25/outbox.cif.g09.slc.cpg/sg12_24_cif.got.tgz:46923.got - 2010.06.28 00:19:55.
