data_PCOD8113921
_publ_section_title
;
Structure prediction by ZEFSAII (Michael W. Deem and Ramdas Pophale) SiO2 
 PCOD8113921
Probable space group: C 2/M
;
_chemical_formula_sum "Si O2"
_cell_formula_units_Z 56
_cell_length_a 13.886260
_cell_length_b 24.604102
_cell_length_c 9.498954
_cell_angle_alpha 90.000000
_cell_angle_beta 114.913808
_cell_angle_gamma 90.000000
_cell_volume 2943.393723
_symmetry_space_group_name_H-M "C 2/M"
_symmetry_group_IT_number 12
_symmetry_cell_setting 'monoclinic'
loop_
_space_group_symop_operation_xyz
x,y,z
-x,y,-z
-x,-y,-z
x,-y,z
1/2+x,1/2+y,z
1/2-x,1/2+y,-z
1/2-x,1/2-y,-z
1/2+x,1/2-y,z
loop_
_atom_site_type_symbol
_atom_site_label
_atom_site_fract_x
_atom_site_fract_y
_atom_site_fract_z
Si Si1 0.524241 0.000000 0.286882
Si Si2 0.102378 0.612369 0.261642
Si Si3 0.170693 0.500000 0.648974
Si Si4 0.815547 0.225360 0.672165
Si Si5 0.961876 0.215979 0.324512
Si Si6 0.762104 0.679673 0.847920
Si Si7 0.801172 0.616088 0.373478
Si Si8 0.596737 0.170899 0.802092
O O1 0.557316 0.948183 0.211969
O O2 0.589191 0.000000 0.470313
O O3 0.398686 0.000000 0.248982
O O4 0.196125 0.626174 0.209483
O O5 0.142456 0.622244 0.443336
O O6 0.008797 0.656073 0.175442
O O7 0.243784 0.554431 0.677843
O O8 0.750000 0.250000 0.500000
O O9 0.799384 0.265437 0.792601
O O10 0.784014 0.163939 0.693761
O O11 0.940332 0.217926 0.721847
O O12 0.866205 0.175837 0.219293
O O13 0.913435 0.276239 0.302522
O O14 0.000000 0.196390 0.500000
O O15 0.806138 0.680325 0.032433
O O16 0.884886 0.622114 0.297164
#
# Coordination Sequence:
#
# PCOD8113921 Si02
#       8
#     4   8   4   8   8   8   8   8
#     4   9  18  32  58  86 110 152 193 237 278 335
#     4  11  20  37  58  83 119 153 193 229 282 348
#     4   9  18  32  55  91 112 138 202 245 276 325
#     4  12  21  37  60  86 111 157 197 231 290 349
#     4  12  22  37  57  79 115 153 190 231 280 356
#     4  12  25  37  51  88 120 149 188 235 292 345
#     4  11  20  36  60  85 115 154 193 236 283 342
#     4  12  22  34  55  85 122 150 182 237 292 342
#
# _framework density 19.025659000000001
#
# number of rings (size 3 to 8) (size 9 to 14) (size 15 to 20)
#    0.000    0.714    7.143    2.143    0.000    0.000 
#    0.000    2.143    0.000    0.857    0.000    5.000 
#    0.000    0.000    0.000    0.000    0.000    0.000 
#
# Total GULP energy -347086.374699 kJ/mol
# GULP energy per Si atom -12395.941954 kJ/mol
# Density = 1.898236 g / cm^3
# Si number density = 19.025659 Si / 1000 Ang^3
#
#
#
# Elastic Constant Matrix: (Units=GPa)
#
#
# Indices 1 2 3 4 5 6 
#
# 1 93.1951 21.0161 11.8841 0.0000 8.2783 0.0000
# 2 21.0161 109.6770 1.7339 0.0000 -1.4304 0.0000
# 3 11.8841 1.7339 49.1935 0.0000 4.3160 0.0000
# 4 0.0000 0.0000 0.0000 5.4700 0.0000 1.9033
# 5 8.2783 -1.4304 4.3160 0.0000 21.4662 0.0000
# 6 0.0000 0.0000 0.0000 1.9033 0.0000 31.3397
#
#
#
# Elastic Compliance Matrix: (Units=1/GPa)
#
#
# Indices 1 2 3 4 5 6 
#
# 1 0.011939 -0.002305 -0.002428 0.000000 -0.004269 0.000000
# 2 -0.002305 0.009578 0.000087 0.000000 0.001510 0.000000
# 3 -0.002428 0.000087 0.021203 0.000000 -0.003321 0.000000
# 4 0.000000 0.000000 0.000000 0.186763 0.000000 -0.011342
# 5 -0.004269 0.001510 -0.003321 0.000000 0.049000 0.000000
# 6 0.000000 0.000000 0.000000 -0.011342 0.000000 0.032597
#
#
# Mechanical properties :
#
#
# Convention : Reuss Voigt Hill
#
# Bulk Modulus (GPa) = 29.91658 35.70378 32.81018
# Shear Modulus (GPa) = 15.08228 26.15060 20.61644
#
# Velocity S-wave (km/s) = 2.81861 3.71144 3.29540
# Velocity P-wave (km/s) = 5.13334 6.09698 5.63580
#
# Compressibility (1/GPa) = 0.03342628
#
# Stress axis : x y z
#
# Youngs Moduli (GPa) = 83.75999 104.40939 47.16354
#
# Poissons Ratio (x) = 0.24066 0.11453
# Poissons Ratio (y) = 0.19307 -0.00409
# Poissons Ratio (z) = 0.20340 -0.00906
#
# Static dielectric constant tensor:
#      x y z
#    x 3.570790 0.000000 -0.014610 
#    y 0.000000 3.824170 0.000000 
#    z -0.014610 0.000000 3.267770 
# 
# 
# High freq. dielectric constant tensor:
#      x y z
#    x 1.727660 0.000000 -0.013540 
#    y 0.000000 1.731150 0.000000 
#    z -0.013540 0.000000 1.725030 
# 
# From -- ./inp_files/67102.got.cif
#   From: 2010.06.25/outbox.cif.g09.slc.cpg/sg12_34_cif.got.tgz:67102.got - 2010.06.28 00:19:55.
