data_PCOD8113273
_publ_section_title
;
Structure prediction by ZEFSAII (Michael W. Deem and Ramdas Pophale) SiO2 
 PCOD8113273
Probable space group: C 2/M
;
_chemical_formula_sum "Si O2"
_cell_formula_units_Z 48
_cell_length_a 27.360047
_cell_length_b 8.659333
_cell_length_c 16.902348
_cell_angle_alpha 90.000000
_cell_angle_beta 143.837315
_cell_angle_gamma 90.000000
_cell_volume 2362.975450
_symmetry_space_group_name_H-M "C 2/M"
_symmetry_group_IT_number 12
_symmetry_cell_setting 'monoclinic'
loop_
_space_group_symop_operation_xyz
x,y,z
-x,y,-z
-x,-y,-z
x,-y,z
1/2+x,1/2+y,z
1/2-x,1/2+y,-z
1/2-x,1/2-y,-z
1/2+x,1/2-y,z
loop_
_atom_site_type_symbol
_atom_site_label
_atom_site_fract_x
_atom_site_fract_y
_atom_site_fract_z
Si Si1 0.018686 0.319339 0.112861
Si Si2 0.691649 0.820968 0.742887
Si Si3 0.417737 0.180421 0.249974
Si Si4 0.622202 0.320794 0.966908
Si Si5 0.660612 0.681201 0.396495
Si Si6 0.093104 0.180996 0.477185
O O1 0.036687 0.500000 0.139588
O O2 0.100945 0.232464 0.247934
O O3 0.941493 0.281405 0.067411
O O4 0.000000 0.262390 0.000000
O O5 0.638440 0.773634 0.749329
O O6 0.664493 0.717731 0.633409
O O7 0.678545 0.000000 0.704890
O O8 0.786728 0.782009 0.883531
O O9 0.384195 0.279470 0.133287
O O10 0.511598 0.224036 0.394032
O O11 0.411113 0.000000 0.221257
O O12 0.599539 0.500000 0.948218
O O13 0.669647 0.500000 0.407988
O O14 0.750000 0.750000 0.500000
O O15 0.623175 0.738641 0.430729
O O16 0.072841 0.000000 0.450416
#
# Coordination Sequence:
#
# PCOD8113273 Si02
#       6
#     8   8   8   8   8   8
#     4  11  25  44  67  95 127 163 207 256 312 374
#     4  10  24  41  61  93 128 167 211 257 309 371
#     4  11  22  40  65  91 125 168 212 256 311 371
#     4  11  23  41  64  93 128 164 209 258 312 370
#     4  11  25  44  67  95 127 164 209 258 313 372
#     4  11  24  41  63  93 127 164 209 260 312 369
#
# _framework density 20.313372999999999
#
# number of rings (size 3 to 8) (size 9 to 14) (size 15 to 20)
#    0.000    1.167    1.667    3.500    2.333    8.000 
#    0.000    0.000    0.000    0.000    0.000    0.000 
#    0.000    0.000    0.000    0.000    0.000    0.000 
#
# Total GULP energy -297798.877294 kJ/mol
# GULP energy per Si atom -12408.286554 kJ/mol
# Density = 2.026714 g / cm^3
# Si number density = 20.313373 Si / 1000 Ang^3
#
#
#
# Elastic Constant Matrix: (Units=GPa)
#
#
# Indices 1 2 3 4 5 6 
#
# 1 95.0252 27.8523 45.9991 0.0000 4.1957 0.0000
# 2 27.8523 36.7039 22.7329 0.0000 0.0964 0.0000
# 3 45.9991 22.7329 134.4876 0.0000 -3.4764 0.0000
# 4 0.0000 0.0000 0.0000 39.2226 0.0000 -1.1123
# 5 4.1957 0.0964 -3.4764 0.0000 38.2976 0.0000
# 6 0.0000 0.0000 0.0000 -1.1123 0.0000 25.5229
#
#
#
# Elastic Compliance Matrix: (Units=1/GPa)
#
#
# Indices 1 2 3 4 5 6 
#
# 1 0.015065 -0.009163 -0.003654 0.000000 -0.001959 0.000000
# 2 -0.009163 0.036016 -0.002937 0.000000 0.000647 0.000000
# 3 -0.003654 -0.002937 0.009214 0.000000 0.001244 0.000000
# 4 0.000000 0.000000 0.000000 0.025527 0.000000 0.001112
# 5 -0.001959 0.000647 0.001244 0.000000 0.026437 0.000000
# 6 0.000000 0.000000 0.000000 0.001112 0.000000 0.039229
#
#
# Mechanical properties :
#
#
# Convention : Reuss Voigt Hill
#
# Bulk Modulus (GPa) = 34.73970 51.04281 42.89125
# Shear Modulus (GPa) = 25.96152 31.91744 28.93948
#
# Velocity S-wave (km/s) = 3.57886 3.96820 3.77855
# Velocity P-wave (km/s) = 5.84950 6.79542 6.34013
#
# Compressibility (1/GPa) = 0.02878551
#
# Stress axis : x y z
#
# Youngs Moduli (GPa) = 66.37984 27.76551 108.52844
#
# Poissons Ratio (x) = 0.25442 0.39661
# Poissons Ratio (y) = 0.60825 0.31875
# Poissons Ratio (z) = 0.24258 0.08155
#
# Static dielectric constant tensor:
#      x y z
#    x 3.800310 0.000000 -0.018840 
#    y 0.000000 3.678180 0.000000 
#    z -0.018840 0.000000 3.778490 
# 
# 
# High freq. dielectric constant tensor:
#      x y z
#    x 1.802780 0.000000 0.001270 
#    y 0.000000 1.799650 0.000000 
#    z 0.001270 0.000000 1.810840 
# 
# From -- ./inp_files/244832.got.cif
#   From: 2010.06.25/outbox.cif.g09.slc.cpg/sg12_123_cif.got.tgz:244832.got - 2010.06.28 00:19:55.
