data_PCOD8113757
_publ_section_title
;
Structure prediction by ZEFSAII (Michael W. Deem and Ramdas Pophale) SiO2 
 PCOD8113757
Probable space group: C 2/M
;
_chemical_formula_sum "Si O2"
_cell_formula_units_Z 56
_cell_length_a 28.273853
_cell_length_b 9.044314
_cell_length_c 17.698768
_cell_angle_alpha 90.000000
_cell_angle_beta 51.013734
_cell_angle_gamma 90.000000
_cell_volume 3517.957089
_symmetry_space_group_name_H-M "C 2/M"
_symmetry_group_IT_number 12
_symmetry_cell_setting 'monoclinic'
loop_
_space_group_symop_operation_xyz
x,y,z
-x,y,-z
-x,-y,-z
x,-y,z
1/2+x,1/2+y,z
1/2-x,1/2+y,-z
1/2-x,1/2-y,-z
1/2+x,1/2-y,z
loop_
_atom_site_type_symbol
_atom_site_label
_atom_site_fract_x
_atom_site_fract_y
_atom_site_fract_z
Si Si1 0.428769 0.836697 0.555058
Si Si2 0.037300 0.329697 0.800037
Si Si3 0.814965 0.675884 0.928689
Si Si4 0.098527 0.328381 0.022003
Si Si5 0.570147 0.332633 0.907413
Si Si6 0.902293 0.825010 0.725384
Si Si7 0.974149 0.672620 0.355445
O O1 0.500000 0.841222 0.500000
O O2 0.396237 0.719614 0.642768
O O3 0.424039 0.791382 0.470935
O O4 0.400504 0.000000 0.597034
O O5 0.046380 0.500000 0.811449
O O6 0.079768 0.239448 0.815234
O O7 0.056895 0.293907 0.694227
O O8 0.966710 0.283903 0.878211
O O9 0.810118 0.500000 0.923665
O O10 0.851050 0.719090 0.968332
O O11 0.848017 0.744750 0.823250
O O12 0.750000 0.750000 0.000000
O O13 0.101711 0.500000 0.000249
O O14 0.110985 0.244930 0.930487
O O15 0.591674 0.500000 0.880526
O O16 0.500000 0.314474 0.000000
O O17 0.966337 0.772643 0.694827
O O18 0.896058 0.000000 0.739728
O O19 0.994726 0.500000 0.339004
#
# Coordination Sequence:
#
# PCOD8113757 Si02
#       7
#     8   8   8   8   8   8   8
#     4   8  15  27  43  60  83 115 149 181 217 261
#     4   9  15  26  43  62  85 116 150 177 212 261
#     4  11  22  36  50  66  86 113 153 192 228 264
#     4   9  17  30  46  59  80 114 148 181 217 261
#     4   9  17  26  38  60  87 112 142 178 216 258
#     4  11  20  29  43  62  87 117 148 184 225 263
#     4   9  16  28  44  63  87 119 152 182 217 262
#
# _framework density 15.918329999999999
#
# number of rings (size 3 to 8) (size 9 to 14) (size 15 to 20)
#    0.000    2.571    1.429    3.000    0.000    6.000 
#    0.000    0.000    0.000    0.000    0.000    0.000 
#    0.000    1.143    0.000    3.429    0.000    4.571 
#
# Total GULP energy -347080.045003 kJ/mol
# GULP energy per Si atom -12395.715893 kJ/mol
# Density = 1.588210 g / cm^3
# Si number density = 15.918330 Si / 1000 Ang^3
#
#
#
# Elastic Constant Matrix: (Units=GPa)
#
#
# Indices 1 2 3 4 5 6 
#
# 1 80.4299 45.3320 55.2140 -0.0001 29.6445 0.0000
# 2 45.3320 88.0320 50.0972 0.0000 15.6478 0.0001
# 3 55.2140 50.0972 89.2397 0.0001 28.8772 0.0000
# 4 -0.0001 0.0000 0.0001 20.1537 -0.0001 1.2731
# 5 29.6445 15.6478 28.8772 -0.0001 31.7613 0.0000
# 6 0.0000 0.0001 0.0000 1.2731 0.0000 17.8411
#
#
#
# Elastic Compliance Matrix: (Units=1/GPa)
#
#
# Indices 1 2 3 4 5 6 
#
# 1 0.027393 -0.006692 -0.008480 0.000000 -0.014560 0.000000
# 2 -0.006692 0.018331 -0.007437 0.000000 0.003977 0.000000
# 3 -0.008480 -0.007437 0.023917 0.000000 -0.010167 0.000000
# 4 0.000000 0.000000 0.000000 0.049843 0.000000 -0.003557
# 5 -0.014560 0.003977 -0.010167 0.000000 0.052359 0.000000
# 6 0.000000 0.000000 0.000000 -0.003557 0.000000 0.056304
#
#
# Mechanical properties :
#
#
# Convention : Reuss Voigt Hill
#
# Bulk Modulus (GPa) = 40.94484 62.10977 51.52731
# Shear Modulus (GPa) = 17.76156 21.08845 19.42500
#
# Velocity S-wave (km/s) = 3.34397 3.64372 3.49706
# Velocity P-wave (km/s) = 6.37865 7.53689 6.98183
#
# Compressibility (1/GPa) = 0.02442310
#
# Stress axis : x y z
#
# Youngs Moduli (GPa) = 36.50568 54.55263 41.81077
#
# Poissons Ratio (x) = 0.36507 0.35456
# Poissons Ratio (y) = 0.24430 0.31094
# Poissons Ratio (z) = 0.30957 0.40570
#
# Static dielectric constant tensor:
#      x y z
#    x 2.935630 0.000000 0.504260 
#    y 0.000000 3.024670 0.000000 
#    z 0.504260 0.000000 3.100480 
# 
# 
# High freq. dielectric constant tensor:
#      x y z
#    x 1.580760 0.000000 0.048150 
#    y 0.000000 1.614950 0.000000 
#    z 0.048150 0.000000 1.585980 
# 
# From -- ./inp_files/288165.got.cif
#   From: 2010.06.25/outbox.cif.g09.slc.cpg/sg12_145_cif.got.tgz:288165.got - 2010.06.28 00:19:55.
