data_PCOD8113874
_publ_section_title
;
Structure prediction by ZEFSAII (Michael W. Deem and Ramdas Pophale) SiO2 
 PCOD8113874
Probable space group: C 2/M
;
_chemical_formula_sum "Si O2"
_cell_formula_units_Z 56
_cell_length_a 14.151639
_cell_length_b 19.170334
_cell_length_c 12.196886
_cell_angle_alpha 90.000000
_cell_angle_beta 117.013327
_cell_angle_gamma 90.000000
_cell_volume 2947.913828
_symmetry_space_group_name_H-M "C 2/M"
_symmetry_group_IT_number 12
_symmetry_cell_setting 'monoclinic'
loop_
_space_group_symop_operation_xyz
x,y,z
-x,y,-z
-x,-y,-z
x,-y,z
1/2+x,1/2+y,z
1/2-x,1/2+y,-z
1/2-x,1/2-y,-z
1/2+x,1/2-y,z
loop_
_atom_site_type_symbol
_atom_site_label
_atom_site_fract_x
_atom_site_fract_y
_atom_site_fract_z
Si Si1 0.677150 0.782238 0.364147
Si Si2 0.619765 0.582178 0.024383
Si Si3 0.399565 0.365792 0.220698
Si Si4 0.457298 0.230339 0.359418
Si Si5 0.250104 0.156456 0.279468
Si Si6 0.220449 0.076423 0.647884
Si Si7 0.376477 0.577133 0.626565
O O1 0.750000 0.750000 0.500000
O O2 0.555671 0.788886 0.335452
O O3 0.692611 0.731315 0.268132
O O4 0.701439 0.860096 0.335738
O O5 0.642914 0.500000 0.022902
O O6 0.701615 0.616218 0.151373
O O7 0.500000 0.594997 0.000000
O O8 0.643634 0.623106 0.924116
O O9 0.384388 0.288517 0.261626
O O10 0.337850 0.419178 0.266391
O O11 0.525337 0.377301 0.283423
O O12 0.500000 0.256976 0.500000
O O13 0.377322 0.165032 0.333053
O O14 0.230409 0.109898 0.378107
O O15 0.129515 0.077725 0.507307
O O16 0.278179 0.000000 0.673910
O O17 0.392650 0.500000 0.683624
#
# Coordination Sequence:
#
# PCOD8113874 Si02
#       7
#     8   8   8   8   8   8   8
#     4  12  20  40  61  87 125 165 203 252 314 373
#     4  11  23  41  62  88 126 168 211 262 311 364
#     4  12  21  36  62  91 122 160 207 255 317 368
#     4  12  22  37  64  94 128 163 206 259 315 375
#     4  12  23  38  62  90 124 167 209 252 311 374
#     4  11  22  35  56  90 123 157 202 253 314 375
#     4  11  20  34  58  90 124 155 200 261 315 368
#
# _framework density 18.996485
#
# number of rings (size 3 to 8) (size 9 to 14) (size 15 to 20)
#    0.000    0.429    7.143    3.000    0.000    1.714 
#    0.000    1.429    0.000    3.857    0.000    2.000 
#    0.000    0.000    0.000    0.000    0.000    0.000 
#
# Total GULP energy -347118.285481 kJ/mol
# GULP energy per Si atom -12397.081624 kJ/mol
# Density = 1.895325 g / cm^3
# Si number density = 18.996485 Si / 1000 Ang^3
#
#
#
# Elastic Constant Matrix: (Units=GPa)
#
#
# Indices 1 2 3 4 5 6 
#
# 1 108.5035 25.3558 29.0167 0.0000 -5.6556 0.0000
# 2 25.3558 92.0854 30.9223 0.0000 -9.1151 0.0000
# 3 29.0167 30.9223 97.6136 0.0000 -21.9656 0.0000
# 4 0.0000 0.0000 0.0000 28.7443 0.0000 -0.0491
# 5 -5.6556 -9.1151 -21.9656 0.0000 23.7580 0.0000
# 6 0.0000 0.0000 0.0000 -0.0491 0.0000 26.2362
#
#
#
# Elastic Compliance Matrix: (Units=1/GPa)
#
#
# Indices 1 2 3 4 5 6 
#
# 1 0.010351 -0.002052 -0.002588 0.000000 -0.000716 0.000000
# 2 -0.002052 0.012596 -0.003034 0.000000 0.001539 0.000000
# 3 -0.002588 -0.003034 0.014615 0.000000 0.011732 0.000000
# 4 0.000000 0.000000 0.000000 0.034790 0.000000 0.000065
# 5 -0.000716 0.001539 0.011732 0.000000 0.053358 0.000000
# 6 0.000000 0.000000 0.000000 0.000065 0.000000 0.038115
#
#
# Mechanical properties :
#
#
# Convention : Reuss Voigt Hill
#
# Bulk Modulus (GPa) = 45.01693 52.08802 48.55248
# Shear Modulus (GPa) = 26.79871 29.94154 28.37013
#
# Velocity S-wave (km/s) = 3.76003 3.97440 3.86870
# Velocity P-wave (km/s) = 6.52682 6.96710 6.75055
#
# Compressibility (1/GPa) = 0.02221386
#
# Stress axis : x y z
#
# Youngs Moduli (GPa) = 96.61324 79.39296 68.42334
#
# Poissons Ratio (x) = 0.16290 0.17707
# Poissons Ratio (y) = 0.19824 0.20758
# Poissons Ratio (z) = 0.25003 0.24086
#
# Static dielectric constant tensor:
#      x y z
#    x 3.477810 0.000000 -0.267230 
#    y 0.000000 3.739810 0.000000 
#    z -0.267230 0.000000 3.390460 
# 
# 
# High freq. dielectric constant tensor:
#      x y z
#    x 1.732360 0.000000 -0.027570 
#    y 0.000000 1.745470 0.000000 
#    z -0.027570 0.000000 1.716140 
# 
# From -- ./inp_files/145640.got.cif
#   From: 2010.06.25/outbox.cif.g09.slc.cpg/sg12_73_cif.got.tgz:145640.got - 2010.06.28 00:19:55.
