data_PCOD8113047
_publ_section_title
;
Structure prediction by ZEFSAII (Michael W. Deem and Ramdas Pophale) SiO2 
 PCOD8113047
Probable space group: C 2/M
;
_chemical_formula_sum "Si O2"
_cell_formula_units_Z 40
_cell_length_a 19.422097
_cell_length_b 15.024192
_cell_length_c 13.372039
_cell_angle_alpha 90.000000
_cell_angle_beta 151.696560
_cell_angle_gamma 90.000000
_cell_volume 1850.088293
_symmetry_space_group_name_H-M "C 2/M"
_symmetry_group_IT_number 12
_symmetry_cell_setting 'monoclinic'
loop_
_space_group_symop_operation_xyz
x,y,z
-x,y,-z
-x,-y,-z
x,-y,z
1/2+x,1/2+y,z
1/2-x,1/2+y,-z
1/2-x,1/2-y,-z
1/2+x,1/2-y,z
loop_
_atom_site_type_symbol
_atom_site_label
_atom_site_fract_x
_atom_site_fract_y
_atom_site_fract_z
Si Si1 0.632111 0.813609 0.899449
Si Si2 0.642923 0.698010 0.434408
Si Si3 0.447548 0.603868 0.037168
Si Si4 0.646240 0.899760 0.726397
Si Si5 0.844176 0.395088 0.851720
O O1 0.476049 0.768846 0.682983
O O2 0.639772 0.900643 0.838708
O O3 0.750000 0.750000 0.000000
O O4 0.659735 0.843791 0.047834
O O5 0.750000 0.750000 0.500000
O O6 0.566471 0.619835 0.273821
O O7 0.721438 0.650504 0.627181
O O8 0.425761 0.500000 0.994968
O O9 0.500000 0.648239 0.000000
O O10 0.292979 0.648425 0.871677
O O11 0.500000 0.850862 0.500000
O O12 0.648746 0.000000 0.689258
O O13 0.810626 0.500000 0.822926
O O14 0.000000 0.381459 0.000000
#
# Coordination Sequence:
#
# PCOD8113047 Si02
#       5
#     8   8   8   8   8
#     4  12  26  44  69 102 139 175 225 287 347 401
#     4  12  26  42  71 101 136 176 232 284 342 405
#     4  10  23  43  67  96 133 175 222 274 334 407
#     4  10  23  43  67  97 134 175 219 271 339 411
#     4  11  26  49  72 101 142 191 237 282 347 425
#
# _framework density 21.620591000000001
#
# number of rings (size 3 to 8) (size 9 to 14) (size 15 to 20)
#    0.000    1.000    4.000    1.200    8.400    0.000 
#    0.000    1.000    0.000    0.000    0.000    0.000 
#    0.000    0.000    0.000    0.000    0.000    0.000 
#
# Total GULP energy -247875.304601 kJ/mol
# GULP energy per Si atom -12393.765230 kJ/mol
# Density = 2.157138 g / cm^3
# Si number density = 21.620591 Si / 1000 Ang^3
#
#
#
# Elastic Constant Matrix: (Units=GPa)
#
#
# Indices 1 2 3 4 5 6 
#
# 1 192.4776 53.9121 99.9286 0.0000 -1.1804 0.0000
# 2 53.9121 78.5595 50.5050 0.0000 -0.1425 0.0000
# 3 99.9286 50.5050 189.9688 0.0000 -2.6266 0.0000
# 4 0.0000 0.0000 0.0000 35.8367 0.0000 -5.6589
# 5 -1.1804 -0.1425 -2.6266 0.0000 49.4326 0.0000
# 6 0.0000 0.0000 0.0000 -5.6589 0.0000 36.3228
#
#
#
# Elastic Compliance Matrix: (Units=1/GPa)
#
#
# Indices 1 2 3 4 5 6 
#
# 1 0.007786 -0.003269 -0.003227 0.000000 0.000005 0.000000
# 2 -0.003269 0.016727 -0.002730 0.000000 -0.000175 0.000000
# 3 -0.003227 -0.002730 0.007692 0.000000 0.000324 0.000000
# 4 0.000000 0.000000 0.000000 0.028608 0.000000 0.004457
# 5 0.000005 -0.000175 0.000324 0.000000 0.020246 0.000000
# 6 0.000000 0.000000 0.000000 0.004457 0.000000 0.028225
#
#
# Mechanical properties :
#
#
# Convention : Reuss Voigt Hill
#
# Bulk Modulus (GPa) = 72.70609 96.63303 84.66956
# Shear Modulus (GPa) = 37.78696 41.42909 39.60803
#
# Velocity S-wave (km/s) = 4.18512 4.38218 4.28478
# Velocity P-wave (km/s) = 7.55347 8.39027 7.98284
#
# Compressibility (1/GPa) = 0.01375401
#
# Stress axis : x y z
#
# Youngs Moduli (GPa) = 128.43195 59.78238 130.01266
#
# Poissons Ratio (x) = 0.19543 0.41950
# Poissons Ratio (y) = 0.41985 0.35493
# Poissons Ratio (z) = 0.41440 0.16320
#
# Static dielectric constant tensor:
#      x y z
#    x 4.460120 0.000000 0.157540 
#    y 0.000000 3.840270 0.000000 
#    z 0.157540 0.000000 4.384570 
# 
# 
# High freq. dielectric constant tensor:
#      x y z
#    x 1.867200 0.000000 0.006110 
#    y 0.000000 1.845660 0.000000 
#    z 0.006110 0.000000 1.859800 
# 
# From -- ./inp_files/47151.got.cif
#   From: 2010.06.25/outbox.cif.g09.slc.cpg/sg12_24_cif.got.tgz:47151.got - 2010.06.28 00:19:55.
