data_PCOD8113435
_publ_section_title
;
Structure prediction by ZEFSAII (Michael W. Deem and Ramdas Pophale) SiO2 
 PCOD8113435
Probable space group: C 2/M
;
_chemical_formula_sum "Si O2"
_cell_formula_units_Z 36
_cell_length_a 11.341269
_cell_length_b 17.228870
_cell_length_c 8.328495
_cell_angle_alpha 90.000000
_cell_angle_beta 71.152985
_cell_angle_gamma 90.000000
_cell_volume 1540.113026
_symmetry_space_group_name_H-M "C 2/M"
_symmetry_group_IT_number 12
_symmetry_cell_setting 'monoclinic'
loop_
_space_group_symop_operation_xyz
x,y,z
-x,y,-z
-x,-y,-z
x,-y,z
1/2+x,1/2+y,z
1/2-x,1/2+y,-z
1/2-x,1/2-y,-z
1/2+x,1/2-y,z
loop_
_atom_site_type_symbol
_atom_site_label
_atom_site_fract_x
_atom_site_fract_y
_atom_site_fract_z
Si Si1 0.183361 0.171966 0.987187
Si Si2 0.000000 0.315288 0.500000
Si Si3 0.867936 0.589364 0.094959
Si Si4 0.944317 0.819261 0.284258
Si Si5 0.274489 0.092569 0.480594
O O1 0.280411 0.102652 0.978523
O O2 0.068651 0.146347 0.151434
O O3 0.250000 0.250000 0.000000
O O4 0.152694 0.188255 0.817578
O O5 0.016912 0.261210 0.649037
O O6 0.124331 0.369524 0.439824
O O7 0.893188 0.500000 0.109933
O O8 0.810545 0.621188 0.286029
O O9 0.000000 0.631599 0.000000
O O10 0.868260 0.876524 0.436835
O O11 0.275424 0.000000 0.504110
#
# Coordination Sequence:
#
# PCOD8113435 Si02
#       5
#     8   4   8   8   8
#     4  11  24  42  68 102 136 182 230 286 343 415
#     4  12  23  44  67 104 140 184 230 284 341 420
#     4  10  24  45  70  99 135 181 232 286 345 414
#     4  11  25  42  69 103 140 181 231 287 350 411
#     4  11  25  44  69 102 139 186 234 285 350 414
#
# _framework density 23.374905999999999
#
# number of rings (size 3 to 8) (size 9 to 14) (size 15 to 20)
#    0.000    1.111    0.000    5.000    9.333    1.778 
#    0.000    5.000    0.000    0.000    0.000    0.000 
#    0.000    0.000    0.000    0.000    0.000    0.000 
#
# Total GULP energy -222999.450256 kJ/mol
# GULP energy per Si atom -12388.858348 kJ/mol
# Density = 2.332170 g / cm^3
# Si number density = 23.374906 Si / 1000 Ang^3
#
#
#
# Elastic Constant Matrix: (Units=GPa)
#
#
# Indices 1 2 3 4 5 6 
#
# 1 128.4408 33.2289 50.7362 0.0000 9.4848 0.0000
# 2 33.2289 75.0097 34.3035 0.0000 1.5182 0.0000
# 3 50.7362 34.3035 136.2070 0.0000 0.0866 0.0000
# 4 0.0000 0.0000 0.0000 27.6836 0.0000 7.8466
# 5 9.4848 1.5182 0.0866 0.0000 44.4414 0.0000
# 6 0.0000 0.0000 0.0000 7.8466 0.0000 46.9262
#
#
#
# Elastic Compliance Matrix: (Units=1/GPa)
#
#
# Indices 1 2 3 4 5 6 
#
# 1 0.009860 -0.002993 -0.002918 0.000000 -0.001996 0.000000
# 2 -0.002993 0.015987 -0.002911 0.000000 0.000098 0.000000
# 3 -0.002918 -0.002911 0.009161 0.000000 0.000704 0.000000
# 4 0.000000 0.000000 0.000000 0.037920 0.000000 -0.006341
# 5 -0.001996 0.000098 0.000704 0.000000 0.022923 0.000000
# 6 0.000000 0.000000 0.000000 -0.006341 0.000000 0.022370
#
#
# Mechanical properties :
#
#
# Convention : Reuss Voigt Hill
#
# Bulk Modulus (GPa) = 57.59108 64.02164 60.80636
# Shear Modulus (GPa) = 35.29732 38.56950 36.93341
#
# Velocity S-wave (km/s) = 3.89015 4.06647 3.97929
# Velocity P-wave (km/s) = 6.69845 7.03539 6.86899
#
# Compressibility (1/GPa) = 0.01736380
#
# Stress axis : x y z
#
# Youngs Moduli (GPa) = 101.41970 62.55066 109.15390
#
# Poissons Ratio (x) = 0.18723 0.31848
# Poissons Ratio (y) = 0.30357 0.31779
# Poissons Ratio (z) = 0.29591 0.18211
#
# Static dielectric constant tensor:
#      x y z
#    x 4.241920 0.000000 -0.722430 
#    y 0.000000 2.938230 0.000000 
#    z -0.722430 0.000000 3.818040 
# 
# 
# High freq. dielectric constant tensor:
#      x y z
#    x 1.947010 0.000000 -0.005050 
#    y 0.000000 1.904210 0.000000 
#    z -0.005050 0.000000 1.934590 
# 
# From -- ./inp_files/46801.got.cif
#   From: 2010.06.25/outbox.cif.g09.slc.cpg/sg12_24_cif.got.tgz:46801.got - 2010.06.28 00:19:55.
