data_PCOD8113282
_publ_section_title
;
Structure prediction by ZEFSAII (Michael W. Deem and Ramdas Pophale) SiO2 
 PCOD8113282
Probable space group: C 2/M
;
_chemical_formula_sum "Si O2"
_cell_formula_units_Z 40
_cell_length_a 12.370945
_cell_length_b 25.836262
_cell_length_c 8.601852
_cell_angle_alpha 90.000000
_cell_angle_beta 134.147528
_cell_angle_gamma 90.000000
_cell_volume 1972.767709
_symmetry_space_group_name_H-M "C 2/M"
_symmetry_group_IT_number 12
_symmetry_cell_setting 'monoclinic'
loop_
_space_group_symop_operation_xyz
x,y,z
-x,y,-z
-x,-y,-z
x,-y,z
1/2+x,1/2+y,z
1/2-x,1/2+y,-z
1/2-x,1/2-y,-z
1/2+x,1/2-y,z
loop_
_atom_site_type_symbol
_atom_site_label
_atom_site_fract_x
_atom_site_fract_y
_atom_site_fract_z
Si Si1 0.000000 0.140197 0.000000
Si Si2 0.477253 0.110488 0.660968
Si Si3 0.667011 0.500000 0.727194
Si Si4 0.196793 0.899113 0.938962
Si Si5 0.500000 0.658782 0.500000
Si Si6 0.414614 0.000000 0.750076
Si Si7 0.789944 0.809309 0.539741
O O1 0.120675 0.103168 0.033904
O O2 0.908525 0.177766 0.793567
O O3 0.500000 0.111595 0.500000
O O4 0.439999 0.051792 0.674784
O O5 0.352366 0.151483 0.593936
O O6 0.638552 0.127833 0.895084
O O7 0.500000 0.500000 0.500000
O O8 0.720334 0.455717 0.896930
O O9 0.742762 0.500000 0.633505
O O10 0.075116 0.874718 0.706488
O O11 0.632996 0.690084 0.552264
O O12 0.500000 0.000000 0.000000
O O13 0.750000 0.750000 0.500000
#
# Coordination Sequence:
#
# PCOD8113282 Si02
#       7
#     4   8   4   8   4   4   8
#     4  10  24  45  62  98 134 175 230 282 346 420
#     4  12  25  44  69 100 142 179 227 281 347 409
#     4  12  24  37  65 100 137 180 231 275 339 405
#     4  11  22  42  66  97 137 179 227 281 338 407
#     4  10  24  41  66  96 132 171 228 282 340 400
#     4  12  25  42  66 102 136 180 232 282 334 411
#     4  11  26  45  71  98 135 180 230 288 349 408
#
# _framework density 20.276081999999999
#
# number of rings (size 3 to 8) (size 9 to 14) (size 15 to 20)
#    0.000    0.800    5.000    1.500    4.200    2.000 
#    0.000    4.000    0.000    0.000    0.000    0.000 
#    0.000    0.000    0.000    0.000    0.000    0.000 
#
# Total GULP energy -247771.102470 kJ/mol
# GULP energy per Si atom -12388.555123 kJ/mol
# Density = 2.022993 g / cm^3
# Si number density = 20.276082 Si / 1000 Ang^3
#
#
#
# Elastic Constant Matrix: (Units=GPa)
#
#
# Indices 1 2 3 4 5 6 
#
# 1 181.2117 61.3395 37.6743 0.0000 5.9873 0.0000
# 2 61.3395 120.8910 19.5994 0.0000 2.8696 0.0000
# 3 37.6743 19.5994 88.8014 0.0000 19.4178 0.0000
# 4 0.0000 0.0000 0.0000 20.8773 0.0000 5.4618
# 5 5.9873 2.8696 19.4178 0.0000 43.0706 0.0000
# 6 0.0000 0.0000 0.0000 5.4618 0.0000 23.2372
#
#
#
# Elastic Compliance Matrix: (Units=1/GPa)
#
#
# Indices 1 2 3 4 5 6 
#
# 1 0.007090 -0.003222 -0.002361 0.000000 0.000294 0.000000
# 2 -0.003222 0.010047 -0.000890 0.000000 0.000180 0.000000
# 3 -0.002361 -0.000890 0.013728 0.000000 -0.005801 0.000000
# 4 0.000000 0.000000 0.000000 0.051037 0.000000 -0.011996
# 5 0.000294 0.000180 -0.005801 0.000000 0.025780 0.000000
# 6 0.000000 0.000000 0.000000 -0.011996 0.000000 0.045854
#
#
# Mechanical properties :
#
#
# Convention : Reuss Voigt Hill
#
# Bulk Modulus (GPa) = 55.80625 69.79227 62.79926
# Shear Modulus (GPa) = 28.99312 35.58973 32.29143
#
# Velocity S-wave (km/s) = 3.78553 4.19412 3.99505
# Velocity P-wave (km/s) = 6.83300 7.61249 7.23325
#
# Compressibility (1/GPa) = 0.01791914
#
# Stress axis : x y z
#
# Youngs Moduli (GPa) = 141.04147 99.53642 72.84495
#
# Poissons Ratio (x) = 0.32067 0.17200
# Poissons Ratio (y) = 0.45439 0.06482
# Poissons Ratio (z) = 0.33302 0.08858
#
# Static dielectric constant tensor:
#      x y z
#    x 3.926920 0.000000 -0.380460 
#    y 0.000000 3.707490 0.000000 
#    z -0.380460 0.000000 3.872380 
# 
# 
# High freq. dielectric constant tensor:
#      x y z
#    x 1.822220 0.000000 0.008070 
#    y 0.000000 1.773750 0.000000 
#    z 0.008070 0.000000 1.809870 
# 
# From -- ./inp_files/52394.got.cif
#   From: 2010.06.25/outbox.cif.g09.slc.cpg/sg12_27_cif.got.tgz:52394.got - 2010.06.28 00:19:55.
