data_PCOD8113019
_publ_section_title
;
Structure prediction by ZEFSAII (Michael W. Deem and Ramdas Pophale) SiO2 
 PCOD8113019
Probable space group: C 2/M
;
_chemical_formula_sum "Si O2"
_cell_formula_units_Z 52
_cell_length_a 14.754979
_cell_length_b 17.557788
_cell_length_c 15.647299
_cell_angle_alpha 90.000000
_cell_angle_beta 141.318528
_cell_angle_gamma 90.000000
_cell_volume 2533.500661
_symmetry_space_group_name_H-M "C 2/M"
_symmetry_group_IT_number 12
_symmetry_cell_setting 'monoclinic'
loop_
_space_group_symop_operation_xyz
x,y,z
-x,y,-z
-x,-y,-z
x,-y,z
1/2+x,1/2+y,z
1/2-x,1/2+y,-z
1/2-x,1/2-y,-z
1/2+x,1/2-y,z
loop_
_atom_site_type_symbol
_atom_site_label
_atom_site_fract_x
_atom_site_fract_y
_atom_site_fract_z
Si Si1 0.640566 0.716185 0.756382
Si Si2 0.272444 0.414027 0.451605
Si Si3 0.388200 0.704931 0.848157
Si Si4 0.000347 0.682212 0.205606
Si Si5 0.922831 0.915319 0.738334
Si Si6 0.500000 0.641196 0.500000
Si Si7 0.749307 0.912949 0.055673
O O1 0.742547 0.780080 0.792341
O O2 0.558787 0.749496 0.778943
O O3 0.527444 0.695196 0.600458
O O4 0.736293 0.641707 0.851270
O O5 0.214664 0.500000 0.417850
O O6 0.378403 0.392702 0.608813
O O7 0.362627 0.409208 0.428805
O O8 0.135696 0.357855 0.351238
O O9 0.449908 0.780634 0.847209
O O10 0.347420 0.640887 0.749238
O O11 0.500000 0.673157 0.000000
O O12 0.875724 0.619578 0.097952
O O13 0.096117 0.910662 0.878208
O O14 0.866944 0.000000 0.717724
O O15 0.711766 0.000000 0.055575
#
# Coordination Sequence:
#
# PCOD8113019 Si02
#       7
#     8   8   8   8   8   4   8
#     4  12  25  40  66  98 129 167 214 265 317 375
#     4  11  24  42  65  95 131 170 211 263 321 377
#     4  12  23  40  66  95 127 166 214 264 318 379
#     4  12  24  43  64  95 134 166 209 265 320 379
#     4  10  23  43  66  91 127 171 215 263 314 374
#     4  12  23  38  64  98 125 170 216 260 315 384
#     4  11  22  42  67  93 126 169 211 260 322 376
#
# _framework density 20.524961000000001
#
# number of rings (size 3 to 8) (size 9 to 14) (size 15 to 20)
#    0.000    0.615    6.154    2.077    2.154    2.154 
#    0.000    2.308    0.000    1.846    0.000    0.000 
#    0.000    0.000    0.000    0.000    0.000    0.000 
#
# Total GULP energy -322443.720931 kJ/mol
# GULP energy per Si atom -12401.681574 kJ/mol
# Density = 2.047824 g / cm^3
# Si number density = 20.524961 Si / 1000 Ang^3
#
#
#
# Elastic Constant Matrix: (Units=GPa)
#
#
# Indices 1 2 3 4 5 6 
#
# 1 74.3495 27.9188 20.8169 -0.0006 -6.7520 -0.0004
# 2 27.9188 109.1829 43.8199 -0.0001 -3.8846 -0.0001
# 3 20.8169 43.8199 102.9636 -0.0010 1.3063 -0.0011
# 4 -0.0006 -0.0001 -0.0010 37.2529 -0.0013 -5.4574
# 5 -6.7520 -3.8846 1.3063 -0.0013 28.2373 -0.0013
# 6 -0.0004 -0.0001 -0.0011 -5.4574 -0.0013 21.4213
#
#
#
# Elastic Compliance Matrix: (Units=1/GPa)
#
#
# Indices 1 2 3 4 5 6 
#
# 1 0.015430 -0.003084 -0.001850 0.000000 0.003351 0.000001
# 2 -0.003084 0.011748 -0.004390 0.000000 0.001082 0.000000
# 3 -0.001850 -0.004390 0.011975 0.000000 -0.001600 0.000001
# 4 0.000000 0.000000 0.000000 0.027884 0.000002 0.007104
# 5 0.003351 0.001082 -0.001600 0.000002 0.036438 0.000003
# 6 0.000001 0.000000 0.000001 0.007104 0.000003 0.048492
#
#
# Mechanical properties :
#
#
# Convention : Reuss Voigt Hill
#
# Bulk Modulus (GPa) = 48.76709 52.40079 50.58394
# Shear Modulus (GPa) = 28.17692 30.31166 29.24429
#
# Velocity S-wave (km/s) = 3.70917 3.84711 3.77877
# Velocity P-wave (km/s) = 6.49272 6.73197 6.61342
#
# Compressibility (1/GPa) = 0.02050563
#
# Stress axis : x y z
#
# Youngs Moduli (GPa) = 64.80774 85.12135 83.50914
#
# Poissons Ratio (x) = 0.26252 0.15446
# Poissons Ratio (y) = 0.19987 0.36660
# Poissons Ratio (z) = 0.11987 0.37368
#
# Static dielectric constant tensor:
#      x y z
#    x 3.642390 0.000000 0.005890 
#    y 0.000000 3.767310 0.000000 
#    z 0.005890 0.000000 3.710100 
# 
# 
# High freq. dielectric constant tensor:
#      x y z
#    x 1.790330 0.000000 -0.002250 
#    y 0.000000 1.806740 0.000000 
#    z -0.002250 0.000000 1.806370 
# 
# From -- ./inp_files/216720.got.cif
#   From: 2010.06.25/outbox.cif.g09.slc.cpg/sg12_109_cif.got.tgz:216720.got - 2010.06.28 00:19:55.
