data_PCOD8113112
_publ_section_title
;
Structure prediction by ZEFSAII (Michael W. Deem and Ramdas Pophale) SiO2 
 PCOD8113112
Probable space group: C 2/M
;
_chemical_formula_sum "Si O2"
_cell_formula_units_Z 44
_cell_length_a 24.792392
_cell_length_b 17.665459
_cell_length_c 5.063173
_cell_angle_alpha 90.000000
_cell_angle_beta 77.514652
_cell_angle_gamma 90.000000
_cell_volume 2165.071497
_symmetry_space_group_name_H-M "C 2/M"
_symmetry_group_IT_number 12
_symmetry_cell_setting 'monoclinic'
loop_
_space_group_symop_operation_xyz
x,y,z
-x,y,-z
-x,-y,-z
x,-y,z
1/2+x,1/2+y,z
1/2-x,1/2+y,-z
1/2-x,1/2-y,-z
1/2+x,1/2-y,z
loop_
_atom_site_type_symbol
_atom_site_label
_atom_site_fract_x
_atom_site_fract_y
_atom_site_fract_z
Si Si1 0.536402 0.086918 0.717536
Si Si2 0.292531 0.816974 0.909292
Si Si3 0.635217 0.199143 0.666516
Si Si4 0.192461 0.913214 0.034913
Si Si5 0.461075 0.500000 0.292104
Si Si6 0.872674 0.868594 0.400684
O O1 0.500000 0.098718 0.500000
O O2 0.590346 0.137316 0.638703
O O3 0.555189 0.000000 0.732444
O O4 0.500000 0.114813 0.000000
O O5 0.314475 0.810460 0.589172
O O6 0.257428 0.893935 0.982736
O O7 0.250000 0.750000 0.000000
O O8 0.342765 0.815198 0.061792
O O9 0.608285 0.282827 0.679501
O O10 0.172799 0.895034 0.760949
O O11 0.183834 0.000000 0.116061
O O12 0.155310 0.866811 0.281474
O O13 0.500000 0.500000 0.500000
O O14 0.424825 0.424039 0.332985
O O15 0.500000 0.500000 0.000000
#
# Coordination Sequence:
#
# PCOD8113112 Si02
#       6
#     8   8   8   8   4   8
#     4  10  23  44  68  93 129 168 206 264 329 379
#     4  12  23  39  63  95 130 166 207 259 314 363
#     4  12  24  40  68  97 129 163 217 264 308 385
#     4  12  23  40  63  88 125 174 212 240 311 391
#     4  12  26  42  62  90 122 160 220 276 306 358
#     4  12  23  41  64  87 123 171 209 258 321 370
#
# _framework density 20.322655999999998
#
# number of rings (size 3 to 8) (size 9 to 14) (size 15 to 20)
#    0.000    0.364    5.455    3.818    0.000    2.909 
#    0.000    0.000    0.000    0.000    0.000    0.000 
#    0.000    0.000    0.000    0.000    0.000    0.000 
#
# Total GULP energy -272945.590600 kJ/mol
# GULP energy per Si atom -12406.617755 kJ/mol
# Density = 2.027640 g / cm^3
# Si number density = 20.322656 Si / 1000 Ang^3
#
#
#
# Elastic Constant Matrix: (Units=GPa)
#
#
# Indices 1 2 3 4 5 6 
#
# 1 95.3976 56.3254 26.2713 0.0000 -5.5280 0.0000
# 2 56.3254 105.2777 15.4574 0.0000 -0.0950 0.0000
# 3 26.2713 15.4574 106.3832 0.0000 -0.7672 0.0000
# 4 0.0000 0.0000 0.0000 26.0291 0.0000 1.1507
# 5 -5.5280 -0.0950 -0.7672 0.0000 32.3423 0.0000
# 6 0.0000 0.0000 0.0000 1.1507 0.0000 51.0660
#
#
#
# Elastic Compliance Matrix: (Units=1/GPa)
#
#
# Indices 1 2 3 4 5 6 
#
# 1 0.016322 -0.008319 -0.002803 0.000000 0.002699 0.000000
# 2 -0.008319 0.013945 0.000018 0.000000 -0.001380 0.000000
# 3 -0.002803 0.000018 0.010088 0.000000 -0.000240 0.000000
# 4 0.000000 0.000000 0.000000 0.038457 0.000000 -0.000867
# 5 0.002699 -0.001380 -0.000240 0.000000 0.031371 0.000000
# 6 0.000000 0.000000 0.000000 -0.000867 0.000000 0.019602
#
#
# Mechanical properties :
#
#
# Convention : Reuss Voigt Hill
#
# Bulk Modulus (GPa) = 55.09971 55.90738 55.50355
# Shear Modulus (GPa) = 31.63729 35.82111 33.72920
#
# Velocity S-wave (km/s) = 3.94985 4.20291 4.07834
# Velocity P-wave (km/s) = 6.92626 7.14998 7.03901
#
# Compressibility (1/GPa) = 0.01814892
#
# Stress axis : x y z
#
# Youngs Moduli (GPa) = 61.26595 71.70789 99.13034
#
# Poissons Ratio (x) = 0.59652 0.27782
# Poissons Ratio (y) = 0.50966 -0.00179
# Poissons Ratio (z) = 0.17170 -0.00130
#
# Static dielectric constant tensor:
#      x y z
#    x 4.021290 0.000000 0.253610 
#    y 0.000000 3.971760 0.000000 
#    z 0.253610 0.000000 4.030930 
# 
# 
# High freq. dielectric constant tensor:
#      x y z
#    x 1.787720 0.000000 0.006940 
#    y 0.000000 1.803010 0.000000 
#    z 0.006940 0.000000 1.815070 
# 
# From -- ./inp_files/20417.got.cif
#   From: 2010.06.25/outbox.cif.g09.slc.cpg/sg12_11_cif.got.tgz:20417.got - 2010.06.28 00:19:55.
