data_PCOD8113565
_publ_section_title
;
Structure prediction by ZEFSAII (Michael W. Deem and Ramdas Pophale) SiO2 
 PCOD8113565
Probable space group: C 2/M
;
_chemical_formula_sum "Si O2"
_cell_formula_units_Z 48
_cell_length_a 27.522245
_cell_length_b 15.315805
_cell_length_c 19.241353
_cell_angle_alpha 90.000000
_cell_angle_beta 163.397705
_cell_angle_gamma 90.000000
_cell_volume 2317.449068
_symmetry_space_group_name_H-M "C 2/M"
_symmetry_group_IT_number 12
_symmetry_cell_setting 'monoclinic'
loop_
_space_group_symop_operation_xyz
x,y,z
-x,y,-z
-x,-y,-z
x,-y,z
1/2+x,1/2+y,z
1/2-x,1/2+y,-z
1/2-x,1/2-y,-z
1/2+x,1/2-y,z
loop_
_atom_site_type_symbol
_atom_site_label
_atom_site_fract_x
_atom_site_fract_y
_atom_site_fract_z
Si Si1 0.641883 0.681036 0.252876
Si Si2 0.211480 0.000000 0.331246
Si Si3 0.231552 0.500000 0.372653
Si Si4 0.373941 0.000000 0.930678
Si Si5 0.354727 0.657050 0.354320
Si Si6 0.338988 0.500000 0.886149
Si Si7 0.870431 0.184202 0.991680
Si Si8 0.404820 0.671334 0.580359
O O1 0.765488 0.595666 0.435217
O O2 0.542688 0.709301 0.186177
O O3 0.753606 0.759582 0.378165
O O4 0.500000 0.657162 0.000000
O O5 0.280811 0.000000 0.346303
O O6 0.015383 0.000000 0.087310
O O7 0.161309 0.500000 0.198943
O O8 0.347074 0.584602 0.542669
O O9 0.078494 0.500000 0.219507
O O10 0.296244 0.913502 0.859042
O O11 0.500000 0.629842 0.500000
O O12 0.439959 0.654990 0.547475
O O13 0.283658 0.752502 0.239100
O O14 0.309088 0.585550 0.892230
O O15 0.920321 0.198472 0.141275
#
# Coordination Sequence:
#
# PCOD8113565 Si02
#       8
#     8   4   4   4   8   4   8   8
#     4  11  17  32  54  82 114 143 175 224 290 349
#     4   9  14  28  52  75 107 149 172 206 266 345
#     4   9  19  34  58  89 117 139 172 233 296 349
#     4   9  19  36  61  83 112 145 185 229 286 344
#     4  11  23  40  59  78 110 156 199 238 274 321
#     4   9  15  30  52  77 105 140 176 218 272 332
#     4  11  21  35  57  84 113 147 188 232 285 343
#     4  11  22  35  56  86 115 146 185 234 289 341
#
# _framework density 20.712430000000001
#
# number of rings (size 3 to 8) (size 9 to 14) (size 15 to 20)
#    0.000    1.667    5.000    2.250    2.333    0.667 
#    0.000    1.250    0.000    0.000    0.000    0.000 
#    0.000    0.000    0.000    0.000    0.000    0.000 
#
# Total GULP energy -297378.372566 kJ/mol
# GULP energy per Si atom -12390.765524 kJ/mol
# Density = 2.066529 g / cm^3
# Si number density = 20.712430 Si / 1000 Ang^3
#
#
#
# Elastic Constant Matrix: (Units=GPa)
#
#
# Indices 1 2 3 4 5 6 
#
# 1 99.2552 23.3350 33.9506 0.0003 2.8064 0.0019
# 2 23.3350 128.1600 20.1364 -0.0005 8.6993 0.0009
# 3 33.9506 20.1364 41.9362 -0.0016 -0.7331 0.0009
# 4 0.0003 -0.0005 -0.0016 4.4786 -0.0013 -1.8992
# 5 2.8064 8.6993 -0.7331 -0.0013 28.9269 0.0011
# 6 0.0019 0.0009 0.0009 -1.8992 0.0011 18.5562
#
#
#
# Elastic Compliance Matrix: (Units=1/GPa)
#
#
# Indices 1 2 3 4 5 6 
#
# 1 0.014072 -0.000726 -0.011069 -0.000006 -0.001427 -0.000001
# 2 -0.000726 0.008684 -0.003628 -0.000001 -0.002633 0.000000
# 3 -0.011069 -0.003628 0.034602 0.000014 0.003042 0.000001
# 4 -0.000006 -0.000001 0.000014 0.233413 0.000011 0.023890
# 5 -0.001427 -0.002633 0.003042 0.000011 0.035577 -0.000001
# 6 -0.000001 0.000000 0.000001 0.023890 -0.000001 0.056335
#
#
# Mechanical properties :
#
#
# Convention : Reuss Voigt Hill
#
# Bulk Modulus (GPa) = 37.71831 47.13283 42.42557
# Shear Modulus (GPa) = 11.83806 23.18763 17.51285
#
# Velocity S-wave (km/s) = 2.39329 3.34953 2.91094
# Velocity P-wave (km/s) = 5.08794 6.14527 5.64143
#
# Compressibility (1/GPa) = 0.02651233
#
# Stress axis : x y z
#
# Youngs Moduli (GPa) = 71.06169 115.15851 28.90008
#
# Poissons Ratio (x) = 0.08363 0.31989
# Poissons Ratio (y) = 0.05161 0.10484
# Poissons Ratio (z) = 0.78657 0.41776
#
# Static dielectric constant tensor:
#      x y z
#    x 3.753010 0.000000 -0.194930 
#    y 0.000000 4.312790 0.000000 
#    z -0.194930 0.000000 3.249140 
# 
# 
# High freq. dielectric constant tensor:
#      x y z
#    x 1.801520 0.000000 -0.021240 
#    y 0.000000 1.834590 0.000000 
#    z -0.021240 0.000000 1.753010 
# 
# From -- ./inp_files/290603.got.cif
#   From: 2010.06.25/outbox.cif.g09.slc.cpg/sg12_146_cif.got.tgz:290603.got - 2010.06.28 00:19:55.
