data_PCOD8113270
_publ_section_title
;
Structure prediction by ZEFSAII (Michael W. Deem and Ramdas Pophale) SiO2 
 PCOD8113270
Probable space group: C 2/M
;
_chemical_formula_sum "Si O2"
_cell_formula_units_Z 40
_cell_length_a 11.900530
_cell_length_b 23.416407
_cell_length_c 7.577367
_cell_angle_alpha 90.000000
_cell_angle_beta 119.094525
_cell_angle_gamma 90.000000
_cell_volume 1845.126788
_symmetry_space_group_name_H-M "C 2/M"
_symmetry_group_IT_number 12
_symmetry_cell_setting 'monoclinic'
loop_
_space_group_symop_operation_xyz
x,y,z
-x,y,-z
-x,-y,-z
x,-y,z
1/2+x,1/2+y,z
1/2-x,1/2+y,-z
1/2-x,1/2-y,-z
1/2+x,1/2-y,z
loop_
_atom_site_type_symbol
_atom_site_label
_atom_site_fract_x
_atom_site_fract_y
_atom_site_fract_z
Si Si1 0.683562 0.063722 0.791419
Si Si2 0.396745 0.710416 0.704061
Si Si3 0.322485 0.670001 0.003998
Si Si4 0.202729 0.321071 0.268563
Si Si5 0.393991 0.064801 0.665281
O O1 0.546849 0.072713 0.781255
O O2 0.666966 0.076416 0.571791
O O3 0.733669 0.000000 0.858911
O O4 0.792383 0.102948 0.961436
O O5 0.530605 0.678384 0.825091
O O6 0.335492 0.690215 0.474816
O O7 0.407499 0.779974 0.729334
O O8 0.299564 0.697024 0.793641
O O9 0.228143 0.695372 0.082494
O O10 0.163252 0.387557 0.247158
O O11 0.360376 0.000000 0.703585
#
# Coordination Sequence:
#
# PCOD8113270 Si02
#       5
#     8   8   8   8   8
#     4   9  19  38  63  90 123 158 196 250 307 352
#     4  10  24  41  57  90 125 162 198 243 301 356
#     4  11  22  40  63  89 121 157 205 243 294 365
#     4  11  22  40  63  88 122 161 198 251 297 352
#     4   9  19  38  64  92 119 155 202 250 303 357
#
# _framework density 21.678728
#
# number of rings (size 3 to 8) (size 9 to 14) (size 15 to 20)
#    0.000    2.000    2.000    2.400    0.000    6.400 
#    3.600    5.000    0.000    2.400    0.000    0.000 
#    0.000    0.000    0.000    0.000    0.000    0.000 
#
# Total GULP energy -247880.574307 kJ/mol
# GULP energy per Si atom -12394.028715 kJ/mol
# Density = 2.162939 g / cm^3
# Si number density = 21.678728 Si / 1000 Ang^3
#
#
#
# Elastic Constant Matrix: (Units=GPa)
#
#
# Indices 1 2 3 4 5 6 
#
# 1 62.4639 38.4363 18.8217 0.0000 -2.4349 0.0000
# 2 38.4363 133.1757 26.7720 0.0000 16.0198 0.0000
# 3 18.8217 26.7720 66.9177 0.0000 10.2364 0.0000
# 4 0.0000 0.0000 0.0000 39.1757 0.0000 8.2874
# 5 -2.4349 16.0198 10.2364 0.0000 37.4006 0.0000
# 6 0.0000 0.0000 0.0000 8.2874 0.0000 33.2458
#
#
#
# Elastic Compliance Matrix: (Units=1/GPa)
#
#
# Indices 1 2 3 4 5 6 
#
# 1 0.021109 -0.005821 -0.004384 0.000000 0.005067 0.000000
# 2 -0.005821 0.010044 -0.001738 0.000000 -0.004205 0.000000
# 3 -0.004384 -0.001738 0.017536 0.000000 -0.004341 0.000000
# 4 0.000000 0.000000 0.000000 0.026947 0.000000 -0.006717
# 5 0.005067 -0.004205 -0.004341 0.000000 0.030057 0.000000
# 6 0.000000 0.000000 0.000000 -0.006717 0.000000 0.031753
#
#
# Mechanical properties :
#
#
# Convention : Reuss Voigt Hill
#
# Bulk Modulus (GPa) = 40.31500 47.84636 44.08068
# Shear Modulus (GPa) = 29.48120 33.86626 31.67373
#
# Velocity S-wave (km/s) = 3.69170 3.95674 3.82652
# Velocity P-wave (km/s) = 6.06700 6.55690 6.31670
#
# Compressibility (1/GPa) = 0.02480467
#
# Stress axis : x y z
#
# Youngs Moduli (GPa) = 47.37220 99.56134 57.02559
#
# Poissons Ratio (x) = 0.57952 0.24999
# Poissons Ratio (y) = 0.27574 0.09910
# Poissons Ratio (z) = 0.20767 0.17302
#
# Static dielectric constant tensor:
#      x y z
#    x 3.663880 0.000000 -0.276380 
#    y 0.000000 4.049940 0.000000 
#    z -0.276380 0.000000 3.879320 
# 
# 
# High freq. dielectric constant tensor:
#      x y z
#    x 1.823190 0.000000 -0.017040 
#    y 0.000000 1.862460 0.000000 
#    z -0.017040 0.000000 1.854890 
# 
# From -- ./inp_files/50959.got.cif
#   From: 2010.06.25/outbox.cif.g09.slc.cpg/sg12_26_cif.got.tgz:50959.got - 2010.06.28 00:19:55.
