data_PCOD8113253
_publ_section_title
;
Structure prediction by ZEFSAII (Michael W. Deem and Ramdas Pophale) SiO2 
 PCOD8113253
Probable space group: C 2/M
;
_chemical_formula_sum "Si O2"
_cell_formula_units_Z 36
_cell_length_a 9.289746
_cell_length_b 9.318307
_cell_length_c 18.885857
_cell_angle_alpha 90.000000
_cell_angle_beta 97.329667
_cell_angle_gamma 90.000000
_cell_volume 1621.489506
_symmetry_space_group_name_H-M "C 2/M"
_symmetry_group_IT_number 12
_symmetry_cell_setting 'monoclinic'
loop_
_space_group_symop_operation_xyz
x,y,z
-x,y,-z
-x,-y,-z
x,-y,z
1/2+x,1/2+y,z
1/2-x,1/2+y,-z
1/2-x,1/2-y,-z
1/2+x,1/2-y,z
loop_
_atom_site_type_symbol
_atom_site_label
_atom_site_fract_x
_atom_site_fract_y
_atom_site_fract_z
Si Si1 0.128684 0.160364 0.953805
Si Si2 0.459881 0.163845 0.188782
Si Si3 0.500000 0.752401 0.500000
Si Si4 0.763262 0.837415 0.273967
Si Si5 0.222466 0.154062 0.403837
O O1 0.078047 0.242819 0.881323
O O2 0.184169 0.000000 0.936331
O O3 0.250000 0.250000 0.000000
O O4 0.000000 0.144661 0.000000
O O5 0.632055 0.167471 0.209875
O O6 0.389040 0.233823 0.253813
O O7 0.404806 0.000000 0.175781
O O8 0.626168 0.846593 0.543818
O O9 0.582304 0.658065 0.446190
O O10 0.713049 0.783795 0.347746
O O11 0.820948 0.000000 0.285375
O O12 0.214897 0.000000 0.363941
#
# Coordination Sequence:
#
# PCOD8113253 Si02
#       5
#     8   8   4   8   8
#     4  11  24  41  64  94 127 164 206 252 304 362
#     4  11  24  42  64  91 124 163 206 253 305 361
#     4  10  24  40  62  92 124 158 202 254 306 362
#     4  11  25  42  63  92 125 161 204 254 307 364
#     4  11  23  41  64  90 122 161 204 251 305 365
#
# _framework density 22.201809999999998
#
# number of rings (size 3 to 8) (size 9 to 14) (size 15 to 20)
#    0.000    1.111    0.000    5.333    0.000   17.778 
#    0.000    0.000    0.000    0.000    0.000    0.000 
#    0.000    0.000    0.000    0.000    0.000    0.000 
#
# Total GULP energy -223220.906048 kJ/mol
# GULP energy per Si atom -12401.161447 kJ/mol
# Density = 2.215128 g / cm^3
# Si number density = 22.201810 Si / 1000 Ang^3
#
#
#
# Elastic Constant Matrix: (Units=GPa)
#
#
# Indices 1 2 3 4 5 6 
#
# 1 87.3023 28.3809 6.0909 0.0000 -7.4457 0.0000
# 2 28.3809 189.5179 40.9668 0.0000 -5.4876 0.0000
# 3 6.0909 40.9668 91.5921 0.0000 -5.7657 0.0000
# 4 0.0000 0.0000 0.0000 38.6350 0.0000 -3.2783
# 5 -7.4457 -5.4876 -5.7657 0.0000 34.2086 0.0000
# 6 0.0000 0.0000 0.0000 -3.2783 0.0000 22.4878
#
#
#
# Elastic Compliance Matrix: (Units=1/GPa)
#
#
# Indices 1 2 3 4 5 6 
#
# 1 0.012232 -0.001792 0.000139 0.000000 0.002398 0.000000
# 2 -0.001792 0.006113 -0.002605 0.000000 0.000151 0.000000
# 3 0.000139 -0.002605 0.012179 0.000000 0.001665 0.000000
# 4 0.000000 0.000000 0.000000 0.026207 0.000000 0.003821
# 5 0.002398 0.000151 0.001665 0.000000 0.030059 0.000000
# 6 0.000000 0.000000 0.000000 0.003821 0.000000 0.045026
#
#
# Mechanical properties :
#
#
# Convention : Reuss Voigt Hill
#
# Bulk Modulus (GPa) = 45.44126 57.69883 51.57004
# Shear Modulus (GPa) = 33.85974 38.59784 36.22879
#
# Velocity S-wave (km/s) = 3.90948 4.17406 4.04393
# Velocity P-wave (km/s) = 6.39457 7.01962 6.71437
#
# Compressibility (1/GPa) = 0.02200643
#
# Stress axis : x y z
#
# Youngs Moduli (GPa) = 81.75288 163.59888 82.10993
#
# Poissons Ratio (x) = 0.29324 -0.01143
# Poissons Ratio (y) = 0.14654 0.21392
# Poissons Ratio (z) = -0.01138 0.42622
#
# Static dielectric constant tensor:
#      x y z
#    x 4.115260 0.000000 0.000180 
#    y 0.000000 4.219960 0.000000 
#    z 0.000180 0.000000 3.991530 
# 
# 
# High freq. dielectric constant tensor:
#      x y z
#    x 1.881580 0.000000 0.000050 
#    y 0.000000 1.887510 0.000000 
#    z 0.000050 0.000000 1.877440 
# 
# From -- ./inp_files/298747.got.cif
#   From: 2010.06.25/outbox.cif.g09.slc.cpg/sg12_150_cif.got.tgz:298747.got - 2010.06.28 00:19:55.
