data_PCOD8113018
_publ_section_title
;
Structure prediction by ZEFSAII (Michael W. Deem and Ramdas Pophale) SiO2 
 PCOD8113018
Probable space group: C 2/M
;
_chemical_formula_sum "Si O2"
_cell_formula_units_Z 56
_cell_length_a 9.782882
_cell_length_b 14.365460
_cell_length_c 27.205566
_cell_angle_alpha 90.000000
_cell_angle_beta 132.414100
_cell_angle_gamma 90.000000
_cell_volume 2822.739095
_symmetry_space_group_name_H-M "C 2/M"
_symmetry_group_IT_number 12
_symmetry_cell_setting 'monoclinic'
loop_
_space_group_symop_operation_xyz
x,y,z
-x,y,-z
-x,-y,-z
x,-y,z
1/2+x,1/2+y,z
1/2-x,1/2+y,-z
1/2-x,1/2-y,-z
1/2+x,1/2-y,z
loop_
_atom_site_type_symbol
_atom_site_label
_atom_site_fract_x
_atom_site_fract_y
_atom_site_fract_z
Si Si1 0.173231 0.745346 0.830853
Si Si2 0.052570 0.109625 0.371034
Si Si3 0.181308 0.390689 0.654824
Si Si4 0.479696 0.392498 0.939449
Si Si5 0.364087 0.102656 0.512817
Si Si6 0.708063 0.107495 0.061535
Si Si7 0.257781 0.770056 0.741568
O O1 0.320921 0.664136 0.873815
O O2 0.208257 0.833359 0.874067
O O3 0.181190 0.781820 0.777526
O O4 0.972609 0.701852 0.792964
O O5 0.161310 0.129755 0.347078
O O6 0.173565 0.150523 0.447041
O O7 0.855189 0.160855 0.321732
O O8 0.019468 0.000000 0.369793
O O9 0.171604 0.500000 0.664910
O O10 0.231144 0.335916 0.716517
O O11 0.980942 0.351963 0.586029
O O12 0.420160 0.500000 0.924186
O O13 0.674417 0.376274 0.959443
O O14 0.500000 0.356096 0.000000
O O15 0.500000 0.093358 0.500000
O O16 0.308559 0.000000 0.517266
O O17 0.712957 0.000000 0.079270
O O18 0.500000 0.140574 0.000000
#
# Coordination Sequence:
#
# PCOD8113018 Si02
#       7
#     8   8   8   8   8   8   8
#     4  12  25  40  59  86 122 159 192 231 283 344
#     4   9  18  35  57  82 114 150 196 247 288 339
#     4   9  18  35  58  81 112 154 197 241 290 346
#     4  10  23  43  66  91 118 149 189 238 288 335
#     4   7  12  27  54  82 105 142 195 245 290 334
#     4  10  23  43  67  91 115 150 194 236 281 337
#     4  12  24  37  56  87 118 157 199 231 281 349
#
# _framework density 19.838885999999999
#
# number of rings (size 3 to 8) (size 9 to 14) (size 15 to 20)
#    0.000    2.143    2.857    2.143    2.000    4.000 
#    0.000    0.000    0.000    0.000    0.000    3.000 
#    0.000    0.000    0.000    0.000    0.000    0.000 
#
# Total GULP energy -347068.797993 kJ/mol
# GULP energy per Si atom -12395.314214 kJ/mol
# Density = 1.979373 g / cm^3
# Si number density = 19.838886 Si / 1000 Ang^3
#
#
#
# Elastic Constant Matrix: (Units=GPa)
#
#
# Indices 1 2 3 4 5 6 
#
# 1 71.9870 28.9617 40.0713 0.0000 7.3357 0.0000
# 2 28.9617 50.6724 37.4002 0.0000 17.4127 0.0000
# 3 40.0713 37.4002 119.3336 0.0000 26.7954 0.0000
# 4 0.0000 0.0000 0.0000 36.3464 0.0000 3.1908
# 5 7.3357 17.4127 26.7954 0.0000 33.3566 0.0000
# 6 0.0000 0.0000 0.0000 3.1908 0.0000 20.0357
#
#
#
# Elastic Compliance Matrix: (Units=1/GPa)
#
#
# Indices 1 2 3 4 5 6 
#
# 1 0.019824 -0.009340 -0.004692 0.000000 0.004285 0.000000
# 2 -0.009340 0.032195 -0.004443 0.000000 -0.011183 0.000000
# 3 -0.004692 -0.004443 0.012927 0.000000 -0.007033 0.000000
# 4 0.000000 0.000000 0.000000 0.027903 0.000000 -0.004444
# 5 0.004285 -0.011183 -0.007033 0.000000 0.040525 0.000000
# 6 0.000000 0.000000 0.000000 -0.004444 0.000000 0.050619
#
#
# Mechanical properties :
#
#
# Convention : Reuss Voigt Hill
#
# Bulk Modulus (GPa) = 35.71788 50.53995 43.12891
# Shear Modulus (GPa) = 21.71334 26.98506 24.34920
#
# Velocity S-wave (km/s) = 3.31189 3.69210 3.50715
# Velocity P-wave (km/s) = 5.71558 6.61105 6.17956
#
# Compressibility (1/GPa) = 0.02799718
#
# Stress axis : x y z
#
# Youngs Moduli (GPa) = 50.44397 31.06082 77.35781
#
# Poissons Ratio (x) = 0.29011 0.36293
# Poissons Ratio (y) = 0.47114 0.34368
# Poissons Ratio (z) = 0.23666 0.13800
#
# Static dielectric constant tensor:
#      x y z
#    x 3.405310 0.000000 0.105960 
#    y 0.000000 3.377120 0.000000 
#    z 0.105960 0.000000 3.904200 
# 
# 
# High freq. dielectric constant tensor:
#      x y z
#    x 1.749790 0.000000 0.008660 
#    y 0.000000 1.761600 0.000000 
#    z 0.008660 0.000000 1.793570 
# 
# From -- ./inp_files/332582.got.cif
#   From: 2010.06.25/outbox.cif.g09.slc.cpg/sg12_167_cif.got.tgz:332582.got - 2010.06.28 00:19:55.
