data_PCOD8113205
_publ_section_title
;
Structure prediction by ZEFSAII (Michael W. Deem and Ramdas Pophale) SiO2 
 PCOD8113205
Probable space group: C 2/M
;
_chemical_formula_sum "Si O2"
_cell_formula_units_Z 40
_cell_length_a 9.031231
_cell_length_b 25.184091
_cell_length_c 11.016592
_cell_angle_alpha 90.000000
_cell_angle_beta 130.470770
_cell_angle_gamma 90.000000
_cell_volume 1906.141530
_symmetry_space_group_name_H-M "C 2/M"
_symmetry_group_IT_number 12
_symmetry_cell_setting 'monoclinic'
loop_
_space_group_symop_operation_xyz
x,y,z
-x,y,-z
-x,-y,-z
x,-y,z
1/2+x,1/2+y,z
1/2-x,1/2+y,-z
1/2-x,1/2-y,-z
1/2+x,1/2-y,z
loop_
_atom_site_type_symbol
_atom_site_label
_atom_site_fract_x
_atom_site_fract_y
_atom_site_fract_z
Si Si1 0.224583 0.132560 0.609681
Si Si2 0.467724 0.938957 0.124876
Si Si3 0.789707 0.311233 0.390928
Si Si4 0.032630 0.720355 0.155533
Si Si5 0.772976 0.851574 0.887885
O O1 0.343619 0.078249 0.696069
O O2 0.262681 0.157519 0.499821
O O3 0.305778 0.173505 0.754106
O O4 0.000000 0.118832 0.500000
O O5 0.280653 0.904916 0.068122
O O6 0.422129 0.000000 0.127759
O O7 0.500000 0.928633 0.000000
O O8 0.614331 0.269739 0.277280
O O9 0.800317 0.355120 0.289720
O O10 0.000000 0.281187 0.500000
O O11 0.000000 0.737765 0.000000
O O12 0.671411 0.799957 0.896102
O O13 0.000000 0.842274 0.000000
#
# Coordination Sequence:
#
# PCOD8113205 Si02
#       5
#     8   8   8   8   8
#     4  11  24  41  66  94 132 169 215 269 329 381
#     4  10  23  47  73  96 126 167 215 268 331 397
#     4  12  24  42  61  94 130 178 217 268 316 376
#     4  11  25  42  60  92 134 183 220 259 310 385
#     4  11  25  42  66  96 135 170 219 267 323 379
#
# _framework density 20.9848
#
# number of rings (size 3 to 8) (size 9 to 14) (size 15 to 20)
#    0.000    1.000    4.000    4.200    8.400    2.400 
#    0.000    2.000    0.000    0.000    0.000    0.000 
#    0.000    0.000    0.000    0.000    0.000    0.000 
#
# Total GULP energy -247943.668540 kJ/mol
# GULP energy per Si atom -12397.183427 kJ/mol
# Density = 2.093704 g / cm^3
# Si number density = 20.984800 Si / 1000 Ang^3
#
#
#
# Elastic Constant Matrix: (Units=GPa)
#
#
# Indices 1 2 3 4 5 6 
#
# 1 144.7408 65.6490 72.0791 0.0000 24.9596 0.0000
# 2 65.6490 133.8863 51.7911 0.0000 -7.2322 0.0000
# 3 72.0791 51.7911 127.1412 0.0000 6.1873 0.0000
# 4 0.0000 0.0000 0.0000 29.2615 0.0000 -4.0739
# 5 24.9596 -7.2322 6.1873 0.0000 42.3460 0.0000
# 6 0.0000 0.0000 0.0000 -4.0739 0.0000 32.3691
#
#
#
# Elastic Compliance Matrix: (Units=1/GPa)
#
#
# Indices 1 2 3 4 5 6 
#
# 1 0.012899 -0.004815 -0.004976 0.000000 -0.007698 0.000000
# 2 -0.004815 0.010845 -0.001930 0.000000 0.004973 0.000000
# 3 -0.004976 -0.001930 0.011427 0.000000 0.000934 0.000000
# 4 0.000000 0.000000 0.000000 0.034784 0.000000 0.004378
# 5 -0.007698 0.004973 0.000934 0.000000 0.028865 0.000000
# 6 0.000000 0.000000 0.000000 0.004378 0.000000 0.031445
#
#
# Mechanical properties :
#
#
# Convention : Reuss Voigt Hill
#
# Bulk Modulus (GPa) = 85.26723 87.20073 86.23398
# Shear Modulus (GPa) = 31.72236 35.21194 33.46715
#
# Velocity S-wave (km/s) = 3.89225 4.10075 3.99786
# Velocity P-wave (km/s) = 7.80516 8.00412 7.90527
#
# Compressibility (1/GPa) = 0.01172783
#
# Stress axis : x y z
#
# Youngs Moduli (GPa) = 77.52757 92.20536 87.51115
#
# Poissons Ratio (x) = 0.44401 0.43548
# Poissons Ratio (y) = 0.37333 0.16888
# Poissons Ratio (z) = 0.38580 0.17794
#
# Static dielectric constant tensor:
#      x y z
#    x 4.139490 0.000000 0.181310 
#    y 0.000000 3.635630 0.000000 
#    z 0.181310 0.000000 4.382780 
# 
# 
# High freq. dielectric constant tensor:
#      x y z
#    x 1.831360 0.000000 0.000850 
#    y 0.000000 1.792060 0.000000 
#    z 0.000850 0.000000 1.843980 
# 
# From -- ./inp_files/135605.got.cif
#   From: 2010.06.25/outbox.cif.g09.slc.cpg/sg12_68_cif.got.tgz:135605.got - 2010.06.28 00:19:55.
