data_PCOD8113699
_publ_section_title
;
Structure prediction by ZEFSAII (Michael W. Deem and Ramdas Pophale) SiO2 
 PCOD8113699
Probable space group: C 2/M
;
_chemical_formula_sum "Si O2"
_cell_formula_units_Z 52
_cell_length_a 9.918904
_cell_length_b 31.368874
_cell_length_c 11.297250
_cell_angle_alpha 90.000000
_cell_angle_beta 41.878986
_cell_angle_gamma 90.000000
_cell_volume 2346.525903
_symmetry_space_group_name_H-M "C 2/M"
_symmetry_group_IT_number 12
_symmetry_cell_setting 'monoclinic'
loop_
_space_group_symop_operation_xyz
x,y,z
-x,y,-z
-x,-y,-z
x,-y,z
1/2+x,1/2+y,z
1/2-x,1/2+y,-z
1/2-x,1/2-y,-z
1/2+x,1/2-y,z
loop_
_atom_site_type_symbol
_atom_site_label
_atom_site_fract_x
_atom_site_fract_y
_atom_site_fract_z
Si Si1 0.889503 0.681111 0.955075
Si Si2 0.175024 0.260646 0.678571
Si Si3 0.661295 0.608081 0.586641
Si Si4 0.542546 0.911717 0.800115
Si Si5 0.500000 0.327294 0.500000
Si Si6 0.945385 0.827581 0.167947
Si Si7 0.202439 0.049978 0.156092
O O1 0.953741 0.716761 0.815035
O O2 0.992940 0.636463 0.860344
O O3 0.648424 0.676453 0.115168
O O4 0.000000 0.699068 0.000000
O O5 0.250000 0.250000 0.500000
O O6 0.315975 0.295597 0.651930
O O7 0.172031 0.217136 0.755891
O O8 0.862298 0.587669 0.394801
O O9 0.551422 0.641872 0.573983
O O10 0.699801 0.635621 0.681174
O O11 0.519945 0.568600 0.715542
O O12 0.706704 0.928358 0.786262
O O13 0.339988 0.940075 0.949561
O O14 0.000000 0.841823 0.000000
O O15 0.188778 0.000000 0.185189
#
# Coordination Sequence:
#
# PCOD8113699 Si02
#       7
#     8   8   8   8   4   8   8
#     4  12  22  41  67  89 122 177 223 271 333 396
#     4  12  25  38  60  92 128 178 228 287 328 392
#     4  12  22  43  66  92 132 187 214 272 340 411
#     4  11  19  36  62  96 132 169 210 261 337 402
#     4  12  22  40  65  90 136 174 235 268 334 402
#     4  12  27  44  61  95 135 177 237 284 332 385
#     4  11  22  36  64 107 142 161 206 281 347 407
#
# _framework density 22.160419999999998
#
# number of rings (size 3 to 8) (size 9 to 14) (size 15 to 20)
#    0.000    0.308    7.692    2.769    2.154    1.846 
#    0.000    0.000    0.000    0.462    0.000    1.077 
#    0.000    0.000    0.000    0.000    0.000    0.000 
#
# Total GULP energy -322239.406773 kJ/mol
# GULP energy per Si atom -12393.823337 kJ/mol
# Density = 2.210998 g / cm^3
# Si number density = 22.160420 Si / 1000 Ang^3
#
#
#
# Elastic Constant Matrix: (Units=GPa)
#
#
# Indices 1 2 3 4 5 6 
#
# 1 37.6301 -1.6741 11.1829 0.0000 4.5919 0.0000
# 2 -1.6741 95.9507 28.6999 0.0000 -7.6233 0.0000
# 3 11.1829 28.6999 131.0650 0.0000 -3.1094 0.0000
# 4 0.0000 0.0000 0.0000 38.8246 0.0000 -49.3959
# 5 4.5919 -7.6233 -3.1094 0.0000 30.2647 0.0000
# 6 0.0000 0.0000 0.0000 -49.3959 0.0000 337.6949
#
#
#
# Elastic Compliance Matrix: (Units=1/GPa)
#
#
# Indices 1 2 3 4 5 6 
#
# 1 0.027939 0.000954 -0.002694 0.000000 -0.004276 0.000000
# 2 0.000954 0.011387 -0.002516 0.000000 0.002465 0.000000
# 3 -0.002694 -0.002516 0.008426 0.000000 0.000641 0.000000
# 4 0.000000 0.000000 0.000000 0.031646 0.000000 0.004629
# 5 -0.004276 0.002465 0.000641 0.000000 0.034377 0.000000
# 6 0.000000 0.000000 0.000000 0.004629 0.000000 0.003638
#
#
# Mechanical properties :
#
#
# Convention : Reuss Voigt Hill
#
# Bulk Modulus (GPa) = 25.48510 37.89590 31.69050
# Shear Modulus (GPa) = 35.96923 96.45262 66.21093
#
# Velocity S-wave (km/s) = 4.03318 6.60448 5.47201
# Velocity P-wave (km/s) = 5.76316 8.67737 7.36582
#
# Compressibility (1/GPa) = 0.03923861
#
# Stress axis : x y z
#
# Youngs Moduli (GPa) = 35.79187 87.81795 118.68175
#
# Poissons Ratio (x) = -0.08375 0.31974
# Poissons Ratio (y) = -0.03413 0.29865
# Poissons Ratio (z) = 0.09643 0.22098
#
# Static dielectric constant tensor:
#      x y z
#    x 3.575340 0.000000 -0.132960 
#    y 0.000000 4.080840 0.000000 
#    z -0.132960 0.000000 4.668950 
# 
# 
# High freq. dielectric constant tensor:
#      x y z
#    x 1.810060 0.000000 -0.009110 
#    y 0.000000 1.872090 0.000000 
#    z -0.009110 0.000000 1.902990 
# 
# From -- ./inp_files/137548.got.cif
#   From: 2010.06.25/outbox.cif.g09.slc.cpg/sg12_69_cif.got.tgz:137548.got - 2010.06.28 00:19:55.
