data_PCOD8113151
_publ_section_title
;
Structure prediction by ZEFSAII (Michael W. Deem and Ramdas Pophale) SiO2 
 PCOD8113151
Probable space group: C 2/M
;
_chemical_formula_sum "Si O2"
_cell_formula_units_Z 44
_cell_length_a 23.004896
_cell_length_b 16.176904
_cell_length_c 18.775084
_cell_angle_alpha 90.000000
_cell_angle_beta 163.174642
_cell_angle_gamma 90.000000
_cell_volume 2022.457093
_symmetry_space_group_name_H-M "C 2/M"
_symmetry_group_IT_number 12
_symmetry_cell_setting 'monoclinic'
loop_
_space_group_symop_operation_xyz
x,y,z
-x,y,-z
-x,-y,-z
x,-y,z
1/2+x,1/2+y,z
1/2-x,1/2+y,-z
1/2-x,1/2-y,-z
1/2+x,1/2-y,z
loop_
_atom_site_type_symbol
_atom_site_label
_atom_site_fract_x
_atom_site_fract_y
_atom_site_fract_z
Si Si1 0.733880 0.907043 0.788801
Si Si2 0.786998 0.757750 0.752261
Si Si3 0.500000 0.357833 0.500000
Si Si4 0.153357 0.407008 0.995152
Si Si5 0.141346 0.097675 0.907113
Si Si6 0.735319 0.191311 0.418535
O O1 0.500000 0.909889 0.500000
O O2 0.824084 0.846023 0.834801
O O3 0.824680 0.000000 0.886437
O O4 0.776850 0.872267 0.919305
O O5 0.622217 0.703283 0.594832
O O6 0.730271 0.759329 0.602995
O O7 0.000000 0.710271 0.000000
O O8 0.351498 0.412089 0.277597
O O9 0.071408 0.500000 0.889996
O O10 0.215804 0.369972 0.990280
O O11 0.982307 0.353170 0.833208
O O12 0.912486 0.124381 0.626288
O O13 0.145285 0.000000 0.908997
O O14 0.750000 0.250000 0.500000
#
# Coordination Sequence:
#
# PCOD8113151 Si02
#       6
#     8   8   4   8   8   8
#     4  10  23  44  70  99 134 181 229 280 339 409
#     4  12  24  42  65  99 136 177 224 276 339 407
#     4  12  23  44  67 100 138 176 228 282 337 408
#     4  11  25  45  71 100 136 182 227 280 346 408
#     4  10  23  45  69  97 136 177 225 281 340 403
#     4  12  26  41  67 103 135 176 225 281 341 405
#
# _framework density 21.755714999999999
#
# number of rings (size 3 to 8) (size 9 to 14) (size 15 to 20)
#    0.000    0.909    4.545    1.909    2.545    1.091 
#    0.000    1.818    0.000    0.000    0.000    0.000 
#    0.000    0.000    0.000    0.000    0.000    0.000 
#
# Total GULP energy -272569.331803 kJ/mol
# GULP energy per Si atom -12389.515082 kJ/mol
# Density = 2.170620 g / cm^3
# Si number density = 21.755715 Si / 1000 Ang^3
#
#
#
# Elastic Constant Matrix: (Units=GPa)
#
#
# Indices 1 2 3 4 5 6 
#
# 1 191.4758 59.1598 54.8166 0.0412 -8.4650 0.0189
# 2 59.1598 67.5337 18.7585 0.0836 2.8867 0.0458
# 3 54.8166 18.7585 104.2925 -0.2493 -1.9034 -0.1507
# 4 0.0412 0.0836 -0.2493 84.0512 0.0181 27.2821
# 5 -8.4650 2.8867 -1.9034 0.0181 44.0948 0.0081
# 6 0.0189 0.0458 -0.1507 27.2821 0.0081 54.0555
#
#
#
# Elastic Compliance Matrix: (Units=1/GPa)
#
#
# Indices 1 2 3 4 5 6 
#
# 1 0.008161 -0.006364 -0.003111 -0.000006 0.001849 -0.000003
# 2 -0.006364 0.020607 -0.000409 -0.000015 -0.002588 -0.000008
# 3 -0.003111 -0.000409 0.011296 0.000030 -0.000083 0.000018
# 4 -0.000006 -0.000015 0.000030 0.014229 -0.000003 -0.007181
# 5 0.001849 -0.002588 -0.000083 -0.000003 0.023199 0.000000
# 6 -0.000003 -0.000008 0.000018 -0.007181 0.000000 0.022124
#
#
# Mechanical properties :
#
#
# Convention : Reuss Voigt Hill
#
# Bulk Modulus (GPa) = 49.27162 69.86352 59.56757
# Shear Modulus (GPa) = 39.63569 51.81145 45.72357
#
# Velocity S-wave (km/s) = 4.27295 4.88537 4.58938
# Velocity P-wave (km/s) = 6.85864 8.00030 7.45137
#
# Compressibility (1/GPa) = 0.02029566
#
# Stress axis : x y z
#
# Youngs Moduli (GPa) = 122.52830 48.52793 88.52867
#
# Poissons Ratio (x) = 0.30884 0.27543
# Poissons Ratio (y) = 0.77980 0.03617
# Poissons Ratio (z) = 0.38121 0.01983
#
# Static dielectric constant tensor:
#      x y z
#    x 1.312010 0.027300 -1.740940 
#    y 0.027300 6.247570 0.013370 
#    z -1.740940 0.013370 3.108730 
# 
# 
# High freq. dielectric constant tensor:
#      x y z
#    x 1.877610 0.000000 -0.002490 
#    y 0.000000 1.842430 -0.000010 
#    z -0.002490 -0.000010 1.862080 
# 
# From -- ./inp_files/285290.got.cif
#   From: 2010.06.25/outbox.cif.g09.slc.cpg/sg12_143_cif.got.tgz:285290.got - 2010.06.28 00:19:55.
