data_PCOD8113893
_publ_section_title
;
Structure prediction by ZEFSAII (Michael W. Deem and Ramdas Pophale) SiO2 
 PCOD8113893
Probable space group: C 2/M
;
_chemical_formula_sum "Si O2"
_cell_formula_units_Z 32
_cell_length_a 9.458603
_cell_length_b 19.590276
_cell_length_c 9.752205
_cell_angle_alpha 90.000000
_cell_angle_beta 63.598453
_cell_angle_gamma 90.000000
_cell_volume 1618.575005
_symmetry_space_group_name_H-M "C 2/M"
_symmetry_group_IT_number 12
_symmetry_cell_setting 'monoclinic'
loop_
_space_group_symop_operation_xyz
x,y,z
-x,y,-z
-x,-y,-z
x,-y,z
1/2+x,1/2+y,z
1/2-x,1/2+y,-z
1/2-x,1/2-y,-z
1/2+x,1/2-y,z
loop_
_atom_site_type_symbol
_atom_site_label
_atom_site_fract_x
_atom_site_fract_y
_atom_site_fract_z
Si Si1 0.874298 0.711660 0.352126
Si Si2 0.435733 0.574970 0.740559
Si Si3 0.311650 0.285660 0.838554
Si Si4 0.751180 0.925495 0.536704
O O1 0.750000 0.750000 0.500000
O O2 0.881670 0.633259 0.403301
O O3 0.045118 0.744885 0.294312
O O4 0.827612 0.713154 0.212290
O O5 0.403059 0.500000 0.822530
O O6 0.366777 0.637734 0.859238
O O7 0.624187 0.585272 0.641056
O O8 0.352310 0.578616 0.630609
O O9 0.250000 0.250000 0.000000
O O10 0.668903 0.000000 0.558898
#
# Coordination Sequence:
#
# PCOD8113893 Si02
#       4
#     8   8   8   8
#     4  11  20  35  57  80 105 139 181 219 261 312
#     4   8  14  28  51  76 100 134 181 219 250 303
#     4  11  22  35  53  81 113 140 171 219 271 315
#     4   8  14  27  51  79 100 128 180 229 252 290
#
# _framework density 19.770477
#
# number of rings (size 3 to 8) (size 9 to 14) (size 15 to 20)
#    0.000    2.500    2.500    3.000    0.000    0.000 
#    0.000    1.250    0.000   15.000    0.000    0.000 
#    0.000    0.000    0.000    0.000    0.000    0.000 
#
# Total GULP energy -198278.728562 kJ/mol
# GULP energy per Si atom -12392.420535 kJ/mol
# Density = 1.972548 g / cm^3
# Si number density = 19.770477 Si / 1000 Ang^3
#
#
#
# Elastic Constant Matrix: (Units=GPa)
#
#
# Indices 1 2 3 4 5 6 
#
# 1 22.1945 7.1545 -4.5416 0.0000 -0.8419 0.0000
# 2 7.1545 182.4932 44.3416 0.0000 -1.3379 0.0000
# 3 -4.5416 44.3416 73.2697 0.0000 5.0177 0.0000
# 4 0.0000 0.0000 0.0000 36.6012 0.0000 -1.1675
# 5 -0.8419 -1.3379 5.0177 0.0000 24.2702 0.0000
# 6 0.0000 0.0000 0.0000 -1.1675 0.0000 20.7002
#
#
#
# Elastic Compliance Matrix: (Units=1/GPa)
#
#
# Indices 1 2 3 4 5 6 
#
# 1 0.046992 -0.002976 0.004679 0.000000 0.000499 0.000000
# 2 -0.002976 0.006646 -0.004285 0.000000 0.001149 0.000000
# 3 0.004679 -0.004285 0.016774 0.000000 -0.003542 0.000000
# 4 0.000000 0.000000 0.000000 0.027371 0.000000 0.001544
# 5 0.000499 0.001149 -0.003542 0.000000 0.042016 0.000000
# 6 0.000000 0.000000 0.000000 0.001544 0.000000 0.048396
#
#
# Mechanical properties :
#
#
# Convention : Reuss Voigt Hill
#
# Bulk Modulus (GPa) = 15.32583 41.31849 28.32216
# Shear Modulus (GPa) = 23.24429 31.71450 27.47940
#
# Velocity S-wave (km/s) = 3.43258 4.00951 3.73221
# Velocity P-wave (km/s) = 4.84550 6.50994 5.73839
#
# Compressibility (1/GPa) = 0.06524930
#
# Stress axis : x y z
#
# Youngs Moduli (GPa) = 21.28025 150.46807 59.61573
#
# Poissons Ratio (x) = 0.44774 -0.27897
# Poissons Ratio (y) = 0.06332 0.25546
# Poissons Ratio (z) = -0.09958 0.64478
#
# Static dielectric constant tensor:
#      x y z
#    x 3.315540 0.000000 -0.319240 
#    y 0.000000 2.902160 0.000000 
#    z -0.319240 0.000000 3.666810 
# 
# 
# High freq. dielectric constant tensor:
#      x y z
#    x 1.728250 0.000000 -0.007410 
#    y 0.000000 1.797990 0.000000 
#    z -0.007410 0.000000 1.737260 
# 
# From -- ./inp_files/59443.got.cif
#   From: 2010.06.25/outbox.cif.g09.slc.cpg/sg12_30_cif.got.tgz:59443.got - 2010.06.28 00:19:55.
