data_PCOD8114596
_publ_section_title
;
Structure prediction by ZEFSAII (Michael W. Deem and Ramdas Pophale) SiO2 
 PCOD8114596
Probable space group: C 2/M
;
_chemical_formula_sum "Si O2"
_cell_formula_units_Z 32
_cell_length_a 22.813137
_cell_length_b 9.012391
_cell_length_c 14.538964
_cell_angle_alpha 90.000000
_cell_angle_beta 138.552959
_cell_angle_gamma 90.000000
_cell_volume 1978.649723
_symmetry_space_group_name_H-M "C 2/M"
_symmetry_group_IT_number 12
_symmetry_cell_setting 'monoclinic'
loop_
_space_group_symop_operation_xyz
x,y,z
-x,y,-z
-x,-y,-z
x,-y,z
1/2+x,1/2+y,z
1/2-x,1/2+y,-z
1/2-x,1/2-y,-z
1/2+x,1/2-y,z
loop_
_atom_site_type_symbol
_atom_site_label
_atom_site_fract_x
_atom_site_fract_y
_atom_site_fract_z
Si Si1 0.633888 0.832102 0.618176
Si Si2 0.320848 0.672321 0.147055
Si Si3 0.020119 0.828161 0.353545
Si Si4 0.324982 0.167223 0.532591
O O1 0.682600 0.745037 0.756520
O O2 0.543206 0.749296 0.479158
O O3 0.698882 0.832272 0.604825
O O4 0.612083 0.000000 0.623916
O O5 0.297600 0.500000 0.129883
O O6 0.416585 0.695663 0.212348
O O7 0.250000 0.750000 0.000000
O O8 0.079717 0.751180 0.343402
O O9 0.045522 0.000000 0.389505
O O10 0.250000 0.250000 0.500000
O O11 0.334201 0.000000 0.581042
#
# Coordination Sequence:
#
# PCOD8114596 Si02
#       4
#     8   8   8   8
#     4   9  19  32  50  74 100 129 163 203 246 290
#     4  11  22  33  49  72 102 136 165 201 246 293
#     4   9  18  32  50  73 100 129 164 202 245 291
#     4   9  18  30  50  76  99 127 161 205 247 285
#
# _framework density 16.172643999999998
#
# number of rings (size 3 to 8) (size 9 to 14) (size 15 to 20)
#    1.500    1.000    0.000    3.000    0.000    7.000 
#    0.000    0.000    0.000    1.500    0.000   10.500 
#    0.000    0.000    0.000    0.000    0.000    0.000 
#
# Total GULP energy -198225.874818 kJ/mol
# GULP energy per Si atom -12389.117176 kJ/mol
# Density = 1.613583 g / cm^3
# Si number density = 16.172644 Si / 1000 Ang^3
#
#
#
# Elastic Constant Matrix: (Units=GPa)
#
#
# Indices 1 2 3 4 5 6 
#
# 1 79.3092 56.2585 26.9449 0.0000 17.8362 0.0000
# 2 56.2585 168.8847 62.5713 0.0000 13.6601 0.0000
# 3 26.9449 62.5713 102.4879 0.0000 11.1454 0.0000
# 4 0.0000 0.0000 0.0000 29.3656 0.0000 -0.5947
# 5 17.8362 13.6601 11.1454 0.0000 9.0392 0.0000
# 6 0.0000 0.0000 0.0000 -0.5947 0.0000 30.8778
#
#
#
# Elastic Compliance Matrix: (Units=1/GPa)
#
#
# Indices 1 2 3 4 5 6 
#
# 1 0.026248 -0.005632 0.001437 0.000000 -0.045054 0.000000
# 2 -0.005632 0.009229 -0.004441 0.000000 0.002642 0.000000
# 3 0.001437 -0.004441 0.013476 0.000000 -0.012741 0.000000
# 4 0.000000 0.000000 0.000000 0.034067 0.000000 0.000656
# 5 -0.045054 0.002642 -0.012741 0.000000 0.211245 0.000000
# 6 0.000000 0.000000 0.000000 0.000656 0.000000 0.032398
#
#
# Mechanical properties :
#
#
# Convention : Reuss Voigt Hill
#
# Bulk Modulus (GPa) = 31.56433 71.35903 51.46168
# Shear Modulus (GPa) = 14.10453 27.51699 20.81076
#
# Velocity S-wave (km/s) = 2.95638 4.12934 3.59107
# Velocity P-wave (km/s) = 5.58686 8.18256 7.00598
#
# Compressibility (1/GPa) = 0.03168134
#
# Stress axis : x y z
#
# Youngs Moduli (GPa) = 38.09808 108.35321 74.20394
#
# Poissons Ratio (x) = 0.61025 -0.10664
# Poissons Ratio (y) = 0.21457 0.32955
# Poissons Ratio (z) = -0.05475 0.48122
#
# Static dielectric constant tensor:
#      x y z
#    x 2.903500 0.000000 0.036620 
#    y 0.000000 3.847710 0.000000 
#    z 0.036620 0.000000 2.710460 
# 
# 
# High freq. dielectric constant tensor:
#      x y z
#    x 1.612080 0.000000 0.006630 
#    y 0.000000 1.648830 0.000000 
#    z 0.006630 0.000000 1.580620 
# 
# From -- ./inp_files/150882.got.cif
#   From: 2010.06.25/outbox.cif.g09.slc.cpg/sg12_76_cif.got.tgz:150882.got - 2010.06.28 00:19:55.
