data_PCOD8114299
_publ_section_title
;
Structure prediction by ZEFSAII (Michael W. Deem and Ramdas Pophale) SiO2 
 PCOD8114299
Probable space group: C 2/M
;
_chemical_formula_sum "Si O2"
_cell_formula_units_Z 48
_cell_length_a 29.523543
_cell_length_b 8.655997
_cell_length_c 14.990985
_cell_angle_alpha 90.000000
_cell_angle_beta 38.686693
_cell_angle_gamma 90.000000
_cell_volume 2394.629951
_symmetry_space_group_name_H-M "C 2/M"
_symmetry_group_IT_number 12
_symmetry_cell_setting 'monoclinic'
loop_
_space_group_symop_operation_xyz
x,y,z
-x,y,-z
-x,-y,-z
x,-y,z
1/2+x,1/2+y,z
1/2-x,1/2+y,-z
1/2-x,1/2-y,-z
1/2+x,1/2-y,z
loop_
_atom_site_type_symbol
_atom_site_label
_atom_site_fract_x
_atom_site_fract_y
_atom_site_fract_z
Si Si1 0.513290 0.682416 0.078242
Si Si2 0.248504 0.824742 0.406764
Si Si3 0.582886 0.674603 0.618228
Si Si4 0.928808 0.184712 0.558909
Si Si5 0.774988 0.818021 0.868155
Si Si6 0.675393 0.679480 0.871219
O O1 0.502268 0.500000 0.085734
O O2 0.455217 0.755335 0.237705
O O3 0.500000 0.755929 0.000000
O O4 0.590980 0.723362 0.000555
O O5 0.250000 0.750000 0.500000
O O6 0.168331 0.821087 0.492814
O O7 0.297505 0.719520 0.268869
O O8 0.278057 0.000000 0.364202
O O9 0.553329 0.500000 0.661873
O O10 0.563801 0.753189 0.552741
O O11 0.854966 0.246423 0.719078
O O12 0.000000 0.245415 0.500000
O O13 0.925525 0.000000 0.561101
O O14 0.716676 0.777208 0.882227
O O15 0.778290 0.000000 0.872738
O O16 0.750000 0.750000 0.000000
O O17 0.688040 0.500000 0.871952
#
# Coordination Sequence:
#
# PCOD8114299 Si02
#       6
#     8   8   8   8   8   8
#     4   9  18  32  53  84 116 148 195 243 276 325
#     4  11  21  36  59  86 116 152 192 240 291 343
#     4   9  17  32  54  80 111 146 190 242 282 325
#     4   9  18  33  57  85 109 141 192 242 282 334
#     4  11  23  40  61  88 118 151 192 242 296 350
#     4  11  22  37  60  89 119 153 191 238 293 349
#
# _framework density 20.044851000000001
#
# number of rings (size 3 to 8) (size 9 to 14) (size 15 to 20)
#    0.000    2.000    1.667    2.500    2.333    2.667 
#    0.000    0.000    0.000   15.000    0.000    0.000 
#    0.000    0.000    0.000    0.000    0.000    0.000 
#
# Total GULP energy -297538.086406 kJ/mol
# GULP energy per Si atom -12397.420267 kJ/mol
# Density = 1.999923 g / cm^3
# Si number density = 20.044851 Si / 1000 Ang^3
#
#
#
# Elastic Constant Matrix: (Units=GPa)
#
#
# Indices 1 2 3 4 5 6 
#
# 1 90.9358 22.1744 15.0755 0.0000 19.2323 -0.0001
# 2 22.1744 30.1451 19.6763 -0.0009 -5.5364 0.0005
# 3 15.0755 19.6763 110.3343 -0.0001 17.5860 0.0001
# 4 0.0000 -0.0009 -0.0001 24.0575 0.0001 3.1136
# 5 19.2323 -5.5364 17.5860 0.0001 39.1383 -0.0001
# 6 -0.0001 0.0005 0.0001 3.1136 -0.0001 27.4390
#
#
#
# Elastic Compliance Matrix: (Units=1/GPa)
#
#
# Indices 1 2 3 4 5 6 
#
# 1 0.017066 -0.016327 0.002461 -0.000001 -0.011802 0.000000
# 2 -0.016327 0.056327 -0.011162 0.000002 0.021007 -0.000001
# 3 0.002461 -0.011162 0.012023 0.000000 -0.008191 0.000000
# 4 -0.000001 0.000002 0.000000 0.042187 0.000001 -0.004787
# 5 -0.011802 0.021007 -0.008191 0.000001 0.038002 0.000000
# 6 0.000000 -0.000001 0.000000 -0.004787 0.000000 0.036988
#
#
# Mechanical properties :
#
#
# Convention : Reuss Voigt Hill
#
# Bulk Modulus (GPa) = 28.28147 38.36306 33.32227
# Shear Modulus (GPa) = 18.90815 29.75956 24.33386
#
# Velocity S-wave (km/s) = 3.07464 3.85729 3.48799
# Velocity P-wave (km/s) = 5.17149 6.24647 5.73423
#
# Compressibility (1/GPa) = 0.03535884
#
# Stress axis : x y z
#
# Youngs Moduli (GPa) = 58.59558 17.75344 83.17229
#
# Poissons Ratio (x) = 0.28987 -0.20468
# Poissons Ratio (y) = 0.95671 0.92840
# Poissons Ratio (z) = -0.14420 0.19817
#
# Static dielectric constant tensor:
#      x y z
#    x 3.823890 0.000000 0.176290 
#    y 0.000000 3.133410 0.000000 
#    z 0.176290 0.000000 3.690620 
# 
# 
# High freq. dielectric constant tensor:
#      x y z
#    x 1.796900 0.000000 0.006840 
#    y 0.000000 1.731990 0.000000 
#    z 0.006840 0.000000 1.800710 
# 
# From -- ./inp_files/244833.got.cif
#   From: 2010.06.25/outbox.cif.g09.slc.cpg/sg12_123_cif.got.tgz:244833.got - 2010.06.28 00:19:55.
