data_PCOD8114924
_publ_section_title
;
Structure prediction by ZEFSAII (Michael W. Deem and Ramdas Pophale) SiO2 
 PCOD8114924
Probable space group: C 2/M
;
_chemical_formula_sum "Si O2"
_cell_formula_units_Z 48
_cell_length_a 19.035797
_cell_length_b 8.617801
_cell_length_c 30.212491
_cell_angle_alpha 90.000000
_cell_angle_beta 28.680615
_cell_angle_gamma 90.000000
_cell_volume 2378.641408
_symmetry_space_group_name_H-M "C 2/M"
_symmetry_group_IT_number 12
_symmetry_cell_setting 'monoclinic'
loop_
_space_group_symop_operation_xyz
x,y,z
-x,y,-z
-x,-y,-z
x,-y,z
1/2+x,1/2+y,z
1/2-x,1/2+y,-z
1/2-x,1/2-y,-z
1/2+x,1/2-y,z
loop_
_atom_site_type_symbol
_atom_site_label
_atom_site_fract_x
_atom_site_fract_y
_atom_site_fract_z
Si Si1 0.165727 0.684961 0.913251
Si Si2 0.663315 0.827701 0.424774
Si Si3 0.318323 0.682018 0.918156
Si Si4 0.629107 0.181552 0.759221
Si Si5 0.307177 0.684182 0.745014
Si Si6 0.376879 0.683682 0.459267
O O1 0.166588 0.500000 0.912715
O O2 0.237237 0.749218 0.919167
O O3 0.259704 0.747695 0.819467
O O4 0.000000 0.747289 0.000000
O O5 0.500000 0.850015 0.500000
O O6 0.745083 0.718180 0.345122
O O7 0.664837 0.738111 0.469416
O O8 0.736063 0.000000 0.388584
O O9 0.295709 0.500000 0.931813
O O10 0.488186 0.722614 0.822520
O O11 0.250000 0.750000 0.000000
O O12 0.685168 0.235939 0.776590
O O13 0.591619 0.000000 0.779743
O O14 0.315872 0.500000 0.740492
O O15 0.466311 0.751804 0.643715
O O16 0.379914 0.500000 0.455455
O O17 0.250000 0.750000 0.500000
#
# Coordination Sequence:
#
# PCOD8114924 Si02
#       6
#     8   8   8   8   8   8
#     4   9  18  35  60  87 115 152 197 242 294 362
#     4  11  23  40  62  89 124 165 211 258 306 365
#     4  11  23  39  63  92 123 156 199 253 309 370
#     4  11  22  39  64  91 122 159 204 254 308 371
#     4   9  19  36  59  86 117 157 202 248 302 365
#     4  11  23  39  60  88 124 164 209 258 310 370
#
# _framework density 20.179587999999999
#
# number of rings (size 3 to 8) (size 9 to 14) (size 15 to 20)
#    0.000    1.667    1.667    3.000    2.333    3.333 
#    0.000    0.000    0.000   11.000    0.000    0.000 
#    0.000    0.000    0.000    0.000    0.000    0.000 
#
# Total GULP energy -297606.004321 kJ/mol
# GULP energy per Si atom -12400.250180 kJ/mol
# Density = 2.013366 g / cm^3
# Si number density = 20.179588 Si / 1000 Ang^3
#
#
#
# Elastic Constant Matrix: (Units=GPa)
#
#
# Indices 1 2 3 4 5 6 
#
# 1 185.0654 32.3999 79.3824 0.0058 8.9513 -0.0188
# 2 32.3999 45.8163 10.6844 0.0150 1.0256 0.0158
# 3 79.3824 10.6844 95.0240 -0.0053 12.1901 0.0030
# 4 0.0058 0.0150 -0.0053 31.8128 0.0019 -0.7675
# 5 8.9513 1.0256 12.1901 0.0019 45.9111 0.0006
# 6 -0.0188 0.0158 0.0030 -0.7675 0.0006 28.8326
#
#
#
# Elastic Compliance Matrix: (Units=1/GPa)
#
#
# Indices 1 2 3 4 5 6 
#
# 1 0.009401 -0.004945 -0.007326 0.000000 0.000223 0.000010
# 2 -0.004945 0.025016 0.001310 -0.000011 0.000057 -0.000017
# 3 -0.007326 0.001310 0.016892 0.000004 -0.003086 -0.000007
# 4 0.000000 -0.000011 0.000004 0.031454 -0.000002 0.000837
# 5 0.000223 0.000057 -0.003086 -0.000002 0.022556 0.000000
# 6 0.000010 -0.000017 -0.000007 0.000837 0.000000 0.034705
#
#
# Mechanical properties :
#
#
# Convention : Reuss Voigt Hill
#
# Bulk Modulus (GPa) = 34.02625 63.42657 48.72641
# Shear Modulus (GPa) = 29.11365 34.87390 31.99378
#
# Velocity S-wave (km/s) = 3.80245 4.16164 3.98609
# Velocity P-wave (km/s) = 6.01469 7.38862 6.73677
#
# Compressibility (1/GPa) = 0.02938908
#
# Stress axis : x y z
#
# Youngs Moduli (GPa) = 106.37399 39.97438 59.19869
#
# Poissons Ratio (x) = 0.19765 0.43369
# Poissons Ratio (y) = 0.52597 -0.07758
# Poissons Ratio (z) = 0.77929 -0.05239
#
# Static dielectric constant tensor:
#      x y z
#    x 7.095510 0.000350 -2.249030 
#    y 0.000350 3.717530 -0.000160 
#    z -2.249030 -0.000160 5.443450 
# 
# 
# High freq. dielectric constant tensor:
#      x y z
#    x 1.804760 0.000000 0.003160 
#    y 0.000000 1.760410 0.000000 
#    z 0.003160 0.000000 1.801200 
# 
# From -- ./inp_files/244834.got.cif
#   From: 2010.06.25/outbox.cif.g09.slc.cpg/sg12_123_cif.got.tgz:244834.got - 2010.06.28 00:19:55.
