data_PCOD8114926
_publ_section_title
;
Structure prediction by ZEFSAII (Michael W. Deem and Ramdas Pophale) SiO2 
 PCOD8114926
Probable space group: C 2/M
;
_chemical_formula_sum "Si O2"
_cell_formula_units_Z 48
_cell_length_a 18.726666
_cell_length_b 18.641602
_cell_length_c 11.276560
_cell_angle_alpha 90.000000
_cell_angle_beta 143.576566
_cell_angle_gamma 90.000000
_cell_volume 2337.343380
_symmetry_space_group_name_H-M "C 2/M"
_symmetry_group_IT_number 12
_symmetry_cell_setting 'monoclinic'
loop_
_space_group_symop_operation_xyz
x,y,z
-x,y,-z
-x,-y,-z
x,-y,z
1/2+x,1/2+y,z
1/2-x,1/2+y,-z
1/2-x,1/2-y,-z
1/2+x,1/2-y,z
loop_
_atom_site_type_symbol
_atom_site_label
_atom_site_fract_x
_atom_site_fract_y
_atom_site_fract_z
Si Si1 0.701366 0.685618 0.084793
Si Si2 0.602478 0.417339 0.549977
Si Si3 0.983057 0.584218 0.839274
Si Si4 0.697874 0.169472 0.539445
Si Si5 0.577401 0.691508 0.312577
Si Si6 0.710271 0.848725 0.047321
O O1 0.775245 0.646612 0.289009
O O2 0.740621 0.642147 0.020319
O O3 0.558414 0.684469 0.915032
O O4 0.741040 0.768617 0.131314
O O5 0.500000 0.386352 0.500000
O O6 0.581218 0.500000 0.491641
O O7 0.603695 0.376413 0.428800
O O8 0.728037 0.406403 0.784048
O O9 0.002936 0.500000 0.849844
O O10 0.071013 0.630355 0.872514
O O11 0.851882 0.605829 0.612128
O O12 0.000000 0.606672 0.000000
O O13 0.601072 0.234369 0.413932
O O14 0.829676 0.193494 0.671747
#
# Coordination Sequence:
#
# PCOD8114926 Si02
#       6
#     8   8   8   8   8   8
#     4  11  23  39  63  98 129 165 211 267 323 378
#     4  11  22  39  64  92 125 169 217 263 317 376
#     4  11  25  45  68  95 130 170 217 267 320 383
#     4  11  24  39  67  93 128 172 213 260 323 383
#     4  11  22  40  63  92 131 165 216 268 314 377
#     4  11  22  39  65  94 131 166 211 267 320 377
#
# _framework density 20.536135999999999
#
# number of rings (size 3 to 8) (size 9 to 14) (size 15 to 20)
#    0.000    1.000    5.000    2.000    2.333    2.667 
#    0.000    3.333    0.000    2.000    0.000    0.000 
#    0.000    0.000    0.000    0.000    0.000    0.000 
#
# Total GULP energy -297598.700115 kJ/mol
# GULP energy per Si atom -12399.945838 kJ/mol
# Density = 2.048939 g / cm^3
# Si number density = 20.536136 Si / 1000 Ang^3
#
#
#
# Elastic Constant Matrix: (Units=GPa)
#
#
# Indices 1 2 3 4 5 6 
#
# 1 70.8134 24.4999 46.0292 0.0000 0.2677 0.0000
# 2 24.4999 70.4462 25.9360 0.0000 -11.8225 0.0000
# 3 46.0292 25.9360 137.9253 0.0000 -17.8244 0.0000
# 4 0.0000 0.0000 0.0000 29.3699 0.0000 0.8386
# 5 0.2677 -11.8225 -17.8244 0.0000 38.5651 0.0000
# 6 0.0000 0.0000 0.0000 0.8386 0.0000 25.8495
#
#
#
# Elastic Compliance Matrix: (Units=1/GPa)
#
#
# Indices 1 2 3 4 5 6 
#
# 1 0.020128 -0.005475 -0.006299 0.000000 -0.004729 0.000000
# 2 -0.005475 0.017215 -0.000769 0.000000 0.004960 0.000000
# 3 -0.006299 -0.000769 0.010074 0.000000 0.004464 0.000000
# 4 0.000000 0.000000 0.000000 0.034080 0.000000 -0.001106
# 5 -0.004729 0.004960 0.004464 0.000000 0.029547 0.000000
# 6 0.000000 0.000000 0.000000 -0.001106 0.000000 0.038721
#
#
# Mechanical properties :
#
#
# Convention : Reuss Voigt Hill
#
# Bulk Modulus (GPa) = 44.78047 52.45721 48.61884
# Shear Modulus (GPa) = 27.42820 30.93822 29.18321
#
# Velocity S-wave (km/s) = 3.65856 3.88561 3.77379
# Velocity P-wave (km/s) = 6.30078 6.76239 6.53566
#
# Compressibility (1/GPa) = 0.02233116
#
# Stress axis : x y z
#
# Youngs Moduli (GPa) = 49.68205 58.08956 99.26618
#
# Poissons Ratio (x) = 0.31803 0.62527
# Poissons Ratio (y) = 0.27200 0.07634
# Poissons Ratio (z) = 0.31294 0.04468
#
# Static dielectric constant tensor:
#      x y z
#    x 3.775980 0.000000 0.137640 
#    y 0.000000 3.424610 0.000000 
#    z 0.137640 0.000000 3.766000 
# 
# 
# High freq. dielectric constant tensor:
#      x y z
#    x 1.808080 0.000000 0.008610 
#    y 0.000000 1.781100 0.000000 
#    z 0.008610 0.000000 1.809730 
# 
# From -- ./inp_files/169726.got.cif
#   From: 2010.06.25/outbox.cif.g09.slc.cpg/sg12_85_cif.got.tgz:169726.got - 2010.06.28 00:19:55.
