data_PCOD8114092
_publ_section_title
;
Structure prediction by ZEFSAII (Michael W. Deem and Ramdas Pophale) SiO2 
 PCOD8114092
Probable space group: C 2/M
;
_chemical_formula_sum "Si O2"
_cell_formula_units_Z 64
_cell_length_a 17.481571
_cell_length_b 26.076586
_cell_length_c 8.986676
_cell_angle_alpha 90.000000
_cell_angle_beta 76.500673
_cell_angle_gamma 90.000000
_cell_volume 3983.483431
_symmetry_space_group_name_H-M "C 2/M"
_symmetry_group_IT_number 12
_symmetry_cell_setting 'monoclinic'
loop_
_space_group_symop_operation_xyz
x,y,z
-x,y,-z
-x,-y,-z
x,-y,z
1/2+x,1/2+y,z
1/2-x,1/2+y,-z
1/2-x,1/2-y,-z
1/2+x,1/2-y,z
loop_
_atom_site_type_symbol
_atom_site_label
_atom_site_fract_x
_atom_site_fract_y
_atom_site_fract_z
Si Si1 0.333411 0.845194 0.346058
Si Si2 0.943564 0.738481 0.657748
Si Si3 0.198966 0.803723 0.897232
Si Si4 0.419223 0.941380 0.834621
Si Si5 0.098524 0.558551 0.815818
Si Si6 0.297434 0.703959 0.774078
Si Si7 0.661013 0.853584 0.304064
Si Si8 0.558680 0.758445 0.846858
O O1 0.343837 0.904228 0.298036
O O2 0.247208 0.830327 0.326341
O O3 0.340049 0.841989 0.519925
O O4 0.395722 0.807806 0.238378
O O5 0.877442 0.780991 0.650744
O O6 0.897781 0.688425 0.742384
O O7 0.000000 0.721520 0.500000
O O8 0.000378 0.764546 0.751368
O O9 0.249467 0.753154 0.848073
O O10 0.248199 0.848636 0.791990
O O11 0.113427 0.789477 0.869744
O O12 0.187235 0.822996 0.073065
O O13 0.512422 0.932461 0.785758
O O14 0.373032 0.908261 0.731938
O O15 0.398668 0.000000 0.806222
O O16 0.393782 0.927587 0.013725
O O17 0.124621 0.500000 0.777655
O O18 0.500000 0.779293 0.000000
#
# Coordination Sequence:
#
# PCOD8114092 Si02
#       8
#     8   8   8   8   8   8   8   8
#     4  11  22  31  48  70  97 129 159 195 241 284
#     4  11  21  32  47  70  98 126 162 201 236 279
#     4   9  19  33  47  65  92 125 162 198 233 278
#     4   9  19  34  52  70  93 123 160 201 236 276
#     4   9  19  34  51  71  92 122 162 201 235 277
#     4   9  19  33  47  65  91 128 161 196 235 277
#     4  11  22  32  46  70  99 129 159 194 241 285
#     4  11  21  32  49  70  92 127 167 199 232 280
#
# _framework density 16.06634
#
# number of rings (size 3 to 8) (size 9 to 14) (size 15 to 20)
#    0.000    2.000    2.500    2.250    7.000    2.000 
#    0.000    1.250    0.000    0.000    0.000    0.000 
#    0.000    2.000    0.000    0.125    0.000    0.000 
#
# Total GULP energy -396484.883088 kJ/mol
# GULP energy per Si atom -12390.152597 kJ/mol
# Density = 1.602977 g / cm^3
# Si number density = 16.066340 Si / 1000 Ang^3
#
#
#
# Elastic Constant Matrix: (Units=GPa)
#
#
# Indices 1 2 3 4 5 6 
#
# 1 92.5780 45.6811 33.3593 0.0000 11.5442 0.0000
# 2 45.6811 66.5483 29.8007 0.0000 4.5524 0.0000
# 3 33.3593 29.8007 60.5359 0.0000 13.3223 0.0000
# 4 0.0000 0.0000 0.0000 22.8673 0.0000 2.9135
# 5 11.5442 4.5524 13.3223 0.0000 30.1924 0.0000
# 6 0.0000 0.0000 0.0000 2.9135 0.0000 29.7735
#
#
#
# Elastic Compliance Matrix: (Units=1/GPa)
#
#
# Indices 1 2 3 4 5 6 
#
# 1 0.017653 -0.010090 -0.003999 0.000000 -0.003464 0.000000
# 2 -0.010090 0.025098 -0.007544 0.000000 0.003402 0.000000
# 3 -0.003999 -0.007544 0.024199 0.000000 -0.008012 0.000000
# 4 0.000000 0.000000 0.000000 0.044283 0.000000 -0.004333
# 5 -0.003464 0.003402 -0.008012 0.000000 0.037467 0.000000
# 6 0.000000 0.000000 0.000000 -0.004333 0.000000 0.034011
#
#
# Mechanical properties :
#
#
# Convention : Reuss Voigt Hill
#
# Bulk Modulus (GPa) = 42.21944 48.59383 45.40663
# Shear Modulus (GPa) = 21.37913 23.95473 22.66693
#
# Velocity S-wave (km/s) = 3.65180 3.86552 3.76018
# Velocity P-wave (km/s) = 6.64200 7.08762 6.86843
#
# Compressibility (1/GPa) = 0.02368577
#
# Stress axis : x y z
#
# Youngs Moduli (GPa) = 56.64631 39.84307 41.32338
#
# Poissons Ratio (x) = 0.40203 0.16523
# Poissons Ratio (y) = 0.57158 0.31174
# Poissons Ratio (z) = 0.22650 0.30057
#
# Static dielectric constant tensor:
#      x y z
#    x 3.122980 0.000000 -1.295850 
#    y 0.000000 2.766260 0.000000 
#    z -1.295850 0.000000 -15.687440 
# 
# 
# High freq. dielectric constant tensor:
#      x y z
#    x 1.610600 0.000000 0.006910 
#    y 0.000000 1.574910 0.000000 
#    z 0.006910 0.000000 1.626380 
# 
# From -- ./inp_files/78778.got.cif
#   From: 2010.06.25/outbox.cif.g09.slc.cpg/sg12_40_cif.got.tgz:78778.got - 2010.06.28 00:19:55.
