data_PCOD8114911
_publ_section_title
;
Structure prediction by ZEFSAII (Michael W. Deem and Ramdas Pophale) SiO2 
 PCOD8114911
Probable space group: C 2/M
;
_chemical_formula_sum "Si O2"
_cell_formula_units_Z 56
_cell_length_a 28.940666
_cell_length_b 20.205895
_cell_length_c 8.725287
_cell_angle_alpha 90.000000
_cell_angle_beta 146.568430
_cell_angle_gamma 90.000000
_cell_volume 2811.066745
_symmetry_space_group_name_H-M "C 2/M"
_symmetry_group_IT_number 12
_symmetry_cell_setting 'monoclinic'
loop_
_space_group_symop_operation_xyz
x,y,z
-x,y,-z
-x,-y,-z
x,-y,z
1/2+x,1/2+y,z
1/2-x,1/2+y,-z
1/2-x,1/2-y,-z
1/2+x,1/2-y,z
loop_
_atom_site_type_symbol
_atom_site_label
_atom_site_fract_x
_atom_site_fract_y
_atom_site_fract_z
Si Si1 0.526471 0.757673 0.748928
Si Si2 0.541254 0.626334 0.964187
Si Si3 0.282408 0.648808 0.143281
Si Si4 0.183796 0.309366 0.331203
Si Si5 0.280901 0.423613 0.450508
Si Si6 0.929769 0.926189 0.423410
Si Si7 0.856174 0.712433 0.434978
O O1 0.500000 0.756963 0.500000
O O2 0.554130 0.684542 0.877842
O O3 0.451239 0.787192 0.641330
O O4 0.609036 0.801803 0.001006
O O5 0.473850 0.573785 0.711935
O O6 0.500000 0.659259 0.000000
O O7 0.624613 0.587043 0.233116
O O8 0.268052 0.595266 0.236738
O O9 0.349837 0.622574 0.204416
O O10 0.316652 0.714677 0.318251
O O11 0.196308 0.661963 0.815986
O O12 0.250000 0.250000 0.500000
O O13 0.223898 0.379956 0.404634
O O14 0.145737 0.311530 0.395769
O O15 0.255891 0.500000 0.401625
O O16 0.000000 0.899993 0.500000
O O17 0.899546 0.000000 0.296893
#
# Coordination Sequence:
#
# PCOD8114911 Si02
#       7
#     8   8   8   8   8   8   8
#     4  12  24  41  69  99 134 171 217 279 339 390
#     4  12  22  37  60  94 133 179 218 261 328 398
#     4  11  22  39  62  93 128 176 222 270 325 390
#     4  12  24  43  67 100 133 172 222 278 334 396
#     4  12  25  42  64  94 136 181 224 270 331 401
#     4  11  24  38  56  89 138 182 218 261 324 404
#     4  11  24  40  68  95 130 167 219 280 332 382
#
# _framework density 19.921261999999999
#
# number of rings (size 3 to 8) (size 9 to 14) (size 15 to 20)
#    0.000    0.429    5.714    3.429    4.000    0.571 
#    0.000    0.714    0.000    6.429    0.000    0.000 
#    0.000    0.000    0.000    0.000    0.000    0.000 
#
# Total GULP energy -347265.836944 kJ/mol
# GULP energy per Si atom -12402.351319 kJ/mol
# Density = 1.987592 g / cm^3
# Si number density = 19.921262 Si / 1000 Ang^3
#
#
#
# Elastic Constant Matrix: (Units=GPa)
#
#
# Indices 1 2 3 4 5 6 
#
# 1 120.9785 46.1874 29.3840 0.0000 -5.8037 0.0000
# 2 46.1874 121.0321 42.4305 0.0000 4.2954 0.0000
# 3 29.3840 42.4305 106.7471 0.0000 -3.0922 0.0000
# 4 0.0000 0.0000 0.0000 14.9677 0.0000 3.1179
# 5 -5.8037 4.2954 -3.0922 0.0000 29.4590 0.0000
# 6 0.0000 0.0000 0.0000 3.1179 0.0000 26.9014
#
#
#
# Elastic Compliance Matrix: (Units=1/GPa)
#
#
# Indices 1 2 3 4 5 6 
#
# 1 0.010012 -0.003441 -0.001321 0.000000 0.002336 0.000000
# 2 -0.003441 0.010879 -0.003453 0.000000 -0.002627 0.000000
# 3 -0.001321 -0.003453 0.011145 0.000000 0.001413 0.000000
# 4 0.000000 0.000000 0.000000 0.068464 0.000000 -0.007935
# 5 0.002336 -0.002627 0.001413 0.000000 0.034937 0.000000
# 6 0.000000 0.000000 0.000000 -0.007935 0.000000 0.038093
#
#
# Mechanical properties :
#
#
# Convention : Reuss Voigt Hill
#
# Bulk Modulus (GPa) = 64.07368 64.97349 64.52358
# Shear Modulus (GPa) = 25.61981 29.64932 27.63456
#
# Velocity S-wave (km/s) = 3.59005 3.86207 3.72854
# Velocity P-wave (km/s) = 7.02979 7.25075 7.14112
#
# Compressibility (1/GPa) = 0.01560703
#
# Stress axis : x y z
#
# Youngs Moduli (GPa) = 99.87634 91.91920 89.72575
#
# Poissons Ratio (x) = 0.31627 0.11851
# Poissons Ratio (y) = 0.34364 0.30985
# Poissons Ratio (z) = 0.13192 0.31742
#
# Static dielectric constant tensor:
#      x y z
#    x 3.832620 0.000000 -0.107880 
#    y 0.000000 3.434030 0.000000 
#    z -0.107880 0.000000 3.879340 
# 
# 
# High freq. dielectric constant tensor:
#      x y z
#    x 1.789860 0.000000 -0.008440 
#    y 0.000000 1.751940 0.000000 
#    z -0.008440 0.000000 1.780490 
# 
# From -- ./inp_files/113421.got.cif
#   From: 2010.06.25/outbox.cif.g09.slc.cpg/sg12_57_cif.got.tgz:113421.got - 2010.06.28 00:19:55.
