data_PCOD8114870
_publ_section_title
;
Structure prediction by ZEFSAII (Michael W. Deem and Ramdas Pophale) SiO2 
 PCOD8114870
Probable space group: C 2/M
;
_chemical_formula_sum "Si O2"
_cell_formula_units_Z 56
_cell_length_a 26.587535
_cell_length_b 8.623261
_cell_length_c 18.297414
_cell_angle_alpha 90.000000
_cell_angle_beta 37.425744
_cell_angle_gamma 90.000000
_cell_volume 2549.481950
_symmetry_space_group_name_H-M "C 2/M"
_symmetry_group_IT_number 12
_symmetry_cell_setting 'monoclinic'
loop_
_space_group_symop_operation_xyz
x,y,z
-x,y,-z
-x,-y,-z
x,-y,z
1/2+x,1/2+y,z
1/2-x,1/2+y,-z
1/2-x,1/2-y,-z
1/2+x,1/2-y,z
loop_
_atom_site_type_symbol
_atom_site_label
_atom_site_fract_x
_atom_site_fract_y
_atom_site_fract_z
Si Si1 0.471210 0.319754 0.181221
Si Si2 0.215244 0.681644 0.116622
Si Si3 0.909723 0.181165 0.631201
Si Si4 0.131479 0.673752 0.821963
Si Si5 0.165918 0.322305 0.567857
Si Si6 0.303672 0.174294 0.630713
Si Si7 0.634615 0.826363 0.985776
O O1 0.482777 0.500000 0.153368
O O2 0.444910 0.239786 0.135678
O O3 0.404579 0.286994 0.319548
O O4 0.556486 0.250450 0.115983
O O5 0.205615 0.500000 0.117315
O O6 0.126802 0.744690 0.250725
O O7 0.250000 0.750000 0.000000
O O8 0.283417 0.723579 0.098990
O O9 0.844981 0.209787 0.640611
O O10 0.000000 0.246857 0.500000
O O11 0.917158 0.000000 0.637964
O O12 0.152659 0.500000 0.770576
O O13 0.209957 0.782988 0.720147
O O14 0.106684 0.671996 0.934538
O O15 0.159396 0.500000 0.602989
O O16 0.250000 0.250000 0.500000
O O17 0.150547 0.315230 0.499258
O O18 0.308223 0.000000 0.657715
O O19 0.651347 0.000000 0.996473
#
# Coordination Sequence:
#
# PCOD8114870 Si02
#       7
#     8   8   8   8   8   8   8
#     4  12  25  39  60  93 133 175 222 271 324 386
#     4  12  26  46  74 103 137 177 224 280 343 408
#     4  11  25  46  72 102 136 175 223 277 338 407
#     4  11  22  38  64  92 127 170 215 265 320 382
#     4  11  23  39  60  88 126 171 218 267 323 386
#     4  11  23  39  65  96 126 165 215 266 323 387
#     4  11  24  43  66  94 129 170 219 269 328 393
#
# _framework density 21.965247000000002
#
# number of rings (size 3 to 8) (size 9 to 14) (size 15 to 20)
#    0.000    0.714    2.857    5.143    0.000    7.429 
#    0.000    2.857    0.000    0.000    0.000    0.000 
#    0.000    0.000    0.000    0.000    0.000    0.000 
#
# Total GULP energy -347161.614234 kJ/mol
# GULP energy per Si atom -12398.629080 kJ/mol
# Density = 2.191525 g / cm^3
# Si number density = 21.965247 Si / 1000 Ang^3
#
#
#
# Elastic Constant Matrix: (Units=GPa)
#
#
# Indices 1 2 3 4 5 6 
#
# 1 51.8049 22.8816 31.3394 0.0335 -1.7509 -0.0051
# 2 22.8816 120.9711 45.9534 0.0700 4.4819 -0.0236
# 3 31.3394 45.9534 144.5037 0.0587 -9.7497 -0.0250
# 4 0.0335 0.0700 0.0587 35.5583 -0.0268 -0.9800
# 5 -1.7509 4.4819 -9.7497 -0.0268 38.1938 0.0088
# 6 -0.0051 -0.0236 -0.0250 -0.9800 0.0088 33.0736
#
#
#
# Elastic Compliance Matrix: (Units=1/GPa)
#
#
# Indices 1 2 3 4 5 6 
#
# 1 0.023025 -0.002821 -0.004073 -0.000009 0.000347 -0.000002
# 2 -0.002821 0.009885 -0.002665 -0.000014 -0.001970 0.000005
# 3 -0.004073 -0.002665 0.008811 -0.000004 0.002375 0.000003
# 4 -0.000009 -0.000014 -0.000004 0.028146 0.000020 0.000834
# 5 0.000347 -0.001970 0.002375 0.000020 0.027036 -0.000006
# 6 -0.000002 0.000005 0.000003 0.000834 -0.000006 0.030260
#
#
# Mechanical properties :
#
#
# Convention : Reuss Voigt Hill
#
# Bulk Modulus (GPa) = 44.23959 57.51426 50.87692
# Shear Modulus (GPa) = 32.50660 35.83882 34.17271
#
# Velocity S-wave (km/s) = 3.85113 4.04371 3.94859
# Velocity P-wave (km/s) = 6.32135 6.93132 6.63335
#
# Compressibility (1/GPa) = 0.02260419
#
# Stress axis : x y z
#
# Youngs Moduli (GPa) = 43.43143 101.16140 113.49118
#
# Poissons Ratio (x) = 0.28535 0.46226
# Poissons Ratio (y) = 0.12251 0.30242
# Poissons Ratio (z) = 0.17690 0.26957
#
# Static dielectric constant tensor:
#      x y z
#    x 3.876830 0.000010 -0.007400 
#    y 0.000010 4.060330 0.000010 
#    z -0.007400 0.000010 4.252420 
# 
# 
# High freq. dielectric constant tensor:
#      x y z
#    x 1.851600 0.000000 0.001780 
#    y 0.000000 1.872470 0.000000 
#    z 0.001780 0.000000 1.879920 
# 
# From -- ./inp_files/292422.got.cif
#   From: 2010.06.25/outbox.cif.g09.slc.cpg/sg12_147_cif.got.tgz:292422.got - 2010.06.28 00:19:55.
