data_PCOD8114047
_publ_section_title
;
Structure prediction by ZEFSAII (Michael W. Deem and Ramdas Pophale) SiO2 
 PCOD8114047
Probable space group: C 2/M
;
_chemical_formula_sum "Si O2"
_cell_formula_units_Z 64
_cell_length_a 14.985800
_cell_length_b 16.946331
_cell_length_c 20.155215
_cell_angle_alpha 90.000000
_cell_angle_beta 143.128237
_cell_angle_gamma 90.000000
_cell_volume 3071.235749
_symmetry_space_group_name_H-M "C 2/M"
_symmetry_group_IT_number 12
_symmetry_cell_setting 'monoclinic'
loop_
_space_group_symop_operation_xyz
x,y,z
-x,y,-z
-x,-y,-z
x,-y,z
1/2+x,1/2+y,z
1/2-x,1/2+y,-z
1/2-x,1/2-y,-z
1/2+x,1/2-y,z
loop_
_atom_site_type_symbol
_atom_site_label
_atom_site_fract_x
_atom_site_fract_y
_atom_site_fract_z
Si Si1 0.133034 0.685342 0.124449
Si Si2 0.438406 0.088897 0.615344
Si Si3 0.350597 0.589101 0.332744
Si Si4 0.550795 0.712141 0.196345
Si Si5 0.910998 0.907015 0.015436
Si Si6 0.654872 0.804354 0.822401
Si Si7 0.831061 0.137323 0.466957
Si Si8 0.650654 0.194978 0.550256
O O1 0.246850 0.615613 0.210452
O O2 0.063302 0.718998 0.150062
O O3 0.219756 0.752368 0.137126
O O4 0.000000 0.651155 0.000000
O O5 0.563408 0.151448 0.710533
O O6 0.309645 0.087717 0.593492
O O7 0.366504 0.115992 0.503223
O O8 0.503094 0.000000 0.646796
O O9 0.313224 0.500000 0.328780
O O10 0.325714 0.640449 0.383722
O O11 0.523073 0.597385 0.414587
O O12 0.486740 0.633609 0.124098
O O13 0.446283 0.748584 0.191647
O O14 0.709397 0.684298 0.318382
O O15 0.903270 0.000000 0.024069
O O16 0.743134 0.872568 0.914330
O O17 0.000000 0.888417 0.000000
O O18 0.823415 0.229510 0.482892
O O19 0.500000 0.210590 0.500000
#
# Coordination Sequence:
#
# PCOD8114047 Si02
#       8
#     8   8   8   8   8   8   8   8
#     4  12  24  43  67  95 127 171 226 270 324 391
#     4  12  26  40  62 100 135 163 208 270 326 381
#     4  11  22  38  66  95 128 170 208 265 323 376
#     4  12  23  44  69  98 129 172 225 270 321 395
#     4  11  24  44  71  99 131 173 223 281 333 379
#     4  12  23  43  72  92 129 176 224 265 322 397
#     4  11  20  42  66  93 128 169 218 254 311 395
#     4  12  24  42  69  94 130 173 216 262 323 393
#
# _framework density 20.838518000000001
#
# number of rings (size 3 to 8) (size 9 to 14) (size 15 to 20)
#    0.000    0.375    6.250    4.125    1.750    1.000 
#    0.000    1.250    0.000    0.000    0.000    0.000 
#    0.000    0.000    0.000    0.000    0.000    0.000 
#
# Total GULP energy -396840.990511 kJ/mol
# GULP energy per Si atom -12401.280953 kJ/mol
# Density = 2.079109 g / cm^3
# Si number density = 20.838518 Si / 1000 Ang^3
#
#
#
# Elastic Constant Matrix: (Units=GPa)
#
#
# Indices 1 2 3 4 5 6 
#
# 1 44.1400 21.8678 22.4489 0.0000 7.1060 0.0001
# 2 21.8678 106.7333 48.3779 -0.0001 -4.6126 -0.0001
# 3 22.4489 48.3779 176.6310 -0.0005 13.1077 -0.0004
# 4 0.0000 -0.0001 -0.0005 26.2135 -0.0002 -3.7110
# 5 7.1060 -4.6126 13.1077 -0.0002 28.5030 -0.0001
# 6 0.0001 -0.0001 -0.0004 -3.7110 -0.0001 16.1199
#
#
#
# Elastic Compliance Matrix: (Units=1/GPa)
#
#
# Indices 1 2 3 4 5 6 
#
# 1 0.027094 -0.005160 -0.001519 0.000000 -0.006891 0.000000
# 2 -0.005160 0.011967 -0.002962 0.000000 0.004585 0.000000
# 3 -0.001519 -0.002962 0.006909 0.000000 -0.003278 0.000000
# 4 0.000000 0.000000 0.000000 0.039434 0.000000 0.009078
# 5 -0.006891 0.004585 -0.003278 0.000000 0.039052 0.000000
# 6 0.000000 0.000000 0.000000 0.009078 0.000000 0.064125
#
#
# Mechanical properties :
#
#
# Convention : Reuss Voigt Hill
#
# Bulk Modulus (GPa) = 37.47094 56.98817 47.22955
# Shear Modulus (GPa) = 23.06719 29.82127 26.44423
#
# Velocity S-wave (km/s) = 3.33069 3.78705 3.56618
# Velocity P-wave (km/s) = 5.72817 6.82123 6.29846
#
# Compressibility (1/GPa) = 0.02668735
#
# Stress axis : x y z
#
# Youngs Moduli (GPa) = 36.90918 83.56160 144.73667
#
# Poissons Ratio (x) = 0.43122 0.21980
# Poissons Ratio (y) = 0.19047 0.42873
# Poissons Ratio (z) = 0.05605 0.24752
#
# Static dielectric constant tensor:
#      x y z
#    x 3.712520 0.000000 0.124110 
#    y 0.000000 3.674760 0.000000 
#    z 0.124110 0.000000 4.070260 
# 
# 
# High freq. dielectric constant tensor:
#      x y z
#    x 1.809280 0.000000 0.012310 
#    y 0.000000 1.812160 0.000000 
#    z 0.012310 0.000000 1.826460 
# 
# From -- ./inp_files/271754.got.cif
#   From: 2010.06.25/outbox.cif.g09.slc.cpg/sg12_136_cif.got.tgz:271754.got - 2010.06.28 00:19:55.
