data_PCOD8114811
_publ_section_title
;
Structure prediction by ZEFSAII (Michael W. Deem and Ramdas Pophale) SiO2 
 PCOD8114811
Probable space group: C 2/M
;
_chemical_formula_sum "Si O2"
_cell_formula_units_Z 48
_cell_length_a 14.755764
_cell_length_b 8.693023
_cell_length_c 29.579916
_cell_angle_alpha 90.000000
_cell_angle_beta 39.233644
_cell_angle_gamma 90.000000
_cell_volume 2399.822794
_symmetry_space_group_name_H-M "C 2/M"
_symmetry_group_IT_number 12
_symmetry_cell_setting 'monoclinic'
loop_
_space_group_symop_operation_xyz
x,y,z
-x,y,-z
-x,-y,-z
x,-y,z
1/2+x,1/2+y,z
1/2-x,1/2+y,-z
1/2-x,1/2-y,-z
1/2+x,1/2-y,z
loop_
_atom_site_type_symbol
_atom_site_label
_atom_site_fract_x
_atom_site_fract_y
_atom_site_fract_z
Si Si1 0.907370 0.819999 0.895640
Si Si2 0.059103 0.180050 0.357919
Si Si3 0.610361 0.681867 0.995203
Si Si4 0.353393 0.679581 0.267325
Si Si5 0.587215 0.180617 0.664144
Si Si6 0.614622 0.682128 0.490389
O O1 0.933990 0.763725 0.936987
O O2 0.048610 0.776510 0.813190
O O3 0.875609 0.000000 0.906702
O O4 0.771679 0.739454 0.924162
O O5 0.210692 0.218933 0.321619
O O6 0.044827 0.277413 0.317460
O O7 0.931723 0.231554 0.441269
O O8 0.051567 0.000000 0.350324
O O9 0.609534 0.500000 0.991804
O O10 0.500000 0.749652 0.000000
O O11 0.315319 0.500000 0.282315
O O12 0.436850 0.726675 0.280455
O O13 0.729051 0.243282 0.583599
O O14 0.591263 0.000000 0.672724
O O15 0.500000 0.754340 0.500000
O O16 0.612243 0.500000 0.487087
#
# Coordination Sequence:
#
# PCOD8114811 Si02
#       6
#     8   8   8   8   8   8
#     4   9  20  37  56  82 116 147 180 227 272 323
#     4  11  22  38  59  83 113 148 190 238 291 345
#     4   9  18  35  60  87 112 143 183 222 268 327
#     4  11  23  39  56  81 118 155 192 232 280 335
#     4  11  22  38  59  82 111 148 192 241 292 340
#     4   9  17  34  58  81 107 143 188 240 290 340
#
# _framework density 20.001477000000001
#
# number of rings (size 3 to 8) (size 9 to 14) (size 15 to 20)
#    0.000    2.000    1.667    2.000    0.000    3.000 
#    0.000    5.000    0.000    0.000    0.000    0.000 
#    0.000    0.000    0.000    0.000    0.000    0.000 
#
# Total GULP energy -297616.235111 kJ/mol
# GULP energy per Si atom -12400.676463 kJ/mol
# Density = 1.995595 g / cm^3
# Si number density = 20.001477 Si / 1000 Ang^3
#
#
#
# Elastic Constant Matrix: (Units=GPa)
#
#
# Indices 1 2 3 4 5 6 
#
# 1 111.5548 19.3470 21.5310 0.0007 17.1268 0.0027
# 2 19.3470 35.3035 34.0204 0.0017 1.4772 0.0042
# 3 21.5310 34.0204 91.9482 0.0002 12.0808 0.0008
# 4 0.0007 0.0017 0.0002 26.8122 -0.0002 -1.3219
# 5 17.1268 1.4772 12.0808 -0.0002 22.8906 0.0005
# 6 0.0027 0.0042 0.0008 -1.3219 0.0005 33.1829
#
#
#
# Elastic Compliance Matrix: (Units=1/GPa)
#
#
# Indices 1 2 3 4 5 6 
#
# 1 0.011252 -0.006757 0.000982 0.000000 -0.008501 0.000000
# 2 -0.006757 0.048909 -0.018013 -0.000003 0.011406 -0.000005
# 3 0.000982 -0.018013 0.018540 0.000001 -0.009357 0.000002
# 4 0.000000 -0.000003 0.000001 0.037370 0.000000 0.001489
# 5 -0.008501 0.011406 -0.009357 0.000000 0.054249 -0.000001
# 6 0.000000 -0.000005 0.000002 0.001489 -0.000001 0.030195
#
#
# Mechanical properties :
#
#
# Convention : Reuss Voigt Hill
#
# Bulk Modulus (GPa) = 32.12744 43.17817 37.65280
# Shear Modulus (GPa) = 19.34502 27.50434 23.42468
#
# Velocity S-wave (km/s) = 3.11332 3.71228 3.42592
# Velocity P-wave (km/s) = 5.38713 6.32527 5.87495
#
# Compressibility (1/GPa) = 0.03112604
#
# Stress axis : x y z
#
# Youngs Moduli (GPa) = 88.87626 20.44597 53.93839
#
# Poissons Ratio (x) = 0.13815 -0.05298
# Poissons Ratio (y) = 0.60053 0.97157
# Poissons Ratio (z) = -0.08729 0.36829
#
# Static dielectric constant tensor:
#      x y z
#    x 3.716060 0.000000 0.139310 
#    y 0.000000 3.327210 0.000000 
#    z 0.139310 0.000000 3.682270 
# 
# 
# High freq. dielectric constant tensor:
#      x y z
#    x 1.788710 0.000000 0.009080 
#    y 0.000000 1.762650 0.000000 
#    z 0.009080 0.000000 1.774610 
# 
# From -- ./inp_files/308276.got.cif
#   From: 2010.06.25/outbox.cif.g09.slc.cpg/sg12_155_cif.got.tgz:308276.got - 2010.06.28 00:19:55.
