data_PCOD8114310
_publ_section_title
;
Structure prediction by ZEFSAII (Michael W. Deem and Ramdas Pophale) SiO2 
 PCOD8114310
Probable space group: C 2/M
;
_chemical_formula_sum "Si O2"
_cell_formula_units_Z 60
_cell_length_a 24.923342
_cell_length_b 22.159688
_cell_length_c 11.864716
_cell_angle_alpha 90.000000
_cell_angle_beta 28.670662
_cell_angle_gamma 90.000000
_cell_volume 3143.867562
_symmetry_space_group_name_H-M "C 2/M"
_symmetry_group_IT_number 12
_symmetry_cell_setting 'monoclinic'
loop_
_space_group_symop_operation_xyz
x,y,z
-x,y,-z
-x,-y,-z
x,-y,z
1/2+x,1/2+y,z
1/2-x,1/2+y,-z
1/2-x,1/2-y,-z
1/2+x,1/2-y,z
loop_
_atom_site_type_symbol
_atom_site_label
_atom_site_fract_x
_atom_site_fract_y
_atom_site_fract_z
Si Si1 0.921353 0.272984 0.847407
Si Si2 0.263765 0.640139 0.896973
Si Si3 0.000000 0.803313 0.500000
Si Si4 0.297762 0.931887 0.200775
Si Si5 0.619012 0.069234 0.332749
Si Si6 0.539646 0.109346 0.710454
Si Si7 0.389085 0.276409 0.141801
Si Si8 0.301960 0.848059 0.396627
O O1 0.990169 0.238710 0.626170
O O2 0.003955 0.323952 0.740409
O O3 0.805377 0.300370 0.013605
O O4 0.898058 0.225264 0.990148
O O5 0.391040 0.655516 0.688985
O O6 0.262859 0.590732 0.800190
O O7 0.211490 0.612222 0.106902
O O8 0.257345 0.890149 0.378349
O O9 0.259753 0.000000 0.295164
O O10 0.431214 0.930681 0.936425
O O11 0.500000 0.087913 0.500000
O O12 0.614165 0.078900 0.475736
O O13 0.648317 0.000000 0.251039
O O14 0.611649 0.112501 0.690846
O O15 0.361723 0.209306 0.232741
O O16 0.297168 0.326212 0.340552
O O17 0.500000 0.298686 0.000000
#
# Coordination Sequence:
#
# PCOD8114310 Si02
#       8
#     8   8   4   8   8   8   8   8
#     4  11  22  38  61  90 126 160 198 250 308 371
#     4  11  24  42  60  91 123 160 209 251 312 377
#     4  12  28  38  63  90 127 166 202 256 310 370
#     4  11  22  40  64  89 120 158 205 263 314 358
#     4  11  21  38  62  86 118 162 203 254 311 361
#     4  11  21  36  61  92 124 153 199 254 308 366
#     4  11  22  38  61  88 125 164 197 236 301 371
#     4  11  23  37  60  92 124 161 202 246 300 370
#
# _framework density 19.084772999999998
#
# number of rings (size 3 to 8) (size 9 to 14) (size 15 to 20)
#    0.000    0.933    6.667    2.400    5.600    1.600 
#    0.000    1.333    0.000    0.400    0.000    0.000 
#    0.000    0.000    0.000    0.000    0.000    0.000 
#
# Total GULP energy -372161.912979 kJ/mol
# GULP energy per Si atom -12405.397099 kJ/mol
# Density = 1.904134 g / cm^3
# Si number density = 19.084773 Si / 1000 Ang^3
#
#
#
# Elastic Constant Matrix: (Units=GPa)
#
#
# Indices 1 2 3 4 5 6 
#
# 1 58.3684 14.7338 33.2159 0.0001 15.0256 -0.0001
# 2 14.7338 66.8441 36.9717 0.0000 5.2110 0.0000
# 3 33.2159 36.9717 99.4984 0.0001 10.8871 -0.0001
# 4 0.0001 0.0000 0.0001 26.4907 -0.0001 12.0273
# 5 15.0256 5.2110 10.8871 -0.0001 40.5092 0.0000
# 6 -0.0001 0.0000 -0.0001 12.0273 0.0000 20.2014
#
#
#
# Elastic Compliance Matrix: (Units=1/GPa)
#
#
# Indices 1 2 3 4 5 6 
#
# 1 0.022779 -0.000882 -0.006558 0.000000 -0.006573 0.000000
# 2 -0.000882 0.018877 -0.006687 0.000000 -0.000304 0.000000
# 3 -0.006558 -0.006687 0.014799 0.000000 -0.000685 0.000000
# 4 0.000000 0.000000 0.000000 0.051733 0.000000 -0.030800
# 5 -0.006573 -0.000304 -0.000685 0.000000 0.027347 0.000000
# 6 0.000000 0.000000 0.000000 -0.030800 0.000000 0.067839
#
#
# Mechanical properties :
#
#
# Convention : Reuss Voigt Hill
#
# Bulk Modulus (GPa) = 35.45686 43.83931 39.64808
# Shear Modulus (GPa) = 20.74459 26.75956 23.75208
#
# Velocity S-wave (km/s) = 3.30050 3.74858 3.53165
# Velocity P-wave (km/s) = 5.75703 6.46193 6.11963
#
# Compressibility (1/GPa) = 0.02820329
#
# Stress axis : x y z
#
# Youngs Moduli (GPa) = 43.90012 52.97566 67.57167
#
# Poissons Ratio (x) = 0.04670 0.44311
# Poissons Ratio (y) = 0.03870 0.45183
# Poissons Ratio (z) = 0.28788 0.35423
#
# Static dielectric constant tensor:
#      x y z
#    x 3.634850 0.000000 0.247260 
#    y 0.000000 3.355750 0.000000 
#    z 0.247260 0.000000 3.470620 
# 
# 
# High freq. dielectric constant tensor:
#      x y z
#    x 1.748790 0.000000 0.021390 
#    y 0.000000 1.727940 0.000000 
#    z 0.021390 0.000000 1.731300 
# 
# From -- ./inp_files/178007.got.cif
#   From: 2010.06.25/outbox.cif.g09.slc.cpg/sg12_90_cif.got.tgz:178007.got - 2010.06.28 00:19:55.
