data_PCOD8114855
_publ_section_title
;
Structure prediction by ZEFSAII (Michael W. Deem and Ramdas Pophale) SiO2 
 PCOD8114855
Probable space group: C 2/M
;
_chemical_formula_sum "Si O2"
_cell_formula_units_Z 48
_cell_length_a 21.506440
_cell_length_b 15.336377
_cell_length_c 12.265326
_cell_angle_alpha 90.000000
_cell_angle_beta 36.164919
_cell_angle_gamma 90.000000
_cell_volume 2387.286027
_symmetry_space_group_name_H-M "C 2/M"
_symmetry_group_IT_number 12
_symmetry_cell_setting 'monoclinic'
loop_
_space_group_symop_operation_xyz
x,y,z
-x,y,-z
-x,-y,-z
x,-y,z
1/2+x,1/2+y,z
1/2-x,1/2+y,-z
1/2-x,1/2-y,-z
1/2+x,1/2-y,z
loop_
_atom_site_type_symbol
_atom_site_label
_atom_site_fract_x
_atom_site_fract_y
_atom_site_fract_z
Si Si1 0.394456 0.603680 0.985281
Si Si2 0.729632 0.155972 0.400619
Si Si3 0.731408 0.350048 0.043863
Si Si4 0.887270 0.500000 0.518197
Si Si5 0.370160 0.000000 0.782496
Si Si6 0.881021 0.165850 0.381608
Si Si7 0.102660 0.098648 0.409625
O O1 0.408879 0.500000 0.994433
O O2 0.357154 0.612559 0.912980
O O3 0.504596 0.658301 0.839501
O O4 0.311379 0.652477 0.183206
O O5 0.641364 0.083170 0.512286
O O6 0.793647 0.135142 0.419671
O O7 0.657627 0.242019 0.514062
O O8 0.700184 0.353960 0.214737
O O9 0.750000 0.250000 0.000000
O O10 0.834205 0.410095 0.888420
O O11 0.824824 0.500000 0.722280
O O12 0.006613 0.500000 0.382702
O O13 0.888764 0.101215 0.472684
O O14 0.000000 0.143562 0.500000
O O15 0.106065 0.000000 0.365109
#
# Coordination Sequence:
#
# PCOD8114855 Si02
#       7
#     8   8   8   4   4   8   8
#     4  12  22  43  72 100 127 172 227 279 329 386
#     4  11  24  46  64  99 132 173 220 273 324 400
#     4  12  23  40  64  92 134 168 213 272 333 396
#     4  11  24  42  69  86 136 170 224 271 328 386
#     4  11  24  44  63  99 124 173 224 275 324 401
#     4  11  26  40  67 100 135 169 218 274 333 388
#     4  11  22  38  62  94 130 163 204 266 334 391
#
# _framework density 20.106513
#
# number of rings (size 3 to 8) (size 9 to 14) (size 15 to 20)
#    0.000    0.667    5.833    2.000    4.667    0.667 
#    0.000    0.000    0.000    1.000    0.000    0.000 
#    0.000    0.000    0.000    0.000    0.000    0.000 
#
# Total GULP energy -297435.201230 kJ/mol
# GULP energy per Si atom -12393.133385 kJ/mol
# Density = 2.006075 g / cm^3
# Si number density = 20.106513 Si / 1000 Ang^3
#
#
#
# Elastic Constant Matrix: (Units=GPa)
#
#
# Indices 1 2 3 4 5 6 
#
# 1 91.7614 24.9007 27.2491 0.0000 1.6718 0.0000
# 2 24.9007 126.8134 60.4049 0.0000 -9.4967 0.0000
# 3 27.2491 60.4049 98.7764 0.0000 -1.1690 0.0000
# 4 0.0000 0.0000 0.0000 26.8358 0.0000 -0.2135
# 5 1.6718 -9.4967 -1.1690 0.0000 30.8359 0.0000
# 6 0.0000 0.0000 0.0000 -0.2135 0.0000 29.2480
#
#
#
# Elastic Compliance Matrix: (Units=1/GPa)
#
#
# Indices 1 2 3 4 5 6 
#
# 1 0.012015 -0.001211 -0.002587 0.000000 -0.001122 0.000000
# 2 -0.001211 0.011567 -0.006700 0.000000 0.003374 0.000000
# 3 -0.002587 -0.006700 0.014919 0.000000 -0.001358 0.000000
# 4 0.000000 0.000000 0.000000 0.037266 0.000000 0.000272
# 5 -0.001122 0.003374 -0.001358 0.000000 0.033478 0.000000
# 6 0.000000 0.000000 0.000000 0.000272 0.000000 0.034192
#
#
# Mechanical properties :
#
#
# Convention : Reuss Voigt Hill
#
# Bulk Modulus (GPa) = 57.12616 60.27340 58.69978
# Shear Modulus (GPa) = 29.36528 31.03703 30.20115
#
# Velocity S-wave (km/s) = 3.82578 3.93317 3.87984
# Velocity P-wave (km/s) = 6.92740 7.11818 7.02344
#
# Compressibility (1/GPa) = 0.01750512
#
# Stress axis : x y z
#
# Youngs Moduli (GPa) = 83.22786 86.45010 67.02980
#
# Poissons Ratio (x) = 0.10468 0.17343
# Poissons Ratio (y) = 0.10078 0.44909
# Poissons Ratio (z) = 0.21534 0.57920
#
# Static dielectric constant tensor:
#      x y z
#    x 3.683770 0.000000 0.056260 
#    y 0.000000 3.607790 0.000000 
#    z 0.056260 0.000000 3.883900 
# 
# 
# High freq. dielectric constant tensor:
#      x y z
#    x 1.787110 0.000000 0.002220 
#    y 0.000000 1.781940 0.000000 
#    z 0.002220 0.000000 1.794130 
# 
# From -- ./inp_files/167580.got.cif
#   From: 2010.06.25/outbox.cif.g09.slc.cpg/sg12_84_cif.got.tgz:167580.got - 2010.06.28 00:19:55.
