data_PCOD8114741
_publ_section_title
;
Structure prediction by ZEFSAII (Michael W. Deem and Ramdas Pophale) SiO2 
 PCOD8114741
Probable space group: C 2/M
;
_chemical_formula_sum "Si O2"
_cell_formula_units_Z 64
_cell_length_a 14.603144
_cell_length_b 8.809697
_cell_length_c 27.361048
_cell_angle_alpha 90.000000
_cell_angle_beta 72.994465
_cell_angle_gamma 90.000000
_cell_volume 3366.073183
_symmetry_space_group_name_H-M "C 2/M"
_symmetry_group_IT_number 12
_symmetry_cell_setting 'monoclinic'
loop_
_space_group_symop_operation_xyz
x,y,z
-x,y,-z
-x,-y,-z
x,-y,z
1/2+x,1/2+y,z
1/2-x,1/2+y,-z
1/2-x,1/2-y,-z
1/2+x,1/2-y,z
loop_
_atom_site_type_symbol
_atom_site_label
_atom_site_fract_x
_atom_site_fract_y
_atom_site_fract_z
Si Si1 0.865484 0.319209 0.786209
Si Si2 0.827245 0.179159 0.134807
Si Si3 0.408645 0.822936 0.673230
Si Si4 0.598677 0.822030 0.594480
Si Si5 0.972712 0.320682 0.864574
Si Si6 0.111787 0.170949 0.490795
Si Si7 0.279378 0.178836 0.944735
Si Si8 0.730093 0.175941 0.389768
O O1 0.862969 0.500000 0.785063
O O2 0.758266 0.262984 0.816358
O O3 0.895048 0.249297 0.729004
O O4 0.943430 0.266482 0.814387
O O5 0.797585 0.228542 0.084496
O O6 0.927586 0.250298 0.134468
O O7 0.838383 0.000000 0.136598
O O8 0.499189 0.753078 0.630192
O O9 0.314311 0.792392 0.656391
O O10 0.429466 0.000000 0.676402
O O11 0.634718 0.736764 0.540468
O O12 0.677442 0.783640 0.623042
O O13 0.591017 0.000000 0.584786
O O14 0.983947 0.500000 0.864325
O O15 0.886745 0.267517 0.913780
O O16 0.155599 0.280394 0.443527
O O17 0.000000 0.169323 0.500000
O O18 0.154371 0.000000 0.480264
O O19 0.278422 0.000000 0.950117
O O20 0.250000 0.250000 0.000000
O O21 0.757638 0.000000 0.391728
#
# Coordination Sequence:
#
# PCOD8114741 Si02
#       8
#     8   8   8   8   8   8   8   8
#     4   8  16  34  55  75 102 138 174 212 258 312
#     4   9  18  33  54  77 104 137 177 217 259 307
#     4   9  19  35  56  78 104 138 173 209 259 316
#     4  11  22  37  56  80 107 137 173 211 256 312
#     4   9  18  33  54  77 104 137 177 217 259 307
#     4  11  22  37  58  80 104 136 172 213 259 307
#     4   9  19  34  50  74 107 144 177 214 259 307
#     4  11  22  37  56  80 107 137 173 211 256 312
#
# _framework density 19.013254
#
# number of rings (size 3 to 8) (size 9 to 14) (size 15 to 20)
#    0.000    2.375    1.250    3.000    0.000    3.000 
#    0.000    4.375    0.000    4.500    0.000    0.000 
#    0.000    0.000    0.000    0.000    0.000    0.000 
#
# Total GULP energy -396709.671312 kJ/mol
# GULP energy per Si atom -12397.177229 kJ/mol
# Density = 1.896998 g / cm^3
# Si number density = 19.013254 Si / 1000 Ang^3
#
#
#
# Elastic Constant Matrix: (Units=GPa)
#
#
# Indices 1 2 3 4 5 6 
#
# 1 124.3183 25.8601 44.7753 0.0000 8.5471 0.0000
# 2 25.8601 36.0371 22.0368 0.0000 4.3630 0.0000
# 3 44.7753 22.0368 132.2547 0.0000 14.3796 0.0000
# 4 0.0000 0.0000 0.0000 8.6938 0.0000 4.5857
# 5 8.5471 4.3630 14.3796 0.0000 20.7543 0.0000
# 6 0.0000 0.0000 0.0000 4.5857 0.0000 32.8955
#
#
#
# Elastic Compliance Matrix: (Units=1/GPa)
#
#
# Indices 1 2 3 4 5 6 
#
# 1 0.010167 -0.005697 -0.002344 0.000000 -0.001365 0.000000
# 2 -0.005697 0.034283 -0.003520 0.000000 -0.002422 0.000000
# 3 -0.002344 -0.003520 0.009469 0.000000 -0.004855 0.000000
# 4 0.000000 0.000000 0.000000 0.124153 0.000000 -0.017307
# 5 -0.001365 -0.002422 -0.004855 0.000000 0.052618 0.000000
# 6 0.000000 0.000000 0.000000 -0.017307 0.000000 0.032812
#
#
# Mechanical properties :
#
#
# Convention : Reuss Voigt Hill
#
# Bulk Modulus (GPa) = 32.47157 53.10605 42.78881
# Shear Modulus (GPa) = 16.84113 25.79790 21.31952
#
# Velocity S-wave (km/s) = 2.97940 3.68752 3.35221
# Velocity P-wave (km/s) = 5.38063 6.79133 6.12672
#
# Compressibility (1/GPa) = 0.03079617
#
# Stress axis : x y z
#
# Youngs Moduli (GPa) = 98.35563 29.16873 105.60377
#
# Poissons Ratio (x) = 0.16618 0.24758
# Poissons Ratio (y) = 0.56034 0.37176
# Poissons Ratio (z) = 0.23059 0.10268
#
# Static dielectric constant tensor:
#      x y z
#    x 3.676760 0.000000 0.100680 
#    y 0.000000 3.219030 0.000000 
#    z 0.100680 0.000000 2.275780 
# 
# 
# High freq. dielectric constant tensor:
#      x y z
#    x 1.751000 0.000000 0.003490 
#    y 0.000000 1.712160 0.000000 
#    z 0.003490 0.000000 1.738630 
# 
# From -- ./inp_files/359705.got.cif
#   From: 2010.06.25/outbox.cif.g09.slc.cpg/sg12_180_cif.got.tgz:359705.got - 2010.06.28 00:19:55.
