data_PCOD8114699
_publ_section_title
;
Structure prediction by ZEFSAII (Michael W. Deem and Ramdas Pophale) SiO2 
 PCOD8114699
Probable space group: C 2/M
;
_chemical_formula_sum "Si O2"
_cell_formula_units_Z 56
_cell_length_a 29.206816
_cell_length_b 8.504003
_cell_length_c 21.614296
_cell_angle_alpha 90.000000
_cell_angle_beta 31.361659
_cell_angle_gamma 90.000000
_cell_volume 2793.945923
_symmetry_space_group_name_H-M "C 2/M"
_symmetry_group_IT_number 12
_symmetry_cell_setting 'monoclinic'
loop_
_space_group_symop_operation_xyz
x,y,z
-x,y,-z
-x,-y,-z
x,-y,z
1/2+x,1/2+y,z
1/2-x,1/2+y,-z
1/2-x,1/2-y,-z
1/2+x,1/2-y,z
loop_
_atom_site_type_symbol
_atom_site_label
_atom_site_fract_x
_atom_site_fract_y
_atom_site_fract_z
Si Si1 0.257461 0.684393 0.899041
Si Si2 0.085662 0.187169 0.631589
Si Si3 0.545488 0.680074 0.012870
Si Si4 0.232338 0.319169 0.791514
Si Si5 0.887509 0.814871 0.852929
Si Si6 0.272224 0.816884 0.618843
Si Si7 0.609383 0.815509 0.733931
O O1 0.244481 0.500000 0.923864
O O2 0.278963 0.724243 0.802909
O O3 0.336992 0.749226 0.849997
O O4 0.165527 0.764740 0.024682
O O5 0.137449 0.249534 0.512305
O O6 0.132106 0.259538 0.638543
O O7 0.986184 0.252993 0.740977
O O8 0.090768 0.000000 0.628610
O O9 0.575412 0.500000 0.987157
O O10 0.478303 0.724593 0.144552
O O11 0.500000 0.706757 0.000000
O O12 0.628742 0.793083 0.919523
O O13 0.248966 0.500000 0.754654
O O14 0.273660 0.209840 0.690935
O O15 0.893955 0.000000 0.842957
O O16 0.189838 0.724986 0.685693
O O17 0.261976 0.000000 0.615950
O O18 0.592261 0.000000 0.756202
#
# Coordination Sequence:
#
# PCOD8114699 Si02
#       7
#     8   8   8   8   8   8   8
#     4   9  19  36  60  90 119 147 183 230 284 339
#     4  11  23  40  61  84 113 151 195 237 284 338
#     4  11  22  36  56  83 117 152 187 232 281 334
#     4  11  22  37  59  86 117 153 192 235 287 341
#     4   9  19  37  61  88 117 148 185 231 282 337
#     4  12  25  41  58  80 114 153 195 239 284 339
#     4  12  24  39  60  85 115 151 193 238 287 339
#
# _framework density 20.043337999999999
#
# number of rings (size 3 to 8) (size 9 to 14) (size 15 to 20)
#    0.000    1.286    1.429    5.143    0.000    5.143 
#    0.000    0.714    0.000    4.286    0.000    0.000 
#    0.000    0.000    0.000    0.000    0.000    0.000 
#
# Total GULP energy -347348.332951 kJ/mol
# GULP energy per Si atom -12405.297605 kJ/mol
# Density = 1.999772 g / cm^3
# Si number density = 20.043338 Si / 1000 Ang^3
#
#
#
# Elastic Constant Matrix: (Units=GPa)
#
#
# Indices 1 2 3 4 5 6 
#
# 1 86.7346 26.3904 39.9717 0.0008 17.0103 0.0000
# 2 26.3904 50.7609 12.0556 -0.0028 1.8136 0.0056
# 3 39.9717 12.0556 101.9903 0.0030 8.6653 0.0053
# 4 0.0008 -0.0028 0.0030 33.6149 -0.0004 5.1559
# 5 17.0103 1.8136 8.6653 -0.0004 21.7314 -0.0021
# 6 0.0000 0.0056 0.0053 5.1559 -0.0021 26.0780
#
#
#
# Elastic Compliance Matrix: (Units=1/GPa)
#
#
# Indices 1 2 3 4 5 6 
#
# 1 0.018809 -0.008070 -0.005407 -0.000001 -0.011893 0.000002
# 2 -0.008070 0.023744 -0.000013 0.000003 0.004340 -0.000005
# 3 -0.005407 -0.000013 0.011971 -0.000001 -0.000540 -0.000002
# 4 -0.000001 0.000003 -0.000001 0.030679 0.000001 -0.006066
# 5 -0.011893 0.004340 -0.000540 0.000001 0.055179 0.000003
# 6 0.000002 -0.000005 -0.000002 -0.006066 0.000003 0.039546
#
#
# Mechanical properties :
#
#
# Convention : Reuss Voigt Hill
#
# Bulk Modulus (GPa) = 36.30436 44.03568 40.17002
# Shear Modulus (GPa) = 23.13862 27.02273 25.08067
#
# Velocity S-wave (km/s) = 3.40138 3.67579 3.54124
# Velocity P-wave (km/s) = 5.79466 6.32718 6.06676
#
# Compressibility (1/GPa) = 0.02754490
#
# Stress axis : x y z
#
# Youngs Moduli (GPa) = 53.16538 42.11667 83.53215
#
# Poissons Ratio (x) = 0.33987 0.45168
# Poissons Ratio (y) = 0.42903 0.00106
# Poissons Ratio (z) = 0.28748 0.00053
#
# Static dielectric constant tensor:
#      x y z
#    x 3.895900 -0.000010 0.040510 
#    y -0.000010 3.570890 0.000030 
#    z 0.040510 0.000030 3.669220 
# 
# 
# High freq. dielectric constant tensor:
#      x y z
#    x 1.784690 0.000000 0.011100 
#    y 0.000000 1.784830 0.000000 
#    z 0.011100 0.000000 1.776510 
# 
# From -- ./inp_files/329528.got.cif
#   From: 2010.06.25/outbox.cif.g09.slc.cpg/sg12_165_cif.got.tgz:329528.got - 2010.06.28 00:19:55.
