data_PCOD8114778
_publ_section_title
;
Structure prediction by ZEFSAII (Michael W. Deem and Ramdas Pophale) SiO2 
 PCOD8114778
Probable space group: C 2/M
;
_chemical_formula_sum "Si O2"
_cell_formula_units_Z 48
_cell_length_a 24.737394
_cell_length_b 8.442291
_cell_length_c 20.185571
_cell_angle_alpha 90.000000
_cell_angle_beta 144.651817
_cell_angle_gamma 90.000000
_cell_volume 2438.886060
_symmetry_space_group_name_H-M "C 2/M"
_symmetry_group_IT_number 12
_symmetry_cell_setting 'monoclinic'
loop_
_space_group_symop_operation_xyz
x,y,z
-x,y,-z
-x,-y,-z
x,-y,z
1/2+x,1/2+y,z
1/2-x,1/2+y,-z
1/2-x,1/2-y,-z
1/2+x,1/2-y,z
loop_
_atom_site_type_symbol
_atom_site_label
_atom_site_fract_x
_atom_site_fract_y
_atom_site_fract_z
Si Si1 0.325030 0.183085 0.393224
Si Si2 0.498238 0.182943 0.772827
Si Si3 0.000276 0.816215 0.367727
Si Si4 0.807371 0.813961 0.619091
Si Si5 0.807578 0.184310 0.996080
Si Si6 0.195866 0.815124 0.767124
O O1 0.418294 0.286066 0.497735
O O2 0.246353 0.229787 0.367525
O O3 0.284479 0.220558 0.280502
O O4 0.352008 0.000000 0.426505
O O5 0.477403 0.214361 0.674893
O O6 0.407054 0.228092 0.723614
O O7 0.523118 0.000000 0.808346
O O8 0.583148 0.289759 0.883015
O O9 0.902548 0.759375 0.300597
O O10 0.995846 0.000000 0.343668
O O11 0.750000 0.750000 0.500000
O O12 0.822734 0.000000 0.625665
O O13 0.778173 0.274682 0.900227
O O14 0.785835 0.000000 0.966523
O O15 0.750000 0.250000 0.000000
O O16 0.195297 0.000000 0.750651
#
# Coordination Sequence:
#
# PCOD8114778 Si02
#       6
#     8   8   8   8   8   8
#     4  11  24  40  61  91 127 166 208 256 312 371
#     4  12  24  39  63  94 125 161 208 258 309 364
#     4  11  22  37  61  91 127 164 204 254 310 369
#     4  11  23  40  63  91 125 164 209 256 310 367
#     4  12  24  41  65  92 125 163 206 256 307 367
#     4  11  24  41  62  91 127 167 208 253 310 371
#
# _framework density 19.681115999999999
#
# number of rings (size 3 to 8) (size 9 to 14) (size 15 to 20)
#    0.000    0.667    3.333    5.500    0.000    6.000 
#    0.000    0.833    0.000    5.000    0.000    0.000 
#    0.000    0.000    0.000    0.000    0.000    0.000 
#
# Total GULP energy -297825.539607 kJ/mol
# GULP energy per Si atom -12409.397484 kJ/mol
# Density = 1.963632 g / cm^3
# Si number density = 19.681116 Si / 1000 Ang^3
#
#
#
# Elastic Constant Matrix: (Units=GPa)
#
#
# Indices 1 2 3 4 5 6 
#
# 1 107.6771 34.0779 46.1470 0.0000 -3.3220 0.0000
# 2 34.0779 73.2230 5.1867 0.0000 4.1385 0.0000
# 3 46.1470 5.1867 110.5746 0.0000 -0.0336 0.0000
# 4 0.0000 0.0000 0.0000 36.5853 0.0000 -1.0390
# 5 -3.3220 4.1385 -0.0336 0.0000 36.7549 0.0000
# 6 0.0000 0.0000 0.0000 -1.0390 0.0000 31.3607
#
#
#
# Elastic Compliance Matrix: (Units=1/GPa)
#
#
# Indices 1 2 3 4 5 6 
#
# 1 0.013560 -0.006038 -0.005375 0.000000 0.001901 0.000000
# 2 -0.006038 0.016479 0.001746 0.000000 -0.002400 0.000000
# 3 -0.005375 0.001746 0.011205 0.000000 -0.000672 0.000000
# 4 0.000000 0.000000 0.000000 0.027359 0.000000 0.000906
# 5 0.001901 -0.002400 -0.000672 0.000000 0.027649 0.000000
# 6 0.000000 0.000000 0.000000 0.000906 0.000000 0.031917
#
#
# Mechanical properties :
#
#
# Convention : Reuss Voigt Hill
#
# Bulk Modulus (GPa) = 45.64138 51.36645 48.50391
# Shear Modulus (GPa) = 32.29853 34.67772 33.48812
#
# Velocity S-wave (km/s) = 4.05543 4.20215 4.12944
# Velocity P-wave (km/s) = 6.72083 7.04983 6.88729
#
# Compressibility (1/GPa) = 0.02190994
#
# Stress axis : x y z
#
# Youngs Moduli (GPa) = 73.74539 60.68426 89.24650
#
# Poissons Ratio (x) = 0.36638 0.47974
# Poissons Ratio (y) = 0.44524 -0.15582
# Poissons Ratio (z) = 0.39641 -0.10596
#
# Static dielectric constant tensor:
#      x y z
#    x 3.669140 0.000000 0.091080 
#    y 0.000000 3.778490 0.000000 
#    z 0.091080 0.000000 3.554810 
# 
# 
# High freq. dielectric constant tensor:
#      x y z
#    x 1.764970 0.000000 0.002650 
#    y 0.000000 1.781260 0.000000 
#    z 0.002650 0.000000 1.767740 
# 
# From -- ./inp_files/327336.got.cif
#   From: 2010.06.25/outbox.cif.g09.slc.cpg/sg12_164_cif.got.tgz:327336.got - 2010.06.28 00:19:55.
