data_PCOD8114093
_publ_section_title
;
Structure prediction by ZEFSAII (Michael W. Deem and Ramdas Pophale) SiO2 
 PCOD8114093
Probable space group: C 2/M
;
_chemical_formula_sum "Si O2"
_cell_formula_units_Z 40
_cell_length_a 21.335974
_cell_length_b 16.923834
_cell_length_c 9.382828
_cell_angle_alpha 90.000000
_cell_angle_beta 145.192502
_cell_angle_gamma 90.000000
_cell_volume 1933.948676
_symmetry_space_group_name_H-M "C 2/M"
_symmetry_group_IT_number 12
_symmetry_cell_setting 'monoclinic'
loop_
_space_group_symop_operation_xyz
x,y,z
-x,y,-z
-x,-y,-z
x,-y,z
1/2+x,1/2+y,z
1/2-x,1/2+y,-z
1/2-x,1/2-y,-z
1/2+x,1/2-y,z
loop_
_atom_site_type_symbol
_atom_site_label
_atom_site_fract_x
_atom_site_fract_y
_atom_site_fract_z
Si Si1 0.332023 0.407724 0.927391
Si Si2 0.747708 0.838553 0.050914
Si Si3 0.554364 0.587821 0.448677
Si Si4 0.847927 0.406295 0.614915
Si Si5 0.918057 0.593613 0.053115
O O1 0.344124 0.500000 0.927082
O O2 0.261246 0.370393 0.664994
O O3 0.266715 0.395005 0.952320
O O4 0.457913 0.374562 0.167253
O O5 0.841240 0.854158 0.346556
O O6 0.630980 0.858893 0.904279
O O7 0.750000 0.750000 0.000000
O O8 0.500000 0.578015 0.500000
O O9 0.592062 0.500000 0.466040
O O10 0.846563 0.500000 0.603486
O O11 0.851843 0.380716 0.786771
O O12 0.956217 0.378656 0.730922
O O13 0.907906 0.500000 0.060989
#
# Coordination Sequence:
#
# PCOD8114093 Si02
#       5
#     8   8   8   8   8
#     4   9  17  34  56  77 101 136 183 225 264 318
#     4  11  21  32  47  79 109 143 178 219 267 325
#     4   8  15  31  53  71 100 140 176 216 263 311
#     4   8  16  32  56  82 104 135 178 224 271 319
#     4   9  17  33  55  79 110 141 175 220 272 324
#
# _framework density 20.683073
#
# number of rings (size 3 to 8) (size 9 to 14) (size 15 to 20)
#    0.000    3.000    0.000    4.200    0.000    0.800 
#   10.800    5.000    0.000    4.800    0.000    0.000 
#    0.000    0.000    0.000    0.400    0.000    0.000 
#
# Total GULP energy -247787.919910 kJ/mol
# GULP energy per Si atom -12389.395996 kJ/mol
# Density = 2.063600 g / cm^3
# Si number density = 20.683073 Si / 1000 Ang^3
#
#
#
# Elastic Constant Matrix: (Units=GPa)
#
#
# Indices 1 2 3 4 5 6 
#
# 1 48.8764 26.5778 -3.1046 0.0000 4.3164 0.0000
# 2 26.5778 53.4066 32.7230 0.0000 9.5093 0.0000
# 3 -3.1046 32.7230 144.8345 0.0000 5.3526 0.0000
# 4 0.0000 0.0000 0.0000 4.6851 0.0000 2.4901
# 5 4.3164 9.5093 5.3526 0.0000 18.3758 0.0000
# 6 0.0000 0.0000 0.0000 2.4901 0.0000 15.5204
#
#
#
# Elastic Compliance Matrix: (Units=1/GPa)
#
#
# Indices 1 2 3 4 5 6 
#
# 1 0.030653 -0.018335 0.004766 0.000000 0.000899 0.000000
# 2 -0.018335 0.034651 -0.007802 0.000000 -0.011352 0.000000
# 3 0.004766 -0.007802 0.008756 0.000000 0.000368 0.000000
# 4 0.000000 0.000000 0.000000 0.233340 0.000000 -0.037437
# 5 0.000899 -0.011352 0.000368 0.000000 0.059975 0.000000
# 6 0.000000 0.000000 0.000000 -0.037437 0.000000 0.070438
#
#
# Mechanical properties :
#
#
# Convention : Reuss Voigt Hill
#
# Bulk Modulus (GPa) = 31.93100 39.94555 35.93828
# Shear Modulus (GPa) = 10.18342 20.44434 15.31388
#
# Velocity S-wave (km/s) = 2.22132 3.14739 2.72399
# Velocity P-wave (km/s) = 4.69582 5.70641 5.22560
#
# Compressibility (1/GPa) = 0.03131753
#
# Stress axis : x y z
#
# Youngs Moduli (GPa) = 32.62288 28.85956 114.20995
#
# Poissons Ratio (x) = 0.52915 -0.54437
# Poissons Ratio (y) = 0.59815 0.89109
# Poissons Ratio (z) = -0.15549 0.22517
#
# Static dielectric constant tensor:
#      x y z
#    x 3.605560 0.000000 0.322560 
#    y 0.000000 3.201650 0.000000 
#    z 0.322560 0.000000 5.101150 
# 
# 
# High freq. dielectric constant tensor:
#      x y z
#    x 1.784140 0.000000 0.011040 
#    y 0.000000 1.756450 0.000000 
#    z 0.011040 0.000000 1.824510 
# 
# From -- ./inp_files/88239.got.cif
#   From: 2010.06.25/outbox.cif.g09.slc.cpg/sg12_45_cif.got.tgz:88239.got - 2010.06.28 00:19:55.
