data_PCOD8114566
_publ_section_title
;
Structure prediction by ZEFSAII (Michael W. Deem and Ramdas Pophale) SiO2 
 PCOD8114566
Probable space group: C 2/M
;
_chemical_formula_sum "Si O2"
_cell_formula_units_Z 48
_cell_length_a 12.539521
_cell_length_b 15.214362
_cell_length_c 26.238174
_cell_angle_alpha 90.000000
_cell_angle_beta 153.375079
_cell_angle_gamma 90.000000
_cell_volume 2243.312235
_symmetry_space_group_name_H-M "C 2/M"
_symmetry_group_IT_number 12
_symmetry_cell_setting 'monoclinic'
loop_
_space_group_symop_operation_xyz
x,y,z
-x,y,-z
-x,-y,-z
x,-y,z
1/2+x,1/2+y,z
1/2-x,1/2+y,-z
1/2-x,1/2-y,-z
1/2+x,1/2-y,z
loop_
_atom_site_type_symbol
_atom_site_label
_atom_site_fract_x
_atom_site_fract_y
_atom_site_fract_z
Si Si1 0.022669 0.597620 0.702350
Si Si2 0.110942 0.167000 0.460180
Si Si3 0.489112 0.835129 0.055303
Si Si4 0.020496 0.176565 0.140985
Si Si5 0.480344 0.401683 0.296782
Si Si6 0.143487 0.256297 0.299293
O O1 0.025496 0.500000 0.727291
O O2 0.788818 0.605402 0.567504
O O3 0.026202 0.669959 0.748370
O O4 0.259386 0.609576 0.768956
O O5 0.250000 0.250000 0.500000
O O6 0.004896 0.113832 0.367497
O O7 0.906808 0.203182 0.410394
O O8 0.518562 0.738149 0.090864
O O9 0.700527 0.897502 0.164442
O O10 0.500000 0.825142 0.000000
O O11 0.231497 0.874861 0.961897
O O12 0.049673 0.237547 0.203052
O O13 0.570749 0.500000 0.322094
O O14 0.634680 0.331784 0.330245
#
# Coordination Sequence:
#
# PCOD8114566 Si02
#       6
#     8   8   8   8   8   8
#     4  12  26  43  69 102 133 176 228 275 332 399
#     4  12  23  45  69  93 137 181 221 273 334 395
#     4  11  21  42  72  98 131 179 227 273 336 403
#     4  11  22  42  73  97 135 179 222 275 340 395
#     4  12  26  43  67 105 136 174 226 277 335 398
#     4  12  22  45  68  96 134 178 217 274 337 399
#
# _framework density 21.396930999999999
#
# number of rings (size 3 to 8) (size 9 to 14) (size 15 to 20)
#    0.000    0.333    8.333    1.000    0.000    3.667 
#    0.000    0.833    0.000    4.500    0.000    0.000 
#    0.000    0.000    0.000    0.000    0.000    0.000 
#
# Total GULP energy -297600.606072 kJ/mol
# GULP energy per Si atom -12400.025253 kJ/mol
# Density = 2.134823 g / cm^3
# Si number density = 21.396931 Si / 1000 Ang^3
#
#
#
# Elastic Constant Matrix: (Units=GPa)
#
#
# Indices 1 2 3 4 5 6 
#
# 1 101.9719 53.0893 51.1818 -0.0001 15.1425 0.0001
# 2 53.0893 140.2529 28.0702 0.0003 8.6963 0.0000
# 3 51.1818 28.0702 122.9755 0.0014 14.9225 0.0005
# 4 -0.0001 0.0003 0.0014 19.9654 -0.0007 0.0137
# 5 15.1425 8.6963 14.9225 -0.0007 44.8665 -0.0003
# 6 0.0001 0.0000 0.0005 0.0137 -0.0003 12.1946
#
#
#
# Elastic Compliance Matrix: (Units=1/GPa)
#
#
# Indices 1 2 3 4 5 6 
#
# 1 0.015011 -0.004543 -0.004900 0.000000 -0.002556 0.000000
# 2 -0.004543 0.008883 -0.000119 0.000000 -0.000149 0.000000
# 3 -0.004900 -0.000119 0.010415 -0.000001 -0.001787 0.000000
# 4 0.000000 0.000000 -0.000001 0.050087 0.000001 -0.000056
# 5 -0.002556 -0.000149 -0.001787 0.000001 0.023774 0.000001
# 6 0.000000 0.000000 0.000000 -0.000056 0.000001 0.082004
#
#
# Mechanical properties :
#
#
# Convention : Reuss Voigt Hill
#
# Bulk Modulus (GPa) = 65.85549 69.98699 67.92124
# Shear Modulus (GPa) = 23.32542 30.92924 27.12733
#
# Velocity S-wave (km/s) = 3.30529 3.80610 3.56450
# Velocity P-wave (km/s) = 6.73880 7.21769 6.98235
#
# Compressibility (1/GPa) = 0.01518476
#
# Stress axis : x y z
#
# Youngs Moduli (GPa) = 66.61861 112.58055 96.01369
#
# Poissons Ratio (x) = 0.51143 0.47050
# Poissons Ratio (y) = 0.30263 0.01140
# Poissons Ratio (z) = 0.32646 0.01337
#
# Static dielectric constant tensor:
#      x y z
#    x 3.985610 0.000010 -0.597230 
#    y 0.000010 3.582710 0.000010 
#    z -0.597230 0.000010 2.444690 
# 
# 
# High freq. dielectric constant tensor:
#      x y z
#    x 1.851430 0.000000 0.005270 
#    y 0.000000 1.813770 0.000000 
#    z 0.005270 0.000000 1.855290 
# 
# From -- ./inp_files/358505.got.cif
#   From: 2010.06.25/outbox.cif.g09.slc.cpg/sg12_180_cif.got.tgz:358505.got - 2010.06.28 00:19:55.
