data_PCOD8114303
_publ_section_title
;
Structure prediction by ZEFSAII (Michael W. Deem and Ramdas Pophale) SiO2 
 PCOD8114303
Probable space group: C 2/M
;
_chemical_formula_sum "Si O2"
_cell_formula_units_Z 56
_cell_length_a 9.314704
_cell_length_b 26.692766
_cell_length_c 13.602356
_cell_angle_alpha 90.000000
_cell_angle_beta 61.200942
_cell_angle_gamma 90.000000
_cell_volume 2963.717622
_symmetry_space_group_name_H-M "C 2/M"
_symmetry_group_IT_number 12
_symmetry_cell_setting 'monoclinic'
loop_
_space_group_symop_operation_xyz
x,y,z
-x,y,-z
-x,-y,-z
x,-y,z
1/2+x,1/2+y,z
1/2-x,1/2+y,-z
1/2-x,1/2-y,-z
1/2+x,1/2-y,z
loop_
_atom_site_type_symbol
_atom_site_label
_atom_site_fract_x
_atom_site_fract_y
_atom_site_fract_z
Si Si1 0.748823 0.942859 0.026218
Si Si2 0.087350 0.056100 0.819449
Si Si3 0.699540 0.803936 0.553326
Si Si4 0.186296 0.819745 0.277393
Si Si5 0.475454 0.848962 0.901106
Si Si6 0.846830 0.292388 0.762423
Si Si7 0.340233 0.354466 0.326660
O O1 0.801009 0.939691 0.121741
O O2 0.600820 0.904198 0.058834
O O3 0.692858 0.000000 0.020498
O O4 0.901783 0.927028 0.906738
O O5 0.171818 0.088591 0.705918
O O6 0.085292 0.000000 0.779399
O O7 0.750000 0.750000 0.500000
O O8 0.822043 0.814725 0.602406
O O9 0.512040 0.803488 0.647864
O O10 0.722441 0.844497 0.458680
O O11 0.343226 0.854193 0.203090
O O12 0.197518 0.766006 0.219486
O O13 0.026536 0.847157 0.294643
O O14 0.362355 0.814052 0.868177
O O15 0.500000 0.823451 0.000000
O O16 0.699929 0.318838 0.752489
#
# Coordination Sequence:
#
# PCOD8114303 Si02
#       7
#     8   8   8   8   8   8   8
#     4   9  18  38  64  86 113 150 198 251 293 349
#     4   9  19  36  62  91 113 148 200 245 295 354
#     4  11  21  36  60  85 118 149 200 246 289 336
#     4  11  23  37  55  87 121 156 196 242 288 349
#     4  11  23  39  55  85 124 153 195 240 300 355
#     4  11  22  38  57  85 118 160 201 241 286 347
#     4  12  20  34  62  87 116 152 193 251 293 338
#
# _framework density 18.895188000000001
#
# number of rings (size 3 to 8) (size 9 to 14) (size 15 to 20)
#    0.000    1.429    4.286    3.429    0.000    0.857 
#    0.000    2.143    0.000    6.857    0.000    0.000 
#    0.000    0.000    0.000    0.000    0.000    0.000 
#
# Total GULP energy -347144.584115 kJ/mol
# GULP energy per Si atom -12398.020861 kJ/mol
# Density = 1.885218 g / cm^3
# Si number density = 18.895188 Si / 1000 Ang^3
#
#
#
# Elastic Constant Matrix: (Units=GPa)
#
#
# Indices 1 2 3 4 5 6 
#
# 1 72.2015 5.7338 18.3614 0.0000 5.6031 0.0000
# 2 5.7338 83.2832 41.3068 0.0000 -2.5087 0.0000
# 3 18.3614 41.3068 93.1282 0.0000 14.9655 0.0000
# 4 0.0000 0.0000 0.0000 34.8163 0.0000 -4.1879
# 5 5.6031 -2.5087 14.9655 0.0000 33.2129 0.0000
# 6 0.0000 0.0000 0.0000 -4.1879 0.0000 27.7323
#
#
#
# Elastic Compliance Matrix: (Units=1/GPa)
#
#
# Indices 1 2 3 4 5 6 
#
# 1 0.014639 0.000382 -0.002871 0.000000 -0.001147 0.000000
# 2 0.000382 0.016075 -0.007967 0.000000 0.004740 0.000000
# 3 -0.002871 -0.007967 0.016016 0.000000 -0.007334 0.000000
# 4 0.000000 0.000000 0.000000 0.029254 0.000000 0.004418
# 5 -0.001147 0.004740 -0.007334 0.000000 0.033965 0.000000
# 6 0.000000 0.000000 0.000000 0.004418 0.000000 0.036726
#
#
# Mechanical properties :
#
#
# Convention : Reuss Voigt Hill
#
# Bulk Modulus (GPa) = 38.73362 42.15743 40.44552
# Shear Modulus (GPa) = 28.37776 31.36636 29.87206
#
# Velocity S-wave (km/s) = 3.87958 4.07875 3.98041
# Velocity P-wave (km/s) = 6.37274 6.67392 6.52507
#
# Compressibility (1/GPa) = 0.02581737
#
# Stress axis : x y z
#
# Youngs Moduli (GPa) = 68.31069 62.20760 62.43624
#
# Poissons Ratio (x) = -0.02374 0.17927
# Poissons Ratio (y) = -0.02607 0.49743
# Poissons Ratio (z) = 0.19613 0.49561
#
# Static dielectric constant tensor:
#      x y z
#    x 3.616590 0.000000 0.081720 
#    y 0.000000 3.366890 0.000000 
#    z 0.081720 0.000000 3.742600 
# 
# 
# High freq. dielectric constant tensor:
#      x y z
#    x 1.749730 0.000000 0.010390 
#    y 0.000000 1.714630 0.000000 
#    z 0.010390 0.000000 1.725320 
# 
# From -- ./inp_files/198389.got.cif
#   From: 2010.06.25/outbox.cif.g09.slc.cpg/sg12_100_cif.got.tgz:198389.got - 2010.06.28 00:19:55.
