data_PCOD8114747
_publ_section_title
;
Structure prediction by ZEFSAII (Michael W. Deem and Ramdas Pophale) SiO2 
 PCOD8114747
Probable space group: C 2/M
;
_chemical_formula_sum "Si O2"
_cell_formula_units_Z 56
_cell_length_a 18.885453
_cell_length_b 8.797979
_cell_length_c 19.585130
_cell_angle_alpha 90.000000
_cell_angle_beta 62.240419
_cell_angle_gamma 90.000000
_cell_volume 2879.623929
_symmetry_space_group_name_H-M "C 2/M"
_symmetry_group_IT_number 12
_symmetry_cell_setting 'monoclinic'
loop_
_space_group_symop_operation_xyz
x,y,z
-x,y,-z
-x,-y,-z
x,-y,z
1/2+x,1/2+y,z
1/2-x,1/2+y,-z
1/2-x,1/2-y,-z
1/2+x,1/2-y,z
loop_
_atom_site_type_symbol
_atom_site_label
_atom_site_fract_x
_atom_site_fract_y
_atom_site_fract_z
Si Si1 0.015255 0.677756 0.640874
Si Si2 0.443823 0.321378 0.936135
Si Si3 0.105413 0.678231 0.907284
Si Si4 0.167172 0.821991 0.514320
Si Si5 0.907127 0.673949 0.814739
Si Si6 0.130537 0.676180 0.388491
Si Si7 0.741925 0.172362 0.213477
O O1 0.033972 0.500000 0.628020
O O2 0.097122 0.769580 0.596735
O O3 0.977805 0.719548 0.730956
O O4 0.953284 0.722606 0.608743
O O5 0.444545 0.500000 0.948429
O O6 0.533242 0.256851 0.899415
O O7 0.407499 0.284930 0.878865
O O8 0.388612 0.244496 0.018842
O O9 0.089595 0.500000 0.917598
O O10 0.186171 0.711162 0.829897
O O11 0.250000 0.750000 0.500000
O O12 0.144124 0.778147 0.448045
O O13 0.176940 0.000000 0.515648
O O14 0.918352 0.500000 0.833504
O O15 0.822510 0.696666 0.816708
O O16 0.128393 0.500000 0.411131
O O17 0.202963 0.707342 0.304040
O O18 0.774368 0.000000 0.196805
#
# Coordination Sequence:
#
# PCOD8114747 Si02
#       7
#     8   8   8   8   8   8   8
#     4   9  19  38  62  84 110 145 181 221 273 330
#     4  11  22  37  57  80 110 147 186 228 274 326
#     4  11  22  37  57  80 110 147 186 228 274 326
#     4  12  25  38  55  81 113 147 185 230 273 320
#     4   9  19  37  60  85 112 143 181 224 271 325
#     4   9  19  38  62  84 110 145 181 221 273 330
#     4   9  19  37  60  85 112 143 181 224 271 325
#
# _framework density 19.446982999999999
#
# number of rings (size 3 to 8) (size 9 to 14) (size 15 to 20)
#    0.000    2.000    0.000    6.857    0.000    5.714 
#    0.000    2.857    0.000    0.000    0.000    0.000 
#    0.000    0.000    0.000    0.000    0.000    0.000 
#
# Total GULP energy -347293.475348 kJ/mol
# GULP energy per Si atom -12403.338405 kJ/mol
# Density = 1.940272 g / cm^3
# Si number density = 19.446983 Si / 1000 Ang^3
#
#
#
# Elastic Constant Matrix: (Units=GPa)
#
#
# Indices 1 2 3 4 5 6 
#
# 1 29.8805 1.1479 2.7179 0.0000 -13.4668 -0.0001
# 2 1.1479 19.2002 -3.0732 0.0001 -0.3466 0.0003
# 3 2.7179 -3.0732 40.3660 0.0000 -13.5196 0.0000
# 4 0.0000 0.0001 0.0000 34.7836 0.0000 -0.4924
# 5 -13.4668 -0.3466 -13.5196 0.0000 36.6949 -0.0001
# 6 -0.0001 0.0003 0.0000 -0.4924 -0.0001 32.2379
#
#
#
# Elastic Compliance Matrix: (Units=1/GPa)
#
#
# Indices 1 2 3 4 5 6 
#
# 1 0.040387 -0.001747 0.002403 0.000000 0.015691 0.000000
# 2 -0.001747 0.052965 0.004681 0.000000 0.001584 0.000000
# 3 0.002403 0.004681 0.028836 0.000000 0.011550 0.000000
# 4 0.000000 0.000000 0.000000 0.028755 0.000000 0.000439
# 5 0.015691 0.001584 0.011550 0.000000 0.037281 0.000000
# 6 0.000000 0.000000 0.000000 0.000439 0.000000 0.031026
#
#
# Mechanical properties :
#
#
# Convention : Reuss Voigt Hill
#
# Bulk Modulus (GPa) = 7.52663 10.11463 8.82063
# Shear Modulus (GPa) = 19.77348 26.65355 23.21351
#
# Velocity S-wave (km/s) = 3.19217 3.70614 3.45872
# Velocity P-wave (km/s) = 4.17916 4.85041 4.52724
#
# Compressibility (1/GPa) = 0.13286162
#
# Stress axis : x y z
#
# Youngs Moduli (GPa) = 24.76061 18.88037 34.67845
#
# Poissons Ratio (x) = 0.03298 -0.08333
# Poissons Ratio (y) = 0.04325 -0.16231
# Poissons Ratio (z) = -0.05950 -0.08837
#
# Static dielectric constant tensor:
#      x y z
#    x 3.452950 0.000000 -0.047160 
#    y 0.000000 3.461670 0.000000 
#    z -0.047160 0.000000 3.616830 
# 
# 
# High freq. dielectric constant tensor:
#      x y z
#    x 1.753120 0.000000 -0.002830 
#    y 0.000000 1.753530 0.000000 
#    z -0.002830 0.000000 1.766830 
# 
# From -- ./inp_files/257170.got.cif
#   From: 2010.06.25/outbox.cif.g09.slc.cpg/sg12_129_cif.got.tgz:257170.got - 2010.06.28 00:19:55.
