data_PCOD8114460
_publ_section_title
;
Structure prediction by ZEFSAII (Michael W. Deem and Ramdas Pophale) SiO2 
 PCOD8114460
Probable space group: C 2/M
;
_chemical_formula_sum "Si O2"
_cell_formula_units_Z 36
_cell_length_a 14.997392
_cell_length_b 17.381500
_cell_length_c 13.991546
_cell_angle_alpha 90.000000
_cell_angle_beta 151.251028
_cell_angle_gamma 90.000000
_cell_volume 1754.241710
_symmetry_space_group_name_H-M "C 2/M"
_symmetry_group_IT_number 12
_symmetry_cell_setting 'monoclinic'
loop_
_space_group_symop_operation_xyz
x,y,z
-x,y,-z
-x,-y,-z
x,-y,z
1/2+x,1/2+y,z
1/2-x,1/2+y,-z
1/2-x,1/2-y,-z
1/2+x,1/2-y,z
loop_
_atom_site_type_symbol
_atom_site_label
_atom_site_fract_x
_atom_site_fract_y
_atom_site_fract_z
Si Si1 0.957962 0.126206 0.570041
Si Si2 0.159897 0.413544 0.009218
Si Si3 0.149741 0.415490 0.417360
Si Si4 0.843208 0.708892 0.420866
Si Si5 0.000000 0.711454 0.000000
O O1 0.767451 0.089778 0.429213
O O2 0.941731 0.218088 0.562164
O O3 0.000000 0.100210 0.500000
O O4 0.118844 0.096240 0.791751
O O5 0.114067 0.500000 0.004773
O O6 0.093806 0.344481 0.013047
O O7 0.064301 0.403154 0.815492
O O8 0.176070 0.500000 0.487743
O O9 0.215441 0.352460 0.554601
O O10 0.656670 0.733816 0.191516
O O11 0.000000 0.670797 0.500000
#
# Coordination Sequence:
#
# PCOD8114460 Si02
#       5
#     8   8   8   8   4
#     4  11  21  39  64  95 126 159 200 254 312 369
#     4  11  22  36  61  95 127 158 198 252 318 373
#     4  11  25  42  63  92 128 164 203 256 310 363
#     4  11  24  43  63  91 123 168 212 251 301 361
#     4  12  21  40  63  94 122 166 206 252 305 368
#
# _framework density 20.521687
#
# number of rings (size 3 to 8) (size 9 to 14) (size 15 to 20)
#    0.000    0.889    6.667    1.667    0.000    6.667 
#    0.000    0.556    0.000    0.000    0.000    0.000 
#    0.000    0.000    0.000    0.000    0.000    0.000 
#
# Total GULP energy -223140.150971 kJ/mol
# GULP energy per Si atom -12396.675054 kJ/mol
# Density = 2.047498 g / cm^3
# Si number density = 20.521687 Si / 1000 Ang^3
#
#
#
# Elastic Constant Matrix: (Units=GPa)
#
#
# Indices 1 2 3 4 5 6 
#
# 1 65.5079 46.0984 42.0593 0.0000 -3.4023 0.0002
# 2 46.0984 118.9418 64.5480 0.0000 -22.0670 0.0001
# 3 42.0593 64.5480 151.1779 0.0000 0.4082 0.0002
# 4 0.0000 0.0000 0.0000 28.6505 0.0001 -15.6884
# 5 -3.4023 -22.0670 0.4082 0.0001 21.6662 0.0002
# 6 0.0002 0.0001 0.0002 -15.6884 0.0002 18.1416
#
#
#
# Elastic Compliance Matrix: (Units=1/GPa)
#
#
# Indices 1 2 3 4 5 6 
#
# 1 0.022494 -0.008050 -0.002809 0.000000 -0.004613 0.000000
# 2 -0.008050 0.017469 -0.005264 0.000000 0.016627 0.000000
# 3 -0.002809 -0.005264 0.009660 0.000000 -0.005984 0.000000
# 4 0.000000 0.000000 0.000000 0.066297 -0.000001 0.057332
# 5 -0.004613 0.016627 -0.005984 -0.000001 0.062478 -0.000002
# 6 0.000000 0.000000 0.000000 0.057332 -0.000002 0.104701
#
#
# Mechanical properties :
#
#
# Convention : Reuss Voigt Hill
#
# Bulk Modulus (GPa) = 57.54473 71.22655 64.38564
# Shear Modulus (GPa) = 15.56979 25.88646 20.72812
#
# Velocity S-wave (km/s) = 2.75744 3.55550 3.18159
# Velocity P-wave (km/s) = 6.18383 7.18601 6.70367
#
# Compressibility (1/GPa) = 0.01737779
#
# Stress axis : x y z
#
# Youngs Moduli (GPa) = 44.45726 57.24532 103.52164
#
# Poissons Ratio (x) = 0.46080 0.29075
# Poissons Ratio (y) = 0.35786 0.54494
# Poissons Ratio (z) = 0.12486 0.30134
#
# Static dielectric constant tensor:
#      x y z
#    x 3.478000 0.000000 0.174910 
#    y 0.000000 3.664790 0.000000 
#    z 0.174910 0.000000 4.086370 
# 
# 
# High freq. dielectric constant tensor:
#      x y z
#    x 1.765730 0.000000 0.015010 
#    y 0.000000 1.803350 0.000000 
#    z 0.015010 0.000000 1.818520 
# 
# From -- ./inp_files/216568.got.cif
#   From: 2010.06.25/outbox.cif.g09.slc.cpg/sg12_109_cif.got.tgz:216568.got - 2010.06.28 00:19:55.
