data_PCOD8114845
_publ_section_title
;
Structure prediction by ZEFSAII (Michael W. Deem and Ramdas Pophale) SiO2 
 PCOD8114845
Probable space group: C 2/M
;
_chemical_formula_sum "Si O2"
_cell_formula_units_Z 64
_cell_length_a 14.470927
_cell_length_b 8.781987
_cell_length_c 32.056375
_cell_angle_alpha 90.000000
_cell_angle_beta 127.620534
_cell_angle_gamma 90.000000
_cell_volume 3226.767129
_symmetry_space_group_name_H-M "C 2/M"
_symmetry_group_IT_number 12
_symmetry_cell_setting 'monoclinic'
loop_
_space_group_symop_operation_xyz
x,y,z
-x,y,-z
-x,-y,-z
x,-y,z
1/2+x,1/2+y,z
1/2-x,1/2+y,-z
1/2-x,1/2-y,-z
1/2+x,1/2-y,z
loop_
_atom_site_type_symbol
_atom_site_label
_atom_site_fract_x
_atom_site_fract_y
_atom_site_fract_z
Si Si1 0.743903 0.822350 0.376417
Si Si2 0.801670 0.178717 0.216729
Si Si3 0.404275 0.679825 0.940997
Si Si4 0.513797 0.320816 0.333287
Si Si5 0.539549 0.820181 0.596387
Si Si6 0.837392 0.819882 0.132600
Si Si7 0.341675 0.678542 0.494184
Si Si8 0.061166 0.179800 0.143815
O O1 0.625352 0.728393 0.336882
O O2 0.833982 0.759196 0.367021
O O3 0.800915 0.785407 0.436584
O O4 0.720270 0.000000 0.362827
O O5 0.845149 0.232552 0.183000
O O6 0.680218 0.256057 0.196541
O O7 0.898525 0.228225 0.276679
O O8 0.781438 0.000000 0.211191
O O9 0.389888 0.500000 0.939462
O O10 0.280662 0.752600 0.919671
O O11 0.445818 0.731876 0.906397
O O12 0.500000 0.739767 0.000000
O O13 0.516445 0.500000 0.343432
O O14 0.524883 0.224839 0.378726
O O15 0.466783 0.755658 0.537078
O O16 0.550651 0.000000 0.595507
O O17 0.949447 0.755247 0.138266
O O18 0.832402 0.000000 0.126946
O O19 0.352967 0.500000 0.505631
O O20 0.250000 0.750000 0.500000
O O21 0.065111 0.000000 0.149012
#
# Coordination Sequence:
#
# PCOD8114845 Si02
#       8
#     8   8   8   8   8   8   8   8
#     4  11  24  41  61  87 116 148 186 229 280 338
#     4   9  20  37  56  79 106 138 177 227 279 327
#     4   9  18  32  49  75 112 148 183 223 269 321
#     4  11  23  40  60  83 114 147 184 233 287 341
#     4  12  25  40  60  86 115 150 189 229 277 334
#     4   9  18  34  54  77 106 139 182 227 272 325
#     4  11  22  38  62  87 116 149 186 228 276 334
#     4   9  18  33  54  78 106 144 184 225 272 324
#
# _framework density 19.834092999999999
#
# number of rings (size 3 to 8) (size 9 to 14) (size 15 to 20)
#    0.000    1.875    1.250    2.625    0.000    6.250 
#    0.000    1.250    0.000    0.000    0.000    0.000 
#    0.000    0.000    0.000    0.000    0.000    0.000 
#
# Total GULP energy -396902.240588 kJ/mol
# GULP energy per Si atom -12403.195018 kJ/mol
# Density = 1.978895 g / cm^3
# Si number density = 19.834093 Si / 1000 Ang^3
#
#
#
# Elastic Constant Matrix: (Units=GPa)
#
#
# Indices 1 2 3 4 5 6 
#
# 1 132.1541 25.8231 33.2620 0.0000 25.9117 0.0000
# 2 25.8231 56.2361 36.1499 0.0000 9.5384 0.0000
# 3 33.2620 36.1499 94.8910 0.0000 24.7689 0.0000
# 4 0.0000 0.0000 0.0000 26.3955 0.0000 9.0252
# 5 25.9117 9.5384 24.7689 0.0000 27.8566 0.0000
# 6 0.0000 0.0000 0.0000 9.0252 0.0000 33.9432
#
#
#
# Elastic Compliance Matrix: (Units=1/GPa)
#
#
# Indices 1 2 3 4 5 6 
#
# 1 0.009747 -0.003000 -0.000228 0.000000 -0.007836 0.000000
# 2 -0.003000 0.024473 -0.008872 0.000000 0.002299 0.000000
# 3 -0.000228 -0.008872 0.017124 0.000000 -0.011976 0.000000
# 4 0.000000 0.000000 0.000000 0.041674 0.000000 -0.011081
# 5 -0.007836 0.002299 -0.011976 0.000000 0.053049 0.000000
# 6 0.000000 0.000000 0.000000 -0.011081 0.000000 0.032407
#
#
# Mechanical properties :
#
#
# Convention : Reuss Voigt Hill
#
# Bulk Modulus (GPa) = 36.84025 52.63901 44.73963
# Shear Modulus (GPa) = 23.61588 30.17547 26.89568
#
# Velocity S-wave (km/s) = 3.45435 3.90474 3.68643
# Velocity P-wave (km/s) = 5.87576 6.85030 6.38166
#
# Compressibility (1/GPa) = 0.02714422
#
# Stress axis : x y z
#
# Youngs Moduli (GPa) = 102.59515 40.86188 58.39653
#
# Poissons Ratio (x) = 0.12258 0.01333
# Poissons Ratio (y) = 0.30777 0.51808
# Poissons Ratio (z) = 0.02342 0.36252
#
# Static dielectric constant tensor:
#      x y z
#    x 3.798160 0.000000 0.057320 
#    y 0.000000 3.466400 0.000000 
#    z 0.057320 0.000000 3.648370 
# 
# 
# High freq. dielectric constant tensor:
#      x y z
#    x 1.784380 0.000000 0.010300 
#    y 0.000000 1.768650 0.000000 
#    z 0.010300 0.000000 1.765070 
# 
# From -- ./inp_files/375583.got.cif
#   From: 2010.06.25/outbox.cif.g09.slc.cpg/sg12_188_cif.got.tgz:375583.got - 2010.06.28 00:19:55.
