data_PCOD8114293
_publ_section_title
;
Structure prediction by ZEFSAII (Michael W. Deem and Ramdas Pophale) SiO2 
 PCOD8114293
Probable space group: C 2/M
;
_chemical_formula_sum "Si O2"
_cell_formula_units_Z 48
_cell_length_a 19.755890
_cell_length_b 11.349682
_cell_length_c 12.208020
_cell_angle_alpha 90.000000
_cell_angle_beta 112.393084
_cell_angle_gamma 90.000000
_cell_volume 2530.903975
_symmetry_space_group_name_H-M "C 2/M"
_symmetry_group_IT_number 12
_symmetry_cell_setting 'monoclinic'
loop_
_space_group_symop_operation_xyz
x,y,z
-x,y,-z
-x,-y,-z
x,-y,z
1/2+x,1/2+y,z
1/2-x,1/2+y,-z
1/2-x,1/2-y,-z
1/2+x,1/2-y,z
loop_
_atom_site_type_symbol
_atom_site_label
_atom_site_fract_x
_atom_site_fract_y
_atom_site_fract_z
Si Si1 0.428160 0.861826 0.011924
Si Si2 0.413314 0.245921 0.627535
Si Si3 0.433989 0.862318 0.261155
Si Si4 0.178026 0.362590 0.242774
Si Si5 0.552103 0.500000 0.363723
Si Si6 0.831450 0.237780 0.351478
Si Si7 0.402047 0.500000 0.357491
O O1 0.355884 0.833668 0.896793
O O2 0.441057 0.000000 0.025430
O O3 0.500000 0.803349 0.000000
O O4 0.418411 0.813757 0.129023
O O5 0.495421 0.205504 0.645606
O O6 0.383690 0.161273 0.703929
O O7 0.414517 0.382136 0.670093
O O8 0.361422 0.236292 0.490500
O O9 0.362097 0.839238 0.290558
O O10 0.451309 0.000000 0.273049
O O11 0.201962 0.500000 0.267443
O O12 0.243536 0.269834 0.303062
O O13 0.464163 0.500000 0.302001
O O14 0.567859 0.500000 0.501817
O O15 0.854413 0.115497 0.310230
#
# Coordination Sequence:
#
# PCOD8114293 Si02
#       7
#     8   8   8   8   4   8   4
#     4   9  18  36  60  83 107 146 195 237 276 327
#     4  11  21  36  58  85 116 152 190 231 281 338
#     4  11  22  37  60  87 115 148 192 239 280 329
#     4  11  22  38  61  84 112 151 195 236 280 338
#     4   9  18  32  56  78 109 151 190 223 267 335
#     4  11  22  36  55  86 120 148 182 232 290 343
#     4   9  16  34  54  77 109 146 189 223 265 343
#
# _framework density 18.965554000000001
#
# number of rings (size 3 to 8) (size 9 to 14) (size 15 to 20)
#    0.000    1.667    4.167    1.500    0.000    2.667 
#    1.500    0.000    0.000    3.000    0.000    0.000 
#    0.000    0.000    0.000    0.000    0.000    0.000 
#
# Total GULP energy -297557.678760 kJ/mol
# GULP energy per Si atom -12398.236615 kJ/mol
# Density = 1.892239 g / cm^3
# Si number density = 18.965554 Si / 1000 Ang^3
#
#
#
# Elastic Constant Matrix: (Units=GPa)
#
#
# Indices 1 2 3 4 5 6 
#
# 1 75.5156 17.2162 21.5034 0.0000 4.7203 0.0000
# 2 17.2162 66.2366 32.0724 0.0000 3.3395 0.0000
# 3 21.5034 32.0724 81.4512 0.0000 5.5573 0.0000
# 4 0.0000 0.0000 0.0000 21.6187 0.0000 0.3188
# 5 4.7203 3.3395 5.5573 0.0000 21.2745 0.0000
# 6 0.0000 0.0000 0.0000 0.3188 0.0000 32.0544
#
#
#
# Elastic Compliance Matrix: (Units=1/GPa)
#
#
# Indices 1 2 3 4 5 6 
#
# 1 0.014714 -0.002355 -0.002810 0.000000 -0.002161 0.000000
# 2 -0.002355 0.019053 -0.006834 0.000000 -0.000683 0.000000
# 3 -0.002810 -0.006834 0.015877 0.000000 -0.002451 0.000000
# 4 0.000000 0.000000 0.000000 0.046263 0.000000 -0.000460
# 5 -0.002161 -0.000683 -0.002451 0.000000 0.048232 0.000000
# 6 0.000000 0.000000 0.000000 -0.000460 0.000000 0.031202
#
#
# Mechanical properties :
#
#
# Convention : Reuss Voigt Hill
#
# Bulk Modulus (GPa) = 38.99105 40.53193 39.76149
# Shear Modulus (GPa) = 24.05144 25.15030 24.60087
#
# Velocity S-wave (km/s) = 3.56499 3.64552 3.60548
# Velocity P-wave (km/s) = 6.12773 6.25600 6.19220
#
# Compressibility (1/GPa) = 0.02564691
#
# Stress axis : x y z
#
# Youngs Moduli (GPa) = 67.96061 52.48511 62.98294
#
# Poissons Ratio (x) = 0.12360 0.17697
# Poissons Ratio (y) = 0.16005 0.43043
# Poissons Ratio (z) = 0.19096 0.35868
#
# Static dielectric constant tensor:
#      x y z
#    x 3.389260 0.000000 0.040750 
#    y 0.000000 3.391380 0.000000 
#    z 0.040750 0.000000 3.417040 
# 
# 
# High freq. dielectric constant tensor:
#      x y z
#    x 1.734020 0.000000 0.005320 
#    y 0.000000 1.720660 0.000000 
#    z 0.005320 0.000000 1.724590 
# 
# From -- ./inp_files/154334.got.cif
#   From: 2010.06.25/outbox.cif.g09.slc.cpg/sg12_78_cif.got.tgz:154334.got - 2010.06.28 00:19:55.
