data_PCOD8114829
_publ_section_title
;
Structure prediction by ZEFSAII (Michael W. Deem and Ramdas Pophale) SiO2 
 PCOD8114829
Probable space group: C 2/M
;
_chemical_formula_sum "Si O2"
_cell_formula_units_Z 64
_cell_length_a 9.802903
_cell_length_b 27.568783
_cell_length_c 18.287146
_cell_angle_alpha 90.000000
_cell_angle_beta 143.472431
_cell_angle_gamma 90.000000
_cell_volume 2941.630323
_symmetry_space_group_name_H-M "C 2/M"
_symmetry_group_IT_number 12
_symmetry_cell_setting 'monoclinic'
loop_
_space_group_symop_operation_xyz
x,y,z
-x,y,-z
-x,-y,-z
x,-y,z
1/2+x,1/2+y,z
1/2-x,1/2+y,-z
1/2-x,1/2-y,-z
1/2+x,1/2-y,z
loop_
_atom_site_type_symbol
_atom_site_label
_atom_site_fract_x
_atom_site_fract_y
_atom_site_fract_z
Si Si1 0.729406 0.814904 0.900999
Si Si2 0.916836 0.227261 0.777380
Si Si3 0.831665 0.443557 0.746609
Si Si4 0.086201 0.123422 0.404338
Si Si5 0.091470 0.883513 0.238182
Si Si6 0.130079 0.610021 0.985348
Si Si7 0.509534 0.884555 0.693670
Si Si8 0.038740 0.230553 0.365099
O O1 0.634507 0.762274 0.885010
O O2 0.683262 0.849367 0.949043
O O3 0.589712 0.836092 0.771148
O O4 0.000000 0.810395 0.000000
O O5 0.979844 0.171281 0.816908
O O6 0.695351 0.238868 0.731715
O O7 0.844164 0.233383 0.662948
O O8 0.779362 0.500000 0.721019
O O9 0.589909 0.416181 0.642824
O O10 0.978658 0.431833 0.882323
O O11 0.964771 0.428032 0.730679
O O12 0.161082 0.111154 0.353281
O O13 0.295103 0.127445 0.550207
O O14 0.964258 0.175824 0.353752
O O15 0.296678 0.903708 0.277861
O O16 0.864788 0.913821 0.118209
O O17 0.000000 0.632353 0.000000
O O18 0.250000 0.250000 0.500000
#
# Coordination Sequence:
#
# PCOD8114829 Si02
#       8
#     8   8   8   8   8   8   8   8
#     4  11  23  41  63  94 137 185 234 281 331 388
#     4  11  24  35  57  93 131 180 234 274 321 382
#     4  11  26  47  75 103 126 167 222 284 355 420
#     4  11  23  42  68  98 140 180 223 277 341 400
#     4  11  23  42  63  97 137 181 222 271 333 400
#     4  11  23  44  69  95 136 173 222 280 343 408
#     4  11  23  43  68  96 133 176 216 277 344 403
#     4  11  22  38  60  94 138 183 231 272 318 395
#
# _framework density 21.756643
#
# number of rings (size 3 to 8) (size 9 to 14) (size 15 to 20)
#    0.000    1.000    2.500    4.875    1.750    5.250 
#    0.000    1.875    0.000    1.500    0.000    0.000 
#    0.000    0.000    0.000    0.000    0.000    0.000 
#
# Total GULP energy -396689.689211 kJ/mol
# GULP energy per Si atom -12396.552788 kJ/mol
# Density = 2.170712 g / cm^3
# Si number density = 21.756643 Si / 1000 Ang^3
#
#
#
# Elastic Constant Matrix: (Units=GPa)
#
#
# Indices 1 2 3 4 5 6 
#
# 1 142.9835 38.3860 46.8114 -0.0006 6.3403 0.0001
# 2 38.3860 82.4153 22.0461 0.0007 6.7505 0.0013
# 3 46.8114 22.0461 149.6793 0.0047 -1.5288 0.0049
# 4 -0.0006 0.0007 0.0047 16.3469 0.0002 0.2549
# 5 6.3403 6.7505 -1.5288 0.0002 41.0716 0.0004
# 6 0.0001 0.0013 0.0049 0.2549 0.0004 18.9310
#
#
#
# Elastic Compliance Matrix: (Units=1/GPa)
#
#
# Indices 1 2 3 4 5 6 
#
# 1 0.008665 -0.003370 -0.002222 0.000001 -0.000866 0.000001
# 2 -0.003370 0.014134 -0.001047 0.000000 -0.001842 -0.000001
# 3 -0.002222 -0.001047 0.007538 -0.000002 0.000796 -0.000002
# 4 0.000001 0.000000 -0.000002 0.061186 0.000000 -0.000824
# 5 -0.000866 -0.001842 0.000796 0.000000 0.024814 -0.000001
# 6 0.000001 -0.000001 -0.000002 -0.000824 -0.000001 0.052835
#
#
# Mechanical properties :
#
#
# Convention : Reuss Voigt Hill
#
# Bulk Modulus (GPa) = 58.62057 65.50723 62.06390
# Shear Modulus (GPa) = 26.57649 33.12554 29.85101
#
# Velocity S-wave (km/s) = 3.49884 3.90622 3.70813
# Velocity P-wave (km/s) = 6.58215 7.10768 6.84996
#
# Compressibility (1/GPa) = 0.01705886
#
# Stress axis : x y z
#
# Youngs Moduli (GPa) = 115.41269 70.75030 132.65725
#
# Poissons Ratio (x) = 0.23844 0.29480
# Poissons Ratio (y) = 0.38897 0.13884
# Poissons Ratio (z) = 0.25648 0.07405
#
# Static dielectric constant tensor:
#      x y z
#    x 4.391950 -0.000030 -0.118980 
#    y -0.000030 3.782880 -0.000130 
#    z -0.118980 -0.000130 4.156390 
# 
# 
# High freq. dielectric constant tensor:
#      x y z
#    x 1.877750 0.000000 -0.011000 
#    y 0.000000 1.812540 0.000000 
#    z -0.011000 0.000000 1.874980 
# 
# From -- ./inp_files/260395.got.cif
#   From: 2010.06.25/outbox.cif.g09.slc.cpg/sg12_131_cif.got.tgz:260395.got - 2010.06.28 00:19:55.
