data_PCOD8114098
_publ_section_title
;
Structure prediction by ZEFSAII (Michael W. Deem and Ramdas Pophale) SiO2 
 PCOD8114098
Probable space group: C 2/M
;
_chemical_formula_sum "Si O2"
_cell_formula_units_Z 48
_cell_length_a 27.254118
_cell_length_b 8.797024
_cell_length_c 11.737867
_cell_angle_alpha 90.000000
_cell_angle_beta 72.810488
_cell_angle_gamma 90.000000
_cell_volume 2688.509865
_symmetry_space_group_name_H-M "C 2/M"
_symmetry_group_IT_number 12
_symmetry_cell_setting 'monoclinic'
loop_
_space_group_symop_operation_xyz
x,y,z
-x,y,-z
-x,-y,-z
x,-y,z
1/2+x,1/2+y,z
1/2-x,1/2+y,-z
1/2-x,1/2-y,-z
1/2+x,1/2-y,z
loop_
_atom_site_type_symbol
_atom_site_label
_atom_site_fract_x
_atom_site_fract_y
_atom_site_fract_z
Si Si1 0.058590 0.820360 0.955908
Si Si2 0.868511 0.173530 0.892882
Si Si3 0.677023 0.826891 0.277829
Si Si4 0.361427 0.177679 0.258926
Si Si5 0.195512 0.820767 0.502732
Si Si6 0.209570 0.170428 0.864063
O O1 0.085716 0.740160 0.830406
O O2 0.063699 0.000000 0.935121
O O3 0.085687 0.770556 0.055581
O O4 0.000000 0.765736 0.000000
O O5 0.867679 0.272282 0.777826
O O6 0.877390 0.000000 0.850603
O O7 0.814274 0.194995 0.994969
O O8 0.678998 0.722265 0.386990
O O9 0.729756 0.808936 0.171666
O O10 0.666588 0.000000 0.321914
O O11 0.350059 0.260652 0.385645
O O12 0.313792 0.208743 0.207617
O O13 0.366652 0.000000 0.277696
O O14 0.250000 0.750000 0.500000
O O15 0.200914 0.000000 0.510432
O O16 0.195064 0.000000 0.830490
#
# Coordination Sequence:
#
# PCOD8114098 Si02
#       6
#     8   8   8   8   8   8
#     4   9  19  38  62  83 106 139 178 223 273 323
#     4   9  18  32  50  76 106 138 177 219 266 318
#     4  11  21  32  49  74 107 147 182 216 261 314
#     4  11  21  33  53  81 110 141 179 223 269 315
#     4  12  23  36  53  75 107 147 187 222 259 311
#     4   9  18  32  49  70 104 145 182 217 255 312
#
# _framework density 17.853756000000001
#
# number of rings (size 3 to 8) (size 9 to 14) (size 15 to 20)
#    0.000    1.833    1.667    5.000    0.000    3.667 
#    0.000    0.000    0.000    1.000    0.000    7.000 
#    0.000    0.000    0.000    0.000    0.000    0.000 
#
# Total GULP energy -297606.448073 kJ/mol
# GULP energy per Si atom -12400.268670 kJ/mol
# Density = 1.781312 g / cm^3
# Si number density = 17.853756 Si / 1000 Ang^3
#
#
#
# Elastic Constant Matrix: (Units=GPa)
#
#
# Indices 1 2 3 4 5 6 
#
# 1 91.8119 40.3292 57.9795 0.0000 -1.4579 0.0000
# 2 40.3292 111.3321 54.6668 0.0000 -0.3301 0.0000
# 3 57.9795 54.6668 103.5019 0.0000 8.4907 0.0000
# 4 0.0000 0.0000 0.0000 30.8918 0.0000 2.7107
# 5 -1.4579 -0.3301 8.4907 0.0000 21.9449 0.0000
# 6 0.0000 0.0000 0.0000 2.7107 0.0000 21.6926
#
#
#
# Elastic Compliance Matrix: (Units=1/GPa)
#
#
# Indices 1 2 3 4 5 6 
#
# 1 0.017646 -0.001800 -0.009324 0.000000 0.004753 0.000000
# 2 -0.001800 0.012473 -0.005769 0.000000 0.002300 0.000000
# 3 -0.009324 -0.005769 0.018579 0.000000 -0.007895 0.000000
# 4 0.000000 0.000000 0.000000 0.032730 0.000000 -0.004090
# 5 0.004753 0.002300 -0.007895 0.000000 0.048974 0.000000
# 6 0.000000 0.000000 0.000000 -0.004090 0.000000 0.046610
#
#
# Mechanical properties :
#
#
# Convention : Reuss Voigt Hill
#
# Bulk Modulus (GPa) = 67.05246 68.06632 67.55939
# Shear Modulus (GPa) = 23.17293 25.15056 24.16175
#
# Velocity S-wave (km/s) = 3.60659 3.75733 3.68273
# Velocity P-wave (km/s) = 7.41494 7.55186 7.48371
#
# Compressibility (1/GPa) = 0.01491370
#
# Stress axis : x y z
#
# Youngs Moduli (GPa) = 56.66945 80.17055 53.82278
#
# Poissons Ratio (x) = 0.14427 0.50187
# Poissons Ratio (y) = 0.10198 0.31049
# Poissons Ratio (z) = 0.52841 0.46248
#
# Static dielectric constant tensor:
#      x y z
#    x 3.103780 0.000000 -0.033860 
#    y 0.000000 3.299370 0.000000 
#    z -0.033860 0.000000 3.309920 
# 
# 
# High freq. dielectric constant tensor:
#      x y z
#    x 1.659090 0.000000 0.008700 
#    y 0.000000 1.695750 0.000000 
#    z 0.008700 0.000000 1.687280 
# 
# From -- ./inp_files/179337.got.cif
#   From: 2010.06.25/outbox.cif.g09.slc.cpg/sg12_90_cif.got.tgz:179337.got - 2010.06.28 00:19:55.
