data_PCOD8114533
_publ_section_title
;
Structure prediction by ZEFSAII (Michael W. Deem and Ramdas Pophale) SiO2 
 PCOD8114533
Probable space group: C 2/M
;
_chemical_formula_sum "Si O2"
_cell_formula_units_Z 40
_cell_length_a 10.773373
_cell_length_b 23.460586
_cell_length_c 6.759517
_cell_angle_alpha 90.000000
_cell_angle_beta 92.583795
_cell_angle_gamma 90.000000
_cell_volume 1706.728619
_symmetry_space_group_name_H-M "C 2/M"
_symmetry_group_IT_number 12
_symmetry_cell_setting 'monoclinic'
loop_
_space_group_symop_operation_xyz
x,y,z
-x,y,-z
-x,-y,-z
x,-y,z
1/2+x,1/2+y,z
1/2-x,1/2+y,-z
1/2-x,1/2-y,-z
1/2+x,1/2-y,z
loop_
_atom_site_type_symbol
_atom_site_label
_atom_site_fract_x
_atom_site_fract_y
_atom_site_fract_z
Si Si1 0.118637 0.172796 0.875136
Si Si2 0.630909 0.588134 0.537146
Si Si3 0.413141 0.000000 0.213606
Si Si4 0.369564 0.227930 0.383442
Si Si5 0.212683 0.616582 0.810143
Si Si6 0.677528 0.000000 0.348106
O O1 0.104027 0.145439 0.656591
O O2 0.132754 0.239676 0.828370
O O3 0.240639 0.148856 0.991536
O O4 0.000000 0.160105 0.000000
O O5 0.500000 0.554784 0.500000
O O6 0.671972 0.598477 0.316035
O O7 0.733529 0.554188 0.671199
O O8 0.359289 0.940598 0.123633
O O9 0.385263 0.000000 0.443217
O O10 0.436558 0.000000 0.818237
O O11 0.500000 0.240260 0.500000
O O12 0.250000 0.250000 0.500000
O O13 0.366790 0.160501 0.331168
#
# Coordination Sequence:
#
# PCOD8114533 Si02
#       6
#     8   8   4   8   8   4
#     4  12  24  44  70 103 142 183 238 301 357 425
#     4  11  21  41  67 100 139 184 236 290 352 418
#     4   9  22  43  67 104 139 184 238 287 353 429
#     4  12  26  46  75 104 144 193 243 296 362 427
#     4  11  24  43  72 102 143 186 234 293 355 424
#     4   9  21  39  69  95 144 187 234 288 349 420
#
# _framework density 23.436648000000002
#
# number of rings (size 3 to 8) (size 9 to 14) (size 15 to 20)
#    0.000    1.000    4.000    2.700    5.600    0.800 
#    0.000    5.000    0.000    0.000    0.000    0.000 
#    0.000    0.000    0.000    0.000    0.000    0.000 
#
# Total GULP energy -247895.254176 kJ/mol
# GULP energy per Si atom -12394.762709 kJ/mol
# Density = 2.338330 g / cm^3
# Si number density = 23.436648 Si / 1000 Ang^3
#
#
#
# Elastic Constant Matrix: (Units=GPa)
#
#
# Indices 1 2 3 4 5 6 
#
# 1 171.6142 61.6290 45.9010 0.0000 23.8753 0.0000
# 2 61.6290 154.9135 34.9650 0.0000 13.3493 0.0000
# 3 45.9010 34.9650 72.6406 0.0000 13.4877 0.0000
# 4 0.0000 0.0000 0.0000 35.3818 0.0000 2.7949
# 5 23.8753 13.3493 13.4877 0.0000 40.8608 0.0000
# 6 0.0000 0.0000 0.0000 2.7949 0.0000 -8.5610
#
#
#
# Elastic Compliance Matrix: (Units=1/GPa)
#
#
# Indices 1 2 3 4 5 6 
#
# 1 0.007900 -0.002124 -0.003453 0.000000 -0.002783 0.000000
# 2 -0.002124 0.007878 -0.002346 0.000000 -0.000558 0.000000
# 3 -0.003453 -0.002346 0.017642 0.000000 -0.003039 0.000000
# 4 0.000000 0.000000 0.000000 0.027553 0.000000 0.008995
# 5 -0.002783 -0.000558 -0.003039 0.000000 0.027285 0.000000
# 6 0.000000 0.000000 0.000000 0.008995 0.000000 -0.113873
#
#
# Mechanical properties :
#
#
# Convention : Reuss Voigt Hill
#
# Bulk Modulus (GPa) = 56.90315 76.01759 66.46037
# Shear Modulus (GPa) = -1278.64011 30.64789 -623.99611
#
# Velocity S-wave (km/s) = -23.38284 3.62012 -16.33481
# Velocity P-wave (km/s) = 26.54576 7.06962 18.09279
#
# Compressibility (1/GPa) = 0.01757372
#
# Stress axis : x y z
#
# Youngs Moduli (GPa) = 126.57476 126.93902 56.68240
#
# Poissons Ratio (x) = 0.26960 0.19574
# Poissons Ratio (y) = 0.26882 0.13299
# Poissons Ratio (z) = 0.43710 0.29783
#
# Static dielectric constant tensor:
#      x y z
#    x 4.378630 0.000000 0.005990 
#    y 0.000000 4.328520 0.000000 
#    z 0.005990 0.000000 3.976420 
# 
# 
# High freq. dielectric constant tensor:
#      x y z
#    x 1.933820 0.000000 0.000510 
#    y 0.000000 1.932210 0.000000 
#    z 0.000510 0.000000 1.925770 
# 
# From -- ./inp_files/7736.got.cif
#   From: 2010.06.25/outbox.cif.g09.slc.cpg/sg12_4_cif.got.tgz:7736.got - 2010.06.28 00:19:55.
