data_PCOD8114275
_publ_section_title
;
Structure prediction by ZEFSAII (Michael W. Deem and Ramdas Pophale) SiO2 
 PCOD8114275
Probable space group: C 2/M
;
_chemical_formula_sum "Si O2"
_cell_formula_units_Z 48
_cell_length_a 19.959955
_cell_length_b 8.806626
_cell_length_c 14.713381
_cell_angle_alpha 90.000000
_cell_angle_beta 100.114274
_cell_angle_gamma 90.000000
_cell_volume 2546.123286
_symmetry_space_group_name_H-M "C 2/M"
_symmetry_group_IT_number 12
_symmetry_cell_setting 'monoclinic'
loop_
_space_group_symop_operation_xyz
x,y,z
-x,y,-z
-x,-y,-z
x,-y,z
1/2+x,1/2+y,z
1/2-x,1/2+y,-z
1/2-x,1/2-y,-z
1/2+x,1/2-y,z
loop_
_atom_site_type_symbol
_atom_site_label
_atom_site_fract_x
_atom_site_fract_y
_atom_site_fract_z
Si Si1 0.810053 0.178326 0.571422
Si Si2 0.363662 0.319106 0.261850
Si Si3 0.595818 0.320277 0.095391
Si Si4 0.073941 0.179088 0.537064
Si Si5 0.209517 0.320740 0.240867
Si Si6 0.948073 0.820345 0.112571
O O1 0.750000 0.250000 0.500000
O O2 0.879952 0.220052 0.537969
O O3 0.815424 0.244821 0.672658
O O4 0.797916 0.000000 0.573616
O O5 0.367326 0.500000 0.262271
O O6 0.394306 0.252266 0.362835
O O7 0.285607 0.265502 0.234420
O O8 0.407477 0.250560 0.188599
O O9 0.608045 0.500000 0.107211
O O10 0.660170 0.230575 0.148740
O O11 0.527307 0.270560 0.133116
O O12 0.588081 0.268218 0.989031
O O13 0.000000 0.250934 0.500000
O O14 0.067921 0.000000 0.548869
O O15 0.207129 0.500000 0.253102
O O16 0.945646 0.000000 0.115728
#
# Coordination Sequence:
#
# PCOD8114275 Si02
#       6
#     8   8   8   8   8   8
#     4  11  21  36  57  80 107 140 174 217 263 310
#     4   9  17  31  50  75 107 140 175 216 258 307
#     4   9  18  34  56  83 104 131 176 224 270 311
#     4   9  18  31  51  80 105 133 176 216 254 306
#     4  11  22  35  52  78 109 144 178 211 259 318
#     4   8  16  32  55  79 106 135 174 225 266 307
#
# _framework density 18.85219
#
# number of rings (size 3 to 8) (size 9 to 14) (size 15 to 20)
#    0.000    2.500    1.667    2.000    2.333    0.667 
#    0.000    1.667    0.000    7.000    0.000    0.000 
#    0.000    0.000    0.000    0.000    0.000    0.000 
#
# Total GULP energy -297561.924304 kJ/mol
# GULP energy per Si atom -12398.413513 kJ/mol
# Density = 1.880928 g / cm^3
# Si number density = 18.852190 Si / 1000 Ang^3
#
#
#
# Elastic Constant Matrix: (Units=GPa)
#
#
# Indices 1 2 3 4 5 6 
#
# 1 166.4326 31.1956 78.3795 0.0000 4.0667 0.0000
# 2 31.1956 36.6313 20.5945 0.0000 -3.8873 0.0000
# 3 78.3795 20.5945 117.6581 0.0000 -8.0874 0.0000
# 4 0.0000 0.0000 0.0000 24.8239 0.0000 7.5025
# 5 4.0667 -3.8873 -8.0874 0.0000 39.4059 0.0000
# 6 0.0000 0.0000 0.0000 7.5025 0.0000 22.5409
#
#
#
# Elastic Compliance Matrix: (Units=1/GPa)
#
#
# Indices 1 2 3 4 5 6 
#
# 1 0.009806 -0.005393 -0.005776 0.000000 -0.002730 0.000000
# 2 -0.005393 0.033390 -0.002015 0.000000 0.003437 0.000000
# 3 -0.005776 -0.002015 0.012909 0.000000 0.003047 0.000000
# 4 0.000000 0.000000 0.000000 0.044789 0.000000 -0.014908
# 5 -0.002730 0.003437 0.003047 0.000000 0.026623 0.000000
# 6 0.000000 0.000000 0.000000 -0.014908 0.000000 0.049326
#
#
# Mechanical properties :
#
#
# Convention : Reuss Voigt Hill
#
# Bulk Modulus (GPa) = 33.62971 64.56235 49.09603
# Shear Modulus (GPa) = 23.46043 30.05764 26.75903
#
# Velocity S-wave (km/s) = 3.53149 3.99731 3.77160
# Velocity P-wave (km/s) = 5.87417 7.45825 6.71310
#
# Compressibility (1/GPa) = 0.02973561
#
# Stress axis : x y z
#
# Youngs Moduli (GPa) = 101.97576 29.94925 77.46386
#
# Poissons Ratio (x) = 0.16153 0.44744
# Poissons Ratio (y) = 0.54999 0.15612
# Poissons Ratio (z) = 0.58903 0.06036
#
# Static dielectric constant tensor:
#      x y z
#    x 3.474900 0.000000 0.162450 
#    y 0.000000 3.004080 0.000000 
#    z 0.162450 0.000000 3.385960 
# 
# 
# High freq. dielectric constant tensor:
#      x y z
#    x 1.745620 0.000000 -0.000760 
#    y 0.000000 1.682590 0.000000 
#    z -0.000760 0.000000 1.742950 
# 
# From -- ./inp_files/221521.got.cif
#   From: 2010.06.25/outbox.cif.g09.slc.cpg/sg12_111_cif.got.tgz:221521.got - 2010.06.28 00:19:55.
