data_PCOD8114640
_publ_section_title
;
Structure prediction by ZEFSAII (Michael W. Deem and Ramdas Pophale) SiO2 
 PCOD8114640
Probable space group: C 2/M
;
_chemical_formula_sum "Si O2"
_cell_formula_units_Z 56
_cell_length_a 16.654959
_cell_length_b 17.636539
_cell_length_c 12.611219
_cell_angle_alpha 90.000000
_cell_angle_beta 55.377941
_cell_angle_gamma 90.000000
_cell_volume 3048.389064
_symmetry_space_group_name_H-M "C 2/M"
_symmetry_group_IT_number 12
_symmetry_cell_setting 'monoclinic'
loop_
_space_group_symop_operation_xyz
x,y,z
-x,y,-z
-x,-y,-z
x,-y,z
1/2+x,1/2+y,z
1/2-x,1/2+y,-z
1/2-x,1/2-y,-z
1/2+x,1/2-y,z
loop_
_atom_site_type_symbol
_atom_site_label
_atom_site_fract_x
_atom_site_fract_y
_atom_site_fract_z
Si Si1 0.755724 0.838651 0.979700
Si Si2 0.563113 0.086483 0.048569
Si Si3 0.699002 0.089243 0.231477
Si Si4 0.901689 0.089804 0.710501
Si Si5 0.282576 0.910193 0.546938
Si Si6 0.620824 0.410405 0.510342
Si Si7 0.989922 0.414031 0.332189
O O1 0.660392 0.865265 0.988372
O O2 0.764757 0.875492 0.089563
O O3 0.750000 0.750000 0.000000
O O4 0.849283 0.862457 0.841242
O O5 0.494676 0.090930 0.202196
O O6 0.594791 0.000000 0.000747
O O7 0.500000 0.120574 0.000000
O O8 0.746339 0.108526 0.309748
O O9 0.587878 0.122719 0.309500
O O10 0.693872 0.000000 0.212814
O O11 0.858127 0.112274 0.627581
O O12 0.014305 0.116234 0.628521
O O13 0.889888 0.000000 0.740376
O O14 0.202628 0.874360 0.527008
O O15 0.389442 0.873613 0.443909
O O16 0.287135 0.000000 0.524851
O O17 0.622712 0.500000 0.517390
O O18 0.984956 0.500000 0.376903
#
# Coordination Sequence:
#
# PCOD8114640 Si02
#       7
#     8   8   8   8   8   8   8
#     4  11  22  35  52  72 105 143 176 212 269 325
#     4   9  18  32  53  82 107 131 176 228 269 318
#     4   9  17  31  49  73 102 134 171 207 254 320
#     4   9  17  33  55  75 100 133 172 219 266 311
#     4   9  15  25  47  78 106 125 157 208 258 311
#     4   8  16  29  51  82 102 122 166 220 266 309
#     4   8  14  24  43  73 105 130 155 201 263 308
#
# _framework density 18.370358
#
# number of rings (size 3 to 8) (size 9 to 14) (size 15 to 20)
#    0.000    3.000    0.000    3.429    2.000    1.714 
#    0.000    2.143   12.571    4.286    0.000    0.000 
#    0.000    0.000    0.000    0.000    0.000    0.000 
#
# Total GULP energy -347037.924572 kJ/mol
# GULP energy per Si atom -12394.211592 kJ/mol
# Density = 1.832855 g / cm^3
# Si number density = 18.370358 Si / 1000 Ang^3
#
#
#
# Elastic Constant Matrix: (Units=GPa)
#
#
# Indices 1 2 3 4 5 6 
#
# 1 111.5102 20.7781 58.6111 0.0000 14.6263 0.0000
# 2 20.7781 46.6782 33.4661 0.0000 -1.6873 0.0000
# 3 58.6111 33.4661 133.1888 0.0000 -3.1026 0.0000
# 4 0.0000 0.0000 0.0000 8.4437 0.0000 -0.3036
# 5 14.6263 -1.6873 -3.1026 0.0000 25.0689 0.0000
# 6 0.0000 0.0000 0.0000 -0.3036 0.0000 8.6696
#
#
#
# Elastic Compliance Matrix: (Units=1/GPa)
#
#
# Indices 1 2 3 4 5 6 
#
# 1 0.013452 -0.002333 -0.005536 0.000000 -0.008691 0.000000
# 2 -0.002333 0.026558 -0.005589 0.000000 0.002457 0.000000
# 3 -0.005536 -0.005589 0.011448 0.000000 0.004271 0.000000
# 4 0.000000 0.000000 0.000000 0.118580 0.000000 0.004153
# 5 -0.008691 0.002457 0.004271 0.000000 0.045655 0.000000
# 6 0.000000 0.000000 0.000000 0.004153 0.000000 0.115491
#
#
# Mechanical properties :
#
#
# Convention : Reuss Voigt Hill
#
# Bulk Modulus (GPa) = 40.74714 57.45419 49.10066
# Shear Modulus (GPa) = 13.65070 20.33791 16.99430
#
# Velocity S-wave (km/s) = 2.72891 3.33093 3.04483
# Velocity P-wave (km/s) = 5.67083 6.79241 6.25680
#
# Compressibility (1/GPa) = 0.02454160
#
# Stress axis : x y z
#
# Youngs Moduli (GPa) = 74.33690 37.65362 87.35017
#
# Poissons Ratio (x) = 0.08785 0.48357
# Poissons Ratio (y) = 0.17344 0.48821
# Poissons Ratio (z) = 0.41153 0.21045
#
# Static dielectric constant tensor:
#      x y z
#    x 3.712850 0.000000 0.026100 
#    y 0.000000 2.809540 0.000000 
#    z 0.026100 0.000000 3.450990 
# 
# 
# High freq. dielectric constant tensor:
#      x y z
#    x 1.713150 0.000000 0.007470 
#    y 0.000000 1.648270 0.000000 
#    z 0.007470 0.000000 1.720880 
# 
# From -- ./inp_files/159162.got.cif
#   From: 2010.06.25/outbox.cif.g09.slc.cpg/sg12_80_cif.got.tgz:159162.got - 2010.06.28 00:19:55.
