data_PCOD8115365
_publ_section_title
;
Structure prediction by ZEFSAII (Michael W. Deem and Ramdas Pophale) SiO2 
 PCOD8115365
Probable space group: C 2/M
;
_chemical_formula_sum "Si O2"
_cell_formula_units_Z 56
_cell_length_a 9.216660
_cell_length_b 26.620439
_cell_length_c 11.347203
_cell_angle_alpha 90.000000
_cell_angle_beta 63.648585
_cell_angle_gamma 90.000000
_cell_volume 2494.758413
_symmetry_space_group_name_H-M "C 2/M"
_symmetry_group_IT_number 12
_symmetry_cell_setting 'monoclinic'
loop_
_space_group_symop_operation_xyz
x,y,z
-x,y,-z
-x,-y,-z
x,-y,z
1/2+x,1/2+y,z
1/2-x,1/2+y,-z
1/2-x,1/2-y,-z
1/2+x,1/2-y,z
loop_
_atom_site_type_symbol
_atom_site_label
_atom_site_fract_x
_atom_site_fract_y
_atom_site_fract_z
Si Si1 0.714095 0.380053 0.142719
Si Si2 0.667718 0.942602 0.480043
Si Si3 0.085320 0.442581 0.764742
Si Si4 0.285071 0.879794 0.858076
Si Si5 0.572087 0.558157 0.794380
Si Si6 0.147921 0.301719 0.368126
Si Si7 0.502156 0.304978 0.631492
O O1 0.867324 0.398846 0.161310
O O2 0.613948 0.432103 0.168760
O O3 0.605358 0.338040 0.242451
O O4 0.776357 0.359342 0.994770
O O5 0.500000 0.915976 0.500000
O O6 0.698607 0.937686 0.608342
O O7 0.819212 0.919838 0.354318
O O8 0.657613 0.000000 0.443962
O O9 0.089345 0.500000 0.811733
O O10 0.903764 0.427512 0.795947
O O11 0.113876 0.905714 0.888870
O O12 0.329373 0.833979 0.757665
O O13 0.598157 0.500000 0.813842
O O14 0.314255 0.298826 0.384963
O O15 0.091672 0.247588 0.342995
O O16 0.000000 0.324223 0.500000
O O17 0.500000 0.328669 0.500000
#
# Coordination Sequence:
#
# PCOD8115365 Si02
#       7
#     8   8   8   8   8   8   8
#     4  12  28  43  64 104 143 180 230 285 343 402
#     4   9  18  36  61  91 120 167 232 282 326 381
#     4  11  25  43  67  98 142 190 238 286 336 401
#     4  12  26  43  69 101 137 187 234 277 339 411
#     4  11  23  41  67  97 138 187 230 280 337 400
#     4  11  26  48  79 107 134 175 225 284 352 417
#     4  11  26  49  77 106 137 174 223 286 353 416
#
# _framework density 22.447061999999999
#
# number of rings (size 3 to 8) (size 9 to 14) (size 15 to 20)
#    0.000    1.000    2.857    3.429    8.000    4.000 
#    0.000    2.143    0.000    0.000    0.000    0.000 
#    0.000    0.000    0.000    0.000    0.000    0.000 
#
# Total GULP energy -347046.084453 kJ/mol
# GULP energy per Si atom -12394.503016 kJ/mol
# Density = 2.239597 g / cm^3
# Si number density = 22.447062 Si / 1000 Ang^3
#
#
#
# Elastic Constant Matrix: (Units=GPa)
#
#
# Indices 1 2 3 4 5 6 
#
# 1 97.7921 33.9184 40.5258 0.0000 4.6122 0.0000
# 2 33.9184 90.4085 51.8990 0.0000 7.9265 0.0000
# 3 40.5258 51.8990 136.8718 0.0000 17.3595 0.0000
# 4 0.0000 0.0000 0.0000 17.9986 0.0000 0.2732
# 5 4.6122 7.9265 17.3595 0.0000 29.8745 0.0000
# 6 0.0000 0.0000 0.0000 0.2732 0.0000 32.0731
#
#
#
# Elastic Compliance Matrix: (Units=1/GPa)
#
#
# Indices 1 2 3 4 5 6 
#
# 1 0.012361 -0.003250 -0.002478 0.000000 0.000394 0.000000
# 2 -0.003250 0.015006 -0.004627 0.000000 -0.000791 0.000000
# 3 -0.002478 -0.004627 0.010353 0.000000 -0.004406 0.000000
# 4 0.000000 0.000000 0.000000 0.055567 0.000000 -0.000473
# 5 0.000394 -0.000791 -0.004406 0.000000 0.036182 0.000000
# 6 0.000000 0.000000 0.000000 -0.000473 0.000000 0.031183
#
#
# Mechanical properties :
#
#
# Convention : Reuss Voigt Hill
#
# Bulk Modulus (GPa) = 58.78728 64.19545 61.49137
# Shear Modulus (GPa) = 26.73337 29.23784 27.98561
#
# Velocity S-wave (km/s) = 3.45476 3.61297 3.53475
# Velocity P-wave (km/s) = 6.49307 6.78715 6.64174
#
# Compressibility (1/GPa) = 0.01701048
#
# Stress axis : x y z
#
# Youngs Moduli (GPa) = 80.89890 66.64099 96.58952
#
# Poissons Ratio (x) = 0.21656 0.23931
# Poissons Ratio (y) = 0.26290 0.44696
# Poissons Ratio (z) = 0.20044 0.30837
#
# Static dielectric constant tensor:
#      x y z
#    x 4.128520 0.000000 -0.029240 
#    y 0.000000 3.799850 0.000000 
#    z -0.029240 0.000000 4.191800 
# 
# 
# High freq. dielectric constant tensor:
#      x y z
#    x 1.891080 0.000000 -0.001820 
#    y 0.000000 1.873890 0.000000 
#    z -0.001820 0.000000 1.896150 
# 
# From -- ./inp_files/124207.got.cif
#   From: 2010.06.25/outbox.cif.g09.slc.cpg/sg12_63_cif.got.tgz:124207.got - 2010.06.28 00:19:55.
