data_PCOD8115820
_publ_section_title
;
Structure prediction by ZEFSAII (Michael W. Deem and Ramdas Pophale) SiO2 
 PCOD8115820
Probable space group: C 2/M
;
_chemical_formula_sum "Si O2"
_cell_formula_units_Z 56
_cell_length_a 15.049127
_cell_length_b 28.414133
_cell_length_c 9.617539
_cell_angle_alpha 90.000000
_cell_angle_beta 134.721413
_cell_angle_gamma 90.000000
_cell_volume 2922.106855
_symmetry_space_group_name_H-M "C 2/M"
_symmetry_group_IT_number 12
_symmetry_cell_setting 'monoclinic'
loop_
_space_group_symop_operation_xyz
x,y,z
-x,y,-z
-x,-y,-z
x,-y,z
1/2+x,1/2+y,z
1/2-x,1/2+y,-z
1/2-x,1/2-y,-z
1/2+x,1/2-y,z
loop_
_atom_site_type_symbol
_atom_site_label
_atom_site_fract_x
_atom_site_fract_y
_atom_site_fract_z
Si Si1 0.075689 0.228126 0.949825
Si Si2 0.524416 0.052062 0.293307
Si Si3 0.285463 0.181116 0.860679
Si Si4 0.698543 0.052188 0.735449
Si Si5 0.637222 0.737613 0.480005
Si Si6 0.000000 0.684649 0.500000
Si Si7 0.000000 0.382332 0.000000
Si Si8 0.747550 0.853789 0.887435
O O1 0.978631 0.212510 0.724632
O O2 0.152094 0.274617 0.989303
O O3 0.168725 0.186024 0.094182
O O4 0.000000 0.244454 0.000000
O O5 0.642124 0.064021 0.521752
O O6 0.402730 0.052595 0.254183
O O7 0.513290 0.087639 0.153951
O O8 0.542500 0.000000 0.249578
O O9 0.178134 0.200864 0.642354
O O10 0.379030 0.150610 0.871634
O O11 0.227544 0.149259 0.919488
O O12 0.792367 0.095050 0.878690
O O13 0.762459 0.000000 0.803207
O O14 0.750000 0.750000 0.500000
O O15 0.584203 0.785357 0.487263
O O16 0.901681 0.651915 0.307939
#
# Coordination Sequence:
#
# PCOD8115820 Si02
#       8
#     8   8   8   8   8   4   4   8
#     4  12  23  40  56  82 115 154 201 241 282 343
#     4   9  18  34  55  84 117 152 191 240 299 359
#     4  12  23  37  52  84 118 156 193 233 285 351
#     4   9  19  36  57  83 114 146 194 247 296 352
#     4  12  23  38  56  78 118 159 193 243 287 334
#     4  12  22  34  59  80 110 154 197 232 284 346
#     4  12  21  32  56  84 128 152 189 238 296 358
#     4  12  23  37  61  86 112 157 202 236 295 358
#
# _framework density 19.164255000000001
#
# number of rings (size 3 to 8) (size 9 to 14) (size 15 to 20)
#    0.000    0.857    6.429    3.214    0.000    1.143 
#    0.000    0.000    0.000    0.429    0.000    4.000 
#    0.000    0.000    0.000    0.000    0.000    0.000 
#
# Total GULP energy -347096.146380 kJ/mol
# GULP energy per Si atom -12396.290942 kJ/mol
# Density = 1.912064 g / cm^3
# Si number density = 19.164255 Si / 1000 Ang^3
#
#
#
# Elastic Constant Matrix: (Units=GPa)
#
#
# Indices 1 2 3 4 5 6 
#
# 1 41.8483 14.6611 14.2667 0.0000 -8.1399 0.0000
# 2 14.6611 126.6524 50.3119 0.0000 -1.8783 0.0000
# 3 14.2667 50.3119 127.4914 0.0000 -3.6080 0.0000
# 4 0.0000 0.0000 0.0000 27.7705 0.0000 -4.6947
# 5 -8.1399 -1.8783 -3.6080 0.0000 26.1796 0.0000
# 6 0.0000 0.0000 0.0000 -4.6947 0.0000 22.0139
#
#
#
# Elastic Compliance Matrix: (Units=1/GPa)
#
#
# Indices 1 2 3 4 5 6 
#
# 1 0.026870 -0.002238 -0.001899 0.000000 0.007932 0.000000
# 2 -0.002238 0.009551 -0.003533 0.000000 -0.000498 0.000000
# 3 -0.001899 -0.003533 0.009463 0.000000 0.000460 0.000000
# 4 0.000000 0.000000 0.000000 0.037356 0.000000 0.007967
# 5 0.007932 -0.000498 0.000460 0.000000 0.040692 0.000000
# 6 0.000000 0.000000 0.000000 0.007967 0.000000 0.047125
#
#
# Mechanical properties :
#
#
# Convention : Reuss Voigt Hill
#
# Bulk Modulus (GPa) = 32.73942 50.49681 41.61812
# Shear Modulus (GPa) = 25.43511 29.64297 27.53904
#
# Velocity S-wave (km/s) = 3.64705 3.93718 3.79489
# Velocity P-wave (km/s) = 5.90384 6.86114 6.40041
#
# Compressibility (1/GPa) = 0.03054422
#
# Stress axis : x y z
#
# Youngs Moduli (GPa) = 37.21567 104.70484 105.67192
#
# Poissons Ratio (x) = 0.23438 0.20067
# Poissons Ratio (y) = 0.08331 0.37329
# Poissons Ratio (z) = 0.07067 0.36988
#
# Static dielectric constant tensor:
#      x y z
#    x 3.346490 0.000000 -0.085830 
#    y 0.000000 4.029030 0.000000 
#    z -0.085830 0.000000 3.665290 
# 
# 
# High freq. dielectric constant tensor:
#      x y z
#    x 1.723920 0.000000 -0.022840 
#    y 0.000000 1.744360 0.000000 
#    z -0.022840 0.000000 1.742150 
# 
# From -- ./inp_files/68344.got.cif
#   From: 2010.06.25/outbox.cif.g09.slc.cpg/sg12_35_cif.got.tgz:68344.got - 2010.06.28 00:19:55.
