data_PCOD8115560
_publ_section_title
;
Structure prediction by ZEFSAII (Michael W. Deem and Ramdas Pophale) SiO2 
 PCOD8115560
Probable space group: C 2/M
;
_chemical_formula_sum "Si O2"
_cell_formula_units_Z 40
_cell_length_a 10.064185
_cell_length_b 8.760605
_cell_length_c 31.323812
_cell_angle_alpha 90.000000
_cell_angle_beta 44.269745
_cell_angle_gamma 90.000000
_cell_volume 1927.817547
_symmetry_space_group_name_H-M "C 2/M"
_symmetry_group_IT_number 12
_symmetry_cell_setting 'monoclinic'
loop_
_space_group_symop_operation_xyz
x,y,z
-x,y,-z
-x,-y,-z
x,-y,z
1/2+x,1/2+y,z
1/2-x,1/2+y,-z
1/2-x,1/2-y,-z
1/2+x,1/2-y,z
loop_
_atom_site_type_symbol
_atom_site_label
_atom_site_fract_x
_atom_site_fract_y
_atom_site_fract_z
Si Si1 0.528080 0.323135 0.665618
Si Si2 0.066880 0.322439 0.063441
Si Si3 0.637685 0.677366 0.736178
Si Si4 0.293237 0.320372 0.535043
Si Si5 0.828178 0.323030 0.864358
O O1 0.541091 0.500000 0.650569
O O2 0.622889 0.289687 0.689312
O O3 0.308471 0.274281 0.716926
O O4 0.637741 0.226570 0.605265
O O5 0.056495 0.500000 0.053967
O O6 0.113847 0.237613 0.914810
O O7 0.250000 0.250000 0.000000
O O8 0.073656 0.297845 0.112599
O O9 0.673495 0.500000 0.737003
O O10 0.442299 0.727682 0.802994
O O11 0.500000 0.258235 0.500000
O O12 0.290101 0.500000 0.531482
O O13 0.250000 0.250000 0.500000
O O14 0.827663 0.500000 0.851518
#
# Coordination Sequence:
#
# PCOD8115560 Si02
#       5
#     8   8   8   8   8
#     4  11  24  41  62  90 123 158 200 249 298 354
#     4  11  24  41  62  90 122 158 202 249 300 358
#     4  11  24  41  63  91 122 159 202 247 299 357
#     4  11  24  41  63  91 122 159 202 247 299 357
#     4  11  24  41  62  90 123 158 200 249 299 356
#
# _framework density 20.748851999999999
#
# number of rings (size 3 to 8) (size 9 to 14) (size 15 to 20)
#    0.000    1.000    0.000    6.000    0.000   18.400 
#    0.000    0.000    0.000    0.000    0.000    0.000 
#    0.000    0.000    0.000    0.000    0.000    0.000 
#
# Total GULP energy -248172.586479 kJ/mol
# GULP energy per Si atom -12408.629324 kJ/mol
# Density = 2.070163 g / cm^3
# Si number density = 20.748852 Si / 1000 Ang^3
#
#
#
# Elastic Constant Matrix: (Units=GPa)
#
#
# Indices 1 2 3 4 5 6 
#
# 1 95.9518 49.5974 7.3175 0.0000 -9.5393 0.0000
# 2 49.5974 70.7037 20.7801 0.0000 16.8799 0.0000
# 3 7.3175 20.7801 91.5902 -0.0001 -3.5894 0.0000
# 4 0.0000 0.0000 -0.0001 42.4364 0.0000 -3.0166
# 5 -9.5393 16.8799 -3.5894 0.0000 37.6994 0.0000
# 6 0.0000 0.0000 0.0000 -3.0166 0.0000 38.2769
#
#
#
# Elastic Compliance Matrix: (Units=1/GPa)
#
#
# Indices 1 2 3 4 5 6 
#
# 1 0.021905 -0.019870 0.003336 0.000000 0.014757 0.000000
# 2 -0.019870 0.035369 -0.007282 0.000000 -0.021558 0.000000
# 3 0.003336 -0.007282 0.012511 0.000000 0.005296 0.000000
# 4 0.000000 0.000000 0.000000 0.023697 0.000000 0.001868
# 5 0.014757 -0.021558 0.005296 0.000000 0.040416 0.000000
# 6 0.000000 0.000000 0.000000 0.001868 0.000000 0.026273
#
#
# Mechanical properties :
#
#
# Convention : Reuss Voigt Hill
#
# Bulk Modulus (GPa) = 45.13753 45.95953 45.54853
# Shear Modulus (GPa) = 23.23551 35.71925 29.47738
#
# Velocity S-wave (km/s) = 3.35004 4.15360 3.77327
# Velocity P-wave (km/s) = 6.06343 6.72322 6.40183
#
# Compressibility (1/GPa) = 0.02215451
#
# Stress axis : x y z
#
# Youngs Moduli (GPa) = 45.65092 28.27346 79.92765
#
# Poissons Ratio (x) = 0.56179 -0.26667
# Poissons Ratio (y) = 0.90708 0.58202
# Poissons Ratio (z) = -0.15231 0.20588
#
# Static dielectric constant tensor:
#      x y z
#    x 3.962190 0.000000 -0.039530 
#    y 0.000000 3.899870 0.000000 
#    z -0.039530 0.000000 3.786540 
# 
# 
# High freq. dielectric constant tensor:
#      x y z
#    x 1.828280 0.000000 -0.001500 
#    y 0.000000 1.827130 0.000000 
#    z -0.001500 0.000000 1.826150 
# 
# From -- ./inp_files/303468.got.cif
#   From: 2010.06.25/outbox.cif.g09.slc.cpg/sg12_152_cif.got.tgz:303468.got - 2010.06.28 00:19:55.
