data_PCOD8115836
_publ_section_title
;
Structure prediction by ZEFSAII (Michael W. Deem and Ramdas Pophale) SiO2 
 PCOD8115836
Probable space group: C 2/M
;
_chemical_formula_sum "Si O2"
_cell_formula_units_Z 36
_cell_length_a 15.992389
_cell_length_b 15.368151
_cell_length_c 17.561382
_cell_angle_alpha 90.000000
_cell_angle_beta 26.540086
_cell_angle_gamma 90.000000
_cell_volume 1928.545902
_symmetry_space_group_name_H-M "C 2/M"
_symmetry_group_IT_number 12
_symmetry_cell_setting 'monoclinic'
loop_
_space_group_symop_operation_xyz
x,y,z
-x,y,-z
-x,-y,-z
x,-y,z
1/2+x,1/2+y,z
1/2-x,1/2+y,-z
1/2-x,1/2-y,-z
1/2+x,1/2-y,z
loop_
_atom_site_type_symbol
_atom_site_label
_atom_site_fract_x
_atom_site_fract_y
_atom_site_fract_z
Si Si1 0.938667 0.402311 0.848490
Si Si2 0.962672 0.596967 0.661347
Si Si3 0.090768 0.096482 0.039776
Si Si4 0.595551 0.230244 0.842056
Si Si5 0.000000 0.725091 0.500000
O O1 0.982293 0.500000 0.842165
O O2 0.042181 0.386599 0.682395
O O3 0.005447 0.334151 0.855293
O O4 0.714405 0.392304 0.016458
O O5 0.018487 0.500000 0.588930
O O6 0.047589 0.666199 0.534431
O O7 0.734589 0.605286 0.850630
O O8 0.934873 0.170413 0.160544
O O9 0.997490 0.000000 0.115064
O O10 0.819184 0.214853 0.663771
O O11 0.500000 0.209450 0.000000
#
# Coordination Sequence:
#
# PCOD8115836 Si02
#       5
#     8   8   8   8   4
#     4   8  18  38  60  78 104 145 189 228 267 312
#     4   8  17  35  55  79 108 138 177 224 271 323
#     4   8  17  35  57  79 105 140 176 221 275 319
#     4  12  22  35  56  82 114 146 179 225 268 321
#     4  12  23  32  51  88 112 144 178 214 276 340
#
# _framework density 18.666913999999998
#
# number of rings (size 3 to 8) (size 9 to 14) (size 15 to 20)
#    1.333    1.333    2.222    1.000    0.000    3.556 
#    0.000    0.556    0.000    2.667    0.000    0.000 
#    0.000    0.000    0.000    0.000    0.000    0.000 
#
# Total GULP energy -222988.934890 kJ/mol
# GULP energy per Si atom -12388.274161 kJ/mol
# Density = 1.862443 g / cm^3
# Si number density = 18.666914 Si / 1000 Ang^3
#
#
#
# Elastic Constant Matrix: (Units=GPa)
#
#
# Indices 1 2 3 4 5 6 
#
# 1 75.6419 41.2919 29.4063 -0.0063 10.7585 -0.0014
# 2 41.2919 73.0760 18.1692 -0.0034 9.9684 -0.0010
# 3 29.4063 18.1692 75.2738 -0.0067 -3.4031 -0.0130
# 4 -0.0063 -0.0034 -0.0067 5.1981 -0.0049 2.5207
# 5 10.7585 9.9684 -3.4031 -0.0049 20.8825 -0.0003
# 6 -0.0014 -0.0010 -0.0130 2.5207 -0.0003 8.1792
#
#
#
# Elastic Compliance Matrix: (Units=1/GPa)
#
#
# Indices 1 2 3 4 5 6 
#
# 1 0.022340 -0.009883 -0.006698 0.000010 -0.007884 -0.000011
# 2 -0.009883 0.020226 -0.001237 -0.000005 -0.004765 0.000000
# 3 -0.006698 -0.001237 0.016504 0.000008 0.006731 0.000023
# 4 0.000010 -0.000005 0.000008 0.226179 0.000050 -0.069704
# 5 -0.007884 -0.004765 0.006731 0.000050 0.055320 -0.000005
# 6 -0.000011 0.000000 0.000023 -0.069704 -0.000005 0.143743
#
#
# Mechanical properties :
#
#
# Convention : Reuss Voigt Hill
#
# Bulk Modulus (GPa) = 42.67076 44.63628 43.65352
# Shear Modulus (GPa) = 9.47401 15.86027 12.66714
#
# Velocity S-wave (km/s) = 2.25529 2.91803 2.60780
# Velocity P-wave (km/s) = 5.44889 5.94282 5.70121
#
# Compressibility (1/GPa) = 0.02343525
#
# Stress axis : x y z
#
# Youngs Moduli (GPa) = 44.76216 49.44102 60.58978
#
# Poissons Ratio (x) = 0.48861 0.40585
# Poissons Ratio (y) = 0.44237 0.07494
# Poissons Ratio (z) = 0.29983 0.06115
#
# Static dielectric constant tensor:
#      x y z
#    x 3.225180 -0.000010 0.080600 
#    y -0.000010 3.179120 0.000010 
#    z 0.080600 0.000010 3.129620 
# 
# 
# High freq. dielectric constant tensor:
#      x y z
#    x 1.713550 0.000000 0.006550 
#    y 0.000000 1.710760 0.000000 
#    z 0.006550 0.000000 1.695500 
# 
# From -- ./inp_files/216172.got.cif
#   From: 2010.06.25/outbox.cif.g09.slc.cpg/sg12_109_cif.got.tgz:216172.got - 2010.06.28 00:19:55.
