data_PCOD8115167
_publ_section_title
;
Structure prediction by ZEFSAII (Michael W. Deem and Ramdas Pophale) SiO2 
 PCOD8115167
Probable space group: C 2/M
;
_chemical_formula_sum "Si O2"
_cell_formula_units_Z 56
_cell_length_a 16.841817
_cell_length_b 24.779865
_cell_length_c 8.617181
_cell_angle_alpha 90.000000
_cell_angle_beta 58.648331
_cell_angle_gamma 90.000000
_cell_volume 3071.184252
_symmetry_space_group_name_H-M "C 2/M"
_symmetry_group_IT_number 12
_symmetry_cell_setting 'monoclinic'
loop_
_space_group_symop_operation_xyz
x,y,z
-x,y,-z
-x,-y,-z
x,-y,z
1/2+x,1/2+y,z
1/2-x,1/2+y,-z
1/2-x,1/2-y,-z
1/2+x,1/2-y,z
loop_
_atom_site_type_symbol
_atom_site_label
_atom_site_fract_x
_atom_site_fract_y
_atom_site_fract_z
Si Si1 0.891120 0.000000 0.427740
Si Si2 0.389597 0.500000 0.797790
Si Si3 0.845244 0.890865 0.978821
Si Si4 0.505826 0.213929 0.173331
Si Si5 0.502114 0.674219 0.675455
Si Si6 0.803283 0.698937 0.876183
Si Si7 0.336934 0.611778 0.345666
Si Si8 0.307707 0.200469 0.515499
O O1 0.837363 0.948567 0.411891
O O2 0.878887 0.000000 0.624258
O O3 0.000349 0.000000 0.269110
O O4 0.332251 0.451530 0.934418
O O5 0.927403 0.871425 0.783750
O O6 0.753861 0.855856 0.040582
O O7 0.873393 0.888750 0.131385
O O8 0.519671 0.277357 0.186144
O O9 0.597125 0.185452 0.149365
O O10 0.410843 0.193908 0.345532
O O11 0.500000 0.200585 0.000000
O O12 0.500000 0.693983 0.500000
O O13 0.601774 0.649825 0.608514
O O14 0.816967 0.715027 0.685090
O O15 0.750000 0.750000 0.000000
O O16 0.237066 0.640994 0.459223
O O17 0.250000 0.250000 0.500000
#
# Coordination Sequence:
#
# PCOD8115167 Si02
#       8
#     4   4   8   8   8   8   8   8
#     4  11  23  37  57  86 118 155 194 236 289 345
#     4  11  23  37  57  86 118 155 194 236 289 345
#     4  11  23  38  58  84 117 155 195 238 290 348
#     4  12  24  38  57  84 119 158 198 237 290 349
#     4  12  22  33  55  84 119 155 193 239 286 341
#     4  11  23  38  59  86 118 154 195 241 293 346
#     4  11  23  38  58  84 117 155 195 238 290 348
#     4  11  23  38  59  86 118 154 195 241 293 346
#
# _framework density 18.234007999999999
#
# number of rings (size 3 to 8) (size 9 to 14) (size 15 to 20)
#    0.000    0.714    4.286    4.714    0.000    4.000 
#    0.000    0.000    0.000    0.857    0.000    6.000 
#    0.000    0.000    0.000    0.000    0.000    0.000 
#
# Total GULP energy -347206.684992 kJ/mol
# GULP energy per Si atom -12400.238750 kJ/mol
# Density = 1.819251 g / cm^3
# Si number density = 18.234008 Si / 1000 Ang^3
#
#
#
# Elastic Constant Matrix: (Units=GPa)
#
#
# Indices 1 2 3 4 5 6 
#
# 1 131.1043 47.5431 64.1278 0.0000 3.3147 0.0000
# 2 47.5431 112.3842 40.8422 0.0000 0.0203 0.0000
# 3 64.1278 40.8422 121.4020 0.0000 4.9427 0.0000
# 4 0.0000 0.0000 0.0000 31.4902 0.0000 1.3456
# 5 3.3147 0.0203 4.9427 0.0000 31.1098 0.0000
# 6 0.0000 0.0000 0.0000 1.3456 0.0000 27.4929
#
#
#
# Elastic Compliance Matrix: (Units=1/GPa)
#
#
# Indices 1 2 3 4 5 6 
#
# 1 0.011068 -0.002921 -0.004847 0.000000 -0.000407 0.000000
# 2 -0.002921 0.010917 -0.002156 0.000000 0.000647 0.000000
# 3 -0.004847 -0.002156 0.011577 0.000000 -0.001321 0.000000
# 4 0.000000 0.000000 0.000000 0.031823 0.000000 -0.001558
# 5 -0.000407 0.000647 -0.001321 0.000000 0.032397 0.000000
# 6 0.000000 0.000000 0.000000 -0.001558 0.000000 0.036449
#
#
# Mechanical properties :
#
#
# Convention : Reuss Voigt Hill
#
# Bulk Modulus (GPa) = 72.92094 74.43518 73.67806
# Shear Modulus (GPa) = 31.51591 32.17706 31.84649
#
# Velocity S-wave (km/s) = 4.16193 4.20536 4.18370
# Velocity P-wave (km/s) = 7.94821 8.03062 7.98952
#
# Compressibility (1/GPa) = 0.01371348
#
# Stress axis : x y z
#
# Youngs Moduli (GPa) = 90.35182 91.59953 86.37974
#
# Poissons Ratio (x) = 0.26752 0.41870
# Poissons Ratio (y) = 0.26387 0.18627
# Poissons Ratio (z) = 0.43796 0.19752
#
# Static dielectric constant tensor:
#      x y z
#    x 3.502230 0.000000 0.091060 
#    y 0.000000 3.317890 0.000000 
#    z 0.091060 0.000000 3.387310 
# 
# 
# High freq. dielectric constant tensor:
#      x y z
#    x 1.707720 0.000000 0.014760 
#    y 0.000000 1.696830 0.000000 
#    z 0.014760 0.000000 1.716850 
# 
# From -- ./inp_files/65816.got.cif
#   From: 2010.06.25/outbox.cif.g09.slc.cpg/sg12_33_cif.got.tgz:65816.got - 2010.06.28 00:19:55.
