data_PCOD8115794
_publ_section_title
;
Structure prediction by ZEFSAII (Michael W. Deem and Ramdas Pophale) SiO2 
 PCOD8115794
Probable space group: C 2/M
;
_chemical_formula_sum "Si O2"
_cell_formula_units_Z 40
_cell_length_a 8.854040
_cell_length_b 26.159078
_cell_length_c 15.199240
_cell_angle_alpha 90.000000
_cell_angle_beta 31.308059
_cell_angle_gamma 90.000000
_cell_volume 1829.311932
_symmetry_space_group_name_H-M "C 2/M"
_symmetry_group_IT_number 12
_symmetry_cell_setting 'monoclinic'
loop_
_space_group_symop_operation_xyz
x,y,z
-x,y,-z
-x,-y,-z
x,-y,z
1/2+x,1/2+y,z
1/2-x,1/2+y,-z
1/2-x,1/2-y,-z
1/2+x,1/2-y,z
loop_
_atom_site_type_symbol
_atom_site_label
_atom_site_fract_x
_atom_site_fract_y
_atom_site_fract_z
Si Si1 0.963083 0.707809 0.361361
Si Si2 0.046831 0.277451 0.834253
Si Si3 0.835199 0.612683 0.167825
Si Si4 0.336291 0.058659 0.839260
Si Si5 0.844219 0.402601 0.487752
O O1 0.750000 0.750000 0.500000
O O2 0.923404 0.699843 0.277755
O O3 0.908135 0.656119 0.439525
O O4 0.274323 0.727040 0.233754
O O5 0.143317 0.325247 0.846965
O O6 0.750000 0.250000 0.000000
O O7 0.505584 0.591130 0.332901
O O8 0.004610 0.593282 0.168657
O O9 0.000000 0.590979 0.000000
O O10 0.511339 0.063649 0.660789
O O11 0.344652 0.000000 0.865538
O O12 0.000000 0.077330 0.000000
O O13 0.000000 0.420369 0.500000
#
# Coordination Sequence:
#
# PCOD8115794 Si02
#       5
#     8   8   8   8   8
#     4  12  24  41  64  97 144 185 237 287 348 419
#     4  12  26  41  62 101 140 191 237 289 350 424
#     4  12  26  46  71 106 147 188 241 295 355 426
#     4  11  27  51  79 108 140 183 238 302 368 428
#     4  12  26  45  73 106 144 191 238 297 355 424
#
# _framework density 21.866144999999999
#
# number of rings (size 3 to 8) (size 9 to 14) (size 15 to 20)
#    0.000    0.200    4.000    5.400    5.600    2.400 
#    0.000    0.000    0.000    0.000    0.000    0.000 
#    0.000    0.000    0.000    0.000    0.000    0.000 
#
# Total GULP energy -247958.104686 kJ/mol
# GULP energy per Si atom -12397.905234 kJ/mol
# Density = 2.181638 g / cm^3
# Si number density = 21.866145 Si / 1000 Ang^3
#
#
#
# Elastic Constant Matrix: (Units=GPa)
#
#
# Indices 1 2 3 4 5 6 
#
# 1 134.8809 9.8693 63.5855 0.0000 -3.5606 -0.0001
# 2 9.8693 66.2393 15.6079 0.0000 -8.7655 0.0000
# 3 63.5855 15.6079 179.2746 0.0001 -19.1674 -0.0001
# 4 0.0000 0.0000 0.0001 33.5688 0.0000 -2.1670
# 5 -3.5606 -8.7655 -19.1674 0.0000 57.6250 0.0001
# 6 -0.0001 0.0000 -0.0001 -2.1670 0.0001 21.6960
#
#
#
# Elastic Compliance Matrix: (Units=1/GPa)
#
#
# Indices 1 2 3 4 5 6 
#
# 1 0.008946 -0.000664 -0.003180 0.000000 -0.000606 0.000000
# 2 -0.000664 0.015681 -0.000912 0.000000 0.002041 0.000000
# 3 -0.003180 -0.000912 0.006998 0.000000 0.001993 0.000000
# 4 0.000000 0.000000 0.000000 0.029983 0.000000 0.002995
# 5 -0.000606 0.002041 0.001993 0.000000 0.018289 0.000000
# 6 0.000000 0.000000 0.000000 0.002995 0.000000 0.046391
#
#
# Mechanical properties :
#
#
# Convention : Reuss Voigt Hill
#
# Bulk Modulus (GPa) = 45.21992 62.05779 53.63885
# Shear Modulus (GPa) = 34.92381 42.00010 38.46195
#
# Velocity S-wave (km/s) = 4.00079 4.38743 4.19856
# Velocity P-wave (km/s) = 6.48591 7.35584 6.93453
#
# Compressibility (1/GPa) = 0.02211415
#
# Stress axis : x y z
#
# Youngs Moduli (GPa) = 111.78744 63.77325 142.89250
#
# Poissons Ratio (x) = 0.04233 0.45437
# Poissons Ratio (y) = 0.07420 0.13025
# Poissons Ratio (z) = 0.35546 0.05813
#
# Static dielectric constant tensor:
#      x y z
#    x 4.015630 0.000000 0.149310 
#    y 0.000000 3.527750 0.000000 
#    z 0.149310 0.000000 4.207600 
# 
# 
# High freq. dielectric constant tensor:
#      x y z
#    x 1.873150 0.000000 -0.002850 
#    y 0.000000 1.852890 0.000000 
#    z -0.002850 0.000000 1.882370 
# 
# From -- ./inp_files/41405.got.cif
#   From: 2010.06.25/outbox.cif.g09.slc.cpg/sg12_21_cif.got.tgz:41405.got - 2010.06.28 00:19:55.
