data_PCOD8115137
_publ_section_title
;
Structure prediction by ZEFSAII (Michael W. Deem and Ramdas Pophale) SiO2 
 PCOD8115137
Probable space group: C 2/M
;
_chemical_formula_sum "Si O2"
_cell_formula_units_Z 48
_cell_length_a 27.530568
_cell_length_b 9.242968
_cell_length_c 12.164060
_cell_angle_alpha 90.000000
_cell_angle_beta 108.262211
_cell_angle_gamma 90.000000
_cell_volume 2939.413479
_symmetry_space_group_name_H-M "C 2/M"
_symmetry_group_IT_number 12
_symmetry_cell_setting 'monoclinic'
loop_
_space_group_symop_operation_xyz
x,y,z
-x,y,-z
-x,-y,-z
x,-y,z
1/2+x,1/2+y,z
1/2-x,1/2+y,-z
1/2-x,1/2-y,-z
1/2+x,1/2-y,z
loop_
_atom_site_type_symbol
_atom_site_label
_atom_site_fract_x
_atom_site_fract_y
_atom_site_fract_z
Si Si1 0.526639 0.668495 0.404122
Si Si2 0.822754 0.333348 0.749398
Si Si3 0.628791 0.837089 0.454890
Si Si4 0.736474 0.832728 0.600491
Si Si5 0.507224 0.828627 0.827899
Si Si6 0.578701 0.829150 0.066839
O O1 0.500000 0.701639 0.500000
O O2 0.528230 0.500000 0.377693
O O3 0.584474 0.725418 0.451001
O O4 0.492860 0.748206 0.288106
O O5 0.807636 0.500000 0.756766
O O6 0.849928 0.310218 0.651819
O O7 0.770658 0.238785 0.721779
O O8 0.862995 0.277341 0.870677
O O9 0.675329 0.816178 0.575799
O O10 0.606745 0.000000 0.447290
O O11 0.750000 0.750000 0.500000
O O12 0.751584 0.000000 0.598447
O O13 0.458798 0.771456 0.863947
O O14 0.505140 0.000000 0.805900
O O15 0.558639 0.783570 0.931786
O O16 0.576164 0.000000 0.075726
#
# Coordination Sequence:
#
# PCOD8115137 Si02
#       6
#     8   8   8   8   8   8
#     4  11  23  34  44  63  92 122 153 192 233 266
#     4   9  15  26  44  68  94 118 144 175 219 271
#     4   9  17  30  46  62  85 119 156 187 216 262
#     4   9  17  27  40  62  90 118 148 180 219 266
#     4   9  16  30  49  66  87 119 154 185 219 264
#     4   8  14  26  47  70  92 117 146 182 222 265
#
# _framework density 16.329787
#
# number of rings (size 3 to 8) (size 9 to 14) (size 15 to 20)
#    0.000    2.833    1.667    3.000    0.000    4.667 
#    0.000    2.500    0.000    0.000    0.000    1.167 
#    0.000    0.000    0.000    0.000    0.000    0.000 
#
# Total GULP energy -297395.559613 kJ/mol
# GULP energy per Si atom -12391.481651 kJ/mol
# Density = 1.629262 g / cm^3
# Si number density = 16.329787 Si / 1000 Ang^3
#
#
#
# Elastic Constant Matrix: (Units=GPa)
#
#
# Indices 1 2 3 4 5 6 
#
# 1 62.2758 38.2434 54.6351 0.0000 30.2749 0.0000
# 2 38.2434 76.6373 53.0587 0.0000 13.0793 0.0000
# 3 54.6351 53.0587 106.3058 0.0000 31.5864 0.0000
# 4 0.0000 0.0000 0.0000 20.5385 0.0000 4.2459
# 5 30.2749 13.0793 31.5864 0.0000 35.1781 0.0000
# 6 0.0000 0.0000 0.0000 4.2459 0.0000 24.7099
#
#
#
# Elastic Compliance Matrix: (Units=1/GPa)
#
#
# Indices 1 2 3 4 5 6 
#
# 1 0.042641 -0.010633 -0.009382 0.000000 -0.024320 0.000000
# 2 -0.010633 0.022701 -0.008288 0.000000 0.008152 0.000000
# 3 -0.009382 -0.008288 0.020527 0.000000 -0.007275 0.000000
# 4 0.000000 0.000000 0.000000 0.050482 0.000000 -0.008674
# 5 -0.024320 0.008152 -0.007275 0.000000 0.052859 0.000000
# 6 0.000000 0.000000 0.000000 -0.008674 0.000000 0.041960
#
#
# Mechanical properties :
#
#
# Convention : Reuss Voigt Hill
#
# Bulk Modulus (GPa) = 34.17166 59.67703 46.92434
# Shear Modulus (GPa) = 16.80495 22.70407 19.75451
#
# Velocity S-wave (km/s) = 3.21144 3.73278 3.48188
# Velocity P-wave (km/s) = 5.89258 7.42983 6.70541
#
# Compressibility (1/GPa) = 0.02926402
#
# Stress axis : x y z
#
# Youngs Moduli (GPa) = 23.45152 44.05036 48.71604
#
# Poissons Ratio (x) = 0.46837 0.45705
# Poissons Ratio (y) = 0.24935 0.40377
# Poissons Ratio (z) = 0.22002 0.36510
#
# Static dielectric constant tensor:
#      x y z
#    x 3.567310 0.000000 0.887670 
#    y 0.000000 3.049550 0.000000 
#    z 0.887670 0.000000 3.368960 
# 
# 
# High freq. dielectric constant tensor:
#      x y z
#    x 1.606210 0.000000 0.047410 
#    y 0.000000 1.616560 0.000000 
#    z 0.047410 0.000000 1.607130 
# 
# From -- ./inp_files/179306.got.cif
#   From: 2010.06.25/outbox.cif.g09.slc.cpg/sg12_90_cif.got.tgz:179306.got - 2010.06.28 00:19:55.
