data_PCOD8115139
_publ_section_title
;
Structure prediction by ZEFSAII (Michael W. Deem and Ramdas Pophale) SiO2 
 PCOD8115139
Probable space group: C 2/M
;
_chemical_formula_sum "Si O2"
_cell_formula_units_Z 56
_cell_length_a 17.539256
_cell_length_b 28.903239
_cell_length_c 9.324386
_cell_angle_alpha 90.000000
_cell_angle_beta 43.271575
_cell_angle_gamma 90.000000
_cell_volume 3240.098968
_symmetry_space_group_name_H-M "C 2/M"
_symmetry_group_IT_number 12
_symmetry_cell_setting 'monoclinic'
loop_
_space_group_symop_operation_xyz
x,y,z
-x,y,-z
-x,-y,-z
x,-y,z
1/2+x,1/2+y,z
1/2-x,1/2+y,-z
1/2-x,1/2-y,-z
1/2+x,1/2-y,z
loop_
_atom_site_type_symbol
_atom_site_label
_atom_site_fract_x
_atom_site_fract_y
_atom_site_fract_z
Si Si1 0.159139 0.500000 0.677073
Si Si2 0.696889 0.819813 0.126171
Si Si3 0.905977 0.500000 0.930877
Si Si4 0.158208 0.599836 0.666211
Si Si5 0.409537 0.100297 0.913546
Si Si6 0.071062 0.247750 0.774409
Si Si7 0.079137 0.776593 0.262734
Si Si8 0.731283 0.183380 0.407743
O O1 0.207077 0.548948 0.552657
O O2 0.028700 0.500000 0.826816
O O3 0.179338 0.500000 0.819667
O O4 0.641233 0.863220 0.125958
O O5 0.614439 0.776640 0.229833
O O6 0.717452 0.832132 0.263247
O O7 0.812611 0.809058 0.887124
O O8 0.888196 0.548836 0.872247
O O9 0.243736 0.638068 0.490221
O O10 0.040476 0.609218 0.750485
O O11 0.147916 0.603768 0.851881
O O12 0.160410 0.214511 0.725058
O O13 0.124296 0.287655 0.605418
O O14 0.989538 0.216879 0.789266
O O15 0.000000 0.271323 0.000000
O O16 0.000000 0.792492 0.500000
#
# Coordination Sequence:
#
# PCOD8115139 Si02
#       8
#     4   8   4   8   8   8   8   8
#     4   7  12  28  47  71 103 129 165 202 244 296
#     4  11  23  35  50  78 103 133 169 209 255 299
#     4   7  12  28  47  73  99 135 162 200 247 298
#     4   9  18  30  51  77 102 136 168 204 245 302
#     4   9  18  30  52  75 106 133 169 204 247 301
#     4  11  23  38  52  69 102 139 172 209 248 296
#     4  11  23  38  52  70 104 138 167 210 254 293
#     4  11  23  34  52  77 101 133 174 207 251 300
#
# _framework density 17.283422999999999
#
# number of rings (size 3 to 8) (size 9 to 14) (size 15 to 20)
#    0.000    2.143    2.857    2.571    6.000    0.000 
#    0.000    0.714    0.000    2.571    0.000    2.000 
#    0.000    0.000    0.000    0.000    0.000    0.000 
#
# Total GULP energy -346998.038967 kJ/mol
# GULP energy per Si atom -12392.787106 kJ/mol
# Density = 1.724408 g / cm^3
# Si number density = 17.283423 Si / 1000 Ang^3
#
#
#
# Elastic Constant Matrix: (Units=GPa)
#
#
# Indices 1 2 3 4 5 6 
#
# 1 53.0627 7.3844 8.3192 0.0000 12.6720 0.0000
# 2 7.3844 96.7691 16.4339 0.0000 8.0913 0.0000
# 3 8.3192 16.4339 77.9352 0.0000 6.4859 0.0000
# 4 0.0000 0.0000 0.0000 9.3331 0.0000 4.3498
# 5 12.6720 8.0913 6.4859 0.0000 21.3210 0.0000
# 6 0.0000 0.0000 0.0000 4.3498 0.0000 24.5211
#
#
#
# Elastic Compliance Matrix: (Units=1/GPa)
#
#
# Indices 1 2 3 4 5 6 
#
# 1 0.022107 -0.000426 -0.001221 0.000000 -0.012606 0.000000
# 2 -0.000426 0.010982 -0.001995 0.000000 -0.003308 0.000000
# 3 -0.001221 -0.001995 0.013603 0.000000 -0.002655 0.000000
# 4 0.000000 0.000000 0.000000 0.116802 0.000000 -0.020720
# 5 -0.012606 -0.003308 -0.002655 0.000000 0.056458 0.000000
# 6 0.000000 0.000000 0.000000 -0.020720 0.000000 0.044457
#
#
# Mechanical properties :
#
#
# Convention : Reuss Voigt Hill
#
# Bulk Modulus (GPa) = 25.37516 32.44912 28.91214
# Shear Modulus (GPa) = 17.55449 24.07701 20.81575
#
# Velocity S-wave (km/s) = 3.19044 3.73643 3.47418
# Velocity P-wave (km/s) = 5.31841 6.11801 5.73217
#
# Compressibility (1/GPa) = 0.03940862
#
# Stress axis : x y z
#
# Youngs Moduli (GPa) = 45.23509 91.06039 73.51229
#
# Poissons Ratio (x) = 0.03875 0.08976
# Poissons Ratio (y) = 0.01925 0.14666
# Poissons Ratio (z) = 0.05523 0.18166
#
# Static dielectric constant tensor:
#      x y z
#    x 3.048650 0.000000 0.042020 
#    y 0.000000 3.418330 0.000000 
#    z 0.042020 0.000000 3.124340 
# 
# 
# High freq. dielectric constant tensor:
#      x y z
#    x 1.649390 0.000000 0.012790 
#    y 0.000000 1.664310 0.000000 
#    z 0.012790 0.000000 1.649400 
# 
# From -- ./inp_files/68158.got.cif
#   From: 2010.06.25/outbox.cif.g09.slc.cpg/sg12_35_cif.got.tgz:68158.got - 2010.06.28 00:19:55.
