data_PCOD8115910
_publ_section_title
;
Structure prediction by ZEFSAII (Michael W. Deem and Ramdas Pophale) SiO2 
 PCOD8115910
Probable space group: C 2/M
;
_chemical_formula_sum "Si O2"
_cell_formula_units_Z 48
_cell_length_a 9.814244
_cell_length_b 14.817564
_cell_length_c 16.598300
_cell_angle_alpha 90.000000
_cell_angle_beta 82.616820
_cell_angle_gamma 90.000000
_cell_volume 2393.764910
_symmetry_space_group_name_H-M "C 2/M"
_symmetry_group_IT_number 12
_symmetry_cell_setting 'monoclinic'
loop_
_space_group_symop_operation_xyz
x,y,z
-x,y,-z
-x,-y,-z
x,-y,z
1/2+x,1/2+y,z
1/2-x,1/2+y,-z
1/2-x,1/2-y,-z
1/2+x,1/2-y,z
loop_
_atom_site_type_symbol
_atom_site_label
_atom_site_fract_x
_atom_site_fract_y
_atom_site_fract_z
Si Si1 0.364152 0.743673 0.057700
Si Si2 0.378333 0.892616 0.353513
Si Si3 0.925532 0.602859 0.171767
Si Si4 0.257691 0.897305 0.817764
Si Si5 0.321209 0.107196 0.635684
Si Si6 0.344539 0.607806 0.504508
O O1 0.366143 0.838621 0.103872
O O2 0.343487 0.664062 0.123188
O O3 0.500000 0.720329 0.000000
O O4 0.250000 0.750000 0.000000
O O5 0.363980 0.862141 0.261652
O O6 0.521630 0.855794 0.381088
O O7 0.246633 0.856922 0.413212
O O8 0.385420 0.000000 0.355470
O O9 0.880879 0.500000 0.158926
O O10 0.089152 0.611910 0.160064
O O11 0.252372 0.864534 0.725416
O O12 0.205979 0.000000 0.828716
O O13 0.227437 0.146683 0.570845
O O14 0.326900 0.000000 0.629055
O O15 0.500000 0.645428 0.500000
O O16 0.346906 0.500000 0.502454
#
# Coordination Sequence:
#
# PCOD8115910 Si02
#       6
#     8   8   8   8   8   8
#     4  12  24  40  61  88 114 143 187 237 290 347
#     4   8  14  27  49  74 100 140 191 226 256 316
#     4   9  19  38  62  84 111 152 194 230 276 340
#     4   9  19  38  61  84 114 150 190 234 281 335
#     4   8  14  27  49  73 100 143 189 223 260 317
#     4   9  15  23  39  72 115 145 172 219 274 322
#
# _framework density 20.052094
#
# number of rings (size 3 to 8) (size 9 to 14) (size 15 to 20)
#    0.000    2.833    1.667    2.500    0.000    3.333 
#    3.000    0.000    0.000    1.000    0.000    0.000 
#    0.000    0.000    0.000    0.000    0.000    0.000 
#
# Total GULP energy -297525.771023 kJ/mol
# GULP energy per Si atom -12396.907126 kJ/mol
# Density = 2.000645 g / cm^3
# Si number density = 20.052094 Si / 1000 Ang^3
#
#
#
# Elastic Constant Matrix: (Units=GPa)
#
#
# Indices 1 2 3 4 5 6 
#
# 1 137.8372 30.9489 88.8636 0.0000 -14.4716 0.0000
# 2 30.9489 51.0662 43.5428 0.0000 -7.6453 0.0000
# 3 88.8636 43.5428 154.0446 0.0000 -13.8032 0.0000
# 4 0.0000 0.0000 0.0000 1.7074 0.0000 -3.1202
# 5 -14.4716 -7.6453 -13.8032 0.0000 34.9736 0.0000
# 6 0.0000 0.0000 0.0000 -3.1202 0.0000 15.7779
#
#
#
# Elastic Compliance Matrix: (Units=1/GPa)
#
#
# Indices 1 2 3 4 5 6 
#
# 1 0.011815 -0.001574 -0.006182 0.000000 0.002105 0.000000
# 2 -0.001574 0.026290 -0.006289 0.000000 0.002614 0.000000
# 3 -0.006182 -0.006289 0.011904 0.000000 0.000765 0.000000
# 4 0.000000 0.000000 0.000000 0.917180 0.000000 0.181382
# 5 0.002105 0.002614 0.000765 0.000000 0.030337 0.000000
# 6 0.000000 0.000000 0.000000 0.181382 0.000000 0.099250
#
#
# Mechanical properties :
#
#
# Convention : Reuss Voigt Hill
#
# Bulk Modulus (GPa) = 45.62287 74.40650 60.01468
# Shear Modulus (GPa) = 4.41628 22.46462 13.44045
#
# Velocity S-wave (km/s) = 1.48566 3.35074 2.59178
# Velocity P-wave (km/s) = 5.07390 7.22199 6.24106
#
# Compressibility (1/GPa) = 0.02191883
#
# Stress axis : x y z
#
# Youngs Moduli (GPa) = 84.63827 38.03703 84.00392
#
# Poissons Ratio (x) = 0.05987 0.51933
# Poissons Ratio (y) = 0.13322 0.52831
# Poissons Ratio (z) = 0.52325 0.23922
#
# Static dielectric constant tensor:
#      x y z
#    x 3.667250 0.000000 -0.046720 
#    y 0.000000 3.269800 0.000000 
#    z -0.046720 0.000000 3.931070 
# 
# 
# High freq. dielectric constant tensor:
#      x y z
#    x 1.770590 0.000000 -0.003810 
#    y 0.000000 1.752890 0.000000 
#    z -0.003810 0.000000 1.795330 
# 
# From -- ./inp_files/255755.got.cif
#   From: 2010.06.25/outbox.cif.g09.slc.cpg/sg12_128_cif.got.tgz:255755.got - 2010.06.28 00:19:55.
