data_PCOD8115420
_publ_section_title
;
Structure prediction by ZEFSAII (Michael W. Deem and Ramdas Pophale) SiO2 
 PCOD8115420
Probable space group: C 2/M
;
_chemical_formula_sum "Si O2"
_cell_formula_units_Z 48
_cell_length_a 27.306083
_cell_length_b 16.665871
_cell_length_c 14.350111
_cell_angle_alpha 90.000000
_cell_angle_beta 159.842686
_cell_angle_gamma 90.000000
_cell_volume 2250.383778
_symmetry_space_group_name_H-M "C 2/M"
_symmetry_group_IT_number 12
_symmetry_cell_setting 'monoclinic'
loop_
_space_group_symop_operation_xyz
x,y,z
-x,y,-z
-x,-y,-z
x,-y,z
1/2+x,1/2+y,z
1/2-x,1/2+y,-z
1/2-x,1/2-y,-z
1/2+x,1/2-y,z
loop_
_atom_site_type_symbol
_atom_site_label
_atom_site_fract_x
_atom_site_fract_y
_atom_site_fract_z
Si Si1 0.350707 0.325172 0.193528
Si Si2 0.648078 0.594207 0.001096
Si Si3 0.185448 0.591859 0.057318
Si Si4 0.147775 0.593797 0.308789
Si Si5 0.613122 0.162181 0.447501
Si Si6 0.643484 0.348240 0.464126
O O1 0.500000 0.293155 0.500000
O O2 0.381312 0.370641 0.152817
O O3 0.250000 0.250000 0.000000
O O4 0.282397 0.388532 0.142287
O O5 0.668797 0.500000 0.031613
O O6 0.514827 0.616482 0.828721
O O7 0.790317 0.632696 0.295572
O O8 0.134348 0.500000 0.960134
O O9 0.049697 0.649816 0.814371
O O10 0.272575 0.602855 0.307552
O O11 0.168249 0.500000 0.328062
O O12 0.150445 0.611856 0.422572
O O13 0.277764 0.640755 0.493559
O O14 0.000000 0.624117 0.000000
O O15 0.640010 0.255272 0.481739
#
# Coordination Sequence:
#
# PCOD8115420 Si02
#       6
#     8   8   8   8   8   8
#     4  12  27  46  72 104 140 181 231 283 339 405
#     4  12  27  45  69 102 141 177 223 287 347 402
#     4  12  25  45  74 101 135 184 231 276 337 412
#     4  11  23  42  71 101 134 180 234 283 336 406
#     4  12  26  46  68 104 140 178 226 288 342 405
#     4  12  24  44  71 101 136 179 234 278 342 408
#
# _framework density 21.329695000000001
#
# number of rings (size 3 to 8) (size 9 to 14) (size 15 to 20)
#    0.000    0.167    3.333    7.000    2.333    1.333 
#    0.000    3.333    0.000    0.000    0.000    0.000 
#    0.000    0.000    0.000    0.000    0.000    0.000 
#
# Total GULP energy -297847.726808 kJ/mol
# GULP energy per Si atom -12410.321950 kJ/mol
# Density = 2.128115 g / cm^3
# Si number density = 21.329695 Si / 1000 Ang^3
#
#
#
# Elastic Constant Matrix: (Units=GPa)
#
#
# Indices 1 2 3 4 5 6 
#
# 1 83.1685 -23.4177 62.2284 0.0000 29.6559 0.0000
# 2 -23.4177 58.0057 83.6349 0.0000 39.6559 0.0000
# 3 62.2284 83.6349 52.7806 0.0000 -22.6987 0.0000
# 4 0.0000 0.0000 0.0000 29.1908 0.0000 2.1248
# 5 29.6559 39.6559 -22.6987 0.0000 24.6014 0.0000
# 6 0.0000 0.0000 0.0000 2.1248 0.0000 24.5163
#
#
#
# Elastic Compliance Matrix: (Units=1/GPa)
#
#
# Indices 1 2 3 4 5 6 
#
# 1 0.006250 -0.005566 0.003429 0.000000 0.004601 0.000000
# 2 -0.005566 0.002782 0.005157 0.000000 0.006984 0.000000
# 3 0.003429 0.005157 0.002285 0.000000 -0.010339 0.000000
# 4 0.000000 0.000000 0.000000 0.034475 0.000000 -0.002988
# 5 0.004601 0.006984 -0.010339 0.000000 0.014306 0.000000
# 6 0.000000 0.000000 0.000000 -0.002988 0.000000 0.041048
#
#
# Mechanical properties :
#
#
# Convention : Reuss Voigt Hill
#
# Bulk Modulus (GPa) = 57.60883 48.76067 53.18475
# Shear Modulus (GPa) = 49.55824 20.42897 34.99361
#
# Velocity S-wave (km/s) = 4.82544 3.09815 4.05483
# Velocity P-wave (km/s) = 7.62324 5.97563 6.84916
#
# Compressibility (1/GPa) = 0.01735845
#
# Stress axis : x y z
#
# Youngs Moduli (GPa) = 159.98764 359.46603 437.61205
#
# Poissons Ratio (x) = 2.00075 -1.50052
# Poissons Ratio (y) = 0.89047 -2.25698
# Poissons Ratio (z) = -0.54858 -1.85394
#
# Static dielectric constant tensor:
#      x y z
#    x 4.105800 0.000000 0.086150 
#    y 0.000000 4.201790 0.000000 
#    z 0.086150 0.000000 4.000150 
# 
# 
# High freq. dielectric constant tensor:
#      x y z
#    x 1.850030 0.000000 0.007810 
#    y 0.000000 1.849600 0.000000 
#    z 0.007810 0.000000 1.845210 
# 
# From -- ./inp_files/251394.got.cif
#   From: 2010.06.25/outbox.cif.g09.slc.cpg/sg12_126_cif.got.tgz:251394.got - 2010.06.28 00:19:55.
