data_PCOD8115774
_publ_section_title
;
Structure prediction by ZEFSAII (Michael W. Deem and Ramdas Pophale) SiO2 
 PCOD8115774
Probable space group: C 2/M
;
_chemical_formula_sum "Si O2"
_cell_formula_units_Z 28
_cell_length_a 18.259342
_cell_length_b 13.731052
_cell_length_c 4.963682
_cell_angle_alpha 90.000000
_cell_angle_beta 70.248410
_cell_angle_gamma 90.000000
_cell_volume 1171.276445
_symmetry_space_group_name_H-M "C 2/M"
_symmetry_group_IT_number 12
_symmetry_cell_setting 'monoclinic'
loop_
_space_group_symop_operation_xyz
x,y,z
-x,y,-z
-x,-y,-z
x,-y,z
1/2+x,1/2+y,z
1/2-x,1/2+y,-z
1/2-x,1/2-y,-z
1/2+x,1/2-y,z
loop_
_atom_site_type_symbol
_atom_site_label
_atom_site_fract_x
_atom_site_fract_y
_atom_site_fract_z
Si Si1 0.000000 0.284477 0.500000
Si Si2 0.690064 0.610245 0.107393
Si Si3 0.124787 0.785289 0.688488
Si Si4 0.137510 0.610331 0.027261
O O1 0.035433 0.215440 0.690645
O O2 0.068719 0.351531 0.301300
O O3 0.666471 0.500000 0.212002
O O4 0.679695 0.679520 0.378130
O O5 0.634727 0.645231 0.934242
O O6 0.780830 0.616797 0.911596
O O7 0.145026 0.674406 0.747139
O O8 0.119692 0.500000 0.959103
#
# Coordination Sequence:
#
# PCOD8115774 Si02
#       4
#     4   8   8   8
#     4  12  27  44  73 104 158 188 233 284 373 424
#     4  11  26  48  78 107 138 188 248 299 350 416
#     4  12  25  49  72 108 146 189 237 297 357 424
#     4  11  26  46  76 110 145 187 237 297 363 428
#
# _framework density 23.905543000000002
#
# number of rings (size 3 to 8) (size 9 to 14) (size 15 to 20)
#    0.000    0.571    2.857    3.857    4.000    3.429 
#    0.000    4.286    0.000    0.000    0.000    0.000 
#    0.000    0.000    0.000    0.000    0.000    0.000 
#
# Total GULP energy -173577.472294 kJ/mol
# GULP energy per Si atom -12398.390878 kJ/mol
# Density = 2.385113 g / cm^3
# Si number density = 23.905543 Si / 1000 Ang^3
#
#
#
# Elastic Constant Matrix: (Units=GPa)
#
#
# Indices 1 2 3 4 5 6 
#
# 1 129.5350 98.0660 58.5676 0.0000 29.5047 0.0000
# 2 98.0660 160.8032 85.7492 0.0000 -14.8220 0.0000
# 3 58.5676 85.7492 148.7235 0.0000 12.8706 0.0000
# 4 0.0000 0.0000 0.0000 -42.2652 0.0000 49.3692
# 5 29.5047 -14.8220 12.8706 0.0000 34.7941 0.0000
# 6 0.0000 0.0000 0.0000 49.3692 0.0000 -35.9316
#
#
#
# Elastic Compliance Matrix: (Units=1/GPa)
#
#
# Indices 1 2 3 4 5 6 
#
# 1 0.045837 -0.038138 0.008996 0.000000 -0.058444 0.000000
# 2 -0.038138 0.042076 -0.014040 0.000000 0.055459 0.000000
# 3 0.008996 -0.014040 0.012866 0.000000 -0.018369 0.000000
# 4 0.000000 0.000000 0.000000 0.039113 0.000000 0.053740
# 5 -0.058444 0.055459 -0.018369 0.000000 0.108719 0.000000
# 6 0.000000 0.000000 0.000000 0.053740 0.000000 0.046007
#
#
# Mechanical properties :
#
#
# Convention : Reuss Voigt Hill
#
# Bulk Modulus (GPa) = 69.37248 102.64747 86.00997
# Shear Modulus (GPa) = 12.96045 4.43140 8.69592
#
# Velocity S-wave (km/s) = 2.33094 1.36299 1.90932
# Velocity P-wave (km/s) = 6.02717 6.74603 6.39671
#
# Compressibility (1/GPa) = 0.01441494
#
# Stress axis : x y z
#
# Youngs Moduli (GPa) = 21.81625 23.76624 77.72368
#
# Poissons Ratio (x) = 0.90640 -0.69922
# Poissons Ratio (y) = 0.83203 1.09127
# Poissons Ratio (z) = -0.19626 0.33369
#
# Static dielectric constant tensor:
#      x y z
#    x 4.634380 0.000000 0.204290 
#    y 0.000000 4.550090 0.000000 
#    z 0.204290 0.000000 4.322620 
# 
# 
# High freq. dielectric constant tensor:
#      x y z
#    x 1.962290 0.000000 0.007010 
#    y 0.000000 1.947070 0.000000 
#    z 0.007010 0.000000 1.945200 
# 
# From -- ./inp_files/14105.got.cif
#   From: 2010.06.25/outbox.cif.g09.slc.cpg/sg12_8_cif.got.tgz:14105.got - 2010.06.28 00:19:55.
