data_PCOD8115113
_publ_section_title
;
Structure prediction by ZEFSAII (Michael W. Deem and Ramdas Pophale) SiO2 
 PCOD8115113
Probable space group: C 2/M
;
_chemical_formula_sum "Si O2"
_cell_formula_units_Z 48
_cell_length_a 17.991781
_cell_length_b 18.991600
_cell_length_c 8.610299
_cell_angle_alpha 90.000000
_cell_angle_beta 126.524826
_cell_angle_gamma 90.000000
_cell_volume 2364.249789
_symmetry_space_group_name_H-M "C 2/M"
_symmetry_group_IT_number 12
_symmetry_cell_setting 'monoclinic'
loop_
_space_group_symop_operation_xyz
x,y,z
-x,y,-z
-x,-y,-z
x,-y,z
1/2+x,1/2+y,z
1/2-x,1/2+y,-z
1/2-x,1/2-y,-z
1/2+x,1/2-y,z
loop_
_atom_site_type_symbol
_atom_site_label
_atom_site_fract_x
_atom_site_fract_y
_atom_site_fract_z
Si Si1 0.425854 0.833523 0.282625
Si Si2 0.461763 0.418984 0.622543
Si Si3 0.257218 0.797668 0.282272
Si Si4 0.947630 0.793107 0.090835
Si Si5 0.596447 0.918991 0.040905
Si Si6 0.732165 0.646672 0.575742
O O1 0.500000 0.858889 0.500000
O O2 0.328235 0.821485 0.241271
O O3 0.466706 0.764428 0.247740
O O4 0.409586 0.897428 0.145205
O O5 0.500000 0.402706 0.500000
O O6 0.480171 0.500000 0.692649
O O7 0.515196 0.369322 0.810647
O O8 0.352143 0.404862 0.488553
O O9 0.293603 0.724491 0.398415
O O10 0.249049 0.854059 0.411521
O O11 0.160760 0.793131 0.073835
O O12 0.000000 0.769410 0.000000
O O13 0.675035 0.875668 0.224437
O O14 0.622545 0.000000 0.085705
O O15 0.500000 0.900684 0.000000
#
# Coordination Sequence:
#
# PCOD8115113 Si02
#       6
#     8   8   8   8   8   8
#     4  12  25  41  67  98 126 166 215 275 323 380
#     4  11  25  43  66  94 133 177 216 263 324 394
#     4  11  24  39  68  98 130 163 216 272 318 379
#     4  12  23  42  65  97 133 170 214 267 321 385
#     4  11  25  44  66  91 127 172 217 266 324 387
#     4  11  22  44  66  95 128 170 215 265 324 387
#
# _framework density 20.302423000000001
#
# number of rings (size 3 to 8) (size 9 to 14) (size 15 to 20)
#    0.000    0.667    3.333    5.000    4.667    0.667 
#    0.000    1.667    0.000    0.000    0.000    0.000 
#    0.000    0.000    0.000    0.000    0.000    0.000 
#
# Total GULP energy -297768.596939 kJ/mol
# GULP energy per Si atom -12407.024872 kJ/mol
# Density = 2.025621 g / cm^3
# Si number density = 20.302423 Si / 1000 Ang^3
#
#
#
# Elastic Constant Matrix: (Units=GPa)
#
#
# Indices 1 2 3 4 5 6 
#
# 1 146.5947 37.5899 22.0137 0.0000 -11.3584 0.0000
# 2 37.5899 38.4329 10.5083 0.0000 -6.4755 0.0000
# 3 22.0137 10.5083 83.6078 0.0000 -6.9619 0.0000
# 4 0.0000 0.0000 0.0000 14.9112 0.0000 3.7441
# 5 -11.3584 -6.4755 -6.9619 0.0000 34.7860 0.0000
# 6 0.0000 0.0000 0.0000 3.7441 0.0000 26.7589
#
#
#
# Elastic Compliance Matrix: (Units=1/GPa)
#
#
# Indices 1 2 3 4 5 6 
#
# 1 0.009296 -0.008543 -0.001275 0.000000 0.001190 0.000000
# 2 -0.008543 0.035479 -0.001924 0.000000 0.003430 0.000000
# 3 -0.001275 -0.001924 0.012685 0.000000 0.001764 0.000000
# 4 0.000000 0.000000 0.000000 0.069506 0.000000 -0.009725
# 5 0.001190 0.003430 0.001764 0.000000 0.030127 0.000000
# 6 0.000000 0.000000 0.000000 -0.009725 0.000000 0.038732
#
#
# Mechanical properties :
#
#
# Convention : Reuss Voigt Hill
#
# Bulk Modulus (GPa) = 29.43261 45.42881 37.43071
# Shear Modulus (GPa) = 21.67945 28.52611 25.10278
#
# Velocity S-wave (km/s) = 3.27131 3.75248 3.52012
# Velocity P-wave (km/s) = 5.36630 6.41868 5.91594
#
# Compressibility (1/GPa) = 0.03397592
#
# Stress axis : x y z
#
# Youngs Moduli (GPa) = 107.57661 28.18576 78.83322
#
# Poissons Ratio (x) = 0.24079 0.10049
# Poissons Ratio (y) = 0.91901 0.15170
# Poissons Ratio (z) = 0.13713 0.05424
#
# Static dielectric constant tensor:
#      x y z
#    x 3.802150 0.000000 -0.195820 
#    y 0.000000 3.604730 0.000000 
#    z -0.195820 0.000000 3.494740 
# 
# 
# High freq. dielectric constant tensor:
#      x y z
#    x 1.813290 0.000000 0.000510 
#    y 0.000000 1.783380 0.000000 
#    z 0.000510 0.000000 1.806190 
# 
# From -- ./inp_files/77711.got.cif
#   From: 2010.06.25/outbox.cif.g09.slc.cpg/sg12_39_cif.got.tgz:77711.got - 2010.06.28 00:19:55.
