data_PCOD8115278
_publ_section_title
;
Structure prediction by ZEFSAII (Michael W. Deem and Ramdas Pophale) SiO2 
 PCOD8115278
Probable space group: C 2/M
;
_chemical_formula_sum "Si O2"
_cell_formula_units_Z 48
_cell_length_a 7.750017
_cell_length_b 26.958259
_cell_length_c 11.504044
_cell_angle_alpha 90.000000
_cell_angle_beta 90.166540
_cell_angle_gamma 90.000000
_cell_volume 2403.494851
_symmetry_space_group_name_H-M "C 2/M"
_symmetry_group_IT_number 12
_symmetry_cell_setting 'monoclinic'
loop_
_space_group_symop_operation_xyz
x,y,z
-x,y,-z
-x,-y,-z
x,-y,z
1/2+x,1/2+y,z
1/2-x,1/2+y,-z
1/2-x,1/2-y,-z
1/2+x,1/2-y,z
loop_
_atom_site_type_symbol
_atom_site_label
_atom_site_fract_x
_atom_site_fract_y
_atom_site_fract_z
Si Si1 0.283091 0.807157 0.619497
Si Si2 0.816432 0.700062 0.362638
Si Si3 0.502519 0.444475 0.375666
Si Si4 0.805059 0.595028 0.748206
Si Si5 0.705014 0.441853 0.995095
Si Si6 0.698715 0.104330 0.767714
O O1 0.217304 0.756325 0.678327
O O2 0.485650 0.806793 0.612658
O O3 0.215127 0.811492 0.484795
O O4 0.225620 0.852385 0.702702
O O5 0.763317 0.662523 0.258514
O O6 0.500000 0.416140 0.500000
O O7 0.561159 0.500000 0.398050
O O8 0.311924 0.445088 0.318385
O O9 0.649901 0.424449 0.293799
O O10 0.776720 0.587098 0.884176
O O11 0.008215 0.589566 0.718666
O O12 0.762297 0.500000 0.997689
O O13 0.500000 0.438213 0.000000
O O14 0.792594 0.410421 0.097916
#
# Coordination Sequence:
#
# PCOD8115278 Si02
#       6
#     8   8   8   8   8   8
#     4   9  19  35  58  89 121 157 200 247 303 366
#     4   9  19  35  58  89 121 157 200 247 303 366
#     4  11  24  39  59  89 123 162 203 249 311 372
#     4  11  23  40  62  89 123 160 206 256 309 362
#     4  11  23  41  64  88 116 159 213 260 306 365
#     4  11  23  40  62  89 123 160 206 256 309 362
#
# _framework density 19.970918999999999
#
# number of rings (size 3 to 8) (size 9 to 14) (size 15 to 20)
#    0.000    1.667    1.667    2.500    2.333    5.333 
#    0.000    2.500    0.000    0.000    0.000    0.000 
#    0.000    0.000    0.000    0.000    0.000    0.000 
#
# Total GULP energy -297398.216213 kJ/mol
# GULP energy per Si atom -12391.592342 kJ/mol
# Density = 1.992546 g / cm^3
# Si number density = 19.970919 Si / 1000 Ang^3
#
#
#
# Elastic Constant Matrix: (Units=GPa)
#
#
# Indices 1 2 3 4 5 6 
#
# 1 72.4546 2.4054 14.1927 0.0000 4.6363 0.0000
# 2 2.4054 108.5862 45.0876 0.0000 -1.7230 0.0000
# 3 14.1927 45.0876 122.6595 0.0000 7.8440 0.0000
# 4 0.0000 0.0000 0.0000 24.9014 0.0000 3.2722
# 5 4.6363 -1.7230 7.8440 0.0000 23.4045 0.0000
# 6 0.0000 0.0000 0.0000 3.2722 0.0000 27.8326
#
#
#
# Elastic Compliance Matrix: (Units=1/GPa)
#
#
# Indices 1 2 3 4 5 6 
#
# 1 0.014253 0.000323 -0.001624 0.000000 -0.002256 0.000000
# 2 0.000323 0.010986 -0.004214 0.000000 0.002157 0.000000
# 3 -0.001624 -0.004214 0.010105 0.000000 -0.003375 0.000000
# 4 0.000000 0.000000 0.000000 0.040788 0.000000 -0.004795
# 5 -0.002256 0.002157 -0.003375 0.000000 0.044464 0.000000
# 6 0.000000 0.000000 0.000000 -0.004795 0.000000 0.036493
#
#
# Mechanical properties :
#
#
# Convention : Reuss Voigt Hill
#
# Bulk Modulus (GPa) = 41.12596 47.45243 44.28920
# Shear Modulus (GPa) = 28.37305 31.36202 29.86754
#
# Velocity S-wave (km/s) = 3.77333 3.96711 3.87143
# Velocity P-wave (km/s) = 6.29457 6.69300 6.49684
#
# Compressibility (1/GPa) = 0.02431554
#
# Stress axis : x y z
#
# Youngs Moduli (GPa) = 70.15871 91.02573 98.95921
#
# Poissons Ratio (x) = -0.02937 0.16067
# Poissons Ratio (y) = -0.02263 0.41697
# Poissons Ratio (z) = 0.11391 0.38354
#
# Static dielectric constant tensor:
#      x y z
#    x 3.669990 0.000000 0.018750 
#    y 0.000000 4.961290 0.000000 
#    z 0.018750 0.000000 3.889260 
# 
# 
# High freq. dielectric constant tensor:
#      x y z
#    x 1.787710 0.000000 -0.000120 
#    y 0.000000 1.777750 0.000000 
#    z -0.000120 0.000000 1.769140 
# 
# From -- ./inp_files/121965.got.cif
#   From: 2010.06.25/outbox.cif.g09.slc.cpg/sg12_61_cif.got.tgz:121965.got - 2010.06.28 00:19:55.
