data_PCOD8115784
_publ_section_title
;
Structure prediction by ZEFSAII (Michael W. Deem and Ramdas Pophale) SiO2 
 PCOD8115784
Probable space group: C 2/M
;
_chemical_formula_sum "Si O2"
_cell_formula_units_Z 36
_cell_length_a 13.156099
_cell_length_b 24.312749
_cell_length_c 9.067165
_cell_angle_alpha 90.000000
_cell_angle_beta 144.683711
_cell_angle_gamma 90.000000
_cell_volume 1676.593949
_symmetry_space_group_name_H-M "C 2/M"
_symmetry_group_IT_number 12
_symmetry_cell_setting 'monoclinic'
loop_
_space_group_symop_operation_xyz
x,y,z
-x,y,-z
-x,-y,-z
x,-y,z
1/2+x,1/2+y,z
1/2-x,1/2+y,-z
1/2-x,1/2-y,-z
1/2+x,1/2-y,z
loop_
_atom_site_type_symbol
_atom_site_label
_atom_site_fract_x
_atom_site_fract_y
_atom_site_fract_z
Si Si1 0.076805 0.867336 0.943567
Si Si2 0.697977 0.764816 0.774338
Si Si3 0.819839 0.935725 0.203302
Si Si4 0.755299 0.192043 0.424490
Si Si5 0.000000 0.616317 0.000000
O O1 0.186302 0.907587 0.966496
O O2 0.925929 0.841839 0.664759
O O3 0.194229 0.818157 0.150994
O O4 0.000000 0.897792 0.000000
O O5 0.500000 0.780918 0.500000
O O6 0.742993 0.708125 0.745708
O O7 0.750000 0.750000 0.000000
O O8 0.652924 0.919788 0.106271
O O9 0.000000 0.919840 0.500000
O O10 0.810307 0.000000 0.161374
O O11 0.750000 0.250000 0.500000
O O12 0.583402 0.153307 0.232151
#
# Coordination Sequence:
#
# PCOD8115784 Si02
#       5
#     8   8   8   8   4
#     4  12  25  43  68 105 149 194 237 299 376 430
#     4  12  25  39  66 102 153 200 243 288 352 442
#     4  11  26  50  76 102 137 189 256 325 375 427
#     4  12  24  41  62 109 148 193 231 283 358 451
#     4  12  25  44  78 104 140 186 249 294 366 440
#
# _framework density 21.472102
#
# number of rings (size 3 to 8) (size 9 to 14) (size 15 to 20)
#    0.000    0.222    6.667    3.000    3.111    0.444 
#    0.000    0.000    0.000    2.000    0.000    0.000 
#    0.000    0.000    0.000    0.000    0.000    0.000 
#
# Total GULP energy -223094.057470 kJ/mol
# GULP energy per Si atom -12394.114304 kJ/mol
# Density = 2.142323 g / cm^3
# Si number density = 21.472102 Si / 1000 Ang^3
#
#
#
# Elastic Constant Matrix: (Units=GPa)
#
#
# Indices 1 2 3 4 5 6 
#
# 1 150.8569 44.5075 45.9994 0.0000 -4.2198 0.0000
# 2 44.5075 85.2182 39.9733 0.0000 1.8516 0.0000
# 3 45.9994 39.9733 131.0910 0.0000 12.6478 0.0000
# 4 0.0000 0.0000 0.0000 27.9615 0.0000 2.9567
# 5 -4.2198 1.8516 12.6478 0.0000 44.6019 0.0000
# 6 0.0000 0.0000 0.0000 2.9567 0.0000 27.7017
#
#
#
# Elastic Compliance Matrix: (Units=1/GPa)
#
#
# Indices 1 2 3 4 5 6 
#
# 1 0.008293 -0.003420 -0.002012 0.000000 0.001497 0.000000
# 2 -0.003420 0.015121 -0.003412 0.000000 0.000016 0.000000
# 3 -0.002012 -0.003412 0.009643 0.000000 -0.002783 0.000000
# 4 0.000000 0.000000 0.000000 0.036172 0.000000 -0.003861
# 5 0.001497 0.000016 -0.002783 0.000000 0.023351 0.000000
# 6 0.000000 0.000000 0.000000 -0.003861 0.000000 0.036511
#
#
# Mechanical properties :
#
#
# Convention : Reuss Voigt Hill
#
# Bulk Modulus (GPa) = 65.06490 69.79183 67.42837
# Shear Modulus (GPa) = 32.91594 35.83208 34.37401
#
# Velocity S-wave (km/s) = 3.91955 4.08949 4.00543
# Velocity P-wave (km/s) = 7.13104 7.40761 7.27064
#
# Compressibility (1/GPa) = 0.01536927
#
# Stress axis : x y z
#
# Youngs Moduli (GPa) = 120.58189 66.13252 103.70058
#
# Poissons Ratio (x) = 0.22619 0.20860
# Poissons Ratio (y) = 0.41242 0.35385
# Poissons Ratio (z) = 0.24255 0.22566
#
# Static dielectric constant tensor:
#      x y z
#    x 4.219430 0.000000 0.033840 
#    y 0.000000 4.147350 0.000000 
#    z 0.033840 0.000000 4.123530 
# 
# 
# High freq. dielectric constant tensor:
#      x y z
#    x 1.851670 0.000000 0.000910 
#    y 0.000000 1.827030 0.000000 
#    z 0.000910 0.000000 1.858750 
# 
# From -- ./inp_files/52931.got.cif
#   From: 2010.06.25/outbox.cif.g09.slc.cpg/sg12_27_cif.got.tgz:52931.got - 2010.06.28 00:19:55.
