data_PCOD8115086
_publ_section_title
;
Structure prediction by ZEFSAII (Michael W. Deem and Ramdas Pophale) SiO2 
 PCOD8115086
Probable space group: C 2/M
;
_chemical_formula_sum "Si O2"
_cell_formula_units_Z 64
_cell_length_a 17.537990
_cell_length_b 28.552720
_cell_length_c 8.406688
_cell_angle_alpha 90.000000
_cell_angle_beta 135.770270
_cell_angle_gamma 90.000000
_cell_volume 2936.428875
_symmetry_space_group_name_H-M "C 2/M"
_symmetry_group_IT_number 12
_symmetry_cell_setting 'monoclinic'
loop_
_space_group_symop_operation_xyz
x,y,z
-x,y,-z
-x,-y,-z
x,-y,z
1/2+x,1/2+y,z
1/2-x,1/2+y,-z
1/2-x,1/2-y,-z
1/2+x,1/2-y,z
loop_
_atom_site_type_symbol
_atom_site_label
_atom_site_fract_x
_atom_site_fract_y
_atom_site_fract_z
Si Si1 0.992295 0.447016 0.298409
Si Si2 0.091888 0.881562 0.268655
Si Si3 0.393638 0.554412 0.422190
Si Si4 0.269236 0.203776 0.927196
Si Si5 0.176120 0.382120 0.541895
Si Si6 0.068835 0.207339 0.436876
Si Si7 0.281724 0.896466 0.036170
Si Si8 0.513607 0.197419 0.205020
O O1 0.972153 0.500000 0.202767
O O2 0.895701 0.409473 0.117260
O O3 0.000000 0.449400 0.500000
O O4 0.099211 0.425323 0.367265
O O5 0.117334 0.925330 0.417895
O O6 0.212030 0.870086 0.380094
O O7 0.043086 0.839427 0.301037
O O8 0.000000 0.893979 0.000000
O O9 0.500000 0.576278 0.500000
O O10 0.403521 0.500000 0.462847
O O11 0.297284 0.565149 0.156365
O O12 0.199425 0.210775 0.662970
O O13 0.250000 0.250000 0.000000
O O14 0.226455 0.154779 0.933188
O O15 0.395340 0.191556 0.103100
O O16 0.207403 0.401135 0.760757
O O17 0.101865 0.335117 0.426707
O O18 0.044166 0.248863 0.278655
O O19 0.000000 0.210311 0.500000
O O20 0.500000 0.185573 0.000000
#
# Coordination Sequence:
#
# PCOD8115086 Si02
#       8
#     8   8   8   8   8   8   8   8
#     4   9  19  38  67 101 134 174 224 280 343 414
#     4  12  27  45  69 103 141 183 230 290 358 427
#     4  11  25  46  72 101 138 186 237 292 351 420
#     4  12  24  40  71 101 134 182 233 287 344 409
#     4  11  25  42  70 101 142 182 228 293 358 414
#     4  12  26  44  69  97 135 185 242 288 345 419
#     4  11  22  42  71 100 137 178 236 290 340 419
#     4  12  27  45  67 101 147 185 232 288 358 421
#
# _framework density 21.795183000000002
#
# number of rings (size 3 to 8) (size 9 to 14) (size 15 to 20)
#    0.000    0.750    3.750    3.375    1.750    5.250 
#    0.000    0.000    0.000    1.875    0.000    0.000 
#    0.000    0.000    0.000    0.000    0.000    0.000 
#
# Total GULP energy -396465.872805 kJ/mol
# GULP energy per Si atom -12389.558525 kJ/mol
# Density = 2.174558 g / cm^3
# Si number density = 21.795183 Si / 1000 Ang^3
#
#
#
# Elastic Constant Matrix: (Units=GPa)
#
#
# Indices 1 2 3 4 5 6 
#
# 1 92.8715 25.7613 41.7173 0.0000 16.4804 0.0000
# 2 25.7613 108.9535 24.3971 0.0000 -1.0134 0.0000
# 3 41.7173 24.3971 131.6575 0.0000 6.7788 0.0000
# 4 0.0000 0.0000 0.0000 26.7515 0.0000 10.9045
# 5 16.4804 -1.0134 6.7788 0.0000 37.6043 0.0000
# 6 0.0000 0.0000 0.0000 10.9045 0.0000 24.1207
#
#
#
# Elastic Compliance Matrix: (Units=1/GPa)
#
#
# Indices 1 2 3 4 5 6 
#
# 1 0.014142 -0.002563 -0.003718 0.000000 -0.005597 0.000000
# 2 -0.002563 0.010053 -0.001133 0.000000 0.001599 0.000000
# 3 -0.003718 -0.001133 0.008985 0.000000 -0.000021 0.000000
# 4 0.000000 0.000000 0.000000 0.045826 0.000000 -0.020717
# 5 -0.005597 0.001599 -0.000021 0.000000 0.029092 0.000000
# 6 0.000000 0.000000 0.000000 -0.020717 0.000000 0.050824
#
#
# Mechanical properties :
#
#
# Convention : Reuss Voigt Hill
#
# Bulk Modulus (GPa) = 54.49299 57.47043 55.98171
# Shear Modulus (GPa) = 27.79842 33.80241 30.80041
#
# Velocity S-wave (km/s) = 3.57520 3.94243 3.76330
# Velocity P-wave (km/s) = 6.48840 6.86654 6.68015
#
# Compressibility (1/GPa) = 0.01835098
#
# Stress axis : x y z
#
# Youngs Moduli (GPa) = 70.71268 99.47415 111.30250
#
# Poissons Ratio (x) = 0.25498 0.41380
# Poissons Ratio (y) = 0.18126 0.12610
# Poissons Ratio (z) = 0.26290 0.11270
#
# Static dielectric constant tensor:
#      x y z
#    x 3.942170 0.000000 0.348940 
#    y 0.000000 4.102990 0.000000 
#    z 0.348940 0.000000 4.436330 
# 
# 
# High freq. dielectric constant tensor:
#      x y z
#    x 1.839980 0.000000 0.017650 
#    y 0.000000 1.868680 0.000000 
#    z 0.017650 0.000000 1.872980 
# 
# From -- ./inp_files/80792.got.cif
#   From: 2010.06.25/outbox.cif.g09.slc.cpg/sg12_41_cif.got.tgz:80792.got - 2010.06.28 00:19:55.
