data_PCOD8115427
_publ_section_title
;
Structure prediction by ZEFSAII (Michael W. Deem and Ramdas Pophale) SiO2 
 PCOD8115427
Probable space group: C 2/M
;
_chemical_formula_sum "Si O2"
_cell_formula_units_Z 24
_cell_length_a 8.347695
_cell_length_b 16.901846
_cell_length_c 10.264833
_cell_angle_alpha 90.000000
_cell_angle_beta 134.777966
_cell_angle_gamma 90.000000
_cell_volume 1028.049644
_symmetry_space_group_name_H-M "C 2/M"
_symmetry_group_IT_number 12
_symmetry_cell_setting 'monoclinic'
loop_
_space_group_symop_operation_xyz
x,y,z
-x,y,-z
-x,-y,-z
x,-y,z
1/2+x,1/2+y,z
1/2-x,1/2+y,-z
1/2-x,1/2-y,-z
1/2+x,1/2-y,z
loop_
_atom_site_type_symbol
_atom_site_label
_atom_site_fract_x
_atom_site_fract_y
_atom_site_fract_z
Si Si1 0.627345 0.910953 0.739397
Si Si2 0.770523 0.334881 0.945655
Si Si3 0.296067 0.663690 0.582011
O O1 0.354781 0.897355 0.588806
O O2 0.727061 0.846259 0.695255
O O3 0.678875 0.000000 0.721640
O O4 0.735921 0.899582 0.943022
O O5 0.564442 0.352462 0.728186
O O6 0.750000 0.250000 0.000000
O O7 0.000000 0.342926 0.000000
O O8 0.250000 0.750000 0.500000
#
# Coordination Sequence:
#
# PCOD8115427 Si02
#       3
#     8   8   8
#     4  11  26  47  74 108 147 188 236 297 362 417
#     4  12  26  44  71 105 142 190 241 294 353 427
#     4  11  23  42  74 104 140 188 241 287 346 429
#
# _framework density 23.345178000000001
#
# number of rings (size 3 to 8) (size 9 to 14) (size 15 to 20)
#    0.000    0.667    3.333    5.000    4.667    6.000 
#    0.000    1.667    0.000    0.000    0.000    0.000 
#    0.000    0.000    0.000    0.000    0.000    0.000 
#
# Total GULP energy -148764.852029 kJ/mol
# GULP energy per Si atom -12397.071002 kJ/mol
# Density = 2.329204 g / cm^3
# Si number density = 23.345178 Si / 1000 Ang^3
#
#
#
# Elastic Constant Matrix: (Units=GPa)
#
#
# Indices 1 2 3 4 5 6 
#
# 1 107.2460 54.1508 35.7239 0.0000 9.8725 0.0000
# 2 54.1508 126.2656 35.1941 0.0000 -6.6478 0.0000
# 3 35.7239 35.1941 166.8567 0.0000 27.1256 0.0000
# 4 0.0000 0.0000 0.0000 30.4379 0.0000 -3.5882
# 5 9.8725 -6.6478 27.1256 0.0000 46.5716 0.0000
# 6 0.0000 0.0000 0.0000 -3.5882 0.0000 29.3704
#
#
#
# Elastic Compliance Matrix: (Units=1/GPa)
#
#
# Indices 1 2 3 4 5 6 
#
# 1 0.012600 -0.005228 -0.001148 0.000000 -0.002749 0.000000
# 2 -0.005228 0.010849 -0.001768 0.000000 0.003687 0.000000
# 3 -0.001148 -0.001768 0.007305 0.000000 -0.004264 0.000000
# 4 0.000000 0.000000 0.000000 0.033334 0.000000 0.004072
# 5 -0.002749 0.003687 -0.004264 0.000000 0.025065 0.000000
# 6 0.000000 0.000000 0.000000 0.004072 0.000000 0.034545
#
#
# Mechanical properties :
#
#
# Convention : Reuss Voigt Hill
#
# Bulk Modulus (GPa) = 69.13409 72.27843 70.70626
# Shear Modulus (GPa) = 34.52834 39.62928 37.07881
#
# Velocity S-wave (km/s) = 3.85000 4.12459 3.98965
# Velocity P-wave (km/s) = 7.03146 7.32877 7.18166
#
# Compressibility (1/GPa) = 0.01446464
#
# Stress axis : x y z
#
# Youngs Moduli (GPa) = 79.36730 92.17402 136.89051
#
# Poissons Ratio (x) = 0.48191 0.15714
# Poissons Ratio (y) = 0.41495 0.24207
# Poissons Ratio (z) = 0.09111 0.16299
#
# Static dielectric constant tensor:
#      x y z
#    x 4.100000 0.000000 0.220480 
#    y 0.000000 3.995910 0.000000 
#    z 0.220480 0.000000 5.140060 
# 
# 
# High freq. dielectric constant tensor:
#      x y z
#    x 1.903420 0.000000 0.008720 
#    y 0.000000 1.902290 0.000000 
#    z 0.008720 0.000000 1.956720 
# 
# From -- ./inp_files/36387.got.cif
#   From: 2010.06.25/outbox.cif.g09.slc.cpg/sg12_19_cif.got.tgz:36387.got - 2010.06.28 00:19:55.
