data_PCOD8115888
_publ_section_title
;
Structure prediction by ZEFSAII (Michael W. Deem and Ramdas Pophale) SiO2 
 PCOD8115888
Probable space group: C 2/M
;
_chemical_formula_sum "Si O2"
_cell_formula_units_Z 36
_cell_length_a 25.544520
_cell_length_b 14.618496
_cell_length_c 8.790287
_cell_angle_alpha 90.000000
_cell_angle_beta 148.281538
_cell_angle_gamma 90.000000
_cell_volume 1725.755576
_symmetry_space_group_name_H-M "C 2/M"
_symmetry_group_IT_number 12
_symmetry_cell_setting 'monoclinic'
loop_
_space_group_symop_operation_xyz
x,y,z
-x,y,-z
-x,-y,-z
x,-y,z
1/2+x,1/2+y,z
1/2-x,1/2+y,-z
1/2-x,1/2-y,-z
1/2+x,1/2-y,z
loop_
_atom_site_type_symbol
_atom_site_label
_atom_site_fract_x
_atom_site_fract_y
_atom_site_fract_z
Si Si1 0.832347 0.816601 0.274842
Si Si2 0.772111 0.669885 0.667013
Si Si3 0.565566 0.000000 0.310471
Si Si4 0.738469 0.500000 0.371862
Si Si5 0.617473 0.500000 0.784606
Si Si6 0.001706 0.326377 0.676538
O O1 0.800227 0.837570 0.367377
O O2 0.840416 0.909655 0.196763
O O3 0.940077 0.767415 0.546904
O O4 0.750000 0.750000 0.000000
O O5 0.750000 0.750000 0.500000
O O6 0.750628 0.582628 0.514773
O O7 0.885276 0.685567 0.994859
O O8 0.548068 0.091938 0.357332
O O9 0.680279 0.000000 0.558307
O O10 0.500000 0.000000 0.000000
O O11 0.640968 0.500000 0.024525
O O12 0.500000 0.500000 0.500000
O O13 0.000000 0.357763 0.500000
#
# Coordination Sequence:
#
# PCOD8115888 Si02
#       6
#     8   8   4   4   4   8
#     4  12  26  47  76 106 145 198 245 294 363 440
#     4  12  26  45  70 105 144 184 239 300 360 427
#     4  12  23  42  70 108 143 178 230 305 364 420
#     4  12  27  47  71 103 145 185 233 303 365 425
#     4  12  29  51  75 106 151 195 249 296 365 445
#     4  12  25  44  72 106 142 185 241 297 362 429
#
# _framework density 20.860427999999999
#
# number of rings (size 3 to 8) (size 9 to 14) (size 15 to 20)
#    0.000    0.000    4.444    5.667    3.111    0.000 
#    0.000    1.111    0.000    0.000    0.000    0.000 
#    0.000    0.000    0.000    0.000    0.000    0.000 
#
# Total GULP energy -223178.319655 kJ/mol
# GULP energy per Si atom -12398.795536 kJ/mol
# Density = 2.081295 g / cm^3
# Si number density = 20.860428 Si / 1000 Ang^3
#
#
#
# Elastic Constant Matrix: (Units=GPa)
#
#
# Indices 1 2 3 4 5 6 
#
# 1 149.3078 60.4516 64.3042 0.0000 -18.3597 0.0000
# 2 60.4516 168.8690 62.5564 0.0000 -21.4218 0.0000
# 3 64.3042 62.5564 168.2908 0.0000 -21.7021 0.0000
# 4 0.0000 0.0000 0.0000 51.2367 0.0000 -6.7245
# 5 -18.3597 -21.4218 -21.7021 0.0000 29.5142 0.0000
# 6 0.0000 0.0000 0.0000 -6.7245 0.0000 62.4547
#
#
#
# Elastic Compliance Matrix: (Units=1/GPa)
#
#
# Indices 1 2 3 4 5 6 
#
# 1 0.008788 -0.001993 -0.002318 0.000000 0.002315 0.000000
# 2 -0.001993 0.007650 -0.001686 0.000000 0.003073 0.000000
# 3 -0.002318 -0.001686 0.007856 0.000000 0.003111 0.000000
# 4 0.000000 0.000000 0.000000 0.019797 0.000000 0.002132
# 5 0.002315 0.003073 0.003111 0.000000 0.039840 0.000000
# 6 0.000000 0.000000 0.000000 0.002132 0.000000 0.016241
#
#
# Mechanical properties :
#
#
# Convention : Reuss Voigt Hill
#
# Bulk Modulus (GPa) = 81.31080 95.67688 88.49384
# Shear Modulus (GPa) = 43.00534 48.58483 45.79508
#
# Velocity S-wave (km/s) = 4.54538 4.83125 4.69050
# Velocity P-wave (km/s) = 8.16152 8.77987 8.47634
#
# Compressibility (1/GPa) = 0.01229849
#
# Stress axis : x y z
#
# Youngs Moduli (GPa) = 113.79449 130.72732 127.29727
#
# Poissons Ratio (x) = 0.26059 0.29512
# Poissons Ratio (y) = 0.22683 0.21456
# Poissons Ratio (z) = 0.26381 0.22035
#
# Static dielectric constant tensor:
#      x y z
#    x 4.198480 0.000000 -0.040920 
#    y 0.000000 3.982740 0.000000 
#    z -0.040920 0.000000 4.027000 
# 
# 
# High freq. dielectric constant tensor:
#      x y z
#    x 1.838640 0.000000 -0.005650 
#    y 0.000000 1.834820 0.000000 
#    z -0.005650 0.000000 1.835760 
# 
# From -- ./inp_files/105118.got.cif
#   From: 2010.06.25/outbox.cif.g09.slc.cpg/sg12_53_cif.got.tgz:105118.got - 2010.06.28 00:19:55.
