data_PCOD8116086
_publ_section_title
;
Structure prediction by ZEFSAII (Michael W. Deem and Ramdas Pophale) SiO2 
 PCOD8116086
Probable space group: C 2/M
;
_chemical_formula_sum "Si O2"
_cell_formula_units_Z 56
_cell_length_a 20.172228
_cell_length_b 9.177191
_cell_length_c 21.674749
_cell_angle_alpha 90.000000
_cell_angle_beta 117.879947
_cell_angle_gamma 90.000000
_cell_volume 3546.788313
_symmetry_space_group_name_H-M "C 2/M"
_symmetry_group_IT_number 12
_symmetry_cell_setting 'monoclinic'
loop_
_space_group_symop_operation_xyz
x,y,z
-x,y,-z
-x,-y,-z
x,-y,z
1/2+x,1/2+y,z
1/2-x,1/2+y,-z
1/2-x,1/2-y,-z
1/2+x,1/2-y,z
loop_
_atom_site_type_symbol
_atom_site_label
_atom_site_fract_x
_atom_site_fract_y
_atom_site_fract_z
Si Si1 0.764367 0.834998 0.568505
Si Si2 0.786149 0.835942 0.926444
Si Si3 0.559042 0.670600 0.803447
Si Si4 0.757327 0.330001 0.682177
Si Si5 0.363857 0.164223 0.059249
Si Si6 0.202753 0.168913 0.790797
Si Si7 0.107753 0.164275 0.291096
O O1 0.750000 0.750000 0.500000
O O2 0.721878 0.754837 0.607515
O O3 0.853838 0.833004 0.623735
O O4 0.734249 0.000000 0.549035
O O5 0.713097 0.835343 0.936963
O O6 0.767199 0.759306 0.853528
O O7 0.813703 0.000000 0.925644
O O8 0.852522 0.748723 0.989783
O O9 0.563924 0.500000 0.820140
O O10 0.572730 0.755120 0.873206
O O11 0.620193 0.714694 0.778416
O O12 0.477906 0.717911 0.742055
O O13 0.760898 0.500000 0.668400
O O14 0.706548 0.297423 0.719741
O O15 0.842357 0.269834 0.731164
O O16 0.390320 0.000000 0.056670
O O17 0.218732 0.000000 0.811611
O O18 0.110898 0.000000 0.265502
#
# Coordination Sequence:
#
# PCOD8116086 Si02
#       7
#     8   8   8   8   8   8   8
#     4   9  17  30  49  72  91 115 149 182 216 254
#     4   9  16  25  39  59  85 118 152 186 223 262
#     4   9  16  29  46  65  90 118 150 185 223 264
#     4   9  17  29  46  69  93 118 146 179 219 263
#     4   9  16  25  38  60  87 115 150 188 225 263
#     4   9  17  28  45  67  91 118 148 185 224 263
#     4   8  17  30  46  67  90 118 148 182 218 260
#
# _framework density 15.788932000000001
#
# number of rings (size 3 to 8) (size 9 to 14) (size 15 to 20)
#    0.857    2.286    0.000    1.286    0.000    5.143 
#    0.000    0.000    0.000    1.714    0.000   12.000 
#    0.000    0.000    0.000    0.000    0.000    0.000 
#
# Total GULP energy -346933.233073 kJ/mol
# GULP energy per Si atom -12390.472610 kJ/mol
# Density = 1.575300 g / cm^3
# Si number density = 15.788932 Si / 1000 Ang^3
#
#
#
# Elastic Constant Matrix: (Units=GPa)
#
#
# Indices 1 2 3 4 5 6 
#
# 1 37.2127 16.1052 11.6932 0.0000 2.6331 0.0000
# 2 16.1052 84.8632 28.6978 0.0000 -3.7145 0.0000
# 3 11.6932 28.6978 55.0327 0.0000 0.3682 0.0000
# 4 0.0000 0.0000 0.0000 31.1334 0.0000 -1.3873
# 5 2.6331 -3.7145 0.3682 0.0000 21.2036 0.0000
# 6 0.0000 0.0000 0.0000 -1.3873 0.0000 16.4318
#
#
#
# Elastic Compliance Matrix: (Units=1/GPa)
#
#
# Indices 1 2 3 4 5 6 
#
# 1 0.030457 -0.004613 -0.004036 0.000000 -0.004520 0.000000
# 2 -0.004613 0.015154 -0.006945 0.000000 0.003348 0.000000
# 3 -0.004036 -0.006945 0.022657 0.000000 -0.001109 0.000000
# 4 0.000000 0.000000 0.000000 0.032241 0.000000 0.002722
# 5 -0.004520 0.003348 -0.001109 0.000000 0.048329 0.000000
# 6 0.000000 0.000000 0.000000 0.002722 0.000000 0.061088
#
#
# Mechanical properties :
#
#
# Convention : Reuss Voigt Hill
#
# Bulk Modulus (GPa) = 26.96747 32.23345 29.60046
# Shear Modulus (GPa) = 19.72593 21.79457 20.76025
#
# Velocity S-wave (km/s) = 3.53845 3.71936 3.63003
# Velocity P-wave (km/s) = 5.81474 6.23734 6.02975
#
# Compressibility (1/GPa) = 0.03708171
#
# Stress axis : x y z
#
# Youngs Moduli (GPa) = 32.83310 65.98858 44.13598
#
# Poissons Ratio (x) = 0.30443 0.17811
# Poissons Ratio (y) = 0.15147 0.30651
# Poissons Ratio (z) = 0.13250 0.45826
#
# Static dielectric constant tensor:
#      x y z
#    x 2.662400 0.000000 0.039140 
#    y 0.000000 3.149730 0.000000 
#    z 0.039140 0.000000 2.905710 
# 
# 
# High freq. dielectric constant tensor:
#      x y z
#    x 1.557660 0.000000 -0.000900 
#    y 0.000000 1.620100 0.000000 
#    z -0.000900 0.000000 1.596390 
# 
# From -- ./inp_files/319335.got.cif
#   From: 2010.06.25/outbox.cif.g09.slc.cpg/sg12_160_cif.got.tgz:319335.got - 2010.06.28 00:19:55.
