data_PCOD8116223
_publ_section_title
;
Structure prediction by ZEFSAII (Michael W. Deem and Ramdas Pophale) SiO2 
 PCOD8116223
Probable space group: C 2/M
;
_chemical_formula_sum "Si O2"
_cell_formula_units_Z 26
_cell_length_a 9.000000
_cell_length_b 24.000000
_cell_length_c 27.000000
_cell_angle_alpha 90.000000
_cell_angle_beta 30.000000
_cell_angle_gamma 90.000000
_cell_volume 2916.000000
_symmetry_space_group_name_H-M "C 2/M"
_symmetry_group_IT_number 12
_symmetry_cell_setting 'monoclinic'
loop_
_space_group_symop_operation_xyz
x,y,z
-x,y,-z
-x,-y,-z
x,-y,z
1/2+x,1/2+y,z
1/2-x,1/2+y,-z
1/2-x,1/2-y,-z
1/2+x,1/2-y,z
loop_
_atom_site_type_symbol
_atom_site_label
_atom_site_fract_x
_atom_site_fract_y
_atom_site_fract_z
Si Si1 0.078422 0.142478 0.728044
Si Si2 0.000000 0.798874 0.000000
Si Si3 0.685871 0.358278 0.851456
Si Si4 0.836379 0.934135 0.885745
Si Si5 0.354146 0.810416 0.488625
Si Si6 0.438571 0.267841 0.191933
Si Si7 0.325812 0.656817 0.698633
O O1 0.430258 0.156075 0.612749
O O2 0.951453 0.198491 0.790891
O O3 0.983218 0.092872 0.793538
O O4 0.925824 0.126486 0.720347
O O5 0.012039 0.837491 0.045221
O O6 0.713211 0.759848 0.084439
O O7 0.539968 0.414291 0.872682
O O8 0.716344 0.310411 0.801055
O O9 0.019777 0.372352 0.771565
O O10 0.856578 0.000000 0.873098
O O11 0.500000 0.916381 0.000000
O O12 0.500000 0.801057 0.500000
O O13 0.250000 0.750000 0.500000
O O14 0.060667 0.848100 0.585447
O O15 0.207125 0.221937 0.277374
#
# Coordination Sequence:
#
# PCOD8116223 Si02
#       7
#     8   4   8   8   8   8   8
#     4  10  21  35  56  79 112 154 185 228 270 327
#     4  10  20  30  49  76 115 146 176 218 268 340
#     4  10  22  33  54  79 108 148 182 233 273 330
#     4  10  24  44  62  77 101 142 196 243 288 333
#     4  10  20  32  52  82 120 158 184 214 261 330
#     4  10  19  30  48  77 114 156 183 206 264 337
#     4  10  19  33  52  82 121 141 186 215 272 330
#
# _framework density 8.9163239999999995
#
# number of rings (size 3 to 8) (size 9 to 14) (size 15 to 20)
#    0.000    2.000    1.538    2.308   10.769    0.000 
#    0.000    1.154    0.000    6.000    0.000    0.000 
#    0.000    0.000    0.000    0.000    0.000    0.000 
#
# Total GULP energy -322135.796802 kJ/mol
# GULP energy per Si atom -12389.838339 kJ/mol
# Density = 0.889603 g / cm^3
# Si number density = 8.916324 Si / 1000 Ang^3
#
#
#
# Elastic Constant Matrix: (Units=GPa)
#
#
# Indices 1 2 3 4 5 6 
#
# 1 83.6039 27.6219 51.3143 0.5862 2.1756 -0.0814
# 2 27.6219 73.3791 46.8936 -0.7160 3.2916 0.0507
# 3 51.3143 46.8936 172.2811 0.1582 7.3864 -0.2026
# 4 0.5862 -0.7160 0.1582 26.5287 0.2326 3.4437
# 5 2.1756 3.2916 7.3864 0.2326 32.8798 0.1389
# 6 -0.0814 0.0507 -0.2026 3.4437 0.1389 17.6593
#
#
#
# Elastic Compliance Matrix: (Units=1/GPa)
#
#
# Indices 1 2 3 4 5 6 
#
# 1 0.015333 -0.003463 -0.003630 -0.000428 0.000150 0.000121
# 2 -0.003463 0.017300 -0.003649 0.000600 -0.000686 -0.000219
# 3 -0.003630 -0.003649 0.007930 -0.000069 -0.001176 0.000107
# 4 -0.000428 0.000600 -0.000069 0.038703 -0.000258 -0.007550
# 5 0.000150 -0.000686 -0.001176 -0.000258 0.030739 -0.000202
# 6 0.000121 -0.000219 0.000107 -0.007550 -0.000202 0.058104
#
#
# Mechanical properties :
#
#
# Convention : Reuss Voigt Hill
#
# Bulk Modulus (GPa) = 52.41517 64.54707 58.48112
# Shear Modulus (GPa) = 25.51646 28.97583 27.24614
#
# Velocity S-wave (km/s) = 3.78681 4.03535 3.91305
# Velocity P-wave (km/s) = 6.96968 7.61490 7.29942
#
# Compressibility (1/GPa) = 0.01907845
#
# Stress axis : x y z
#
# Youngs Moduli (GPa) = 65.22072 57.80351 126.11036
#
# Poissons Ratio (x) = 0.20015 0.45781
# Poissons Ratio (y) = 0.22584 0.46017
# Poissons Ratio (z) = 0.23677 0.21092
#
# Static dielectric constant tensor:
#      x y z
#    x 3.438090 -0.000220 0.185780 
#    y -0.000220 2.941590 0.002500 
#    z 0.185780 0.002500 3.888590 
# 
# 
# High freq. dielectric constant tensor:
#      x y z
#    x 1.699090 -0.000040 0.014330 
#    y -0.000040 1.642950 0.000150 
#    z 0.014330 0.000150 1.722380 
# 
# From -- ./inp_files/357037.got.cif
#   From: 2010.06.25/outbox.ucp.g09.slc.cvg/sg12_179_cif.got.tgz:357037.got - 2010.06.28 13:50:54.
