data_PCOD8116570
_publ_section_title
;
Structure prediction by ZEFSAII (Michael W. Deem and Ramdas Pophale) SiO2 
 PCOD8116570
Probable space group: C 2/M
;
_chemical_formula_sum "Si O2"
_cell_formula_units_Z 20
_cell_length_a 15.000000
_cell_length_b 9.000000
_cell_length_c 30.000000
_cell_angle_alpha 90.000000
_cell_angle_beta 30.000000
_cell_angle_gamma 90.000000
_cell_volume 2025.000000
_symmetry_space_group_name_H-M "C 2/M"
_symmetry_group_IT_number 12
_symmetry_cell_setting 'monoclinic'
loop_
_space_group_symop_operation_xyz
x,y,z
-x,y,-z
-x,-y,-z
x,-y,z
1/2+x,1/2+y,z
1/2-x,1/2+y,-z
1/2-x,1/2-y,-z
1/2+x,1/2-y,z
loop_
_atom_site_type_symbol
_atom_site_label
_atom_site_fract_x
_atom_site_fract_y
_atom_site_fract_z
Si Si1 0.709101 0.173429 0.902537
Si Si2 0.562031 0.169096 0.265494
Si Si3 0.323548 0.674960 0.603782
Si Si4 0.115020 0.323461 0.093249
Si Si5 0.252557 0.329416 0.270725
O O1 0.788160 0.221201 0.820563
O O2 0.814951 0.284206 0.888514
O O3 0.750154 0.000000 0.893936
O O4 0.500000 0.204137 0.000000
O O5 0.358333 0.218100 0.343620
O O6 0.588664 0.178748 0.307087
O O7 0.594653 0.000000 0.234570
O O8 0.500000 0.727147 0.500000
O O9 0.333661 0.500000 0.608345
O O10 0.317611 0.756417 0.653664
O O11 0.107786 0.500000 0.088133
O O12 0.917239 0.256515 0.176201
O O13 0.250000 0.250000 0.000000
O O14 0.309570 0.500000 0.255240
#
# Coordination Sequence:
#
# PCOD8116570 Si02
#       5
#     8   8   8   8   8
#     4  11  23  38  59  90 125 163 209 256 307 371
#     4  10  22  40  62  90 126 167 207 257 315 372
#     4  10  22  42  66  92 125 168 214 262 319 377
#     4  12  24  39  60  88 125 167 210 257 314 370
#     4  11  23  40  63  93 127 164 212 262 314 371
#
# _framework density 9.8765429999999999
#
# number of rings (size 3 to 8) (size 9 to 14) (size 15 to 20)
#    0.000    1.200    2.000    4.200    0.000    7.600 
#    0.000    0.000    0.000    0.000    0.000    0.000 
#    0.000    0.000    0.000    0.000    0.000    0.000 
#
# Total GULP energy -247984.583890 kJ/mol
# GULP energy per Si atom -12399.229194 kJ/mol
# Density = 0.985406 g / cm^3
# Si number density = 9.876543 Si / 1000 Ang^3
#
#
#
# Elastic Constant Matrix: (Units=GPa)
#
#
# Indices 1 2 3 4 5 6 
#
# 1 115.6395 36.5084 55.4717 0.0000 -1.8933 -0.0041
# 2 36.5084 122.0836 61.2738 -0.0012 2.9700 -0.0039
# 3 55.4717 61.2738 180.4646 0.0047 -1.1727 -0.0020
# 4 0.0000 -0.0012 0.0047 34.3622 -0.0017 8.6786
# 5 -1.8933 2.9700 -1.1727 -0.0017 34.6894 -0.0007
# 6 -0.0041 -0.0039 -0.0020 8.6786 -0.0007 30.9097
#
#
#
# Elastic Compliance Matrix: (Units=1/GPa)
#
#
# Indices 1 2 3 4 5 6 
#
# 1 0.010485 -0.001851 -0.002590 0.000000 0.000643 0.000001
# 2 -0.001851 0.010233 -0.002912 0.000001 -0.001076 0.000001
# 3 -0.002590 -0.002912 0.007329 -0.000001 0.000356 0.000000
# 4 0.000000 0.000001 -0.000001 0.031323 0.000001 -0.008795
# 5 0.000643 -0.001076 0.000356 0.000001 0.028966 0.000000
# 6 0.000001 0.000001 0.000000 -0.008795 0.000000 0.034822
#
#
# Mechanical properties :
#
#
# Convention : Reuss Voigt Hill
#
# Bulk Modulus (GPa) = 74.96870 80.52175 77.74522
# Shear Modulus (GPa) = 35.13442 37.65452 36.39447
#
# Velocity S-wave (km/s) = 4.22202 4.37081 4.29706
# Velocity P-wave (km/s) = 7.86146 8.14399 8.00397
#
# Compressibility (1/GPa) = 0.01333890
#
# Stress axis : x y z
#
# Youngs Moduli (GPa) = 95.37413 97.72776 136.45229
#
# Poissons Ratio (x) = 0.18090 0.35344
# Poissons Ratio (y) = 0.17655 0.39739
# Poissons Ratio (z) = 0.24704 0.28461
#
# Static dielectric constant tensor:
#      x y z
#    x 3.712310 0.000000 -0.052650 
#    y 0.000000 3.746240 0.000000 
#    z -0.052650 0.000000 3.925350 
# 
# 
# High freq. dielectric constant tensor:
#      x y z
#    x 1.779850 0.000000 -0.003030 
#    y 0.000000 1.783430 0.000000 
#    z -0.003030 0.000000 1.782710 
# 
# From -- ./inp_files/211164.got.cif
#   From: 2010.06.25/outbox.ucp.g09.slc.cvg/sg12_106_cif.got.tgz:211164.got - 2010.06.28 13:50:54.
