data_PCOD8116062
_publ_section_title
;
Structure prediction by ZEFSAII (Michael W. Deem and Ramdas Pophale) SiO2 
 PCOD8116062
Probable space group: C 2/M
;
_chemical_formula_sum "Si O2"
_cell_formula_units_Z 56
_cell_length_a 12.240889
_cell_length_b 13.722292
_cell_length_c 31.537572
_cell_angle_alpha 90.000000
_cell_angle_beta 138.906517
_cell_angle_gamma 90.000000
_cell_volume 3481.966473
_symmetry_space_group_name_H-M "C 2/M"
_symmetry_group_IT_number 12
_symmetry_cell_setting 'monoclinic'
loop_
_space_group_symop_operation_xyz
x,y,z
-x,y,-z
-x,-y,-z
x,-y,z
1/2+x,1/2+y,z
1/2-x,1/2+y,-z
1/2-x,1/2-y,-z
1/2+x,1/2-y,z
loop_
_atom_site_type_symbol
_atom_site_label
_atom_site_fract_x
_atom_site_fract_y
_atom_site_fract_z
Si Si1 0.657879 0.721150 0.601322
Si Si2 0.469131 0.107738 0.375906
Si Si3 0.809706 0.225431 0.952243
Si Si4 0.690115 0.681582 0.518445
Si Si5 0.752991 0.887902 0.853286
Si Si6 0.366560 0.611974 0.051908
Si Si7 0.510596 0.114344 0.293442
O O1 0.615543 0.817482 0.616105
O O2 0.695314 0.746600 0.563188
O O3 0.496667 0.648080 0.549865
O O4 0.815977 0.667102 0.667598
O O5 0.671180 0.096990 0.438511
O O6 0.435273 0.142192 0.317571
O O7 0.394626 0.000000 0.362836
O O8 0.725615 0.177223 0.886742
O O9 0.712563 0.324961 0.933538
O O10 0.794741 0.147940 0.985941
O O11 0.000000 0.253290 0.000000
O O12 0.750000 0.750000 0.500000
O O13 0.623563 0.851565 0.780237
O O14 0.936230 0.874273 0.888058
O O15 0.722911 0.000000 0.857124
O O16 0.314738 0.500000 0.043057
O O17 0.545219 0.000000 0.301519
#
# Coordination Sequence:
#
# PCOD8116062 Si02
#       7
#     8   8   8   8   8   8   8
#     4   9  16  28  46  64  86 115 145 180 222 261
#     4   9  17  29  45  66  89 114 146 182 221 265
#     4   9  17  29  46  68  91 117 147 179 218 260
#     4   8  15  28  43  62  88 114 141 178 219 261
#     4   9  17  30  46  64  87 115 148 182 215 257
#     4   9  17  29  46  68  92 117 146 181 219 259
#     4   9  18  30  45  65  86 112 148 184 217 257
#
# _framework density 16.082867
#
# number of rings (size 3 to 8) (size 9 to 14) (size 15 to 20)
#    0.000    3.143    0.000    0.429    0.000    3.714 
#    0.000    8.571    0.000    5.143    0.000    0.000 
#    0.000    0.000    0.000    0.000    0.000    0.000 
#
# Total GULP energy -346880.891307 kJ/mol
# GULP energy per Si atom -12388.603261 kJ/mol
# Density = 1.604626 g / cm^3
# Si number density = 16.082867 Si / 1000 Ang^3
#
#
#
# Elastic Constant Matrix: (Units=GPa)
#
#
# Indices 1 2 3 4 5 6 
#
# 1 85.1819 49.9742 40.5944 0.0000 -8.2950 0.0000
# 2 49.9742 85.0304 42.4002 0.0000 -1.8128 0.0000
# 3 40.5944 42.4002 113.1001 0.0000 -5.0636 0.0000
# 4 0.0000 0.0000 0.0000 18.8583 0.0000 0.7926
# 5 -8.2950 -1.8128 -5.0636 0.0000 16.7107 0.0000
# 6 0.0000 0.0000 0.0000 0.7926 0.0000 28.8143
#
#
#
# Elastic Compliance Matrix: (Units=1/GPa)
#
#
# Indices 1 2 3 4 5 6 
#
# 1 0.019779 -0.009953 -0.003018 0.000000 0.007824 0.000000
# 2 -0.009953 0.019473 -0.003908 0.000000 -0.004012 0.000000
# 3 -0.003018 -0.003908 0.011459 0.000000 0.001551 0.000000
# 4 0.000000 0.000000 0.000000 0.053088 0.000000 -0.001460
# 5 0.007824 -0.004012 0.001551 0.000000 0.063760 0.000000
# 6 0.000000 0.000000 0.000000 -0.001460 0.000000 0.034745
#
#
# Mechanical properties :
#
#
# Convention : Reuss Voigt Hill
#
# Bulk Modulus (GPa) = 58.98006 61.02776 60.00391
# Shear Modulus (GPa) = 20.68580 22.89957 21.79268
#
# Velocity S-wave (km/s) = 3.59026 3.77749 3.68506
# Velocity P-wave (km/s) = 7.34430 7.55341 7.44959
#
# Compressibility (1/GPa) = 0.01695488
#
# Stress axis : x y z
#
# Youngs Moduli (GPa) = 50.55973 51.35332 87.26691
#
# Poissons Ratio (x) = 0.51111 0.26333
# Poissons Ratio (y) = 0.50321 0.34100
# Poissons Ratio (z) = 0.15256 0.20067
#
# Static dielectric constant tensor:
#      x y z
#    x -0.787070 0.000000 -6.584810 
#    y 0.000000 2.291740 0.000000 
#    z -6.584810 0.000000 -7.919520 
# 
# 
# High freq. dielectric constant tensor:
#      x y z
#    x 1.617940 0.000000 -0.003140 
#    y 0.000000 1.594680 0.000000 
#    z -0.003140 0.000000 1.621120 
# 
# From -- ./inp_files/358229.got.cif
#   From: 2010.06.25/outbox.cif.g09.slc.cpg/sg12_180_cif.got.tgz:358229.got - 2010.06.28 00:19:55.
