data_PCOD8116457
_publ_section_title
;
Structure prediction by ZEFSAII (Michael W. Deem and Ramdas Pophale) SiO2 
 PCOD8116457
Probable space group: C 2/M
;
_chemical_formula_sum "Si O2"
_cell_formula_units_Z 32
_cell_length_a 18.000000
_cell_length_b 9.000000
_cell_length_c 30.000000
_cell_angle_alpha 90.000000
_cell_angle_beta 40.000000
_cell_angle_gamma 90.000000
_cell_volume 3123.947783
_symmetry_space_group_name_H-M "C 2/M"
_symmetry_group_IT_number 12
_symmetry_cell_setting 'monoclinic'
loop_
_space_group_symop_operation_xyz
x,y,z
-x,y,-z
-x,-y,-z
x,-y,z
1/2+x,1/2+y,z
1/2-x,1/2+y,-z
1/2-x,1/2-y,-z
1/2+x,1/2-y,z
loop_
_atom_site_type_symbol
_atom_site_label
_atom_site_fract_x
_atom_site_fract_y
_atom_site_fract_z
Si Si1 0.047103 0.176028 0.313733
Si Si2 0.696314 0.168143 0.826557
Si Si3 0.684291 0.830680 0.413181
Si Si4 0.075871 0.829854 0.152566
Si Si5 0.583100 0.174908 0.707040
Si Si6 0.020729 0.166854 0.079856
Si Si7 0.176974 0.668902 0.938485
Si Si8 0.985758 0.331335 0.432357
O O1 0.177442 0.230787 0.243306
O O2 0.002940 0.223178 0.382668
O O3 0.969064 0.249954 0.312487
O O4 0.037587 0.000000 0.313670
O O5 0.601090 0.267818 0.846471
O O6 0.653315 0.179685 0.897234
O O7 0.688540 0.000000 0.812897
O O8 0.782367 0.714434 0.355120
O O9 0.591576 0.814604 0.417040
O O10 0.629668 0.789549 0.486643
O O11 0.731366 0.000000 0.393162
O O12 0.093743 0.821443 0.091320
O O13 0.195932 0.761651 0.114687
O O14 0.973283 0.734043 0.221206
O O15 0.058144 0.000000 0.176780
O O16 0.566004 0.000000 0.712605
O O17 0.001390 0.000000 0.072564
O O18 0.080762 0.247783 0.011085
O O19 0.175700 0.500000 0.956166
O O20 0.977072 0.500000 0.418567
#
# Coordination Sequence:
#
# PCOD8116457 Si02
#       8
#     8   8   8   8   8   8   8   8
#     4  11  23  41  63  87 122 163 201 247 302 355
#     4  10  22  40  60  83 116 159 200 238 294 358
#     4   9  20  41  66  91 126 163 194 239 298 354
#     4  10  22  42  61  83 118 160 198 240 303 360
#     4  12  25  39  61  91 121 157 205 252 294 351
#     4  11  24  37  58  90 119 150 194 248 301 353
#     4  10  20  40  64  81 111 157 201 242 292 359
#     4   9  20  40  66  95 123 158 201 242 291 351
#
# _framework density 10.243449
#
# number of rings (size 3 to 8) (size 9 to 14) (size 15 to 20)
#    0.000    1.750    1.250    3.375    1.750    6.000 
#    0.000    1.250    0.000    0.000    0.000    0.000 
#    0.000    0.000    0.000    0.000    0.000    0.000 
#
# Total GULP energy -396722.027253 kJ/mol
# GULP energy per Si atom -12397.563352 kJ/mol
# Density = 1.022013 g / cm^3
# Si number density = 10.243449 Si / 1000 Ang^3
#
#
#
# Elastic Constant Matrix: (Units=GPa)
#
#
# Indices 1 2 3 4 5 6 
#
# 1 19.8649 1.9911 -4.0571 -0.0004 -3.3734 -0.0006
# 2 1.9911 49.4723 0.1648 -0.0005 -7.6843 -0.0016
# 3 -4.0571 0.1648 65.1830 -0.0009 -8.4661 -0.0006
# 4 -0.0004 -0.0005 -0.0009 23.9018 -0.0002 7.5132
# 5 -3.3734 -7.6843 -8.4661 -0.0002 35.1091 -0.0001
# 6 -0.0006 -0.0016 -0.0006 7.5132 -0.0001 25.9121
#
#
#
# Elastic Compliance Matrix: (Units=1/GPa)
#
#
# Indices 1 2 3 4 5 6 
#
# 1 0.052250 -0.001228 0.003998 0.000001 0.005715 0.000001
# 2 -0.001228 0.020973 0.000466 0.000000 0.004585 0.000001
# 3 0.003998 0.000466 0.016158 0.000001 0.004382 0.000000
# 4 0.000001 0.000000 0.000001 0.046033 0.000000 -0.013347
# 5 0.005715 0.004585 0.004382 0.000000 0.031092 0.000001
# 6 0.000001 0.000001 0.000000 -0.013347 0.000001 0.042462
#
#
# Mechanical properties :
#
#
# Convention : Reuss Voigt Hill
#
# Bulk Modulus (GPa) = 10.43274 14.52421 12.47847
# Shear Modulus (GPa) = 21.32653 26.07937 23.70295
#
# Velocity S-wave (km/s) = 3.22993 3.57175 3.40513
# Velocity P-wave (km/s) = 4.36043 4.91068 4.64371
#
# Compressibility (1/GPa) = 0.09585206
#
# Stress axis : x y z
#
# Youngs Moduli (GPa) = 19.13865 47.67957 61.88786
#
# Poissons Ratio (x) = 0.05857 -0.24740
# Poissons Ratio (y) = 0.02351 -0.02884
# Poissons Ratio (z) = -0.07651 -0.02222
#
# Static dielectric constant tensor:
#      x y z
#    x 3.570060 0.000000 -0.023090 
#    y 0.000000 3.702400 0.000000 
#    z -0.023090 0.000000 3.878200 
# 
# 
# High freq. dielectric constant tensor:
#      x y z
#    x 1.794410 0.000000 0.002490 
#    y 0.000000 1.789220 0.000000 
#    z 0.002490 0.000000 1.817960 
# 
# From -- ./inp_files/378259.got.cif
#   From: 2010.06.25/outbox.ucp.g09.slc.cvg/sg12_190_cif.got.tgz:378259.got - 2010.06.28 13:50:54.
