data_PCOD8116194
_publ_section_title
;
Structure prediction by ZEFSAII (Michael W. Deem and Ramdas Pophale) SiO2 
 PCOD8116194
Probable space group: C 2/M
;
_chemical_formula_sum "Si O2"
_cell_formula_units_Z 32
_cell_length_a 24.000000
_cell_length_b 9.000000
_cell_length_c 15.000000
_cell_angle_alpha 90.000000
_cell_angle_beta 90.000000
_cell_angle_gamma 90.000000
_cell_volume 3240.000000
_symmetry_space_group_name_H-M "C 2/M"
_symmetry_group_IT_number 12
_symmetry_cell_setting 'monoclinic'
loop_
_space_group_symop_operation_xyz
x,y,z
-x,y,-z
-x,-y,-z
x,-y,z
1/2+x,1/2+y,z
1/2-x,1/2+y,-z
1/2-x,1/2-y,-z
1/2+x,1/2-y,z
loop_
_atom_site_type_symbol
_atom_site_label
_atom_site_fract_x
_atom_site_fract_y
_atom_site_fract_z
Si Si1 0.189535 0.823815 0.491243
Si Si2 0.788297 0.824386 0.179754
Si Si3 0.335830 0.824238 0.832310
Si Si4 0.629896 0.676530 0.669946
Si Si5 0.026765 0.829858 0.913197
Si Si6 0.889589 0.175165 0.669446
Si Si7 0.490453 0.676051 0.281720
Si Si8 0.146236 0.831030 0.986135
O O1 0.250000 0.750000 0.500000
O O2 0.154458 0.772467 0.576121
O O3 0.152109 0.765839 0.407675
O O4 0.198017 0.000000 0.486798
O O5 0.725790 0.764524 0.192708
O O6 0.830321 0.754278 0.252867
O O7 0.803787 0.781114 0.078552
O O8 0.790157 0.000000 0.191303
O O9 0.376710 0.750959 0.762508
O O10 0.339144 0.000000 0.825716
O O11 0.355636 0.777199 0.930186
O O12 0.629231 0.500000 0.678110
O O13 0.566653 0.739326 0.675109
O O14 0.092949 0.816815 0.921843
O O15 0.006045 0.758094 0.819683
O O16 0.006316 0.000000 0.913358
O O17 0.000000 0.748816 0.000000
O O18 0.955606 0.216177 0.656777
O O19 0.882397 0.000000 0.677918
O O20 0.484780 0.500000 0.273643
O O21 0.152955 0.000000 0.020733
#
# Coordination Sequence:
#
# PCOD8116194 Si02
#       8
#     8   8   8   8   8   8   8   8
#     4  10  21  36  57  84 113 142 175 216 264 318
#     4   9  17  30  49  75 104 136 176 217 262 317
#     4  11  22  34  50  74 107 146 179 214 266 320
#     4   9  16  30  53  81 108 135 172 223 274 314
#     4   9  15  24  44  74 102 132 171 215 261 306
#     4  10  21  36  54  80 108 136 176 222 264 311
#     4   9  16  29  51  79 108 135 172 223 271 313
#     4  10  18  31  51  75 102 133 177 226 264 311
#
# _framework density 9.8765429999999999
#
# number of rings (size 3 to 8) (size 9 to 14) (size 15 to 20)
#    0.000    2.375    1.250    2.250    0.000    4.000 
#    0.000    3.125    0.000    4.875    0.000    1.750 
#    0.000    0.000    0.000    0.000    0.000    0.000 
#
# Total GULP energy -396561.917347 kJ/mol
# GULP energy per Si atom -12392.559917 kJ/mol
# Density = 0.985406 g / cm^3
# Si number density = 9.876543 Si / 1000 Ang^3
#
#
#
# Elastic Constant Matrix: (Units=GPa)
#
#
# Indices 1 2 3 4 5 6 
#
# 1 125.9754 23.2148 64.9450 0.0000 9.2909 0.0000
# 2 23.2148 10.6104 13.2069 0.0000 3.6023 0.0000
# 3 64.9450 13.2069 115.2785 0.0000 13.6546 0.0000
# 4 0.0000 0.0000 0.0000 10.3039 0.0000 3.4426
# 5 9.2909 3.6023 13.6546 0.0000 38.6685 0.0000
# 6 0.0000 0.0000 0.0000 3.4426 0.0000 18.9584
#
#
#
# Elastic Compliance Matrix: (Units=1/GPa)
#
#
# Indices 1 2 3 4 5 6 
#
# 1 0.016147 -0.028189 -0.005968 0.000000 0.000854 0.000000
# 2 -0.028189 0.160506 -0.001606 0.000000 -0.007613 0.000000
# 3 -0.005968 -0.001606 0.012559 0.000000 -0.002851 0.000000
# 4 0.000000 0.000000 0.000000 0.103319 0.000000 -0.018762
# 5 0.000854 -0.007613 -0.002851 0.000000 0.027372 0.000000
# 6 0.000000 0.000000 0.000000 -0.018762 0.000000 0.056154
#
#
# Mechanical properties :
#
#
# Convention : Reuss Voigt Hill
#
# Bulk Modulus (GPa) = 8.49722 50.51086 29.50404
# Shear Modulus (GPa) = 10.27093 23.61931 16.94512
#
# Velocity S-wave (km/s) = 2.28275 3.46168 2.93208
# Velocity P-wave (km/s) = 3.35544 6.45014 5.14117
#
# Compressibility (1/GPa) = 0.11768551
#
# Stress axis : x y z
#
# Youngs Moduli (GPa) = 61.93260 6.23029 79.62599
#
# Poissons Ratio (x) = 0.17562 0.47523
# Poissons Ratio (y) = 1.74580 0.12787
# Poissons Ratio (z) = 0.36963 0.01001
#
# Static dielectric constant tensor:
#      x y z
#    x 3.975490 0.000000 0.081790 
#    y 0.000000 2.970920 0.000000 
#    z 0.081790 0.000000 3.731740 
# 
# 
# High freq. dielectric constant tensor:
#      x y z
#    x 1.791670 0.000000 0.008000 
#    y 0.000000 1.698670 0.000000 
#    z 0.008000 0.000000 1.775750 
# 
# From -- ./inp_files/238730.got.cif
#   From: 2010.06.25/outbox.ucp.g09.slc.cvg/sg12_120_cif.got.tgz:238730.got - 2010.06.28 13:50:54.
