data_PCOD8116104
_publ_section_title
;
Structure prediction by ZEFSAII (Michael W. Deem and Ramdas Pophale) SiO2 
 PCOD8116104
Probable space group: C 2/M
;
_chemical_formula_sum "Si O2"
_cell_formula_units_Z 56
_cell_length_a 19.819567
_cell_length_b 9.204727
_cell_length_c 26.658782
_cell_angle_alpha 90.000000
_cell_angle_beta 138.026592
_cell_angle_gamma 90.000000
_cell_volume 3252.612369
_symmetry_space_group_name_H-M "C 2/M"
_symmetry_group_IT_number 12
_symmetry_cell_setting 'monoclinic'
loop_
_space_group_symop_operation_xyz
x,y,z
-x,y,-z
-x,-y,-z
x,-y,z
1/2+x,1/2+y,z
1/2-x,1/2+y,-z
1/2-x,1/2-y,-z
1/2+x,1/2-y,z
loop_
_atom_site_type_symbol
_atom_site_label
_atom_site_fract_x
_atom_site_fract_y
_atom_site_fract_z
Si Si1 0.286380 0.669287 0.208957
Si Si2 0.935984 0.664087 0.355705
Si Si3 0.224575 0.335913 0.644297
Si Si4 0.868465 0.669287 0.791044
Si Si5 0.919471 0.835426 0.499999
Si Si6 0.098103 0.330286 0.914966
Si Si7 0.231827 0.169714 0.914965
O O1 0.313581 0.500000 0.228207
O O2 0.385148 0.758604 0.279898
O O3 0.190981 0.708433 0.190980
O O4 0.256883 0.715643 0.136551
O O5 0.966673 0.500000 0.358209
O O6 0.035602 0.752518 0.426855
O O7 0.858354 0.664318 0.358354
O O8 0.250255 0.500000 0.641792
O O9 0.325351 0.258604 0.720103
O O10 0.181893 0.247482 0.573146
O O11 0.857166 0.500000 0.771794
O O12 0.983781 0.715641 0.863451
O O13 0.000000 0.835432 0.500000
O O14 0.891905 0.000000 0.499999
O O15 0.106974 0.500000 0.909329
O O16 0.136192 0.250000 0.886193
O O17 0.165331 0.283760 0.000001
O O18 0.211683 0.000000 0.909328
#
# Coordination Sequence:
#
# PCOD8116104 Si02
#       7
#     8   8   8   8   8   8   8
#     4   9  17  29  45  66  92 120 151 188 229 271
#     4   9  16  25  38  59  88 119 150 185 225 267
#     4   9  16  25  38  59  88 119 150 185 225 267
#     4   9  17  29  45  66  92 120 151 188 229 271
#     4   9  15  23  37  57  84 119 154 185 220 263
#     4   9  18  32  49  68  90 118 152 189 228 271
#     4   9  18  32  49  68  90 118 152 189 228 271
#
# _framework density 17.216930999999999
#
# number of rings (size 3 to 8) (size 9 to 14) (size 15 to 20)
#    0.000    3.000    0.000    1.286    0.000    6.857 
#    0.000    2.857    0.000    0.000    0.000    9.000 
#    0.000    0.000    0.000    0.000    0.000    0.000 
#
# Total GULP energy -347184.454516 kJ/mol
# GULP energy per Si atom -12399.444804 kJ/mol
# Density = 1.717774 g / cm^3
# Si number density = 17.216931 Si / 1000 Ang^3
#
#
#
# Elastic Constant Matrix: (Units=GPa)
#
#
# Indices 1 2 3 4 5 6 
#
# 1 55.4923 35.3544 58.7101 0.0000 -0.8521 0.0000
# 2 35.3544 97.2799 71.1305 0.0000 -2.8809 0.0000
# 3 58.7101 71.1305 144.7620 0.0000 -6.3369 0.0000
# 4 0.0000 0.0000 0.0000 27.9224 0.0000 -0.7924
# 5 -0.8521 -2.8809 -6.3369 0.0000 4.1187 0.0000
# 6 0.0000 0.0000 0.0000 -0.7924 0.0000 18.0791
#
#
#
# Elastic Compliance Matrix: (Units=1/GPa)
#
#
# Indices 1 2 3 4 5 6 
#
# 1 0.033052 -0.003396 -0.012374 0.000000 -0.014575 0.000000
# 2 -0.003396 0.016396 -0.006656 0.000000 0.000525 0.000000
# 3 -0.012374 -0.006656 0.015956 0.000000 0.017333 0.000000
# 4 0.000000 0.000000 0.000000 0.035858 0.000000 0.001572
# 5 -0.014575 0.000525 0.017333 0.000000 0.266816 0.000000
# 6 0.000000 0.000000 0.000000 0.001572 0.000000 0.055381
#
#
# Mechanical properties :
#
#
# Convention : Reuss Voigt Hill
#
# Bulk Modulus (GPa) = 48.65823 69.76936 59.21380
# Shear Modulus (GPa) = 10.52273 18.84665 14.68469
#
# Velocity S-wave (km/s) = 2.47490 3.31215 2.92365
# Velocity P-wave (km/s) = 6.04070 7.43228 6.77233
#
# Compressibility (1/GPa) = 0.02055151
#
# Stress axis : x y z
#
# Youngs Moduli (GPa) = 30.25561 60.98899 62.67321
#
# Poissons Ratio (x) = 0.20711 0.77552
# Poissons Ratio (y) = 0.10274 0.41718
# Poissons Ratio (z) = 0.37438 0.40597
#
# Static dielectric constant tensor:
#      x y z
#    x 2.778850 0.000000 -0.049710 
#    y 0.000000 3.316840 0.000000 
#    z -0.049710 0.000000 3.396300 
# 
# 
# High freq. dielectric constant tensor:
#      x y z
#    x 1.607290 0.000000 -0.005490 
#    y 0.000000 1.670670 0.000000 
#    z -0.005490 0.000000 1.675480 
# 
# From -- ./inp_files/257699.got.cif
#   From: 2010.06.25/outbox.cif.g09.slc.cpg/sg12_129_cif.got.tgz:257699.got - 2010.06.28 00:19:55.
