data_PCOD8116209
_publ_section_title
;
Structure prediction by ZEFSAII (Michael W. Deem and Ramdas Pophale) SiO2 
 PCOD8116209
Probable space group: C 2/M
;
_chemical_formula_sum "Si O2"
_cell_formula_units_Z 28
_cell_length_a 9.000000
_cell_length_b 18.000000
_cell_length_c 27.000000
_cell_angle_alpha 90.000000
_cell_angle_beta 40.000000
_cell_angle_gamma 90.000000
_cell_volume 2811.553005
_symmetry_space_group_name_H-M "C 2/M"
_symmetry_group_IT_number 12
_symmetry_cell_setting 'monoclinic'
loop_
_space_group_symop_operation_xyz
x,y,z
-x,y,-z
-x,-y,-z
x,-y,z
1/2+x,1/2+y,z
1/2-x,1/2+y,-z
1/2-x,1/2-y,-z
1/2+x,1/2-y,z
loop_
_atom_site_type_symbol
_atom_site_label
_atom_site_fract_x
_atom_site_fract_y
_atom_site_fract_z
Si Si1 0.235219 0.287194 0.950232
Si Si2 0.114366 0.790839 0.705549
Si Si3 0.275699 0.299133 0.146004
Si Si4 0.519968 0.334671 0.364806
Si Si5 0.452254 0.917429 0.255234
Si Si6 0.880853 0.416360 0.680085
Si Si7 0.180212 0.915192 0.495928
O O1 0.491145 0.323213 0.882370
O O2 0.189118 0.227038 0.918980
O O3 0.250000 0.250000 0.000000
O O4 0.000000 0.338315 0.000000
O O5 0.316300 0.732078 0.660710
O O6 0.164553 0.862704 0.726525
O O7 0.861552 0.761649 0.785969
O O8 0.125303 0.812369 0.645555
O O9 0.122788 0.371514 0.177171
O O10 0.341662 0.358893 0.452742
O O11 0.685648 0.404285 0.309531
O O12 0.486554 0.893886 0.303722
O O13 0.523438 0.000000 0.226026
O O14 0.785421 0.500000 0.707858
O O15 0.059773 0.407486 0.589499
O O16 0.000000 0.890737 0.500000
O O17 0.126426 0.000000 0.526009
#
# Coordination Sequence:
#
# PCOD8116209 Si02
#       7
#     8   8   8   8   8   8   8
#     4   9  18  32  56  84 107 138 175 212 256 315
#     4  11  23  37  54  83 111 142 179 235 284 324
#     4  10  18  34  55  80 114 140 174 222 267 317
#     4  11  22  36  54  77 108 142 190 237 281 331
#     4  10  19  34  57  81 108 147 186 222 275 334
#     4  10  21  37  55  77 108 146 189 232 280 338
#     4  10  20  37  58  74 100 146 192 233 284 339
#
# _framework density 9.9589090000000002
#
# number of rings (size 3 to 8) (size 9 to 14) (size 15 to 20)
#    0.000    1.857    1.429    4.714    0.000    2.286 
#    0.000    1.429    0.000    4.286    0.000    4.000 
#    0.000    0.000    0.000    0.000    0.000    0.000 
#
# Total GULP energy -346907.959862 kJ/mol
# GULP energy per Si atom -12389.569995 kJ/mol
# Density = 0.993624 g / cm^3
# Si number density = 9.958909 Si / 1000 Ang^3
#
#
#
# Elastic Constant Matrix: (Units=GPa)
#
#
# Indices 1 2 3 4 5 6 
#
# 1 67.7807 25.0886 4.8254 -0.0064 3.2402 0.0042
# 2 25.0886 52.9354 23.4350 -0.0020 5.1964 0.0001
# 3 4.8254 23.4350 47.0088 -0.0100 4.3963 0.0043
# 4 -0.0064 -0.0020 -0.0100 5.0299 0.0076 2.4882
# 5 3.2402 5.1964 4.3963 0.0076 34.5940 -0.0055
# 6 0.0042 0.0001 0.0043 2.4882 -0.0055 19.1067
#
#
#
# Elastic Compliance Matrix: (Units=1/GPa)
#
#
# Indices 1 2 3 4 5 6 
#
# 1 0.018257 -0.009994 0.003165 0.000031 -0.000611 -0.000009
# 2 -0.009994 0.029868 -0.013695 -0.000030 -0.001810 0.000008
# 3 0.003165 -0.013695 0.027942 0.000065 -0.001790 -0.000016
# 4 0.000031 -0.000030 0.000065 0.212500 -0.000058 -0.027673
# 5 -0.000611 -0.001810 -0.001790 -0.000058 0.029463 0.000017
# 6 -0.000009 0.000008 -0.000016 -0.027673 0.000017 0.055941
#
#
# Mechanical properties :
#
#
# Convention : Reuss Voigt Hill
#
# Bulk Modulus (GPa) = 28.55500 30.49142 29.52321
# Shear Modulus (GPa) = 11.71805 19.37119 15.54462
#
# Velocity S-wave (km/s) = 2.42816 3.12197 2.79666
# Velocity P-wave (km/s) = 4.71475 5.32329 5.02823
#
# Compressibility (1/GPa) = 0.03502014
#
# Stress axis : x y z
#
# Youngs Moduli (GPa) = 54.77489 33.48054 35.78799
#
# Poissons Ratio (x) = 0.33460 -0.11328
# Poissons Ratio (y) = 0.54742 0.49011
# Poissons Ratio (z) = -0.17338 0.45851
#
# Static dielectric constant tensor:
#      x y z
#    x 3.836320 0.000000 -0.250940 
#    y 0.000000 3.566990 -0.000010 
#    z -0.250940 -0.000010 3.780110 
# 
# 
# High freq. dielectric constant tensor:
#      x y z
#    x 1.780860 0.000000 -0.003770 
#    y 0.000000 1.741730 0.000000 
#    z -0.003770 0.000000 1.772830 
# 
# From -- ./inp_files/257649.got.cif
#   From: 2010.06.25/outbox.ucp.g09.slc.cvg/sg12_129_cif.got.tgz:257649.got - 2010.06.28 13:50:54.
