data_PCOD8116853
_publ_section_title
;
Structure prediction by ZEFSAII (Michael W. Deem and Ramdas Pophale) SiO2 
 PCOD8116853
Probable space group: P 2/C
;
_chemical_formula_sum "Si O2"
_cell_formula_units_Z 32
_cell_length_a 11.531545
_cell_length_b 6.992365
_cell_length_c 22.495046
_cell_angle_alpha 90.000000
_cell_angle_beta 106.920168
_cell_angle_gamma 90.000000
_cell_volume 1735.319038
_symmetry_space_group_name_H-M "P 2/C"
_symmetry_group_IT_number 13
_symmetry_cell_setting 'monoclinic'
loop_
_space_group_symop_operation_xyz
x,y,z
-x,y,1/2-z
-x,-y,-z
x,-y,1/2+z
loop_
_atom_site_type_symbol
_atom_site_label
_atom_site_fract_x
_atom_site_fract_y
_atom_site_fract_z
Si Si1 0.571571 0.356017 0.822963
Si Si2 0.899407 0.335590 0.632334
Si Si3 0.347361 0.646503 0.458821
Si Si4 0.168226 0.345089 0.685260
Si Si5 0.552398 0.080176 0.615279
Si Si6 0.503608 0.360959 0.091217
Si Si7 0.201687 0.930898 0.290606
Si Si8 0.866246 0.348875 0.219866
O O1 0.500000 0.332735 0.750000
O O2 0.716786 0.372710 0.839614
O O3 0.520289 0.543512 0.848443
O O4 0.557577 0.172372 0.864041
O O5 0.798035 0.311100 0.565597
O O6 0.861658 0.531949 0.658737
O O7 0.039152 0.349122 0.630098
O O8 0.896967 0.157824 0.678429
O O9 0.382905 0.460205 0.425097
O O10 0.382674 0.618335 0.532796
O O11 0.428162 0.825110 0.446760
O O12 0.176179 0.517264 0.733104
O O13 0.175788 0.141450 0.720204
O O14 0.535708 0.856853 0.607217
O O15 0.668589 0.147862 0.670347
O O16 0.214593 0.159787 0.295997
O O17 0.000000 0.268715 0.250000
#
# Coordination Sequence:
#
# PCOD8116853 Si02
#       8
#     4   4   4   4   4   4   4   4
#     4  11  23  37  49  75 111 142 178 206 252 321
#     4   9  18  32  51  74 103 133 168 217 263 298
#     4   9  19  37  57  82 103 127 177 225 265 306
#     4  10  20  33  47  70 108 142 167 210 253 304
#     4  10  20  33  55  78 104 136 174 215 263 310
#     4  10  21  36  58  79 105 138 171 222 263 300
#     4  10  17  29  49  75 101 133 168 213 264 305
#     4   9  17  28  48  77 102 130 171 209 255 312
#
# _framework density 18.440415000000002
#
# number of rings (size 3 to 8) (size 9 to 14) (size 15 to 20)
#    0.000    2.250    1.250    3.000    3.500    1.500 
#    0.000    0.625    0.000    0.750    0.000    0.000 
#    0.000    0.000    0.000    0.000    0.000    0.000 
#
# Total GULP energy -396625.680430 kJ/mol
# GULP energy per Si atom -12394.552513 kJ/mol
# Density = 1.839844 g / cm^3
# Si number density = 18.440415 Si / 1000 Ang^3
#
#
#
# Elastic Constant Matrix: (Units=GPa)
#
#
# Indices 1 2 3 4 5 6 
#
# 1 97.1733 13.8101 26.1967 0.0000 10.6290 0.0000
# 2 13.8101 124.1207 9.5634 0.0000 -7.0445 0.0000
# 3 26.1967 9.5634 57.6788 0.0000 9.4933 0.0000
# 4 0.0000 0.0000 0.0000 16.0302 0.0000 5.7710
# 5 10.6290 -7.0445 9.4933 0.0000 21.8123 0.0000
# 6 0.0000 0.0000 0.0000 5.7710 0.0000 14.0322
#
#
#
# Elastic Compliance Matrix: (Units=1/GPa)
#
#
# Indices 1 2 3 4 5 6 
#
# 1 0.012186 -0.001246 -0.004615 0.000000 -0.004332 0.000000
# 2 -0.001246 0.008540 -0.001512 0.000000 0.004024 0.000000
# 3 -0.004615 -0.001512 0.020891 0.000000 -0.007332 0.000000
# 4 0.000000 0.000000 0.000000 0.073224 0.000000 -0.030115
# 5 -0.004332 0.004024 -0.007332 0.000000 0.052447 0.000000
# 6 0.000000 0.000000 0.000000 -0.030115 0.000000 0.083650
#
#
# Mechanical properties :
#
#
# Convention : Reuss Voigt Hill
#
# Bulk Modulus (GPa) = 37.21587 42.01257 39.61422
# Shear Modulus (GPa) = 18.20556 25.66844 21.93700
#
# Velocity S-wave (km/s) = 3.14548 3.73495 3.45282
# Velocity P-wave (km/s) = 5.78080 6.43678 6.11759
#
# Compressibility (1/GPa) = 0.02687026
#
# Stress axis : x y z
#
# Youngs Moduli (GPa) = 82.06139 117.09335 47.86763
#
# Poissons Ratio (x) = 0.14591 0.22091
# Poissons Ratio (y) = 0.10226 0.07239
# Poissons Ratio (z) = 0.37872 0.17707
#
# Static dielectric constant tensor:
#      x y z
#    x 3.363600 0.000000 0.220270 
#    y 0.000000 3.295440 0.000000 
#    z 0.220270 0.000000 3.211460 
# 
# 
# High freq. dielectric constant tensor:
#      x y z
#    x 1.705650 0.000000 0.026040 
#    y 0.000000 1.719740 0.000000 
#    z 0.026040 0.000000 1.688480 
# 
# From -- ./inp_files/85991.got.cif
#   From: 2010.06.25/outbox.cif.g09.slc.cpg/sg13_43_cif.got.tgz:85991.got - 2010.06.28 04:50:58.
