data_PCOD8116099
_publ_section_title
;
Structure prediction by ZEFSAII (Michael W. Deem and Ramdas Pophale) SiO2 
 PCOD8116099
Probable space group: C 2/M
;
_chemical_formula_sum "Si O2"
_cell_formula_units_Z 64
_cell_length_a 19.478441
_cell_length_b 19.897974
_cell_length_c 17.730962
_cell_angle_alpha 90.000000
_cell_angle_beta 34.446892
_cell_angle_gamma 90.000000
_cell_volume 3887.201744
_symmetry_space_group_name_H-M "C 2/M"
_symmetry_group_IT_number 12
_symmetry_cell_setting 'monoclinic'
loop_
_space_group_symop_operation_xyz
x,y,z
-x,y,-z
-x,-y,-z
x,-y,z
1/2+x,1/2+y,z
1/2-x,1/2+y,-z
1/2-x,1/2-y,-z
1/2+x,1/2-y,z
loop_
_atom_site_type_symbol
_atom_site_label
_atom_site_fract_x
_atom_site_fract_y
_atom_site_fract_z
Si Si1 0.619442 0.316471 0.070456
Si Si2 0.051446 0.195670 0.372491
Si Si3 0.099043 0.812494 0.633892
Si Si4 0.944341 0.423966 0.861102
Si Si5 0.780638 0.317180 0.073963
Si Si6 0.226352 0.425784 0.128564
Si Si7 0.865203 0.346084 0.402753
Si Si8 0.527517 0.854081 0.392640
O O1 0.480592 0.327692 0.220082
O O2 0.697945 0.311144 0.075114
O O3 0.639365 0.251232 0.998963
O O4 0.653210 0.382713 0.993424
O O5 0.191969 0.174714 0.227495
O O6 0.000000 0.169716 0.500000
O O7 0.964115 0.165349 0.387194
O O8 0.050738 0.275386 0.369830
O O9 0.114926 0.732861 0.622269
O O10 0.220759 0.857027 0.530191
O O11 0.971763 0.500000 0.865517
O O12 0.856852 0.426981 0.869442
O O13 0.069283 0.386237 0.724780
O O14 0.873113 0.380610 0.989233
O O15 0.266953 0.500000 0.115759
O O16 0.151460 0.391362 0.262232
O O17 0.918773 0.372790 0.433624
O O18 0.500000 0.881039 0.500000
#
# Coordination Sequence:
#
# PCOD8116099 Si02
#       8
#     8   8   8   8   8   8   8   8
#     4   9  14  24  41  63  85 110 147 181 215 255
#     4   9  16  26  43  68  90 111 141 180 223 264
#     4   9  16  26  44  65  88 115 141 178 220 263
#     4   9  16  26  42  65  89 111 144 187 221 254
#     4   9  14  24  43  63  85 111 143 181 221 256
#     4   9  16  25  39  62  90 116 146 184 214 245
#     4   9  16  27  42  65  88 113 145 178 218 260
#     4   9  16  26  41  62  88 117 146 179 217 254
#
# _framework density 16.464285
#
# number of rings (size 3 to 8) (size 9 to 14) (size 15 to 20)
#    0.000    3.000    2.500    0.000    0.000    0.250 
#    0.000    0.625    0.000    2.625    0.000    1.750 
#    0.000    0.000    0.000    0.000    0.000    0.000 
#
# Total GULP energy -396509.677516 kJ/mol
# GULP energy per Si atom -12390.927422 kJ/mol
# Density = 1.642681 g / cm^3
# Si number density = 16.464285 Si / 1000 Ang^3
#
#
#
# Elastic Constant Matrix: (Units=GPa)
#
#
# Indices 1 2 3 4 5 6 
#
# 1 34.9273 13.5770 45.8035 -0.0005 0.7463 0.0003
# 2 13.5770 37.0312 43.0591 -0.0012 -3.0796 0.0006
# 3 45.8035 43.0591 174.1194 -0.0013 -0.6451 0.0009
# 4 -0.0005 -0.0012 -0.0013 19.9141 0.0009 -1.0324
# 5 0.7463 -3.0796 -0.6451 0.0009 23.7154 -0.0005
# 6 0.0003 0.0006 0.0009 -1.0324 -0.0005 7.1250
#
#
#
# Elastic Compliance Matrix: (Units=1/GPa)
#
#
# Indices 1 2 3 4 5 6 
#
# 1 0.044192 -0.004012 -0.010641 0.000000 -0.002201 0.000000
# 2 -0.004012 0.038791 -0.008519 0.000001 0.004932 -0.000002
# 3 -0.010641 -0.008519 0.010647 0.000000 -0.000482 0.000000
# 4 0.000000 0.000001 0.000000 0.050596 -0.000002 0.007331
# 5 -0.002201 0.004932 -0.000482 -0.000002 0.042863 0.000002
# 6 0.000000 -0.000002 0.000000 0.007331 0.000002 0.141413
#
#
# Mechanical properties :
#
#
# Convention : Reuss Voigt Hill
#
# Bulk Modulus (GPa) = 21.14797 50.10636 35.62716
# Shear Modulus (GPa) = 12.80048 19.72678 16.26363
#
# Velocity S-wave (km/s) = 2.79134 3.46519 3.14636
# Velocity P-wave (km/s) = 4.82301 6.81979 5.90639
#
# Compressibility (1/GPa) = 0.04728586
#
# Stress axis : x y z
#
# Youngs Moduli (GPa) = 22.62836 25.77886 93.91964
#
# Poissons Ratio (x) = 0.10343 0.99941
# Poissons Ratio (y) = 0.09079 0.80012
# Poissons Ratio (z) = 0.24079 0.21962
#
# Static dielectric constant tensor:
#      x y z
#    x 2.743420 0.000000 -0.008680 
#    y 0.000000 3.091640 0.000000 
#    z -0.008680 0.000000 3.406910 
# 
# 
# High freq. dielectric constant tensor:
#      x y z
#    x 1.573670 0.000000 -0.000300 
#    y 0.000000 1.613080 0.000000 
#    z -0.000300 0.000000 1.649910 
# 
# From -- ./inp_files/177710.got.cif
#   From: 2010.06.25/outbox.cif.g09.slc.cpg/sg12_89_cif.got.tgz:177710.got - 2010.06.28 00:19:55.
