data_PCOD8116589
_publ_section_title
;
Structure prediction by ZEFSAII (Michael W. Deem and Ramdas Pophale) SiO2 
 PCOD8116589
Probable space group: C 2/M
;
_chemical_formula_sum "Si O2"
_cell_formula_units_Z 18
_cell_length_a 9.000000
_cell_length_b 18.000000
_cell_length_c 21.000000
_cell_angle_alpha 90.000000
_cell_angle_beta 30.000000
_cell_angle_gamma 90.000000
_cell_volume 1701.000000
_symmetry_space_group_name_H-M "C 2/M"
_symmetry_group_IT_number 12
_symmetry_cell_setting 'monoclinic'
loop_
_space_group_symop_operation_xyz
x,y,z
-x,y,-z
-x,-y,-z
x,-y,z
1/2+x,1/2+y,z
1/2-x,1/2+y,-z
1/2-x,1/2-y,-z
1/2+x,1/2-y,z
loop_
_atom_site_type_symbol
_atom_site_label
_atom_site_fract_x
_atom_site_fract_y
_atom_site_fract_z
Si Si1 0.000000 0.700328 0.500000
Si Si2 0.714567 0.908758 0.321670
Si Si3 0.351533 0.914367 0.872839
Si Si4 0.160755 0.346125 0.873959
Si Si5 0.940262 0.696366 0.733730
O O1 0.978511 0.641393 0.449389
O O2 0.276289 0.757484 0.396737
O O3 0.692106 0.869410 0.261481
O O4 0.033237 0.892159 0.234165
O O5 0.653509 0.000000 0.342775
O O6 0.453585 0.895484 0.905905
O O7 0.517590 0.852431 0.767560
O O8 0.438078 0.000000 0.823162
O O9 0.000000 0.903692 0.000000
O O10 0.197013 0.260790 0.836532
O O11 0.000000 0.341470 0.000000
#
# Coordination Sequence:
#
# PCOD8116589 Si02
#       5
#     4   8   8   8   8
#     4  10  23  42  63  88 120 160 204 250 299 358
#     4  11  23  40  64  91 121 157 202 253 302 354
#     4  11  24  41  62  91 127 161 197 246 303 360
#     4  11  23  40  63  91 123 161 202 245 298 361
#     4  11  23  42  64  89 121 161 205 248 298 358
#
# _framework density 10.582011
#
# number of rings (size 3 to 8) (size 9 to 14) (size 15 to 20)
#    0.000    1.111    0.000    7.000    0.000    8.000 
#    0.000    6.667    0.000    0.000    0.000    0.000 
#    0.000    0.000    0.000    0.000    0.000    0.000 
#
# Total GULP energy -223000.629207 kJ/mol
# GULP energy per Si atom -12388.923845 kJ/mol
# Density = 1.055793 g / cm^3
# Si number density = 10.582011 Si / 1000 Ang^3
#
#
#
# Elastic Constant Matrix: (Units=GPa)
#
#
# Indices 1 2 3 4 5 6 
#
# 1 117.1089 60.3400 40.2128 -0.1168 -2.3725 0.0571
# 2 60.3400 237.4769 61.1671 -0.1270 0.2294 -0.3345
# 3 40.2128 61.1671 99.5902 -0.2368 5.2313 -0.1760
# 4 -0.1168 -0.1270 -0.2368 40.0518 0.0864 4.4278
# 5 -2.3725 0.2294 5.2313 0.0864 26.4856 -0.2391
# 6 0.0571 -0.3345 -0.1760 4.4278 -0.2391 40.6391
#
#
#
# Elastic Compliance Matrix: (Units=1/GPa)
#
#
# Indices 1 2 3 4 5 6 
#
# 1 0.010647 -0.001874 -0.003233 0.000006 0.001608 -0.000036
# 2 -0.001874 0.005341 -0.002538 -0.000008 0.000288 0.000038
# 3 -0.003233 -0.002538 0.013055 0.000064 -0.002846 0.000016
# 4 0.000006 -0.000008 0.000064 0.025273 -0.000119 -0.002754
# 5 0.001608 0.000288 -0.002846 -0.000119 0.038463 0.000227
# 6 -0.000036 0.000038 0.000016 -0.002754 0.000227 0.024909
#
#
# Mechanical properties :
#
#
# Convention : Reuss Voigt Hill
#
# Bulk Modulus (GPa) = 72.71343 86.40176 79.55759
# Shear Modulus (GPa) = 36.34713 40.93236 38.63974
#
# Velocity S-wave (km/s) = 4.14865 4.40256 4.27749
# Velocity P-wave (km/s) = 7.57496 8.17049 7.87835
#
# Compressibility (1/GPa) = 0.01375262
#
# Stress axis : x y z
#
# Youngs Moduli (GPa) = 93.91945 187.23787 76.59789
#
# Poissons Ratio (x) = 0.35095 0.24761
# Poissons Ratio (y) = 0.17604 0.19444
# Poissons Ratio (z) = 0.30360 0.47530
#
# Static dielectric constant tensor:
#      x y z
#    x 3.908190 -0.000200 0.122250 
#    y -0.000200 4.575800 0.000660 
#    z 0.122250 0.000660 3.957930 
# 
# 
# High freq. dielectric constant tensor:
#      x y z
#    x 1.838040 0.000000 0.009980 
#    y 0.000000 1.880940 0.000040 
#    z 0.009980 0.000040 1.829580 
# 
# From -- ./inp_files/195748.got.cif
#   From: 2010.06.25/outbox.ucp.g09.slc.cvg/sg12_98_cif.got.tgz:195748.got - 2010.06.28 13:50:54.
