data_PCOD8116910
_publ_section_title
;
Structure prediction by ZEFSAII (Michael W. Deem and Ramdas Pophale) SiO2 
 PCOD8116910
Probable space group: P 2/C
;
_chemical_formula_sum "Si O2"
_cell_formula_units_Z 28
_cell_length_a 16.502026
_cell_length_b 15.431490
_cell_length_c 10.101075
_cell_angle_alpha 90.000000
_cell_angle_beta 139.242680
_cell_angle_gamma 90.000000
_cell_volume 1679.308470
_symmetry_space_group_name_H-M "P 2/C"
_symmetry_group_IT_number 13
_symmetry_cell_setting 'monoclinic'
loop_
_space_group_symop_operation_xyz
x,y,z
-x,y,1/2-z
-x,-y,-z
x,-y,1/2+z
loop_
_atom_site_type_symbol
_atom_site_label
_atom_site_fract_x
_atom_site_fract_y
_atom_site_fract_z
Si Si1 0.096377 0.819038 0.988174
Si Si2 0.079275 0.193645 0.979371
Si Si3 0.917794 0.504214 0.026994
Si Si4 0.755335 0.654418 0.728914
Si Si5 0.769885 0.657353 0.438193
Si Si6 0.085420 0.005660 0.980954
Si Si7 0.505062 0.580697 0.104488
O O1 0.205255 0.750188 0.098350
O O2 0.163274 0.915201 0.074837
O O3 0.000000 0.813966 0.750000
O O4 0.020981 0.798452 0.027782
O O5 0.190537 0.262046 0.129785
O O6 0.152164 0.099847 0.068729
O O7 0.000000 0.211131 0.750000
O O8 0.805023 0.569049 0.862976
O O9 0.864889 0.409793 0.991525
O O10 0.000000 0.539383 0.250000
O O11 0.000000 0.500000 0.000000
O O12 0.796527 0.658357 0.627355
O O13 0.606678 0.648630 0.558739
O O14 0.629312 0.633868 0.230339
O O15 0.000000 0.008098 0.750000
O O16 0.000000 0.000000 0.000000
O O17 0.500000 0.546089 0.250000
O O18 0.500000 0.500000 0.000000
#
# Coordination Sequence:
#
# PCOD8116910 Si02
#       7
#     4   4   4   4   4   4   4
#     4  10  17  32  55  76 107 138 166 207 261 311
#     4  10  19  33  50  81 113 130 166 212 259 310
#     4  12  22  32  50  75 105 132 164 209 263 307
#     4  11  21  36  54  74 102 136 174 215 252 302
#     4  11  21  36  54  75 101 134 180 211 247 313
#     4   8  16  28  49  76 104 138 162 196 255 316
#     4  10  22  40  56  71  95 139 184 216 252 297
#
# _framework density 16.67353
#
# number of rings (size 3 to 8) (size 9 to 14) (size 15 to 20)
#    0.000    1.714    4.286    1.714    0.000    0.000 
#    2.571    0.000    0.000    0.857    0.000    0.000 
#    0.000    0.000    0.000    0.000    0.000    0.000 
#
# Total GULP energy -346977.662843 kJ/mol
# GULP energy per Si atom -12392.059387 kJ/mol
# Density = 1.663558 g / cm^3
# Si number density = 16.673530 Si / 1000 Ang^3
#
#
#
# Elastic Constant Matrix: (Units=GPa)
#
#
# Indices 1 2 3 4 5 6 
#
# 1 86.1957 45.8250 48.2612 0.0000 -5.2344 0.0000
# 2 45.8250 152.2065 48.3634 0.0000 6.8930 0.0000
# 3 48.2612 48.3634 96.7698 0.0000 -6.1287 0.0000
# 4 0.0000 0.0000 0.0000 17.6825 0.0000 -4.9935
# 5 -5.2344 6.8930 -6.1287 0.0000 30.0539 0.0000
# 6 0.0000 0.0000 0.0000 -4.9935 0.0000 10.5637
#
#
#
# Elastic Compliance Matrix: (Units=1/GPa)
#
#
# Indices 1 2 3 4 5 6 
#
# 1 0.017262 -0.003106 -0.006910 0.000000 0.002310 0.000000
# 2 -0.003106 0.008578 -0.002935 0.000000 -0.003107 0.000000
# 3 -0.006910 -0.002935 0.015413 0.000000 0.002613 0.000000
# 4 0.000000 0.000000 0.000000 0.065265 0.000000 0.030851
# 5 0.002310 -0.003107 0.002613 0.000000 0.034921 0.000000
# 6 0.000000 0.000000 0.000000 0.030851 0.000000 0.109247
#
#
# Mechanical properties :
#
#
# Convention : Reuss Voigt Hill
#
# Bulk Modulus (GPa) = 65.14578 68.89679 67.02128
# Shear Modulus (GPa) = 17.74897 24.50817 21.12857
#
# Velocity S-wave (km/s) = 3.26621 3.83807 3.56363
# Velocity P-wave (km/s) = 7.30619 7.81356 7.56413
#
# Compressibility (1/GPa) = 0.01535019
#
# Stress axis : x y z
#
# Youngs Moduli (GPa) = 57.93002 116.57097 64.88213
#
# Poissons Ratio (x) = 0.36206 0.44837
# Poissons Ratio (y) = 0.17993 0.19043
# Poissons Ratio (z) = 0.40032 0.34215
#
# Static dielectric constant tensor:
#      x y z
#    x 2.671050 0.000000 0.859410 
#    y 0.000000 3.690070 0.000000 
#    z 0.859410 0.000000 0.893660 
# 
# 
# High freq. dielectric constant tensor:
#      x y z
#    x 1.628640 0.000000 -0.029280 
#    y 0.000000 1.654920 0.000000 
#    z -0.029280 0.000000 1.636620 
# 
# From -- ./inp_files/16459.got.cif
#   From: 2010.06.25/outbox.cif.g09.slc.cpg/sg13_9_cif.got.tgz:16459.got - 2010.06.28 04:50:58.
