data_PCOD8116070
_publ_section_title
;
Structure prediction by ZEFSAII (Michael W. Deem and Ramdas Pophale) SiO2 
 PCOD8116070
Probable space group: C 2/M
;
_chemical_formula_sum "Si O2"
_cell_formula_units_Z 64
_cell_length_a 14.101186
_cell_length_b 9.424800
_cell_length_c 28.386150
_cell_angle_alpha 90.000000
_cell_angle_beta 91.451333
_cell_angle_gamma 90.000000
_cell_volume 3771.333449
_symmetry_space_group_name_H-M "C 2/M"
_symmetry_group_IT_number 12
_symmetry_cell_setting 'monoclinic'
loop_
_space_group_symop_operation_xyz
x,y,z
-x,y,-z
-x,-y,-z
x,-y,z
1/2+x,1/2+y,z
1/2-x,1/2+y,-z
1/2-x,1/2-y,-z
1/2+x,1/2-y,z
loop_
_atom_site_type_symbol
_atom_site_label
_atom_site_fract_x
_atom_site_fract_y
_atom_site_fract_z
Si Si1 0.990207 0.332406 0.299505
Si Si2 0.648575 0.165026 0.884081
Si Si3 0.841817 0.668180 0.373027
Si Si4 0.852647 0.332575 0.626269
Si Si5 0.362357 0.664659 0.869043
Si Si6 0.997735 0.667881 0.447718
Si Si7 0.493829 0.833787 0.805634
Si Si8 0.982009 0.164568 0.052580
O O1 0.984995 0.500000 0.298105
O O2 0.086365 0.286920 0.327280
O O3 0.989398 0.271726 0.246514
O O4 0.898111 0.279447 0.327102
O O5 0.755576 0.216603 0.876871
O O6 0.588538 0.198644 0.836435
O O7 0.606575 0.249831 0.927682
O O8 0.645034 0.000000 0.897118
O O9 0.824735 0.500000 0.372044
O O10 0.743660 0.747845 0.373556
O O11 0.902398 0.714985 0.419528
O O12 0.832262 0.500000 0.625844
O O13 0.909526 0.284642 0.580218
O O14 0.365028 0.500000 0.854807
O O15 0.403759 0.753764 0.826250
O O16 0.422751 0.694469 0.916758
O O17 0.998248 0.500000 0.451153
O O18 0.000000 0.736657 0.500000
O O19 0.469911 0.000000 0.804782
O O20 0.953926 0.000000 0.053069
O O21 0.000000 0.218470 0.000000
#
# Coordination Sequence:
#
# PCOD8116070 Si02
#       8
#     8   8   8   8   8   8   8   8
#     4   8  16  31  47  63  88 121 150 177 217 273
#     4   9  18  31  47  67  90 116 146 184 225 262
#     4   9  17  30  48  68  90 118 152 187 223 265
#     4   9  17  30  47  66  89 117 149 185 223 263
#     4   9  18  32  47  67  95 119 144 184 229 264
#     4   8  15  29  47  65  89 123 155 180 218 275
#     4   9  17  31  49  66  86 116 153 184 215 264
#     4   9  18  32  48  66  91 122 151 180 218 265
#
# _framework density 16.970124999999999
#
# number of rings (size 3 to 8) (size 9 to 14) (size 15 to 20)
#    0.000    3.250    0.000    1.500    0.000    2.750 
#    0.000    5.000    0.000    0.750    0.000    0.000 
#    0.000    0.000    0.000    0.000    0.000    0.000 
#
# Total GULP energy -396723.076579 kJ/mol
# GULP energy per Si atom -12397.596143 kJ/mol
# Density = 1.693150 g / cm^3
# Si number density = 16.970125 Si / 1000 Ang^3
#
#
#
# Elastic Constant Matrix: (Units=GPa)
#
#
# Indices 1 2 3 4 5 6 
#
# 1 158.7150 47.1347 73.3170 0.0000 -13.8582 0.0000
# 2 47.1347 36.9114 37.6823 0.0000 -6.2848 0.0000
# 3 73.3170 37.6823 157.6534 0.0000 -14.3516 0.0000
# 4 0.0000 0.0000 0.0000 18.5542 0.0000 -3.4946
# 5 -13.8582 -6.2848 -14.3516 0.0000 15.7800 0.0000
# 6 0.0000 0.0000 0.0000 -3.4946 0.0000 32.8329
#
#
#
# Elastic Compliance Matrix: (Units=1/GPa)
#
#
# Indices 1 2 3 4 5 6 
#
# 1 0.010872 -0.011211 -0.002086 0.000000 0.003185 0.000000
# 2 -0.011211 0.048134 -0.005934 0.000000 0.003929 0.000000
# 3 -0.002086 -0.005934 0.009103 0.000000 0.004084 0.000000
# 4 0.000000 0.000000 0.000000 0.054999 0.000000 0.005854
# 5 0.003185 0.003929 0.004084 0.000000 0.071447 0.000000
# 6 0.000000 0.000000 0.000000 0.005854 0.000000 0.031080
#
#
# Mechanical properties :
#
#
# Convention : Reuss Voigt Hill
#
# Bulk Modulus (GPa) = 33.72957 74.39419 54.06188
# Shear Modulus (GPa) = 18.24948 26.44313 22.34630
#
# Velocity S-wave (km/s) = 3.28287 3.95171 3.63271
# Velocity P-wave (km/s) = 5.85565 8.04704 7.03717
#
# Compressibility (1/GPa) = 0.02964758
#
# Stress axis : x y z
#
# Youngs Moduli (GPa) = 91.98070 20.77522 109.84911
#
# Poissons Ratio (x) = 0.23290 0.22919
# Poissons Ratio (y) = 1.03116 0.65183
# Poissons Ratio (z) = 0.19191 0.12328
#
# Static dielectric constant tensor:
#      x y z
#    x 3.152610 0.000000 -0.035690 
#    y 0.000000 2.880120 0.000000 
#    z -0.035690 0.000000 3.697630 
# 
# 
# High freq. dielectric constant tensor:
#      x y z
#    x 1.656650 0.000000 -0.001550 
#    y 0.000000 1.625250 0.000000 
#    z -0.001550 0.000000 1.661340 
# 
# From -- ./inp_files/357667.got.cif
#   From: 2010.06.25/outbox.cif.g09.slc.cpg/sg12_179_cif.got.tgz:357667.got - 2010.06.28 00:19:55.
