data_PCOD8116386
_publ_section_title
;
Structure prediction by ZEFSAII (Michael W. Deem and Ramdas Pophale) SiO2 
 PCOD8116386
Probable space group: C 2/M
;
_chemical_formula_sum "Si O2"
_cell_formula_units_Z 32
_cell_length_a 24.000000
_cell_length_b 9.000000
_cell_length_c 30.000000
_cell_angle_alpha 90.000000
_cell_angle_beta 30.000000
_cell_angle_gamma 90.000000
_cell_volume 3240.000000
_symmetry_space_group_name_H-M "C 2/M"
_symmetry_group_IT_number 12
_symmetry_cell_setting 'monoclinic'
loop_
_space_group_symop_operation_xyz
x,y,z
-x,y,-z
-x,-y,-z
x,-y,z
1/2+x,1/2+y,z
1/2-x,1/2+y,-z
1/2-x,1/2-y,-z
1/2+x,1/2-y,z
loop_
_atom_site_type_symbol
_atom_site_label
_atom_site_fract_x
_atom_site_fract_y
_atom_site_fract_z
Si Si1 0.655337 0.172965 0.593777
Si Si2 0.352687 0.828191 0.226113
Si Si3 0.773955 0.825613 0.368913
Si Si4 0.675118 0.326773 0.278345
Si Si5 0.403312 0.166992 0.920648
Si Si6 0.907566 0.330042 0.747022
Si Si7 0.336757 0.332050 0.881291
Si Si8 0.019058 0.666970 0.538977
O O1 0.750000 0.250000 0.500000
O O2 0.651760 0.243612 0.645498
O O3 0.539249 0.198514 0.648069
O O4 0.682006 0.000000 0.580180
O O5 0.311484 0.727511 0.294785
O O6 0.286551 0.776513 0.227587
O O7 0.485111 0.803356 0.127725
O O8 0.324465 0.000000 0.256171
O O9 0.644040 0.786771 0.465412
O O10 0.794990 0.000000 0.358310
O O11 0.674412 0.500000 0.271627
O O12 0.672389 0.255463 0.231564
O O13 0.564125 0.281644 0.381192
O O14 0.393041 0.287493 0.888881
O O15 0.406821 0.000000 0.897725
O O16 0.296966 0.182831 0.026190
O O17 0.876853 0.500000 0.763026
O O18 0.882122 0.280932 0.814192
O O19 0.373485 0.500000 0.844952
O O20 0.993870 0.500000 0.573965
O O21 0.000000 0.674593 0.500000
#
# Coordination Sequence:
#
# PCOD8116386 Si02
#       8
#     8   8   8   8   8   8   8   8
#     4  11  24  40  57  80 111 147 185 229 279 330
#     4  10  21  37  56  82 114 146 181 226 281 331
#     4  11  22  35  56  83 111 146 186 229 277 329
#     4  11  23  37  57  83 110 145 193 239 274 322
#     4   9  19  37  60  86 118 148 176 222 283 337
#     4  11  24  41  59  79 112 154 188 224 282 340
#     4  10  20  36  61  90 114 143 186 229 271 328
#     4  10  20  36  54  76 111 151 186 224 276 330
#
# _framework density 9.8765429999999999
#
# number of rings (size 3 to 8) (size 9 to 14) (size 15 to 20)
#    0.000    1.625    1.250    3.375    0.000   10.750 
#    0.000    0.625    0.000    3.750    0.000    0.000 
#    0.000    0.000    0.000    0.000    0.000    0.000 
#
# Total GULP energy -396863.314044 kJ/mol
# GULP energy per Si atom -12401.978564 kJ/mol
# Density = 0.985406 g / cm^3
# Si number density = 9.876543 Si / 1000 Ang^3
#
#
#
# Elastic Constant Matrix: (Units=GPa)
#
#
# Indices 1 2 3 4 5 6 
#
# 1 94.2291 52.7836 23.7781 0.0168 -19.7136 -0.0361
# 2 52.7836 77.0443 34.2746 0.0186 -11.6266 -0.0254
# 3 23.7781 34.2746 60.9838 -0.0003 -12.9389 -0.0173
# 4 0.0168 0.0186 -0.0003 22.7670 -0.0012 4.4483
# 5 -19.7136 -11.6266 -12.9389 -0.0012 27.9353 0.0072
# 6 -0.0361 -0.0254 -0.0173 4.4483 0.0072 33.3045
#
#
#
# Elastic Compliance Matrix: (Units=1/GPa)
#
#
# Indices 1 2 3 4 5 6 
#
# 1 0.019026 -0.012305 0.001397 -0.000006 0.008952 0.000011
# 2 -0.012305 0.025494 -0.010116 -0.000013 -0.002758 0.000003
# 3 0.001397 -0.010116 0.023127 0.000007 0.007487 0.000003
# 4 -0.000006 -0.000013 0.000007 0.045100 -0.000002 -0.006024
# 5 0.008952 -0.002758 0.007487 -0.000002 0.044434 0.000002
# 6 0.000011 0.000003 0.000003 -0.006024 0.000002 0.030831
#
#
# Mechanical properties :
#
#
# Convention : Reuss Voigt Hill
#
# Bulk Modulus (GPa) = 39.06450 50.43666 44.75058
# Shear Modulus (GPa) = 20.95632 24.89608 22.92620
#
# Velocity S-wave (km/s) = 3.26070 3.55401 3.41051
# Velocity P-wave (km/s) = 5.83057 6.51386 6.18166
#
# Compressibility (1/GPa) = 0.02559869
#
# Stress axis : x y z
#
# Youngs Moduli (GPa) = 52.56077 39.22541 43.23954
#
# Poissons Ratio (x) = 0.48267 -0.06040
# Poissons Ratio (y) = 0.64677 0.43739
# Poissons Ratio (z) = -0.07342 0.39679
#
# Static dielectric constant tensor:
#      x y z
#    x 4.014530 -0.000020 -0.334070 
#    y -0.000020 3.668810 0.000020 
#    z -0.334070 0.000020 3.611750 
# 
# 
# High freq. dielectric constant tensor:
#      x y z
#    x 1.775850 0.000000 -0.016230 
#    y 0.000000 1.774790 0.000000 
#    z -0.016230 0.000000 1.755240 
# 
# From -- ./inp_files/382293.got.cif
#   From: 2010.06.25/outbox.ucp.g09.slc.cvg/sg12_192_cif.got.tgz:382293.got - 2010.06.28 13:50:54.
