data_PCOD8116907
_publ_section_title
;
Structure prediction by ZEFSAII (Michael W. Deem and Ramdas Pophale) SiO2 
 PCOD8116907
Probable space group: P 2/C
;
_chemical_formula_sum "Si O2"
_cell_formula_units_Z 32
_cell_length_a 21.252497
_cell_length_b 11.146941
_cell_length_c 8.882970
_cell_angle_alpha 90.000000
_cell_angle_beta 126.536901
_cell_angle_gamma 90.000000
_cell_volume 1690.812594
_symmetry_space_group_name_H-M "P 2/C"
_symmetry_group_IT_number 13
_symmetry_cell_setting 'monoclinic'
loop_
_space_group_symop_operation_xyz
x,y,z
-x,y,1/2-z
-x,-y,-z
x,-y,1/2+z
loop_
_atom_site_type_symbol
_atom_site_label
_atom_site_fract_x
_atom_site_fract_y
_atom_site_fract_z
Si Si1 0.648158 0.103391 0.597351
Si Si2 0.660201 0.492395 0.752718
Si Si3 0.826856 0.069483 0.919734
Si Si4 0.591010 0.134738 0.851979
Si Si5 0.588221 0.658000 0.900805
Si Si6 0.856225 0.838293 0.790256
Si Si7 0.716370 0.665180 0.587084
Si Si8 0.016165 0.876950 0.944232
O O1 0.740848 0.100399 0.744151
O O2 0.605112 0.119282 0.694984
O O3 0.634657 0.217276 0.471145
O O4 0.614365 0.985983 0.470546
O O5 0.614672 0.578983 0.798900
O O6 0.597517 0.415078 0.569353
O O7 0.713173 0.568922 0.715697
O O8 0.715315 0.401212 0.924199
O O9 0.844820 0.929171 0.913476
O O10 0.832848 0.089081 0.106394
O O11 0.890421 0.153904 0.916410
O O12 0.500000 0.166150 0.750000
O O13 0.643814 0.242242 0.993764
O O14 0.500000 0.695012 0.750000
O O15 0.800242 0.725518 0.728343
O O16 0.947541 0.788978 0.912053
O O17 0.000000 0.902141 0.750000
O O18 0.000000 0.000000 0.000000
#
# Coordination Sequence:
#
# PCOD8116907 Si02
#       8
#     4   4   4   4   4   4   4   4
#     4  12  23  39  56  86 116 157 187 231 287 360
#     4  10  24  40  59  82 106 148 200 251 285 329
#     4  10  17  32  53  84 120 147 183 218 278 349
#     4  12  26  39  57  81 121 153 194 232 295 356
#     4  11  23  39  59  81 108 142 195 244 292 333
#     4  10  18  33  55  83 118 150 182 221 284 342
#     4  11  22  41  60  82 113 152 195 246 292 339
#     4   8  16  27  49  81 114 149 175 216 267 335
#
# _framework density 18.925812000000001
#
# number of rings (size 3 to 8) (size 9 to 14) (size 15 to 20)
#    0.000    1.500    3.750    1.125    3.500    3.000 
#    0.000    0.000    0.000    0.000    0.000   23.625 
#    0.000    0.000    0.000    0.000    0.000    0.000 
#
# Total GULP energy -396530.032960 kJ/mol
# GULP energy per Si atom -12391.563530 kJ/mol
# Density = 1.888274 g / cm^3
# Si number density = 18.925812 Si / 1000 Ang^3
#
#
#
# Elastic Constant Matrix: (Units=GPa)
#
#
# Indices 1 2 3 4 5 6 
#
# 1 107.8862 33.6449 37.3878 0.0000 27.1821 0.0000
# 2 33.6449 87.7246 22.5694 0.0000 1.5278 0.0000
# 3 37.3878 22.5694 43.5613 0.0000 8.5391 0.0000
# 4 0.0000 0.0000 0.0000 19.0800 0.0000 -1.8911
# 5 27.1821 1.5278 8.5391 0.0000 37.8340 0.0000
# 6 0.0000 0.0000 0.0000 -1.8911 0.0000 11.9239
#
#
#
# Elastic Compliance Matrix: (Units=1/GPa)
#
#
# Indices 1 2 3 4 5 6 
#
# 1 0.016240 -0.003399 -0.010376 0.000000 -0.009189 0.000000
# 2 -0.003399 0.013904 -0.004871 0.000000 0.002980 0.000000
# 3 -0.010376 -0.004871 0.034408 0.000000 -0.000114 0.000000
# 4 0.000000 0.000000 0.000000 0.053248 0.000000 0.008445
# 5 -0.009189 0.002980 -0.000114 0.000000 0.032938 0.000000
# 6 0.000000 0.000000 0.000000 0.008445 0.000000 0.085205
#
#
# Mechanical properties :
#
#
# Convention : Reuss Voigt Hill
#
# Bulk Modulus (GPa) = 36.68359 47.37518 42.02938
# Shear Modulus (GPa) = 17.71033 23.47225 20.59129
#
# Velocity S-wave (km/s) = 3.06237 3.52550 3.30206
# Velocity P-wave (km/s) = 5.65058 6.45435 6.06579
#
# Compressibility (1/GPa) = 0.02726014
#
# Stress axis : x y z
#
# Youngs Moduli (GPa) = 61.57660 71.92119 29.06312
#
# Poissons Ratio (x) = 0.24445 0.30157
# Poissons Ratio (y) = 0.20929 0.14156
# Poissons Ratio (z) = 0.63893 0.35031
#
# Static dielectric constant tensor:
#      x y z
#    x 2.309220 0.000000 -0.953280 
#    y 0.000000 3.422850 0.000000 
#    z -0.953280 0.000000 3.118390 
# 
# 
# High freq. dielectric constant tensor:
#      x y z
#    x 1.748990 0.000000 -0.001160 
#    y 0.000000 1.710270 0.000000 
#    z -0.001160 0.000000 1.743420 
# 
# From -- ./inp_files/23381.got.cif
#   From: 2010.06.25/outbox.cif.g09.slc.cpg/sg13_12_cif.got.tgz:23381.got - 2010.06.28 04:50:58.
