data_PCOD8116382
_publ_section_title
;
Structure prediction by ZEFSAII (Michael W. Deem and Ramdas Pophale) SiO2 
 PCOD8116382
Probable space group: C 2/M
;
_chemical_formula_sum "Si O2"
_cell_formula_units_Z 20
_cell_length_a 21.000000
_cell_length_b 9.000000
_cell_length_c 30.000000
_cell_angle_alpha 90.000000
_cell_angle_beta 20.000000
_cell_angle_gamma 90.000000
_cell_volume 1939.254213
_symmetry_space_group_name_H-M "C 2/M"
_symmetry_group_IT_number 12
_symmetry_cell_setting 'monoclinic'
loop_
_space_group_symop_operation_xyz
x,y,z
-x,y,-z
-x,-y,-z
x,-y,z
1/2+x,1/2+y,z
1/2-x,1/2+y,-z
1/2-x,1/2-y,-z
1/2+x,1/2-y,z
loop_
_atom_site_type_symbol
_atom_site_label
_atom_site_fract_x
_atom_site_fract_y
_atom_site_fract_z
Si Si1 0.613067 0.826336 0.470325
Si Si2 0.524882 0.337452 0.814795
Si Si3 0.287851 0.324982 0.126566
Si Si4 0.070190 0.821085 0.592716
Si Si5 0.832832 0.336561 0.009074
O O1 0.500000 0.783616 0.500000
O O2 0.826262 0.784568 0.319461
O O3 0.562078 0.726176 0.546280
O O4 0.585590 0.000000 0.500735
O O5 0.586296 0.500000 0.792886
O O6 0.327798 0.351676 0.921197
O O7 0.514887 0.226765 0.863655
O O8 0.253794 0.500000 0.155546
O O9 0.266383 0.280351 0.089390
O O10 0.127626 0.235189 0.257922
O O11 0.500000 0.279647 0.000000
O O12 0.250000 0.750000 0.500000
O O13 0.082209 0.000000 0.589307
O O14 0.879716 0.500000 0.998264
#
# Coordination Sequence:
#
# PCOD8116382 Si02
#       5
#     8   8   8   8   8
#     4  10  22  40  64  93 129 171 215 264 322 386
#     4   9  19  36  58  86 121 163 205 250 309 377
#     4  11  25  43  65  92 128 171 215 265 325 388
#     4  12  26  45  70  98 133 175 224 276 329 395
#     4  10  20  35  59  89 122 160 206 258 311 375
#
# _framework density 10.313243
#
# number of rings (size 3 to 8) (size 9 to 14) (size 15 to 20)
#    0.000    1.600    0.000    4.200    2.800    5.200 
#    0.000    0.000    0.000    0.000    0.000    0.000 
#    0.000    0.000    0.000    0.000    0.000    0.000 
#
# Total GULP energy -247893.096565 kJ/mol
# GULP energy per Si atom -12394.654828 kJ/mol
# Density = 1.028977 g / cm^3
# Si number density = 10.313243 Si / 1000 Ang^3
#
#
#
# Elastic Constant Matrix: (Units=GPa)
#
#
# Indices 1 2 3 4 5 6 
#
# 1 97.4694 54.1571 44.4513 0.0256 17.0806 0.0390
# 2 54.1571 141.6449 69.3097 -0.0430 8.7084 -0.0652
# 3 44.4513 69.3097 146.3660 0.0833 16.6069 0.0832
# 4 0.0256 -0.0430 0.0833 32.6106 0.0607 10.3360
# 5 17.0806 8.7084 16.6069 0.0607 36.4928 0.0681
# 6 0.0390 -0.0652 0.0832 10.3360 0.0681 31.7654
#
#
#
# Elastic Compliance Matrix: (Units=1/GPa)
#
#
# Indices 1 2 3 4 5 6 
#
# 1 0.014309 -0.004315 -0.001749 0.000000 -0.004871 -0.000011
# 2 -0.004315 0.010492 -0.003799 0.000015 0.001245 0.000029
# 3 -0.001749 -0.003799 0.009455 -0.000017 -0.002577 -0.000019
# 4 0.000000 0.000015 -0.000017 0.034191 -0.000032 -0.011125
# 5 -0.004871 0.001245 -0.002577 -0.000032 0.030559 -0.000040
# 6 -0.000011 0.000029 -0.000019 -0.011125 -0.000040 0.035101
#
#
# Mechanical properties :
#
#
# Convention : Reuss Voigt Hill
#
# Bulk Modulus (GPa) = 68.83142 80.14628 74.48885
# Shear Modulus (GPa) = 31.51039 34.67790 33.09415
#
# Velocity S-wave (km/s) = 3.91278 4.10473 4.00990
# Velocity P-wave (km/s) = 7.33866 7.83616 7.59149
#
# Compressibility (1/GPa) = 0.01452825
#
# Stress axis : x y z
#
# Youngs Moduli (GPa) = 69.88665 95.30709 105.76444
#
# Poissons Ratio (x) = 0.41129 0.18502
# Poissons Ratio (y) = 0.30159 0.40182
# Poissons Ratio (z) = 0.12226 0.36209
#
# Static dielectric constant tensor:
#      x y z
#    x 3.693690 0.000150 0.028190 
#    y 0.000150 4.149360 0.000540 
#    z 0.028190 0.000540 4.048690 
# 
# 
# High freq. dielectric constant tensor:
#      x y z
#    x 1.806580 0.000000 0.006520 
#    y 0.000000 1.816730 0.000010 
#    z 0.006520 0.000010 1.826370 
# 
# From -- ./inp_files/380523.got.cif
#   From: 2010.06.25/outbox.ucp.g09.slc.cvg/sg12_191_cif.got.tgz:380523.got - 2010.06.28 13:50:54.
