data_PCOD8116832
_publ_section_title
;
Structure prediction by ZEFSAII (Michael W. Deem and Ramdas Pophale) SiO2 
 PCOD8116832
Probable space group: P 2/C
;
_chemical_formula_sum "Si O2"
_cell_formula_units_Z 32
_cell_length_a 30.484881
_cell_length_b 12.493257
_cell_length_c 10.408122
_cell_angle_alpha 90.000000
_cell_angle_beta 149.430710
_cell_angle_gamma 90.000000
_cell_volume 2016.006016
_symmetry_space_group_name_H-M "P 2/C"
_symmetry_group_IT_number 13
_symmetry_cell_setting 'monoclinic'
loop_
_space_group_symop_operation_xyz
x,y,z
-x,y,1/2-z
-x,-y,-z
x,-y,1/2+z
loop_
_atom_site_type_symbol
_atom_site_label
_atom_site_fract_x
_atom_site_fract_y
_atom_site_fract_z
Si Si1 0.362585 0.263176 0.265207
Si Si2 0.192691 0.362411 0.233613
Si Si3 0.091805 0.377562 0.720709
Si Si4 0.098527 0.627247 0.749194
Si Si5 0.486059 0.429445 0.845012
Si Si6 0.501428 0.901619 0.406998
Si Si7 0.793597 0.614765 0.226741
Si Si8 0.350426 0.738166 0.016503
O O1 0.444906 0.336270 0.498794
O O2 0.407104 0.154797 0.325259
O O3 0.316524 0.239449 0.286064
O O4 0.297076 0.320699 0.001743
O O5 0.143993 0.322494 0.238594
O O6 0.223315 0.486832 0.323112
O O7 0.270613 0.277560 0.412405
O O8 0.129437 0.348545 0.953881
O O9 0.084318 0.503679 0.684014
O O10 0.152003 0.338941 0.755841
O O11 0.996978 0.323245 0.469541
O O12 0.157846 0.648047 0.021588
O O13 0.500000 0.500135 0.750000
O O14 0.392039 0.379697 0.620996
O O15 0.500000 0.500000 0.000000
O O16 0.500000 0.930854 0.250000
O O17 0.417611 0.829259 0.230891
O O18 0.500000 0.000000 0.500000
#
# Coordination Sequence:
#
# PCOD8116832 Si02
#       8
#     4   4   4   4   4   4   4   4
#     4   9  17  31  48  64  88 122 150 177 225 280
#     4  10  17  27  43  64  95 127 161 189 216 257
#     4   9  16  28  42  55  91 134 164 185 223 264
#     4   9  18  26  38  65  89 126 164 199 219 238
#     4   9  17  29  42  60  88 121 153 177 208 258
#     4   9  19  37  56  70  88 113 145 187 236 286
#     4  10  17  27  43  64  95 127 161 189 216 257
#     4   9  17  31  48  64  88 122 150 177 225 280
#
# _framework density 15.872968
#
# number of rings (size 3 to 8) (size 9 to 14) (size 15 to 20)
#    0.000    2.750    1.250    3.000    0.000    3.000 
#    4.500    1.250    0.000    0.000    0.000    0.000 
#    0.000    6.000    0.000    0.000    0.000    0.000 
#
# Total GULP energy -396421.219657 kJ/mol
# GULP energy per Si atom -12388.163114 kJ/mol
# Density = 1.583684 g / cm^3
# Si number density = 15.872968 Si / 1000 Ang^3
#
#
#
# Elastic Constant Matrix: (Units=GPa)
#
#
# Indices 1 2 3 4 5 6 
#
# 1 107.2020 29.2361 41.1973 0.0000 -1.3189 0.0000
# 2 29.2361 45.9108 27.4268 0.0000 -1.9901 0.0000
# 3 41.1973 27.4268 87.2567 0.0000 3.6880 0.0000
# 4 0.0000 0.0000 0.0000 12.0561 0.0000 -3.3390
# 5 -1.3189 -1.9901 3.6880 0.0000 30.0838 0.0000
# 6 0.0000 0.0000 0.0000 -3.3390 0.0000 20.4578
#
#
#
# Elastic Compliance Matrix: (Units=1/GPa)
#
#
# Indices 1 2 3 4 5 6 
#
# 1 0.012416 -0.005363 -0.004206 0.000000 0.000705 0.000000
# 2 -0.005363 0.029374 -0.006808 0.000000 0.002543 0.000000
# 3 -0.004206 -0.006808 0.015694 0.000000 -0.002559 0.000000
# 4 0.000000 0.000000 0.000000 0.086872 0.000000 0.014179
# 5 0.000705 0.002543 -0.002559 0.000000 0.033753 0.000000
# 6 0.000000 0.000000 0.000000 0.014179 0.000000 0.051195
#
#
# Mechanical properties :
#
#
# Convention : Reuss Voigt Hill
#
# Bulk Modulus (GPa) = 40.43775 48.45445 44.44610
# Shear Modulus (GPa) = 18.49772 22.02016 20.25894
#
# Velocity S-wave (km/s) = 3.41744 3.72865 3.57643
# Velocity P-wave (km/s) = 6.41116 7.00927 6.71688
#
# Compressibility (1/GPa) = 0.02472937
#
# Stress axis : x y z
#
# Youngs Moduli (GPa) = 80.54202 34.04357 63.71687
#
# Poissons Ratio (x) = 0.18258 0.26800
# Poissons Ratio (y) = 0.43197 0.43380
# Poissons Ratio (z) = 0.33876 0.23178
#
# Static dielectric constant tensor:
#      x y z
#    x 3.177820 0.000000 0.044100 
#    y 0.000000 2.485190 0.000000 
#    z 0.044100 0.000000 2.986380 
# 
# 
# High freq. dielectric constant tensor:
#      x y z
#    x 1.623160 0.000000 0.001720 
#    y 0.000000 1.540170 0.000000 
#    z 0.001720 0.000000 1.614630 
# 
# From -- ./inp_files/24961.got.cif
#   From: 2010.06.25/outbox.cif.g09.slc.cpg/sg13_13_cif.got.tgz:24961.got - 2010.06.28 04:50:58.
