data_PCOD8116224
_publ_section_title
;
Structure prediction by ZEFSAII (Michael W. Deem and Ramdas Pophale) SiO2 
 PCOD8116224
Probable space group: C 2/M
;
_chemical_formula_sum "Si O2"
_cell_formula_units_Z 24
_cell_length_a 24.000000
_cell_length_b 9.000000
_cell_length_c 24.000000
_cell_angle_alpha 90.000000
_cell_angle_beta 30.000000
_cell_angle_gamma 90.000000
_cell_volume 2592.000000
_symmetry_space_group_name_H-M "C 2/M"
_symmetry_group_IT_number 12
_symmetry_cell_setting 'monoclinic'
loop_
_space_group_symop_operation_xyz
x,y,z
-x,y,-z
-x,-y,-z
x,-y,z
1/2+x,1/2+y,z
1/2-x,1/2+y,-z
1/2-x,1/2-y,-z
1/2+x,1/2-y,z
loop_
_atom_site_type_symbol
_atom_site_label
_atom_site_fract_x
_atom_site_fract_y
_atom_site_fract_z
Si Si1 0.756287 0.323151 0.834206
Si Si2 0.718975 0.823708 0.415667
Si Si3 0.494179 0.824155 0.664354
Si Si4 0.174782 0.173826 0.788854
Si Si5 0.926204 0.675886 0.285070
Si Si6 0.457528 0.326262 0.915248
O O1 0.761999 0.500000 0.824773
O O2 0.876452 0.254966 0.746389
O O3 0.716626 0.251580 0.809869
O O4 0.665634 0.278850 0.959191
O O5 0.593107 0.772622 0.537476
O O6 0.748466 0.767515 0.328163
O O7 0.804679 0.748692 0.384314
O O8 0.733724 0.000000 0.409205
O O9 0.522419 0.768213 0.701477
O O10 0.483787 0.000000 0.672714
O O11 0.045145 0.209823 0.889051
O O12 0.192027 0.000000 0.780027
O O13 0.912457 0.500000 0.294613
O O14 0.012994 0.728994 0.163556
O O15 0.465692 0.500000 0.892482
#
# Coordination Sequence:
#
# PCOD8116224 Si02
#       6
#     8   8   8   8   8   8
#     4   9  16  27  45  70  98 122 145 183 233 272
#     4   9  17  31  50  71  92 115 151 192 227 269
#     4   9  18  29  43  68  98 123 148 184 228 272
#     4   8  14  25  45  71  93 115 147 187 227 268
#     4  10  19  31  47  67  92 122 156 190 225 265
#     4   9  17  30  49  71  92 118 154 190 223 265
#
# _framework density 9.2592590000000001
#
# number of rings (size 3 to 8) (size 9 to 14) (size 15 to 20)
#    0.000    3.000    0.000    2.500    0.000    3.333 
#    0.000    4.167    0.000   10.000    0.000    4.667 
#    0.000    0.000    0.000    0.000    0.000    0.000 
#
# Total GULP energy -297482.052118 kJ/mol
# GULP energy per Si atom -12395.085505 kJ/mol
# Density = 0.923818 g / cm^3
# Si number density = 9.259259 Si / 1000 Ang^3
#
#
#
# Elastic Constant Matrix: (Units=GPa)
#
#
# Indices 1 2 3 4 5 6 
#
# 1 61.9023 8.2725 48.7356 0.0032 -15.5935 -0.0071
# 2 8.2725 23.5072 12.6795 0.0002 -1.5844 0.0003
# 3 48.7356 12.6795 139.9053 0.0010 -27.1655 -0.0023
# 4 0.0032 0.0002 0.0010 16.3513 0.0011 0.5677
# 5 -15.5935 -1.5844 -27.1655 0.0011 26.0258 -0.0016
# 6 -0.0071 0.0003 -0.0023 0.5677 -0.0016 17.0849
#
#
#
# Elastic Compliance Matrix: (Units=1/GPa)
#
#
# Indices 1 2 3 4 5 6 
#
# 1 0.023610 -0.004353 -0.006440 -0.000005 0.007159 0.000010
# 2 -0.004353 0.045603 -0.003241 0.000001 -0.003215 -0.000003
# 3 -0.006440 -0.003241 0.011159 0.000000 0.007592 0.000000
# 4 -0.000005 0.000001 0.000000 0.061228 -0.000005 -0.002035
# 5 0.007159 -0.003215 0.007592 -0.000005 0.050441 0.000009
# 6 0.000010 -0.000003 0.000000 -0.002035 0.000009 0.058599
#
#
# Mechanical properties :
#
#
# Convention : Reuss Voigt Hill
#
# Bulk Modulus (GPa) = 19.11856 40.52112 29.81984
# Shear Modulus (GPa) = 16.88383 22.26755 19.57569
#
# Velocity S-wave (km/s) = 3.02276 3.47139 3.25482
# Velocity P-wave (km/s) = 4.74649 6.16412 5.50116
#
# Compressibility (1/GPa) = 0.05230520
#
# Stress axis : x y z
#
# Youngs Moduli (GPa) = 42.35566 21.92820 89.61562
#
# Poissons Ratio (x) = 0.09544 0.57710
# Poissons Ratio (y) = 0.18435 0.29044
# Poissons Ratio (z) = 0.27276 0.07107
#
# Static dielectric constant tensor:
#      x y z
#    x 3.676740 0.000000 -0.113540 
#    y 0.000000 2.863100 0.000000 
#    z -0.113540 0.000000 3.655690 
# 
# 
# High freq. dielectric constant tensor:
#      x y z
#    x 1.716920 0.000000 -0.000330 
#    y 0.000000 1.658360 0.000000 
#    z -0.000330 0.000000 1.729730 
# 
# From -- ./inp_files/164092.got.cif
#   From: 2010.06.25/outbox.ucp.g09.slc.cvg/sg12_83_cif.got.tgz:164092.got - 2010.06.28 13:50:54.
