data_PCOD8117151
_publ_section_title
;
Structure prediction by ZEFSAII (Michael W. Deem and Ramdas Pophale) SiO2 
 PCOD8117151
Probable space group: P 2/C
;
_chemical_formula_sum "Si O2"
_cell_formula_units_Z 24
_cell_length_a 11.289017
_cell_length_b 11.972972
_cell_length_c 8.213310
_cell_angle_alpha 90.000000
_cell_angle_beta 100.107846
_cell_angle_gamma 90.000000
_cell_volume 1092.906061
_symmetry_space_group_name_H-M "P 2/C"
_symmetry_group_IT_number 13
_symmetry_cell_setting 'monoclinic'
loop_
_space_group_symop_operation_xyz
x,y,z
-x,y,1/2-z
-x,-y,-z
x,-y,1/2+z
loop_
_atom_site_type_symbol
_atom_site_label
_atom_site_fract_x
_atom_site_fract_y
_atom_site_fract_z
Si Si1 0.000000 0.846035 0.750000
Si Si2 0.625827 0.835693 0.760288
Si Si3 0.641935 0.372153 0.487647
Si Si4 0.500000 0.545841 0.250000
Si Si5 0.785880 0.195370 0.023756
Si Si6 0.844665 0.942599 0.973798
Si Si7 0.860379 0.269420 0.699007
O O1 0.106667 0.760850 0.830814
O O2 0.037564 0.928662 0.610641
O O3 0.500000 0.902781 0.750000
O O4 0.657570 0.789089 0.584684
O O5 0.729920 0.918795 0.833962
O O6 0.604676 0.736353 0.881015
O O7 0.608852 0.475719 0.361974
O O8 0.562467 0.376872 0.631273
O O9 0.784529 0.359275 0.571974
O O10 0.791577 0.260620 0.855864
O O11 0.822785 0.065528 0.031454
O O12 0.855098 0.854610 0.123766
O O13 0.000000 0.308412 0.750000
#
# Coordination Sequence:
#
# PCOD8117151 Si02
#       7
#     2   4   4   2   4   4   4
#     4  10  18  32  54  78 116 172 224 254 272 330
#     4  10  22  39  57  85 125 159 209 259 302 353
#     4  10  23  41  69  96 116 149 201 253 319 376
#     4  10  22  46  76  92 112 152 200 256 314 404
#     4  11  22  33  58  85 128 177 214 248 289 343
#     4  10  21  35  54  88 125 178 221 245 288 345
#     4  11  22  37  59  96 131 162 205 257 306 355
#
# _framework density 21.959800000000001
#
# number of rings (size 3 to 8) (size 9 to 14) (size 15 to 20)
#    0.000    1.667    2.500    2.500    4.667    0.667 
#    0.000    0.833    0.000    0.000    0.000    0.000 
#    0.000    0.000    0.000    0.000    0.000    0.000 
#
# Total GULP energy -297349.439367 kJ/mol
# GULP energy per Si atom -12389.559974 kJ/mol
# Density = 2.190982 g / cm^3
# Si number density = 21.959800 Si / 1000 Ang^3
#
#
#
# Elastic Constant Matrix: (Units=GPa)
#
#
# Indices 1 2 3 4 5 6 
#
# 1 149.3728 25.5536 56.9382 0.0000 -10.5667 0.0000
# 2 25.5536 47.3926 18.0272 0.0000 -0.3653 0.0000
# 3 56.9382 18.0272 129.0298 0.0000 -19.1487 0.0000
# 4 0.0000 0.0000 0.0000 23.3834 0.0000 -4.9895
# 5 -10.5667 -0.3653 -19.1487 0.0000 40.2449 0.0000
# 6 0.0000 0.0000 0.0000 -4.9895 0.0000 18.9038
#
#
#
# Elastic Compliance Matrix: (Units=1/GPa)
#
#
# Indices 1 2 3 4 5 6 
#
# 1 0.008540 -0.003385 -0.003193 0.000000 0.000692 0.000000
# 2 -0.003385 0.023697 -0.002063 0.000000 -0.001655 0.000000
# 3 -0.003193 -0.002063 0.010028 0.000000 0.003914 0.000000
# 4 0.000000 0.000000 0.000000 0.045318 0.000000 0.011961
# 5 0.000692 -0.001655 0.003914 0.000000 0.026877 0.000000
# 6 0.000000 0.000000 0.000000 0.011961 0.000000 0.056056
#
#
# Mechanical properties :
#
#
# Convention : Reuss Voigt Hill
#
# Bulk Modulus (GPa) = 40.02482 58.53701 49.28091
# Shear Modulus (GPa) = 25.49392 31.52483 28.50938
#
# Velocity S-wave (km/s) = 3.41095 3.79300 3.60704
# Velocity P-wave (km/s) = 5.81195 6.77472 6.31172
#
# Compressibility (1/GPa) = 0.02498450
#
# Stress axis : x y z
#
# Youngs Moduli (GPa) = 117.10033 42.19896 99.71904
#
# Poissons Ratio (x) = 0.14283 0.31838
# Poissons Ratio (y) = 0.39635 0.20570
# Poissons Ratio (z) = 0.37387 0.08705
#
# Static dielectric constant tensor:
#      x y z
#    x 4.428720 0.000000 0.218930 
#    y 0.000000 3.371240 0.000000 
#    z 0.218930 0.000000 4.501430 
# 
# 
# High freq. dielectric constant tensor:
#      x y z
#    x 1.881120 0.000000 0.003120 
#    y 0.000000 1.801460 0.000000 
#    z 0.003120 0.000000 1.889810 
# 
# From -- ./inp_files/15898.got.cif
#   From: 2010.06.25/outbox.cif.g09.slc.cpg/sg13_8_cif.got.tgz:15898.got - 2010.06.28 04:50:58.
