data_PCOD8117818
_publ_section_title
;
Structure prediction by ZEFSAII (Michael W. Deem and Ramdas Pophale) SiO2 
 PCOD8117818
Probable space group: P 2/C
;
_chemical_formula_sum "Si O2"
_cell_formula_units_Z 30
_cell_length_a 9.519986
_cell_length_b 11.481162
_cell_length_c 15.017224
_cell_angle_alpha 90.000000
_cell_angle_beta 76.933185
_cell_angle_gamma 90.000000
_cell_volume 1598.889727
_symmetry_space_group_name_H-M "P 2/C"
_symmetry_group_IT_number 13
_symmetry_cell_setting 'monoclinic'
loop_
_space_group_symop_operation_xyz
x,y,z
-x,y,1/2-z
-x,-y,-z
x,-y,1/2+z
loop_
_atom_site_type_symbol
_atom_site_label
_atom_site_fract_x
_atom_site_fract_y
_atom_site_fract_z
Si Si1 0.354125 0.741407 0.458395
Si Si2 0.224199 0.504603 0.525005
Si Si3 0.683731 0.278914 0.901769
Si Si4 0.937456 0.856213 0.428335
Si Si5 0.000000 0.724167 0.750000
Si Si6 0.816368 0.716165 0.194117
Si Si7 0.886604 0.877291 0.922446
Si Si8 0.095251 0.462985 0.361274
O O1 0.321750 0.619341 0.511058
O O2 0.522909 0.767984 0.437138
O O3 0.302295 0.732987 0.364603
O O4 0.273906 0.847596 0.519871
O O5 0.305981 0.415922 0.578307
O O6 0.203668 0.449024 0.429234
O O7 0.069145 0.542378 0.583042
O O8 0.786959 0.211612 0.955155
O O9 0.737633 0.249172 0.795530
O O10 0.046082 0.799033 0.341530
O O11 0.999252 0.840601 0.518443
O O12 0.905267 0.986687 0.401553
O O13 0.088183 0.806568 0.671226
O O14 0.113814 0.642303 0.787888
O O15 0.874135 0.584564 0.192025
#
# Coordination Sequence:
#
# PCOD8117818 Si02
#       8
#     4   4   4   4   2   4   4   4
#     4  10  22  39  53  82 124 153 177 228 296 342
#     4  10  19  35  54  82 116 152 182 232 287 340
#     4  12  21  33  61  85 114 149 194 227 281 347
#     4  10  22  40  60  84 111 149 193 241 281 325
#     4  12  20  32  60  88 108 142 194 240 280 334
#     4  10  21  36  58  87 114 142 193 241 275 328
#     4  10  23  40  59  82 116 149 190 240 283 329
#     4  10  19  33  57  83 113 144 190 237 284 325
#
# _framework density 18.763019
#
# number of rings (size 3 to 8) (size 9 to 14) (size 15 to 20)
#    0.000    1.600    2.667    2.800    1.867    0.533 
#    0.000    0.000    0.000    2.400    0.000    0.000 
#    0.000    0.000    0.000    0.000    0.000    0.000 
#
# Total GULP energy -372055.847050 kJ/mol
# GULP energy per Si atom -12401.861568 kJ/mol
# Density = 1.872031 g / cm^3
# Si number density = 18.763019 Si / 1000 Ang^3
#
#
#
# Elastic Constant Matrix: (Units=GPa)
#
#
# Indices 1 2 3 4 5 6 
#
# 1 115.9642 46.4117 33.8203 0.0000 -23.5572 0.0000
# 2 46.4117 97.9467 44.4827 0.0000 -7.5394 0.0000
# 3 33.8203 44.4827 83.4057 0.0000 -8.6535 0.0000
# 4 0.0000 0.0000 0.0000 29.2464 0.0000 5.7249
# 5 -23.5572 -7.5394 -8.6535 0.0000 21.6849 0.0000
# 6 0.0000 0.0000 0.0000 5.7249 0.0000 16.9129
#
#
#
# Elastic Compliance Matrix: (Units=1/GPa)
#
#
# Indices 1 2 3 4 5 6 
#
# 1 0.013501 -0.004674 -0.001699 0.000000 0.012364 0.000000
# 2 -0.004674 0.015166 -0.006440 0.000000 -0.002375 0.000000
# 3 -0.001699 -0.006440 0.016367 0.000000 0.002447 0.000000
# 4 0.000000 0.000000 0.000000 0.036619 0.000000 -0.012395
# 5 0.012364 -0.002375 0.002447 0.000000 0.059697 0.000000
# 6 0.000000 0.000000 0.000000 -0.012395 0.000000 0.063322
#
#
# Mechanical properties :
#
#
# Convention : Reuss Voigt Hill
#
# Bulk Modulus (GPa) = 51.52338 60.74955 56.13647
# Shear Modulus (GPa) = 21.11780 25.07565 23.09672
#
# Velocity S-wave (km/s) = 3.35849 3.65970 3.51233
# Velocity P-wave (km/s) = 6.52372 7.09263 6.81412
#
# Compressibility (1/GPa) = 0.01940866
#
# Stress axis : x y z
#
# Youngs Moduli (GPa) = 74.06757 65.93579 61.09938
#
# Poissons Ratio (x) = 0.30820 0.10381
# Poissons Ratio (y) = 0.34621 0.39346
# Poissons Ratio (z) = 0.12584 0.42460
#
# Static dielectric constant tensor:
#      x y z
#    x 3.295580 0.000000 0.119760 
#    y 0.000000 3.515610 0.000000 
#    z 0.119760 0.000000 3.493860 
# 
# 
# High freq. dielectric constant tensor:
#      x y z
#    x 1.710690 0.000000 0.010590 
#    y 0.000000 1.728440 0.000000 
#    z 0.010590 0.000000 1.731670 
# 
# From -- ./inp_files/47215.got.cif
#   From: 2010.06.25/outbox.cif.g09.slc.cpg/sg13_24_cif.got.tgz:47215.got - 2010.06.28 04:50:58.
