data_PCOD8117417
_publ_section_title
;
Structure prediction by ZEFSAII (Michael W. Deem and Ramdas Pophale) SiO2 
 PCOD8117417
Probable space group: P 2/C
;
_chemical_formula_sum "Si O2"
_cell_formula_units_Z 32
_cell_length_a 18.179841
_cell_length_b 12.182742
_cell_length_c 14.752519
_cell_angle_alpha 90.000000
_cell_angle_beta 150.264466
_cell_angle_gamma 90.000000
_cell_volume 1620.617820
_symmetry_space_group_name_H-M "P 2/C"
_symmetry_group_IT_number 13
_symmetry_cell_setting 'monoclinic'
loop_
_space_group_symop_operation_xyz
x,y,z
-x,y,1/2-z
-x,-y,-z
x,-y,1/2+z
loop_
_atom_site_type_symbol
_atom_site_label
_atom_site_fract_x
_atom_site_fract_y
_atom_site_fract_z
Si Si1 0.204160 0.662410 0.217314
Si Si2 0.350822 0.447319 0.380548
Si Si3 0.481747 0.767845 0.970651
Si Si4 0.610333 0.130693 0.789705
Si Si5 0.331400 0.513667 0.062625
Si Si6 0.366955 0.876000 0.672179
Si Si7 0.847425 0.303988 0.033820
Si Si8 0.150885 0.704589 0.359833
O O1 0.214845 0.529860 0.212363
O O2 0.370349 0.708908 0.406769
O O3 0.119891 0.703410 0.217762
O O4 0.117644 0.704824 0.036280
O O5 0.500000 0.500000 0.500000
O O6 0.350620 0.322358 0.345119
O O7 0.326840 0.429088 0.461203
O O8 0.409300 0.846315 0.819666
O O9 0.527367 0.839379 0.107196
O O10 0.500000 0.168094 0.750000
O O11 0.658754 0.005382 0.851980
O O12 0.765044 0.192640 0.971797
O O13 0.500000 0.480645 0.250000
O O14 0.267065 0.596265 0.069451
O O15 0.251147 0.398944 0.989736
O O16 0.500000 0.841593 0.750000
O O17 0.222919 0.816052 0.476421
O O18 0.000000 0.319900 0.250000
O O19 0.000000 0.686330 0.250000
#
# Coordination Sequence:
#
# PCOD8117417 Si02
#       8
#     4   4   4   4   4   4   4   4
#     4   9  20  38  59  86 127 159 200 254 302 366
#     4   9  18  31  55  93 122 155 188 248 304 354
#     4  10  18  35  63  93 122 150 206 251 309 348
#     4  10  22  40  62  91 123 155 206 262 298 355
#     4  11  21  37  63  91 123 158 204 248 305 364
#     4  11  22  38  65  90 119 163 206 255 304 361
#     4  11  23  41  63  87 124 165 205 248 314 369
#     4  11  24  41  58  91 127 162 201 250 309 372
#
# _framework density 19.745556000000001
#
# number of rings (size 3 to 8) (size 9 to 14) (size 15 to 20)
#    0.000    1.750    1.250    4.500    5.250    0.500 
#    4.500    1.875    0.000    2.250    0.000    0.000 
#    0.000    0.000    0.000    0.000    0.000    0.000 
#
# Total GULP energy -396464.924959 kJ/mol
# GULP energy per Si atom -12389.528905 kJ/mol
# Density = 1.970061 g / cm^3
# Si number density = 19.745556 Si / 1000 Ang^3
#
#
#
# Elastic Constant Matrix: (Units=GPa)
#
#
# Indices 1 2 3 4 5 6 
#
# 1 137.7756 50.2458 52.8010 0.0000 -2.9127 0.0000
# 2 50.2458 77.3592 39.6288 0.0000 -2.9195 0.0000
# 3 52.8010 39.6288 94.6801 0.0000 0.7291 0.0000
# 4 0.0000 0.0000 0.0000 22.1668 0.0000 -4.6989
# 5 -2.9127 -2.9195 0.7291 0.0000 24.6913 0.0000
# 6 0.0000 0.0000 0.0000 -4.6989 0.0000 31.1198
#
#
#
# Elastic Compliance Matrix: (Units=1/GPa)
#
#
# Indices 1 2 3 4 5 6 
#
# 1 0.010509 -0.004825 -0.003847 0.000000 0.000783 0.000000
# 2 -0.004825 0.018785 -0.005186 0.000000 0.001805 0.000000
# 3 -0.003847 -0.005186 0.014889 0.000000 -0.001507 0.000000
# 4 0.000000 0.000000 0.000000 0.046604 0.000000 0.007037
# 5 0.000783 0.001805 -0.001507 0.000000 0.040850 0.000000
# 6 0.000000 0.000000 0.000000 0.007037 0.000000 0.033196
#
#
# Mechanical properties :
#
#
# Convention : Reuss Voigt Hill
#
# Bulk Modulus (GPa) = 60.72485 66.12958 63.42721
# Shear Modulus (GPa) = 25.24749 26.73819 25.99284
#
# Velocity S-wave (km/s) = 3.57969 3.68385 3.63214
# Velocity P-wave (km/s) = 6.92142 7.18735 7.05563
#
# Compressibility (1/GPa) = 0.01646772
#
# Stress axis : x y z
#
# Youngs Moduli (GPa) = 95.15845 53.23267 67.16260
#
# Poissons Ratio (x) = 0.25687 0.25836
# Poissons Ratio (y) = 0.45918 0.34828
# Poissons Ratio (z) = 0.36606 0.27604
#
# Static dielectric constant tensor:
#      x y z
#    x 3.878160 0.000000 -0.115390 
#    y 0.000000 3.323520 0.000000 
#    z -0.115390 0.000000 3.216560 
# 
# 
# High freq. dielectric constant tensor:
#      x y z
#    x 1.788070 0.000000 -0.015430 
#    y 0.000000 1.769960 0.000000 
#    z -0.015430 0.000000 1.742520 
# 
# From -- ./inp_files/55823.got.cif
#   From: 2010.06.25/outbox.cif.g09.slc.cpg/sg13_28_cif.got.tgz:55823.got - 2010.06.28 04:50:58.
