data_PCOD8117489
_publ_section_title
;
Structure prediction by ZEFSAII (Michael W. Deem and Ramdas Pophale) SiO2 
 PCOD8117489
Probable space group: P 2/C
;
_chemical_formula_sum "Si O2"
_cell_formula_units_Z 18
_cell_length_a 15.194653
_cell_length_b 10.281989
_cell_length_c 10.697044
_cell_angle_alpha 90.000000
_cell_angle_beta 148.123865
_cell_angle_gamma 90.000000
_cell_volume 882.541764
_symmetry_space_group_name_H-M "P 2/C"
_symmetry_group_IT_number 13
_symmetry_cell_setting 'monoclinic'
loop_
_space_group_symop_operation_xyz
x,y,z
-x,y,1/2-z
-x,-y,-z
x,-y,1/2+z
loop_
_atom_site_type_symbol
_atom_site_label
_atom_site_fract_x
_atom_site_fract_y
_atom_site_fract_z
Si Si1 0.679216 0.005711 0.274904
Si Si2 0.752076 0.250926 0.750160
Si Si3 0.104221 0.498296 0.999130
Si Si4 0.072707 0.787295 0.468519
Si Si5 0.500000 0.155758 0.250000
O O1 0.795931 0.101709 0.332638
O O2 0.650495 0.065223 0.378398
O O3 0.748875 0.858638 0.355448
O O4 0.500000 0.000000 0.000000
O O5 0.591113 0.243707 0.464645
O O6 0.927239 0.229797 0.892589
O O7 0.749368 0.393946 0.810753
O O8 0.170956 0.350229 0.064696
O O9 0.000000 0.535967 0.750000
O O10 0.000000 0.500000 0.000000
O O11 0.000000 0.837180 0.250000
#
# Coordination Sequence:
#
# PCOD8117489 Si02
#       5
#     4   4   4   4   2
#     4  10  21  36  56  84 118 154 200 243 297 356
#     4  10  20  37  62  88 117 155 204 251 300 361
#     4   9  20  38  62  92 120 151 204 257 297 359
#     4  10  18  36  64  83 112 157 199 245 305 360
#     4  10  20  38  56  84 126 162 192 250 310 358
#
# _framework density 20.395637000000001
#
# number of rings (size 3 to 8) (size 9 to 14) (size 15 to 20)
#    0.000    2.222    2.222    0.667    0.000    0.889 
#   16.000    4.444    0.000    1.333    0.000    0.000 
#    0.000    0.000    0.000    0.000    0.000    0.000 
#
# Total GULP energy -222986.373200 kJ/mol
# GULP energy per Si atom -12388.131844 kJ/mol
# Density = 2.034922 g / cm^3
# Si number density = 20.395637 Si / 1000 Ang^3
#
#
#
# Elastic Constant Matrix: (Units=GPa)
#
#
# Indices 1 2 3 4 5 6 
#
# 1 54.1104 11.1936 21.5104 0.0000 0.1023 0.0000
# 2 11.1936 150.8663 61.6103 0.0000 7.1022 0.0000
# 3 21.5104 61.6103 86.3051 0.0000 -4.4888 0.0000
# 4 0.0000 0.0000 0.0000 31.7377 0.0000 1.1829
# 5 0.1023 7.1022 -4.4888 0.0000 33.8265 0.0000
# 6 0.0000 0.0000 0.0000 1.1829 0.0000 22.8086
#
#
#
# Elastic Compliance Matrix: (Units=1/GPa)
#
#
# Indices 1 2 3 4 5 6 
#
# 1 0.020616 0.000902 -0.005835 0.000000 -0.001026 0.000000
# 2 0.000902 0.009681 -0.007292 0.000000 -0.003003 0.000000
# 3 -0.005835 -0.007292 0.018454 0.000000 0.003997 0.000000
# 4 0.000000 0.000000 0.000000 0.031569 0.000000 -0.001637
# 5 -0.001026 -0.003003 0.003997 0.000000 0.030727 0.000000
# 6 0.000000 0.000000 0.000000 -0.001637 0.000000 0.043928
#
#
# Mechanical properties :
#
#
# Convention : Reuss Voigt Hill
#
# Bulk Modulus (GPa) = 41.15155 53.32337 47.23746
# Shear Modulus (GPa) = 26.66310 30.80572 28.73441
#
# Velocity S-wave (km/s) = 3.61957 3.89061 3.75754
# Velocity P-wave (km/s) = 6.13913 6.81056 6.48354
#
# Compressibility (1/GPa) = 0.02430042
#
# Stress axis : x y z
#
# Youngs Moduli (GPa) = 48.50635 103.30002 54.18801
#
# Poissons Ratio (x) = -0.09315 0.31620
# Poissons Ratio (y) = -0.04374 0.39511
# Poissons Ratio (z) = 0.28305 0.75322
#
# Static dielectric constant tensor:
#      x y z
#    x 5.042830 0.000000 -0.279580 
#    y 0.000000 4.703820 0.000000 
#    z -0.279580 0.000000 3.543570 
# 
# 
# High freq. dielectric constant tensor:
#      x y z
#    x 1.786060 0.000000 -0.001430 
#    y 0.000000 1.809440 0.000000 
#    z -0.001430 0.000000 1.774970 
# 
# From -- ./inp_files/27639.got.cif
#   From: 2010.06.25/outbox.cif.g09.slc.cpg/sg13_14_cif.got.tgz:27639.got - 2010.06.28 04:50:58.
