data_PCOD8117174
_publ_section_title
;
Structure prediction by ZEFSAII (Michael W. Deem and Ramdas Pophale) SiO2 
 PCOD8117174
Probable space group: P 2/C
;
_chemical_formula_sum "Si O2"
_cell_formula_units_Z 20
_cell_length_a 5.200395
_cell_length_b 11.379619
_cell_length_c 19.390656
_cell_angle_alpha 90.000000
_cell_angle_beta 122.005117
_cell_angle_gamma 90.000000
_cell_volume 973.089531
_symmetry_space_group_name_H-M "P 2/C"
_symmetry_group_IT_number 13
_symmetry_cell_setting 'monoclinic'
loop_
_space_group_symop_operation_xyz
x,y,z
-x,y,1/2-z
-x,-y,-z
x,-y,1/2+z
loop_
_atom_site_type_symbol
_atom_site_label
_atom_site_fract_x
_atom_site_fract_y
_atom_site_fract_z
Si Si1 0.736755 0.005897 0.407278
Si Si2 0.343009 0.274155 0.096431
Si Si3 0.740079 0.342945 0.562513
Si Si4 0.114955 0.886765 0.343113
Si Si5 0.165412 0.396243 0.407795
O O1 0.158241 0.708220 0.497906
O O2 0.861934 0.948570 0.354874
O O3 0.626684 0.138635 0.378931
O O4 0.000000 0.000000 0.500000
O O5 0.670108 0.339117 0.136084
O O6 0.159073 0.335675 0.131398
O O7 0.552667 0.941642 0.101352
O O8 0.842886 0.250383 0.634299
O O9 0.376528 0.368286 0.505478
O O10 0.897655 0.464965 0.606486
O O11 0.000000 0.901758 0.250000
#
# Coordination Sequence:
#
# PCOD8117174 Si02
#       5
#     4   4   4   4   4
#     4  12  22  40  64  88 119 161 217 253 295 367
#     4  10  18  32  56  89 109 145 199 259 285 332
#     4   9  20  32  58  83 125 145 194 252 300 357
#     4  12  26  40  58  90 129 166 198 255 331 370
#     4   9  18  31  55  92 114 140 192 255 298 337
#
# _framework density 20.553094000000002
#
# number of rings (size 3 to 8) (size 9 to 14) (size 15 to 20)
#    1.200    0.400    2.000    4.200    0.000    0.000 
#    0.000    0.000    0.000    7.200    0.000    0.000 
#    0.000    0.000    0.000    0.000    0.000    0.000 
#
# Total GULP energy -247855.525542 kJ/mol
# GULP energy per Si atom -12392.776277 kJ/mol
# Density = 2.050631 g / cm^3
# Si number density = 20.553094 Si / 1000 Ang^3
#
#
#
# Elastic Constant Matrix: (Units=GPa)
#
#
# Indices 1 2 3 4 5 6 
#
# 1 125.0261 49.7343 0.2188 0.0000 -2.9751 0.0000
# 2 49.7343 178.9786 13.9984 0.0000 -7.1105 0.0000
# 3 0.2188 13.9984 33.5685 0.0000 -4.7667 0.0000
# 4 0.0000 0.0000 0.0000 12.2030 0.0000 -1.3461
# 5 -2.9751 -7.1105 -4.7667 0.0000 21.0100 0.0000
# 6 0.0000 0.0000 0.0000 -1.3461 0.0000 25.9619
#
#
#
# Elastic Compliance Matrix: (Units=1/GPa)
#
#
# Indices 1 2 3 4 5 6 
#
# 1 0.009035 -0.002571 0.001107 0.000000 0.000660 0.000000
# 2 -0.002571 0.006551 -0.002533 0.000000 0.001278 0.000000
# 3 0.001107 -0.002533 0.031763 0.000000 0.006506 0.000000
# 4 0.000000 0.000000 0.000000 0.082418 0.000000 0.004273
# 5 0.000660 0.001278 0.006506 0.000000 0.049598 0.000000
# 6 0.000000 0.000000 0.000000 0.004273 0.000000 0.038739
#
#
# Mechanical properties :
#
#
# Convention : Reuss Voigt Hill
#
# Bulk Modulus (GPa) = 25.41065 51.71959 38.56512
# Shear Modulus (GPa) = 20.90155 30.07646 25.48900
#
# Velocity S-wave (km/s) = 3.19243 3.82953 3.52540
# Velocity P-wave (km/s) = 5.09697 6.69121 5.94775
#
# Compressibility (1/GPa) = 0.03935358
#
# Stress axis : x y z
#
# Youngs Moduli (GPa) = 110.68320 152.65813 31.48329
#
# Poissons Ratio (x) = 0.39247 -0.03485
# Poissons Ratio (y) = 0.28456 0.07976
# Poissons Ratio (z) = -0.12253 0.38675
#
# Static dielectric constant tensor:
#      x y z
#    x 3.851680 0.000000 -0.035260 
#    y 0.000000 3.889000 0.000000 
#    z -0.035260 0.000000 3.098350 
# 
# 
# High freq. dielectric constant tensor:
#      x y z
#    x 1.810790 0.000000 -0.000490 
#    y 0.000000 1.821190 0.000000 
#    z -0.000490 0.000000 1.745920 
# 
# From -- ./inp_files/90082.got.cif
#   From: 2010.06.25/outbox.cif.g09.slc.cpg/sg13_46_cif.got.tgz:90082.got - 2010.06.28 04:50:58.
