data_PCOD8117550
_publ_section_title
;
Structure prediction by ZEFSAII (Michael W. Deem and Ramdas Pophale) SiO2 
 PCOD8117550
Probable space group: P 2/C
;
_chemical_formula_sum "Si O2"
_cell_formula_units_Z 24
_cell_length_a 17.185920
_cell_length_b 7.745921
_cell_length_c 16.601113
_cell_angle_alpha 90.000000
_cell_angle_beta 147.924287
_cell_angle_gamma 90.000000
_cell_volume 1173.572266
_symmetry_space_group_name_H-M "P 2/C"
_symmetry_group_IT_number 13
_symmetry_cell_setting 'monoclinic'
loop_
_space_group_symop_operation_xyz
x,y,z
-x,y,1/2-z
-x,-y,-z
x,-y,1/2+z
loop_
_atom_site_type_symbol
_atom_site_label
_atom_site_fract_x
_atom_site_fract_y
_atom_site_fract_z
Si Si1 0.233955 0.667312 0.640316
Si Si2 0.550167 0.242812 0.043896
Si Si3 0.675230 0.691337 0.288874
Si Si4 0.299557 0.073214 0.908759
Si Si5 0.937572 0.177816 0.911904
Si Si6 0.340499 0.972256 0.623716
O O1 0.326056 0.641319 0.804441
O O2 0.281202 0.493976 0.632724
O O3 0.261304 0.844604 0.616097
O O4 0.061986 0.676110 0.510137
O O5 0.645312 0.079625 0.100272
O O6 0.468854 0.324707 0.895087
O O7 0.431632 0.209563 0.011561
O O8 0.817486 0.749673 0.366341
O O9 0.645659 0.832863 0.331253
O O10 0.142162 0.142897 0.742798
O O11 0.265579 0.021215 0.970696
O O12 0.000000 0.000000 0.000000
O O13 0.500000 0.893928 0.750000
#
# Coordination Sequence:
#
# PCOD8117550 Si02
#       6
#     4   4   4   4   4   4
#     4  12  23  40  66  93 124 163 208 258 311 368
#     4  10  18  38  63  92 120 159 211 256 297 362
#     4  11  24  40  64  95 124 160 210 258 309 369
#     4  10  20  37  65  89 120 165 208 247 308 374
#     4  11  21  42  67  87 118 167 209 254 306 361
#     4  12  22  40  63  91 129 163 197 255 316 373
#
# _framework density 20.450379999999999
#
# number of rings (size 3 to 8) (size 9 to 14) (size 15 to 20)
#    0.000    1.000    6.667    2.000    0.000    1.333 
#    0.000    0.000    3.667    0.000    0.000    0.000 
#    0.000    0.000    0.000    0.000    0.000    0.000 
#
# Total GULP energy -297370.518684 kJ/mol
# GULP energy per Si atom -12390.438278 kJ/mol
# Density = 2.040383 g / cm^3
# Si number density = 20.450380 Si / 1000 Ang^3
#
#
#
# Elastic Constant Matrix: (Units=GPa)
#
#
# Indices 1 2 3 4 5 6 
#
# 1 70.0326 11.9010 48.3978 0.0000 -13.8985 0.0000
# 2 11.9010 86.1538 33.6536 0.0000 -5.3712 0.0000
# 3 48.3978 33.6536 134.2631 0.0000 0.5539 0.0000
# 4 0.0000 0.0000 0.0000 18.5012 0.0000 4.0055
# 5 -13.8985 -5.3712 0.5539 0.0000 35.1325 0.0000
# 6 0.0000 0.0000 0.0000 4.0055 0.0000 16.8065
#
#
#
# Elastic Compliance Matrix: (Units=1/GPa)
#
#
# Indices 1 2 3 4 5 6 
#
# 1 0.021344 0.000678 -0.007900 0.000000 0.008672 0.000000
# 2 0.000678 0.013033 -0.003521 0.000000 0.002316 0.000000
# 3 -0.007900 -0.003521 0.011194 0.000000 -0.003840 0.000000
# 4 0.000000 0.000000 0.000000 0.056991 0.000000 -0.013583
# 5 0.008672 0.002316 -0.003840 0.000000 0.032309 0.000000
# 6 0.000000 0.000000 0.000000 -0.013583 0.000000 0.062738
#
#
# Mechanical properties :
#
#
# Convention : Reuss Voigt Hill
#
# Bulk Modulus (GPa) = 41.51708 53.15049 47.33378
# Shear Modulus (GPa) = 22.01449 27.18785 24.60117
#
# Velocity S-wave (km/s) = 3.28454 3.65012 3.47215
# Velocity P-wave (km/s) = 5.89319 6.61898 6.26660
#
# Compressibility (1/GPa) = 0.02408648
#
# Stress axis : x y z
#
# Youngs Moduli (GPa) = 46.85134 76.72716 89.33375
#
# Poissons Ratio (x) = -0.05202 0.70570
# Poissons Ratio (y) = -0.03177 0.31452
# Poissons Ratio (z) = 0.37011 0.27014
#
# Static dielectric constant tensor:
#      x y z
#    x 3.747820 0.000000 0.022000 
#    y 0.000000 3.857240 0.000000 
#    z 0.022000 0.000000 3.998240 
# 
# 
# High freq. dielectric constant tensor:
#      x y z
#    x 1.781270 0.000000 0.008550 
#    y 0.000000 1.792770 0.000000 
#    z 0.008550 0.000000 1.809360 
# 
# From -- ./inp_files/69503.got.cif
#   From: 2010.06.25/outbox.cif.g09.slc.cpg/sg13_35_cif.got.tgz:69503.got - 2010.06.28 04:50:58.
