data_PCOD8117138
_publ_section_title
;
Structure prediction by ZEFSAII (Michael W. Deem and Ramdas Pophale) SiO2 
 PCOD8117138
Probable space group: P 2/C
;
_chemical_formula_sum "Si O2"
_cell_formula_units_Z 20
_cell_length_a 21.076597
_cell_length_b 8.548396
_cell_length_c 5.337196
_cell_angle_alpha 90.000000
_cell_angle_beta 97.273203
_cell_angle_gamma 90.000000
_cell_volume 953.871130
_symmetry_space_group_name_H-M "P 2/C"
_symmetry_group_IT_number 13
_symmetry_cell_setting 'monoclinic'
loop_
_space_group_symop_operation_xyz
x,y,z
-x,y,1/2-z
-x,-y,-z
x,-y,1/2+z
loop_
_atom_site_type_symbol
_atom_site_label
_atom_site_fract_x
_atom_site_fract_y
_atom_site_fract_z
Si Si1 0.573552 0.654517 0.286772
Si Si2 0.928460 0.564681 0.964231
Si Si3 0.112607 0.094991 0.056325
Si Si4 0.374841 0.687024 0.687428
Si Si5 0.260388 0.096730 0.130203
O O1 0.500000 0.600874 0.250000
O O2 0.589879 0.753690 0.544875
O O3 0.618975 0.501067 0.309481
O O4 0.589879 0.753690 0.044993
O O5 0.892827 0.499996 0.696418
O O6 0.930683 0.751377 0.965334
O O7 0.000000 0.500000 0.000000
O O8 0.186536 0.146590 0.093281
O O9 0.095272 0.000011 0.297670
O O10 0.301503 0.743739 0.650764
O O11 0.277067 0.999997 0.388538
#
# Coordination Sequence:
#
# PCOD8117138 Si02
#       5
#     4   4   4   4   4
#     4  10  19  33  55  76 106 140 177 229 278 338
#     4  10  21  40  60  90 129 155 192 253 308 327
#     4  10  21  40  63  86 117 166 209 232 287 371
#     4  10  18  32  52  78 102 135 184 222 281 320
#     4  10  21  37  56  78 110 148 185 231 273 328
#
# _framework density 20.967193999999999
#
# number of rings (size 3 to 8) (size 9 to 14) (size 15 to 20)
#    0.000    2.000    0.000    5.400    0.000    0.000 
#    7.200   12.000    0.000   20.400    0.000    0.000 
#    0.000    0.000    0.000    0.000    0.000    0.000 
#
# Total GULP energy -247862.759092 kJ/mol
# GULP energy per Si atom -12393.137955 kJ/mol
# Density = 2.091947 g / cm^3
# Si number density = 20.967194 Si / 1000 Ang^3
#
#
#
# Elastic Constant Matrix: (Units=GPa)
#
#
# Indices 1 2 3 4 5 6 
#
# 1 74.9328 59.5685 44.0329 0.0000 5.0192 0.0000
# 2 59.5685 115.0131 55.2590 0.0000 1.1250 0.0000
# 3 44.0329 55.2590 229.9199 0.0000 -44.6331 0.0000
# 4 0.0000 0.0000 0.0000 24.2238 0.0000 1.4545
# 5 5.0192 1.1250 -44.6331 0.0000 18.3570 0.0000
# 6 0.0000 0.0000 0.0000 1.4545 0.0000 29.9046
#
#
#
# Elastic Compliance Matrix: (Units=1/GPa)
#
#
# Indices 1 2 3 4 5 6 
#
# 1 0.028185 -0.010466 -0.008056 0.000000 -0.026654 0.000000
# 2 -0.010466 0.015349 -0.002484 0.000000 -0.004119 0.000000
# 3 -0.008056 -0.002484 0.013156 0.000000 0.034343 0.000000
# 4 0.000000 0.000000 0.000000 0.041403 0.000000 -0.002014
# 5 -0.026654 -0.004119 0.034343 0.000000 0.145516 0.000000
# 6 0.000000 0.000000 0.000000 -0.002014 0.000000 0.033538
#
#
# Mechanical properties :
#
#
# Convention : Reuss Voigt Hill
#
# Bulk Modulus (GPa) = 68.13613 81.95406 75.04510
# Shear Modulus (GPa) = 15.42954 31.89744 23.66349
#
# Velocity S-wave (km/s) = 2.71567 3.90462 3.36310
# Velocity P-wave (km/s) = 6.51155 7.71361 7.13793
#
# Compressibility (1/GPa) = 0.01467650
#
# Stress axis : x y z
#
# Youngs Moduli (GPa) = 35.47954 65.14927 76.01038
#
# Poissons Ratio (x) = 0.68188 0.61238
# Poissons Ratio (y) = 0.37134 0.18883
# Poissons Ratio (z) = 0.28584 0.16184
#
# Static dielectric constant tensor:
#      x y z
#    x 3.783340 0.000000 -1.235690 
#    y 0.000000 3.294640 0.000000 
#    z -1.235690 0.000000 8.613390 
# 
# 
# High freq. dielectric constant tensor:
#      x y z
#    x 1.799190 0.000000 -0.017520 
#    y 0.000000 1.780650 0.000000 
#    z -0.017520 0.000000 1.867660 
# 
# From -- ./inp_files/6711.got.cif
#   From: 2010.06.25/outbox.cif.g09.slc.cpg/sg13_4_cif.got.tgz:6711.got - 2010.06.28 04:50:58.
