data_PCOD8117309
_publ_section_title
;
Structure prediction by ZEFSAII (Michael W. Deem and Ramdas Pophale) SiO2 
 PCOD8117309
Probable space group: P 2/C
;
_chemical_formula_sum "Si O2"
_cell_formula_units_Z 32
_cell_length_a 14.463809
_cell_length_b 8.748201
_cell_length_c 16.706240
_cell_angle_alpha 90.000000
_cell_angle_beta 54.723823
_cell_angle_gamma 90.000000
_cell_volume 1725.723950
_symmetry_space_group_name_H-M "P 2/C"
_symmetry_group_IT_number 13
_symmetry_cell_setting 'monoclinic'
loop_
_space_group_symop_operation_xyz
x,y,z
-x,y,1/2-z
-x,-y,-z
x,-y,1/2+z
loop_
_atom_site_type_symbol
_atom_site_label
_atom_site_fract_x
_atom_site_fract_y
_atom_site_fract_z
Si Si1 0.728086 0.135397 0.441820
Si Si2 0.915480 0.424654 0.860029
Si Si3 0.271914 0.364603 0.669906
Si Si4 0.580875 0.869867 0.491617
Si Si5 0.916346 0.773381 0.134875
Si Si6 0.915480 0.075346 0.224492
Si Si7 0.580875 0.369867 0.427508
Si Si8 0.916347 0.273381 0.448779
O O1 0.797277 0.123253 0.323719
O O2 0.636785 0.270148 0.471796
O O3 0.807941 0.174799 0.476191
O O4 0.675432 0.968378 0.491846
O O5 0.797277 0.376747 0.879004
O O6 0.893731 0.550990 0.938694
O O7 0.000000 0.490928 0.750000
O O8 0.970734 0.278102 0.874955
O O9 0.363215 0.229852 0.608581
O O10 0.192059 0.325201 0.784132
O O11 0.324568 0.531622 0.667278
O O12 0.500000 0.750000 0.582255
O O13 0.500000 0.000000 0.500000
O O14 0.893731 0.949010 0.167575
O O15 0.935173 0.750000 0.032414
O O16 0.000000 0.009072 0.250000
O O17 0.970733 0.221898 0.154311
O O18 0.500000 0.500000 0.500000
#
# Coordination Sequence:
#
# PCOD8117309 Si02
#       8
#     4   4   4   4   4   4   4   4
#     4  10  18  34  57  81 108 138 180 222 266 315
#     4  10  20  34  54  78 112 144 184 214 254 316
#     4  10  18  34  57  81 108 138 180 222 266 315
#     4   9  18  32  56  86  99 126 183 240 265 303
#     4  11  22  34  51  82 115 148 173 213 265 326
#     4  10  20  34  54  78 112 144 184 214 254 316
#     4   9  18  32  56  86  99 126 183 240 265 303
#     4  11  22  34  51  82 115 148 173 213 265 326
#
# _framework density 18.542942
#
# number of rings (size 3 to 8) (size 9 to 14) (size 15 to 20)
#    0.000    2.000    2.500    3.000    3.500    0.000 
#    0.000    0.000    0.000    6.750    6.500    0.000 
#    0.000    0.000    0.000    0.000    0.000    0.000 
#
# Total GULP energy -396436.469713 kJ/mol
# GULP energy per Si atom -12388.639679 kJ/mol
# Density = 1.850074 g / cm^3
# Si number density = 18.542942 Si / 1000 Ang^3
#
#
#
# Elastic Constant Matrix: (Units=GPa)
#
#
# Indices 1 2 3 4 5 6 
#
# 1 70.6107 36.2474 39.0263 0.0000 -14.5869 0.0000
# 2 36.2474 105.6308 23.4985 0.0000 -11.0411 0.0000
# 3 39.0263 23.4985 63.0321 0.0000 8.0230 0.0000
# 4 0.0000 0.0000 0.0000 26.6861 0.0000 -9.8441
# 5 -14.5869 -11.0411 8.0230 0.0000 26.9513 0.0000
# 6 0.0000 0.0000 0.0000 -9.8441 0.0000 38.0530
#
#
#
# Elastic Compliance Matrix: (Units=1/GPa)
#
#
# Indices 1 2 3 4 5 6 
#
# 1 0.032985 -0.004107 -0.021774 0.000000 0.022652 0.000000
# 2 -0.004107 0.011712 -0.002236 0.000000 0.003241 0.000000
# 3 -0.021774 -0.002236 0.033049 0.000000 -0.022539 0.000000
# 4 0.000000 0.000000 0.000000 0.041426 0.000000 0.010717
# 5 0.022652 0.003241 -0.022539 0.000000 0.057401 0.000000
# 6 0.000000 0.000000 0.000000 0.010717 0.000000 0.029052
#
#
# Mechanical properties :
#
#
# Convention : Reuss Voigt Hill
#
# Bulk Modulus (GPa) = 46.48801 48.53532 47.51166
# Shear Modulus (GPa) = 18.58527 27.70484 23.14506
#
# Velocity S-wave (km/s) = 3.16932 3.86954 3.53680
# Velocity P-wave (km/s) = 6.20626 6.79675 6.50821
#
# Compressibility (1/GPa) = 0.02151092
#
# Stress axis : x y z
#
# Youngs Moduli (GPa) = 30.31719 85.37889 30.25804
#
# Poissons Ratio (x) = 0.35066 0.65885
# Poissons Ratio (y) = 0.12452 0.06766
# Poissons Ratio (z) = 0.66014 0.19091
#
# Static dielectric constant tensor:
#      x y z
#    x 3.717990 0.000000 -0.483020 
#    y 0.000000 3.988480 0.000000 
#    z -0.483020 0.000000 3.160250 
# 
# 
# High freq. dielectric constant tensor:
#      x y z
#    x 1.715130 0.000000 -0.037320 
#    y 0.000000 1.745580 0.000000 
#    z -0.037320 0.000000 1.672040 
# 
# From -- ./inp_files/53040.got.cif
#   From: 2010.06.25/outbox.cif.g09.slc.cpg/sg13_27_cif.got.tgz:53040.got - 2010.06.28 04:50:58.
