data_PCOD8117750
_publ_section_title
;
Structure prediction by ZEFSAII (Michael W. Deem and Ramdas Pophale) SiO2 
 PCOD8117750
Probable space group: P 2/C
;
_chemical_formula_sum "Si O2"
_cell_formula_units_Z 32
_cell_length_a 20.767591
_cell_length_b 17.247608
_cell_length_c 13.595443
_cell_angle_alpha 90.000000
_cell_angle_beta 18.983628
_cell_angle_gamma 90.000000
_cell_volume 1584.125932
_symmetry_space_group_name_H-M "P 2/C"
_symmetry_group_IT_number 13
_symmetry_cell_setting 'monoclinic'
loop_
_space_group_symop_operation_xyz
x,y,z
-x,y,1/2-z
-x,-y,-z
x,-y,1/2+z
loop_
_atom_site_type_symbol
_atom_site_label
_atom_site_fract_x
_atom_site_fract_y
_atom_site_fract_z
Si Si1 0.318725 0.734078 0.777430
Si Si2 0.661017 0.431239 0.177193
Si Si3 0.528518 0.891772 0.940234
Si Si4 0.988969 0.765940 0.107192
Si Si5 0.761122 0.998817 0.229909
Si Si6 0.033866 0.608233 0.434921
Si Si7 0.756574 0.501177 0.234704
Si Si8 0.837334 0.931243 0.324447
O O1 0.403285 0.647673 0.670859
O O2 0.493431 0.798541 0.526052
O O3 0.170435 0.750027 0.079561
O O4 0.205829 0.750002 0.838344
O O5 0.775865 0.484302 0.090765
O O6 0.468217 0.475033 0.415087
O O7 0.804474 0.416655 0.879882
O O8 0.672719 0.916647 0.642900
O O9 0.624720 0.925971 0.901623
O O10 0.312681 0.928022 0.232892
O O11 0.967614 0.701466 0.051881
O O12 0.948425 0.852339 0.125702
O O13 0.735023 0.975059 0.381459
O O14 0.991131 0.015707 0.875276
O O15 0.096389 0.571983 0.449018
O O16 0.822369 0.574026 0.704222
#
# Coordination Sequence:
#
# PCOD8117750 Si02
#       8
#     4   4   4   4   4   4   4   4
#     4   9  16  29  51  73  98 128 155 204 263 291
#     4  10  19  33  51  76 104 127 162 205 246 295
#     4  10  19  33  51  76 104 127 162 205 246 295
#     4   9  16  29  51  73  98 128 155 204 263 291
#     4  10  20  30  48  78 102 134 162 190 254 298
#     4  10  19  33  51  76 104 127 162 205 246 295
#     4  10  20  30  48  78 102 134 162 190 254 298
#     4  10  19  33  51  76 104 127 162 205 246 295
#
# _framework density 20.200413999999999
#
# number of rings (size 3 to 8) (size 9 to 14) (size 15 to 20)
#    0.000    2.250    2.500    1.500    0.000    1.000 
#    0.000    3.750    0.000    0.000    0.000  122.500 
#    0.000    0.000    0.000    0.000    0.000    0.000 
#
# Total GULP energy -396496.854603 kJ/mol
# GULP energy per Si atom -12390.526706 kJ/mol
# Density = 2.015444 g / cm^3
# Si number density = 20.200414 Si / 1000 Ang^3
#
#
#
# Elastic Constant Matrix: (Units=GPa)
#
#
# Indices 1 2 3 4 5 6 
#
# 1 80.1388 35.0812 18.9409 0.0000 -22.4810 0.0000
# 2 35.0812 121.3964 32.3534 0.0000 -4.0865 0.0000
# 3 18.9409 32.3534 51.5357 0.0000 -19.9763 0.0000
# 4 0.0000 0.0000 0.0000 26.4480 0.0000 1.6507
# 5 -22.4810 -4.0865 -19.9763 0.0000 26.8276 0.0000
# 6 0.0000 0.0000 0.0000 1.6507 0.0000 25.3432
#
#
#
# Elastic Compliance Matrix: (Units=1/GPa)
#
#
# Indices 1 2 3 4 5 6 
#
# 1 0.019236 -0.005908 0.003569 0.000000 0.017877 0.000000
# 2 -0.005908 0.012088 -0.009310 0.000000 -0.010042 0.000000
# 3 0.003569 -0.009310 0.034506 0.000000 0.027266 0.000000
# 4 0.000000 0.000000 0.000000 0.037964 0.000000 -0.002473
# 5 0.017877 -0.010042 0.027266 0.000000 0.071029 0.000000
# 6 0.000000 0.000000 0.000000 -0.002473 0.000000 0.039619
#
#
# Mechanical properties :
#
#
# Convention : Reuss Voigt Hill
#
# Bulk Modulus (GPa) = 23.51190 47.31356 35.41273
# Shear Modulus (GPa) = 19.84774 26.83678 23.34226
#
# Velocity S-wave (km/s) = 3.13795 3.64885 3.40300
# Velocity P-wave (km/s) = 4.97931 6.42067 5.74537
#
# Compressibility (1/GPa) = 0.04253165
#
# Stress axis : x y z
#
# Youngs Moduli (GPa) = 51.98547 82.72737 28.98065
#
# Poissons Ratio (x) = 0.48877 -0.10342
# Poissons Ratio (y) = 0.30714 0.26980
# Poissons Ratio (z) = -0.18552 0.77016
#
# Static dielectric constant tensor:
#      x y z
#    x 3.625860 0.000000 -0.363530 
#    y 0.000000 4.174210 0.000000 
#    z -0.363530 0.000000 3.381230 
# 
# 
# High freq. dielectric constant tensor:
#      x y z
#    x 1.775220 0.000000 -0.035560 
#    y 0.000000 1.793120 0.000000 
#    z -0.035560 0.000000 1.751290 
# 
# From -- ./inp_files/57910.got.cif
#   From: 2010.06.25/outbox.cif.g09.slc.cpg/sg13_29_cif.got.tgz:57910.got - 2010.06.28 04:50:58.
