data_PCOD8117032
_publ_section_title
;
Structure prediction by ZEFSAII (Michael W. Deem and Ramdas Pophale) SiO2 
 PCOD8117032
Probable space group: P 2/C
;
_chemical_formula_sum "Si O2"
_cell_formula_units_Z 32
_cell_length_a 29.963046
_cell_length_b 11.926968
_cell_length_c 18.620147
_cell_angle_alpha 90.000000
_cell_angle_beta 18.068821
_cell_angle_gamma 90.000000
_cell_volume 2063.876462
_symmetry_space_group_name_H-M "P 2/C"
_symmetry_group_IT_number 13
_symmetry_cell_setting 'monoclinic'
loop_
_space_group_symop_operation_xyz
x,y,z
-x,y,1/2-z
-x,-y,-z
x,-y,1/2+z
loop_
_atom_site_type_symbol
_atom_site_label
_atom_site_fract_x
_atom_site_fract_y
_atom_site_fract_z
Si Si1 0.266788 0.520733 0.104627
Si Si2 0.490384 0.479268 0.381020
Si Si3 0.623973 0.270825 0.241703
Si Si4 0.818606 0.278862 0.227836
Si Si5 0.382959 0.893610 0.867040
Si Si6 0.855326 0.270830 0.779003
Si Si7 0.411501 0.278859 0.042051
Si Si8 0.383254 0.150475 0.866747
O O1 0.176934 0.410624 0.261891
O O2 0.158023 0.620347 0.251431
O O3 0.371623 0.490836 0.878381
O O4 0.360219 0.561002 0.029560
O O5 0.523068 0.379658 0.386383
O O6 0.445422 0.589374 0.493396
O O7 0.558416 0.167622 0.294999
O O8 0.631911 0.236961 0.312527
O O9 0.785017 0.297228 0.964987
O O10 0.721232 0.252599 0.307532
O O11 0.761346 0.211401 0.384903
O O12 0.979212 0.236949 0.965220
O O13 0.500000 0.880706 0.750000
O O14 0.348767 0.022110 0.901239
O O15 0.234751 0.832380 0.118660
O O16 0.553862 0.211409 0.799876
O O17 0.500000 0.162762 0.750000
#
# Coordination Sequence:
#
# PCOD8117032 Si02
#       8
#     4   4   4   4   4   4   4   4
#     4   9  15  27  48  70  92 116 151 190 223 261
#     4   9  15  27  48  70  92 116 151 190 223 261
#     4   9  19  29  45  72  93 120 148 182 232 272
#     4  10  18  30  47  69  95 122 150 185 224 269
#     4   9  18  33  48  68  89 113 157 195 225 263
#     4   9  19  29  45  72  93 120 148 182 232 272
#     4  10  18  30  47  69  95 122 150 185 224 269
#     4   9  18  31  49  68  87 119 158 191 220 257
#
# _framework density 15.504803000000001
#
# number of rings (size 3 to 8) (size 9 to 14) (size 15 to 20)
#    0.750    2.000    1.250    1.500    0.000    1.500 
#    0.000    0.000    0.000    0.000    0.000    2.625 
#    0.000    0.000    0.000    0.000    0.000    0.000 
#
# Total GULP energy -396613.776901 kJ/mol
# GULP energy per Si atom -12394.180528 kJ/mol
# Density = 1.546951 g / cm^3
# Si number density = 15.504803 Si / 1000 Ang^3
#
#
#
# Elastic Constant Matrix: (Units=GPa)
#
#
# Indices 1 2 3 4 5 6 
#
# 1 85.9266 40.2549 41.1570 0.0000 10.8195 0.0000
# 2 40.2549 89.7336 40.3842 0.0000 0.1167 0.0000
# 3 41.1570 40.3842 95.4907 0.0000 -2.4913 0.0000
# 4 0.0000 0.0000 0.0000 11.1504 0.0000 -1.5210
# 5 10.8195 0.1167 -2.4913 0.0000 17.0049 0.0000
# 6 0.0000 0.0000 0.0000 -1.5210 0.0000 12.8749
#
#
#
# Elastic Compliance Matrix: (Units=1/GPa)
#
#
# Indices 1 2 3 4 5 6 
#
# 1 0.018814 -0.005710 -0.006028 0.000000 -0.012815 0.000000
# 2 -0.005710 0.015512 -0.004022 0.000000 0.002938 0.000000
# 3 -0.006028 -0.004022 0.014929 0.000000 0.006050 0.000000
# 4 0.000000 0.000000 0.000000 0.091152 0.000000 0.010768
# 5 -0.012815 0.002938 0.006050 0.000000 0.067826 0.000000
# 6 0.000000 0.000000 0.000000 0.010768 0.000000 0.078943
#
#
# Mechanical properties :
#
#
# Convention : Reuss Voigt Hill
#
# Bulk Modulus (GPa) = 56.39062 57.19368 56.79215
# Shear Modulus (GPa) = 15.40312 18.16304 16.78308
#
# Velocity S-wave (km/s) = 3.15531 3.42635 3.29362
# Velocity P-wave (km/s) = 7.05148 7.25403 7.15347
#
# Compressibility (1/GPa) = 0.01773345
#
# Stress axis : x y z
#
# Youngs Moduli (GPa) = 53.15184 64.46507 66.98173
#
# Poissons Ratio (x) = 0.36812 0.40378
# Poissons Ratio (y) = 0.30352 0.26943
# Poissons Ratio (z) = 0.32041 0.25931
#
# Static dielectric constant tensor:
#      x y z
#    x 2.722530 0.000000 0.020880 
#    y 0.000000 2.974150 0.000000 
#    z 0.020880 0.000000 2.746500 
# 
# 
# High freq. dielectric constant tensor:
#      x y z
#    x 1.574250 0.000000 0.001270 
#    y 0.000000 1.597170 0.000000 
#    z 0.001270 0.000000 1.575700 
# 
# From -- ./inp_files/71936.got.cif
#   From: 2010.06.25/outbox.cif.g09.slc.cpg/sg13_36_cif.got.tgz:71936.got - 2010.06.28 04:50:58.
