data_PCOD8117855
_publ_section_title
;
Structure prediction by ZEFSAII (Michael W. Deem and Ramdas Pophale) SiO2 
 PCOD8117855
Probable space group: P 2/C
;
_chemical_formula_sum "Si O2"
_cell_formula_units_Z 32
_cell_length_a 15.583056
_cell_length_b 8.533214
_cell_length_c 14.886063
_cell_angle_alpha 90.000000
_cell_angle_beta 124.524837
_cell_angle_gamma 90.000000
_cell_volume 1630.832614
_symmetry_space_group_name_H-M "P 2/C"
_symmetry_group_IT_number 13
_symmetry_cell_setting 'monoclinic'
loop_
_space_group_symop_operation_xyz
x,y,z
-x,y,1/2-z
-x,-y,-z
x,-y,1/2+z
loop_
_atom_site_type_symbol
_atom_site_label
_atom_site_fract_x
_atom_site_fract_y
_atom_site_fract_z
Si Si1 0.177804 0.183714 0.965979
Si Si2 0.150206 0.207440 0.754640
Si Si3 0.197556 0.917780 0.667770
Si Si4 0.081032 0.708504 0.733907
Si Si5 0.382753 0.340568 0.084052
Si Si6 0.275505 0.516094 0.874906
Si Si7 0.980562 0.576471 0.084171
Si Si8 0.615097 0.311047 0.214392
O O1 0.161418 0.066670 0.041324
O O2 0.301108 0.199260 0.021342
O O3 0.126996 0.129486 0.840232
O O4 0.137009 0.359841 0.970627
O O5 0.225052 0.353653 0.814257
O O6 0.046405 0.265269 0.642994
O O7 0.204220 0.084337 0.720088
O O8 0.109644 0.810747 0.663888
O O9 0.312550 0.843381 0.743339
O O10 0.188352 0.649114 0.844043
O O11 0.010415 0.556883 0.671240
O O12 0.000000 0.804940 0.750000
O O13 0.494777 0.269432 0.121924
O O14 0.380190 0.395230 0.186027
O O15 0.349464 0.491324 0.004891
O O16 0.347084 0.564781 0.835052
O O17 0.000000 0.500000 0.000000
#
# Coordination Sequence:
#
# PCOD8117855 Si02
#       8
#     4   4   4   4   4   4   4   4
#     4  10  20  38  58  77 115 149 185 225 285 332
#     4  10  22  37  55  80 114 150 184 229 279 334
#     4  10  21  38  55  80 110 150 189 226 271 338
#     4  10  19  34  53  80 109 140 184 232 269 329
#     4   9  17  31  57  83 104 145 183 231 284 326
#     4   9  18  34  53  76 112 143 178 234 287 327
#     4  11  20  36  57  81 106 144 182 221 282 330
#     4   9  18  33  57  82 106 139 194 231 272 336
#
# _framework density 19.621880000000001
#
# number of rings (size 3 to 8) (size 9 to 14) (size 15 to 20)
#    0.000    2.250    1.250    3.000    1.750    1.500 
#    2.250    3.750    0.000    6.000    0.000    0.000 
#    0.000    0.000    0.000    0.000    0.000    0.000 
#
# Total GULP energy -396482.377369 kJ/mol
# GULP energy per Si atom -12390.074293 kJ/mol
# Density = 1.957722 g / cm^3
# Si number density = 19.621880 Si / 1000 Ang^3
#
#
#
# Elastic Constant Matrix: (Units=GPa)
#
#
# Indices 1 2 3 4 5 6 
#
# 1 127.0007 29.2101 52.6764 0.0000 -4.6428 0.0000
# 2 29.2101 49.2145 28.7428 0.0000 -5.6899 0.0000
# 3 52.6764 28.7428 116.7398 0.0000 -15.7089 0.0000
# 4 0.0000 0.0000 0.0000 21.5155 0.0000 -8.4546
# 5 -4.6428 -5.6899 -15.7089 0.0000 34.9837 0.0000
# 6 0.0000 0.0000 0.0000 -8.4546 0.0000 18.5365
#
#
#
# Elastic Compliance Matrix: (Units=1/GPa)
#
#
# Indices 1 2 3 4 5 6 
#
# 1 0.010344 -0.004030 -0.003809 0.000000 -0.000993 0.000000
# 2 -0.004030 0.025359 -0.004196 0.000000 0.001706 0.000000
# 3 -0.003809 -0.004196 0.011876 0.000000 0.004145 0.000000
# 4 0.000000 0.000000 0.000000 0.056627 0.000000 0.025828
# 5 -0.000993 0.001706 0.004145 0.000000 0.030591 0.000000
# 6 0.000000 0.000000 0.000000 0.025828 0.000000 0.065728
#
#
# Mechanical properties :
#
#
# Convention : Reuss Voigt Hill
#
# Bulk Modulus (GPa) = 42.53635 57.13482 49.83558
# Shear Modulus (GPa) = 21.51176 27.16220 24.33698
#
# Velocity S-wave (km/s) = 3.31466 3.72463 3.52561
# Velocity P-wave (km/s) = 6.03112 6.90495 6.48277
#
# Compressibility (1/GPa) = 0.02350930
#
# Stress axis : x y z
#
# Youngs Moduli (GPa) = 96.67001 39.43422 84.20625
#
# Poissons Ratio (x) = 0.15891 0.32075
# Poissons Ratio (y) = 0.38957 0.35330
# Poissons Ratio (z) = 0.36823 0.16545
#
# Static dielectric constant tensor:
#      x y z
#    x 3.840700 0.000000 -0.019480 
#    y 0.000000 3.148010 0.000000 
#    z -0.019480 0.000000 3.992410 
# 
# 
# High freq. dielectric constant tensor:
#      x y z
#    x 1.777680 0.000000 -0.007980 
#    y 0.000000 1.716490 0.000000 
#    z -0.007980 0.000000 1.774350 
# 
# From -- ./inp_files/53097.got.cif
#   From: 2010.06.25/outbox.cif.g09.slc.cpg/sg13_27_cif.got.tgz:53097.got - 2010.06.28 04:50:58.
