data_PCOD8117541
_publ_section_title
;
Structure prediction by ZEFSAII (Michael W. Deem and Ramdas Pophale) SiO2 
 PCOD8117541
Probable space group: P 2/C
;
_chemical_formula_sum "Si O2"
_cell_formula_units_Z 30
_cell_length_a 12.174168
_cell_length_b 8.580176
_cell_length_c 25.521384
_cell_angle_alpha 90.000000
_cell_angle_beta 144.071166
_cell_angle_gamma 90.000000
_cell_volume 1564.281695
_symmetry_space_group_name_H-M "P 2/C"
_symmetry_group_IT_number 13
_symmetry_cell_setting 'monoclinic'
loop_
_space_group_symop_operation_xyz
x,y,z
-x,y,1/2-z
-x,-y,-z
x,-y,1/2+z
loop_
_atom_site_type_symbol
_atom_site_label
_atom_site_fract_x
_atom_site_fract_y
_atom_site_fract_z
Si Si1 0.515289 0.101737 0.316113
Si Si2 0.163700 0.128063 0.527426
Si Si3 0.574645 0.681224 0.439218
Si Si4 0.756045 0.129683 0.741385
Si Si5 0.385401 0.320952 0.061191
Si Si6 0.000000 0.982126 0.750000
Si Si7 0.999766 0.176342 0.928471
Si Si8 0.613150 0.151777 0.060908
O O1 0.500000 0.140776 0.250000
O O2 0.559367 0.268124 0.359065
O O3 0.677854 0.975175 0.384270
O O4 0.333754 0.032496 0.274563
O O5 0.243624 0.262941 0.521989
O O6 0.049423 0.214417 0.529788
O O7 0.044100 0.010291 0.444656
O O8 0.387972 0.758123 0.343945
O O9 0.560338 0.497487 0.427956
O O10 0.605010 0.722191 0.511529
O O11 0.831716 0.212974 0.823294
O O12 0.925870 0.092715 0.767762
O O13 0.501927 0.214452 0.067196
O O14 0.165419 0.285376 0.970771
O O15 0.171428 0.879845 0.839441
O O16 0.500000 0.000000 0.000000
#
# Coordination Sequence:
#
# PCOD8117541 Si02
#       8
#     4   4   4   4   4   2   4   4
#     4  10  18  38  62  88 121 161 208 260 296 350
#     4   9  19  37  63  90 118 160 215 257 296 350
#     4  11  24  41  60  89 135 165 190 254 328 373
#     4  11  21  38  65  93 116 158 218 259 301 361
#     4  11  24  42  58  91 134 164 190 251 330 371
#     4  12  22  38  72  94 112 156 222 264 298 358
#     4  10  20  37  65  92 117 162 216 259 290 361
#     4  12  22  45  68  91 120 161 215 263 299 362
#
# _framework density 19.178129999999999
#
# number of rings (size 3 to 8) (size 9 to 14) (size 15 to 20)
#    0.000    1.333    4.000    3.600    0.000    0.533 
#    4.800    0.000    0.000    0.000    0.000    0.000 
#    0.000    0.000    0.000    0.000    0.000    0.000 
#
# Total GULP energy -371921.577779 kJ/mol
# GULP energy per Si atom -12397.385926 kJ/mol
# Density = 1.913448 g / cm^3
# Si number density = 19.178130 Si / 1000 Ang^3
#
#
#
# Elastic Constant Matrix: (Units=GPa)
#
#
# Indices 1 2 3 4 5 6 
#
# 1 111.3586 33.7542 30.3504 0.0000 3.0207 0.0000
# 2 33.7542 77.0137 22.4102 0.0000 -11.4241 0.0000
# 3 30.3504 22.4102 111.9640 0.0000 -7.8265 0.0000
# 4 0.0000 0.0000 0.0000 -2.3128 0.0000 -7.3082
# 5 3.0207 -11.4241 -7.8265 0.0000 33.0870 0.0000
# 6 0.0000 0.0000 0.0000 -7.3082 0.0000 15.6764
#
#
#
# Elastic Compliance Matrix: (Units=1/GPa)
#
#
# Indices 1 2 3 4 5 6 
#
# 1 0.011108 -0.004670 -0.002298 0.000000 -0.003170 0.000000
# 2 -0.004670 0.016343 -0.001608 0.000000 0.005689 0.000000
# 3 -0.002298 -0.001608 0.010018 0.000000 0.002024 0.000000
# 4 0.000000 0.000000 0.000000 -0.174830 0.000000 -0.081504
# 5 -0.003170 0.005689 0.002024 0.000000 0.032956 0.000000
# 6 0.000000 0.000000 0.000000 -0.081504 0.000000 0.025794
#
#
# Mechanical properties :
#
#
# Convention : Reuss Voigt Hill
#
# Bulk Modulus (GPa) = 49.21836 52.59622 50.90729
# Shear Modulus (GPa) = -91.42662 23.54489 -33.94086
#
# Velocity S-wave (km/s) = -6.91201 3.50765 -4.21143
# Velocity P-wave (km/s) = 6.16292 6.62491 1.71870
#
# Compressibility (1/GPa) = 0.02031762
#
# Stress axis : x y z
#
# Youngs Moduli (GPa) = 90.02675 61.18757 99.82414
#
# Poissons Ratio (x) = 0.28575 0.22939
# Poissons Ratio (y) = 0.42043 0.16048
# Poissons Ratio (z) = 0.20687 0.09837
#
# Static dielectric constant tensor:
#      x y z
#    x 3.814290 0.000000 -0.025320 
#    y 0.000000 3.162330 0.000000 
#    z -0.025320 0.000000 3.829030 
# 
# 
# High freq. dielectric constant tensor:
#      x y z
#    x 1.771590 0.000000 -0.003210 
#    y 0.000000 1.708910 0.000000 
#    z -0.003210 0.000000 1.754200 
# 
# From -- ./inp_files/86407.got.cif
#   From: 2010.06.25/outbox.cif.g09.slc.cpg/sg13_44_cif.got.tgz:86407.got - 2010.06.28 04:50:58.
