data_PCOD8117835
_publ_section_title
;
Structure prediction by ZEFSAII (Michael W. Deem and Ramdas Pophale) SiO2 
 PCOD8117835
Probable space group: P 2/C
;
_chemical_formula_sum "Si O2"
_cell_formula_units_Z 24
_cell_length_a 14.288520
_cell_length_b 8.746853
_cell_length_c 15.389259
_cell_angle_alpha 90.000000
_cell_angle_beta 142.869239
_cell_angle_gamma 90.000000
_cell_volume 1160.999397
_symmetry_space_group_name_H-M "P 2/C"
_symmetry_group_IT_number 13
_symmetry_cell_setting 'monoclinic'
loop_
_space_group_symop_operation_xyz
x,y,z
-x,y,1/2-z
-x,-y,-z
x,-y,1/2+z
loop_
_atom_site_type_symbol
_atom_site_label
_atom_site_fract_x
_atom_site_fract_y
_atom_site_fract_z
Si Si1 0.331252 0.091896 0.298059
Si Si2 0.334536 0.552873 0.840313
Si Si3 0.309412 0.921258 0.444880
Si Si4 0.678762 0.418766 0.857230
Si Si5 0.315274 0.073284 0.619166
Si Si6 0.821312 0.406015 0.621126
O O1 0.321969 0.270699 0.307508
O O2 0.509072 0.043166 0.423252
O O3 0.241705 0.997415 0.307238
O O4 0.253361 0.036967 0.150353
O O5 0.294690 0.462471 0.723175
O O6 0.208469 0.524905 0.822631
O O7 0.500000 0.500000 0.000000
O O8 0.279337 0.741899 0.429249
O O9 0.236816 0.007328 0.474003
O O10 0.500000 0.434055 0.750000
O O11 0.741779 0.246712 0.911740
O O12 0.772910 0.527838 0.991835
O O13 0.500000 0.068593 0.750000
O O14 0.000000 0.360661 0.750000
#
# Coordination Sequence:
#
# PCOD8117835 Si02
#       6
#     4   4   4   4   4   4
#     4  10  19  33  60  92 116 155 214 265 306 364
#     4  12  22  38  67  95 126 167 215 265 312 383
#     4  10  19  35  57  84 124 161 205 260 314 372
#     4  11  21  39  67  96 127 166 219 270 317 380
#     4   9  19  32  57  92 123 154 204 270 316 363
#     4  12  26  42  62  95 135 172 210 265 333 386
#
# _framework density 20.671845999999999
#
# number of rings (size 3 to 8) (size 9 to 14) (size 15 to 20)
#    0.000    1.333    3.333    3.000    4.667    2.000 
#    0.000    3.333    0.000    4.000    0.000    0.000 
#    0.000    0.000    0.000    0.000    0.000    0.000 
#
# Total GULP energy -297564.617433 kJ/mol
# GULP energy per Si atom -12398.525726 kJ/mol
# Density = 2.062480 g / cm^3
# Si number density = 20.671846 Si / 1000 Ang^3
#
#
#
# Elastic Constant Matrix: (Units=GPa)
#
#
# Indices 1 2 3 4 5 6 
#
# 1 96.2024 36.8237 52.7682 0.0000 -44.2401 0.0000
# 2 36.8237 152.2236 38.4703 0.0000 -34.5002 0.0000
# 3 52.7682 38.4703 75.3066 0.0000 -34.4699 0.0000
# 4 0.0000 0.0000 0.0000 22.9344 0.0000 -21.9333
# 5 -44.2401 -34.5002 -34.4699 0.0000 43.2582 0.0000
# 6 0.0000 0.0000 0.0000 -21.9333 0.0000 32.9630
#
#
#
# Elastic Compliance Matrix: (Units=1/GPa)
#
#
# Indices 1 2 3 4 5 6 
#
# 1 0.022475 0.000456 -0.008333 0.000000 0.016708 0.000000
# 2 0.000456 0.008193 -0.002047 0.000000 0.005370 0.000000
# 3 -0.008333 -0.002047 0.024424 0.000000 0.009307 0.000000
# 4 0.000000 0.000000 0.000000 0.119901 0.000000 0.079781
# 5 0.016708 0.005370 0.009307 0.000000 0.051903 0.000000
# 6 0.000000 0.000000 0.000000 0.079781 0.000000 0.083423
#
#
# Mechanical properties :
#
#
# Convention : Reuss Voigt Hill
#
# Bulk Modulus (GPa) = 28.37466 64.42857 46.40162
# Shear Modulus (GPa) = 14.62349 32.87581 23.74965
#
# Velocity S-wave (km/s) = 2.66261 3.99227 3.39320
# Velocity P-wave (km/s) = 4.81754 7.24471 6.15201
#
# Compressibility (1/GPa) = 0.03524271
#
# Stress axis : x y z
#
# Youngs Moduli (GPa) = 44.49464 122.05057 40.94287
#
# Poissons Ratio (x) = -0.05566 0.34120
# Poissons Ratio (y) = -0.02029 0.08382
# Poissons Ratio (z) = 0.37079 0.24988
#
# Static dielectric constant tensor:
#      x y z
#    x 3.949790 0.000000 -0.550620 
#    y 0.000000 3.781610 0.000000 
#    z -0.550620 0.000000 3.616330 
# 
# 
# High freq. dielectric constant tensor:
#      x y z
#    x 1.804130 0.000000 -0.045940 
#    y 0.000000 1.823100 0.000000 
#    z -0.045940 0.000000 1.779570 
# 
# From -- ./inp_files/53184.got.cif
#   From: 2010.06.25/outbox.cif.g09.slc.cpg/sg13_27_cif.got.tgz:53184.got - 2010.06.28 04:50:58.
