data_PCOD8117699
_publ_section_title
;
Structure prediction by ZEFSAII (Michael W. Deem and Ramdas Pophale) SiO2 
 PCOD8117699
Probable space group: P 2/C
;
_chemical_formula_sum "Si O2"
_cell_formula_units_Z 32
_cell_length_a 18.131853
_cell_length_b 23.905206
_cell_length_c 12.249919
_cell_angle_alpha 90.000000
_cell_angle_beta 160.697888
_cell_angle_gamma 90.000000
_cell_volume 1755.108559
_symmetry_space_group_name_H-M "P 2/C"
_symmetry_group_IT_number 13
_symmetry_cell_setting 'monoclinic'
loop_
_space_group_symop_operation_xyz
x,y,z
-x,y,1/2-z
-x,-y,-z
x,-y,1/2+z
loop_
_atom_site_type_symbol
_atom_site_label
_atom_site_fract_x
_atom_site_fract_y
_atom_site_fract_z
Si Si1 0.167878 0.751397 0.585757
Si Si2 0.525529 0.171510 0.109657
Si Si3 0.359719 0.052536 0.266916
Si Si4 0.035324 0.553664 0.622962
Si Si5 0.954676 0.947463 0.361868
Si Si6 0.639953 0.446337 0.727595
Si Si7 0.336759 0.638204 0.923521
Si Si8 0.857269 0.828489 0.273139
O O1 0.392705 0.784800 0.866992
O O2 0.238369 0.691529 0.726729
O O3 0.055875 0.784801 0.530165
O O4 0.000000 0.744047 0.250000
O O5 0.490278 0.108686 0.014476
O O6 0.717755 0.167001 0.467754
O O7 0.292998 0.193394 0.835995
O O8 0.500000 0.000000 0.500000
O O9 0.275624 0.042123 0.025624
O O10 0.152178 0.062265 0.054354
O O11 0.125248 0.603829 0.673704
O O12 0.000000 0.500000 0.500000
O O13 0.803628 0.572029 0.357258
O O14 0.219106 0.537243 0.969105
O O15 0.941884 0.891314 0.417685
O O16 0.000000 0.000000 0.500000
O O17 0.500000 0.500000 0.500000
O O18 0.471664 0.396171 0.520123
O O19 0.500000 0.655749 0.250000
#
# Coordination Sequence:
#
# PCOD8117699 Si02
#       8
#     4   4   4   4   4   4   4   4
#     4  10  20  36  56  78 102 138 189 226 253 314
#     4   9  17  32  54  76 102 136 174 222 273 312
#     4  10  19  32  51  77 107 137 173 220 271 326
#     4  10  20  35  57  83 112 146 182 220 266 319
#     4  10  19  32  51  77 107 137 173 220 271 326
#     4  10  20  35  57  83 112 146 182 220 266 319
#     4  10  22  38  54  80 116 148 175 218 277 320
#     4   9  17  32  54  76 102 136 174 222 273 312
#
# _framework density 18.232489999999999
#
# number of rings (size 3 to 8) (size 9 to 14) (size 15 to 20)
#    0.000    2.250    2.500    0.750    0.000    3.500 
#    0.000    1.250    0.000    1.500    0.000    0.000 
#    0.000    0.000    0.000    0.000    0.000    0.000 
#
# Total GULP energy -396754.513731 kJ/mol
# GULP energy per Si atom -12398.578554 kJ/mol
# Density = 1.819099 g / cm^3
# Si number density = 18.232490 Si / 1000 Ang^3
#
#
#
# Elastic Constant Matrix: (Units=GPa)
#
#
# Indices 1 2 3 4 5 6 
#
# 1 120.4055 76.2339 47.6135 0.0000 31.3589 0.0000
# 2 76.2339 156.8165 63.3118 0.0000 11.3965 0.0000
# 3 47.6135 63.3118 64.7644 0.0000 17.7238 0.0000
# 4 0.0000 0.0000 0.0000 33.9609 0.0000 -1.5022
# 5 31.3589 11.3965 17.7238 0.0000 30.6504 0.0000
# 6 0.0000 0.0000 0.0000 -1.5022 0.0000 32.2631
#
#
#
# Elastic Compliance Matrix: (Units=1/GPa)
#
#
# Indices 1 2 3 4 5 6 
#
# 1 0.016640 -0.006029 -0.002725 0.000000 -0.013207 0.000000
# 2 -0.006029 0.012873 -0.010133 0.000000 0.007242 0.000000
# 3 -0.002725 -0.010133 0.030360 0.000000 -0.011000 0.000000
# 4 0.000000 0.000000 0.000000 0.029506 0.000000 0.001374
# 5 -0.013207 0.007242 -0.011000 0.000000 0.049807 0.000000
# 6 0.000000 0.000000 0.000000 0.001374 0.000000 0.031059
#
#
# Mechanical properties :
#
#
# Convention : Reuss Voigt Hill
#
# Bulk Modulus (GPa) = 45.25305 79.58943 62.42124
# Shear Modulus (GPa) = 23.21408 29.69669 26.45538
#
# Velocity S-wave (km/s) = 3.57210 4.04019 3.81333
# Velocity P-wave (km/s) = 6.47202 8.09392 7.32798
#
# Compressibility (1/GPa) = 0.02209796
#
# Stress axis : x y z
#
# Youngs Moduli (GPa) = 60.09634 77.68337 32.93761
#
# Poissons Ratio (x) = 0.46837 0.08975
# Poissons Ratio (y) = 0.36234 0.33377
# Poissons Ratio (z) = 0.16376 0.78719
#
# Static dielectric constant tensor:
#      x y z
#    x 3.676820 0.000000 0.368510 
#    y 0.000000 2.827140 0.000000 
#    z 0.368510 0.000000 3.259030 
# 
# 
# High freq. dielectric constant tensor:
#      x y z
#    x 1.715030 0.000000 0.025480 
#    y 0.000000 1.703230 0.000000 
#    z 0.025480 0.000000 1.686130 
# 
# From -- ./inp_files/39533.got.cif
#   From: 2010.06.25/outbox.cif.g09.slc.cpg/sg13_20_cif.got.tgz:39533.got - 2010.06.28 04:50:58.
