data_PCOD8117294
_publ_section_title
;
Structure prediction by ZEFSAII (Michael W. Deem and Ramdas Pophale) SiO2 
 PCOD8117294
Probable space group: P 2/C
;
_chemical_formula_sum "Si O2"
_cell_formula_units_Z 26
_cell_length_a 17.796463
_cell_length_b 9.879433
_cell_length_c 23.991118
_cell_angle_alpha 90.000000
_cell_angle_beta 19.124338
_cell_angle_gamma 90.000000
_cell_volume 1381.928687
_symmetry_space_group_name_H-M "P 2/C"
_symmetry_group_IT_number 13
_symmetry_cell_setting 'monoclinic'
loop_
_space_group_symop_operation_xyz
x,y,z
-x,y,1/2-z
-x,-y,-z
x,-y,1/2+z
loop_
_atom_site_type_symbol
_atom_site_label
_atom_site_fract_x
_atom_site_fract_y
_atom_site_fract_z
Si Si1 0.959814 0.837038 0.464326
Si Si2 0.500000 0.084932 0.250000
Si Si3 0.170455 0.111219 0.322559
Si Si4 0.239299 0.666432 0.684135
Si Si5 0.000000 0.236844 0.750000
Si Si6 0.651102 0.017926 0.029660
Si Si7 0.231129 0.355278 0.696120
Si Si8 0.000000 0.794495 0.750000
O O1 0.699641 0.812392 0.628027
O O2 0.966943 0.838043 0.526445
O O3 0.112450 0.720874 0.330595
O O4 0.035936 0.985677 0.388835
O O5 0.574635 0.988846 0.146634
O O6 0.163522 0.237365 0.286967
O O7 0.427492 0.055387 0.150830
O O8 0.199296 0.512951 0.730981
O O9 0.505789 0.690633 0.484389
O O10 0.073742 0.697674 0.748430
O O11 0.871479 0.325607 0.793342
O O12 0.179817 0.145912 0.590215
O O13 0.776437 0.885267 0.919111
#
# Coordination Sequence:
#
# PCOD8117294 Si02
#       8
#     4   2   4   4   2   4   4   2
#     4  10  21  36  59  85 118 151 198 241 292 340
#     4  10  18  34  54  88 112 150 190 242 284 354
#     4  10  21  38  59  89 115 153 194 250 291 350
#     4  11  24  39  59  85 122 155 197 239 298 349
#     4  11  19  36  58  90 112 156 192 244 280 356
#     4  10  20  33  60  88 114 147 195 242 295 340
#     4  11  23  39  60  86 119 161 193 243 289 355
#     4  11  23  38  56  90 120 152 190 252 294 350
#
# _framework density 18.814283
#
# number of rings (size 3 to 8) (size 9 to 14) (size 15 to 20)
#    0.000    1.538    3.077    2.308    2.154    1.846 
#    0.000    0.000    0.000    7.385    0.000    0.000 
#    0.000    0.000    0.000    0.000    0.000    0.000 
#
# Total GULP energy -322390.936631 kJ/mol
# GULP energy per Si atom -12399.651409 kJ/mol
# Density = 1.877146 g / cm^3
# Si number density = 18.814283 Si / 1000 Ang^3
#
#
#
# Elastic Constant Matrix: (Units=GPa)
#
#
# Indices 1 2 3 4 5 6 
#
# 1 98.6490 47.1379 41.8071 0.0000 -2.4393 0.0000
# 2 47.1379 107.7005 61.7870 0.0000 10.1551 0.0000
# 3 41.8071 61.7870 101.1349 0.0000 7.0512 0.0000
# 4 0.0000 0.0000 0.0000 25.9140 0.0000 -0.2791
# 5 -2.4393 10.1551 7.0512 0.0000 32.2544 0.0000
# 6 0.0000 0.0000 0.0000 -0.2791 0.0000 26.3558
#
#
#
# Elastic Compliance Matrix: (Units=1/GPa)
#
#
# Indices 1 2 3 4 5 6 
#
# 1 0.013687 -0.004488 -0.003135 0.000000 0.003133 0.000000
# 2 -0.004488 0.015990 -0.007656 0.000000 -0.003700 0.000000
# 3 -0.003135 -0.007656 0.015953 0.000000 -0.001314 0.000000
# 4 0.000000 0.000000 0.000000 0.038594 0.000000 0.000409
# 5 0.003133 -0.003700 -0.001314 0.000000 0.032693 0.000000
# 6 0.000000 0.000000 0.000000 0.000409 0.000000 0.037947
#
#
# Mechanical properties :
#
#
# Convention : Reuss Voigt Hill
#
# Bulk Modulus (GPa) = 66.34263 67.66093 67.00178
# Shear Modulus (GPa) = 26.25441 27.35499 26.80470
#
# Velocity S-wave (km/s) = 3.73963 3.81720 3.77861
# Velocity P-wave (km/s) = 7.34743 7.44773 7.39775
#
# Compressibility (1/GPa) = 0.01507326
#
# Stress axis : x y z
#
# Youngs Moduli (GPa) = 73.06042 62.53860 62.68589
#
# Poissons Ratio (x) = 0.28065 0.19651
# Poissons Ratio (y) = 0.32787 0.47992
# Poissons Ratio (z) = 0.22904 0.47879
#
# Static dielectric constant tensor:
#      x y z
#    x 3.470840 0.000000 -0.102010 
#    y 0.000000 3.246070 0.000000 
#    z -0.102010 0.000000 3.685780 
# 
# 
# High freq. dielectric constant tensor:
#      x y z
#    x 1.741540 0.000000 -0.006120 
#    y 0.000000 1.710750 0.000000 
#    z -0.006120 0.000000 1.745420 
# 
# From -- ./inp_files/63425.got.cif
#   From: 2010.06.25/outbox.cif.g09.slc.cpg/sg13_32_cif.got.tgz:63425.got - 2010.06.28 04:50:58.
