data_PCOD8117897
_publ_section_title
;
Structure prediction by ZEFSAII (Michael W. Deem and Ramdas Pophale) SiO2 
 PCOD8117897
Probable space group: P 2/C
;
_chemical_formula_sum "Si O2"
_cell_formula_units_Z 26
_cell_length_a 6.874593
_cell_length_b 8.030193
_cell_length_c 24.555172
_cell_angle_alpha 90.000000
_cell_angle_beta 80.647160
_cell_angle_gamma 90.000000
_cell_volume 1337.530947
_symmetry_space_group_name_H-M "P 2/C"
_symmetry_group_IT_number 13
_symmetry_cell_setting 'monoclinic'
loop_
_space_group_symop_operation_xyz
x,y,z
-x,y,1/2-z
-x,-y,-z
x,-y,1/2+z
loop_
_atom_site_type_symbol
_atom_site_label
_atom_site_fract_x
_atom_site_fract_y
_atom_site_fract_z
Si Si1 0.000000 0.541300 0.250000
Si Si2 0.426148 0.561568 0.094571
Si Si3 0.294340 0.253357 0.420552
Si Si4 0.941798 0.358708 0.359334
Si Si5 0.373698 0.250979 0.702584
Si Si6 0.653439 0.131148 0.970808
Si Si7 0.333686 0.942733 0.632941
O O1 0.951881 0.429573 0.199214
O O2 0.177635 0.659822 0.229017
O O3 0.582892 0.420390 0.073769
O O4 0.199568 0.494205 0.104753
O O5 0.480475 0.639938 0.150996
O O6 0.450961 0.702804 0.047688
O O7 0.214511 0.185416 0.482985
O O8 0.440556 0.117383 0.386886
O O9 0.106363 0.290499 0.392508
O O10 0.803508 0.209962 0.345201
O O11 0.500000 0.233935 0.750000
O O12 0.329406 0.065825 0.683909
O O13 0.761632 0.038122 0.915630
O O14 0.500000 0.000000 0.000000
#
# Coordination Sequence:
#
# PCOD8117897 Si02
#       7
#     2   4   4   4   4   4   4
#     4  10  22  36  52  76 104 136 174 216 258 306
#     4   9  19  36  54  79 109 134 175 222 253 302
#     4  10  19  34  57  77 101 142 175 205 262 318
#     4  10  21  36  54  78 107 138 175 216 259 310
#     4  10  20  36  56  76 103 138 173 213 262 310
#     4   9  18  35  55  77 108 140 171 216 264 305
#     4   9  21  36  51  78 108 131 170 222 258 303
#
# _framework density 19.438801999999999
#
# number of rings (size 3 to 8) (size 9 to 14) (size 15 to 20)
#    0.000    2.462    0.000    1.385    0.000    4.308 
#    0.000   10.769    0.000    0.000    0.000    0.000 
#    0.000    0.000    0.000    0.000    0.000    0.000 
#
# Total GULP energy -322249.090341 kJ/mol
# GULP energy per Si atom -12394.195782 kJ/mol
# Density = 1.939456 g / cm^3
# Si number density = 19.438802 Si / 1000 Ang^3
#
#
#
# Elastic Constant Matrix: (Units=GPa)
#
#
# Indices 1 2 3 4 5 6 
#
# 1 73.6672 30.0048 50.2826 0.0000 22.4572 0.0000
# 2 30.0048 111.6320 50.4880 0.0000 11.1986 0.0000
# 3 50.2826 50.4880 113.0698 0.0000 32.9771 0.0000
# 4 0.0000 0.0000 0.0000 39.2915 0.0000 -0.9637
# 5 22.4572 11.1986 32.9771 0.0000 26.0332 0.0000
# 6 0.0000 0.0000 0.0000 -0.9637 0.0000 14.3136
#
#
#
# Elastic Compliance Matrix: (Units=1/GPa)
#
#
# Indices 1 2 3 4 5 6 
#
# 1 0.021439 -0.002239 -0.005426 0.000000 -0.010658 0.000000
# 2 -0.002239 0.011555 -0.005198 0.000000 0.003545 0.000000
# 3 -0.005426 -0.005198 0.018334 0.000000 -0.016308 0.000000
# 4 0.000000 0.000000 0.000000 0.025493 0.000000 0.001716
# 5 -0.010658 0.003545 -0.016308 0.000000 0.066739 0.000000
# 6 0.000000 0.000000 0.000000 0.001716 0.000000 0.069979
#
#
# Mechanical properties :
#
#
# Convention : Reuss Voigt Hill
#
# Bulk Modulus (GPa) = 39.05837 62.21330 50.63583
# Shear Modulus (GPa) = 20.17759 27.10057 23.63908
#
# Velocity S-wave (km/s) = 3.22531 3.73788 3.49101
# Velocity P-wave (km/s) = 5.83153 7.12062 6.50807
#
# Compressibility (1/GPa) = 0.02560271
#
# Stress axis : x y z
#
# Youngs Moduli (GPa) = 46.64366 86.54243 54.54317
#
# Poissons Ratio (x) = 0.19381 0.29593
# Poissons Ratio (y) = 0.10446 0.28350
# Poissons Ratio (z) = 0.25307 0.44982
#
# Static dielectric constant tensor:
#      x y z
#    x 3.149780 0.000000 0.127410 
#    y 0.000000 3.891850 0.000000 
#    z 0.127410 0.000000 4.302120 
# 
# 
# High freq. dielectric constant tensor:
#      x y z
#    x 1.719790 0.000000 0.006890 
#    y 0.000000 1.779640 0.000000 
#    z 0.006890 0.000000 1.770100 
# 
# From -- ./inp_files/90234.got.cif
#   From: 2010.06.25/outbox.cif.g09.slc.cpg/sg13_46_cif.got.tgz:90234.got - 2010.06.28 04:50:58.
