data_PCOD8117491
_publ_section_title
;
Structure prediction by ZEFSAII (Michael W. Deem and Ramdas Pophale) SiO2 
 PCOD8117491
Probable space group: P 2/C
;
_chemical_formula_sum "Si O2"
_cell_formula_units_Z 26
_cell_length_a 21.822292
_cell_length_b 11.546315
_cell_length_c 14.242347
_cell_angle_alpha 90.000000
_cell_angle_beta 22.346840
_cell_angle_gamma 90.000000
_cell_volume 1364.431090
_symmetry_space_group_name_H-M "P 2/C"
_symmetry_group_IT_number 13
_symmetry_cell_setting 'monoclinic'
loop_
_space_group_symop_operation_xyz
x,y,z
-x,y,1/2-z
-x,-y,-z
x,-y,1/2+z
loop_
_atom_site_type_symbol
_atom_site_label
_atom_site_fract_x
_atom_site_fract_y
_atom_site_fract_z
Si Si1 0.736464 0.778698 0.421972
Si Si2 0.500000 0.673633 0.250000
Si Si3 0.755642 0.522657 0.363555
Si Si4 0.051860 0.481320 0.576852
Si Si5 0.061545 0.214712 0.564478
Si Si6 0.472640 0.116798 0.426176
Si Si7 0.579418 0.147057 0.479867
O O1 0.682219 0.644007 0.502097
O O2 0.691960 0.828764 0.382561
O O3 0.632099 0.843152 0.647076
O O4 0.925758 0.798419 0.175532
O O5 0.348602 0.589129 0.464700
O O6 0.497611 0.755531 0.344559
O O7 0.911901 0.498031 0.202358
O O8 0.792853 0.534212 0.198123
O O9 0.098034 0.348804 0.531393
O O10 0.000000 0.540038 0.750000
O O11 0.226144 0.154097 0.299213
O O12 0.000000 0.158982 0.750000
O O13 0.492252 0.161984 0.503673
O O14 0.464364 0.979846 0.422165
#
# Coordination Sequence:
#
# PCOD8117491 Si02
#       7
#     4   2   4   4   4   4   4
#     4  10  20  38  64  85 119 153 195 243 305 352
#     4  12  22  36  58  90 120 158 196 240 306 348
#     4  10  21  35  58  91 117 151 195 237 285 369
#     4   9  19  37  58  82 121 154 188 239 292 341
#     4  10  18  36  64  87 110 157 203 239 291 360
#     4  10  22  40  57  88 116 156 195 254 301 345
#     4  11  23  39  61  84 121 153 205 251 293 354
#
# _framework density 19.05556
#
# number of rings (size 3 to 8) (size 9 to 14) (size 15 to 20)
#    0.000    1.846    3.077    1.846    0.000    1.846 
#    0.000    2.308    0.000    0.000    0.000    0.000 
#    0.000    0.000    0.000    0.000    0.000    0.000 
#
# Total GULP energy -322190.594659 kJ/mol
# GULP energy per Si atom -12391.945948 kJ/mol
# Density = 1.901219 g / cm^3
# Si number density = 19.055560 Si / 1000 Ang^3
#
#
#
# Elastic Constant Matrix: (Units=GPa)
#
#
# Indices 1 2 3 4 5 6 
#
# 1 116.5736 58.4909 43.3895 0.0000 7.9999 0.0000
# 2 58.4909 123.5424 61.0369 0.0000 6.0522 0.0000
# 3 43.3895 61.0369 102.3356 0.0000 23.1302 0.0000
# 4 0.0000 0.0000 0.0000 32.3432 0.0000 8.7447
# 5 7.9999 6.0522 23.1302 0.0000 25.8840 0.0000
# 6 0.0000 0.0000 0.0000 8.7447 0.0000 44.9694
#
#
#
# Elastic Compliance Matrix: (Units=1/GPa)
#
#
# Indices 1 2 3 4 5 6 
#
# 1 0.011640 -0.004413 -0.002159 0.000000 -0.000636 0.000000
# 2 -0.004413 0.013545 -0.007268 0.000000 0.004692 0.000000
# 3 -0.002159 -0.007268 0.018154 0.000000 -0.013856 0.000000
# 4 0.000000 0.000000 0.000000 0.032634 0.000000 -0.006346
# 5 -0.000636 0.004692 -0.013856 0.000000 0.050115 0.000000
# 6 0.000000 0.000000 0.000000 -0.006346 0.000000 0.023471
#
#
# Mechanical properties :
#
#
# Convention : Reuss Voigt Hill
#
# Bulk Modulus (GPa) = 63.86527 74.25401 69.05964
# Shear Modulus (GPa) = 27.40344 32.60827 30.00586
#
# Velocity S-wave (km/s) = 3.79632 4.14118 3.97249
# Velocity P-wave (km/s) = 7.26664 7.86877 7.57369
#
# Compressibility (1/GPa) = 0.01565796
#
# Stress axis : x y z
#
# Youngs Moduli (GPa) = 85.91208 73.83058 55.08437
#
# Poissons Ratio (x) = 0.32580 0.11895
# Poissons Ratio (y) = 0.37911 0.40035
# Poissons Ratio (z) = 0.18553 0.53659
#
# Static dielectric constant tensor:
#      x y z
#    x 3.739320 0.000000 0.140370 
#    y 0.000000 3.460110 0.000000 
#    z 0.140370 0.000000 3.772500 
# 
# 
# High freq. dielectric constant tensor:
#      x y z
#    x 1.747750 0.000000 0.003620 
#    y 0.000000 1.732190 0.000000 
#    z 0.003620 0.000000 1.736630 
# 
# From -- ./inp_files/50917.got.cif
#   From: 2010.06.25/outbox.cif.g09.slc.cpg/sg13_26_cif.got.tgz:50917.got - 2010.06.28 04:50:58.
