data_PCOD8118930
_publ_section_title
;
Structure prediction by ZEFSAII (Michael W. Deem and Ramdas Pophale) SiO2 
 PCOD8118930
Probable space group: P 2/C
;
_chemical_formula_sum "Si O2"
_cell_formula_units_Z 32
_cell_length_a 16.112528
_cell_length_b 8.441797
_cell_length_c 22.069315
_cell_angle_alpha 90.000000
_cell_angle_beta 146.139246
_cell_angle_gamma 90.000000
_cell_volume 1672.554159
_symmetry_space_group_name_H-M "P 2/C"
_symmetry_group_IT_number 13
_symmetry_cell_setting 'monoclinic'
loop_
_space_group_symop_operation_xyz
x,y,z
-x,y,1/2-z
-x,-y,-z
x,-y,1/2+z
loop_
_atom_site_type_symbol
_atom_site_label
_atom_site_fract_x
_atom_site_fract_y
_atom_site_fract_z
Si Si1 0.842454 0.636350 0.525631
Si Si2 0.428905 0.441333 0.147487
Si Si3 0.626377 0.645539 0.189960
Si Si4 0.666861 0.846280 0.329412
Si Si5 0.535659 0.072344 0.958525
Si Si6 0.163801 0.220986 0.350689
Si Si7 0.817334 0.364195 0.269919
Si Si8 0.610908 0.147353 0.227531
O O1 0.749184 0.473927 0.455318
O O2 0.773493 0.789575 0.448953
O O3 0.836994 0.654313 0.594866
O O4 0.011416 0.619963 0.605977
O O5 0.500000 0.522253 0.250000
O O6 0.490148 0.533103 0.126591
O O7 0.483542 0.259568 0.179379
O O8 0.700696 0.739150 0.290941
O O9 0.552565 0.762168 0.096637
O O10 0.751462 0.540606 0.233343
O O11 0.500000 0.821768 0.250000
O O12 0.689664 0.033310 0.325606
O O13 0.483422 0.963475 0.872946
O O14 0.713472 0.088931 0.060819
O O15 0.500000 0.000000 0.000000
O O16 0.202666 0.304083 0.310600
O O17 0.000000 0.139666 0.250000
O O18 0.736842 0.246533 0.268600
#
# Coordination Sequence:
#
# PCOD8118930 Si02
#       8
#     4   4   4   4   4   4   4   4
#     4  11  20  37  64  81 120 160 195 230 311 346
#     4  11  19  37  58  86 111 150 196 243 278 358
#     4  10  20  36  59  85 116 148 197 240 292 344
#     4  11  19  38  62  86 113 158 195 235 294 366
#     4  11  20  37  60  84 112 159 191 240 298 353
#     4  10  21  38  58  85 115 151 197 240 287 351
#     4  10  23  38  56  92 117 152 195 253 285 350
#     4  10  23  36  59  90 120 142 202 250 287 343
#
# _framework density 19.132415999999999
#
# number of rings (size 3 to 8) (size 9 to 14) (size 15 to 20)
#    0.000    1.500    5.000    1.125    0.000    2.500 
#    0.000    1.250    5.500    0.000    0.000    0.000 
#    0.000    0.000    0.000    0.000    0.000    0.000 
#
# Total GULP energy -396616.664664 kJ/mol
# GULP energy per Si atom -12394.270771 kJ/mol
# Density = 1.908887 g / cm^3
# Si number density = 19.132416 Si / 1000 Ang^3
#
#
#
# Elastic Constant Matrix: (Units=GPa)
#
#
# Indices 1 2 3 4 5 6 
#
# 1 95.7670 53.0199 53.3235 0.0000 13.7415 0.0000
# 2 53.0199 114.9707 44.3029 0.0000 12.4773 0.0000
# 3 53.3235 44.3029 115.7857 0.0000 24.5079 0.0000
# 4 0.0000 0.0000 0.0000 18.4263 0.0000 0.5940
# 5 13.7415 12.4773 24.5079 0.0000 38.9984 0.0000
# 6 0.0000 0.0000 0.0000 0.5940 0.0000 31.9425
#
#
#
# Elastic Compliance Matrix: (Units=1/GPa)
#
#
# Indices 1 2 3 4 5 6 
#
# 1 0.016585 -0.005497 -0.005387 0.000000 -0.000700 0.000000
# 2 -0.005497 0.012053 -0.001931 0.000000 -0.000706 0.000000
# 3 -0.005387 -0.001931 0.013061 0.000000 -0.005692 0.000000
# 4 0.000000 0.000000 0.000000 0.054303 0.000000 -0.001010
# 5 -0.000700 -0.000706 -0.005692 0.000000 0.029692 0.000000
# 6 0.000000 0.000000 0.000000 -0.001010 0.000000 0.031325
#
#
# Mechanical properties :
#
#
# Convention : Reuss Voigt Hill
#
# Bulk Modulus (GPa) = 62.22493 69.75732 65.99113
# Shear Modulus (GPa) = 26.59507 29.59858 28.09682
#
# Velocity S-wave (km/s) = 3.73239 3.93751 3.83632
# Velocity P-wave (km/s) = 7.15319 7.56382 7.36137
#
# Compressibility (1/GPa) = 0.01607073
#
# Stress axis : x y z
#
# Youngs Moduli (GPa) = 60.29597 82.96373 76.56310
#
# Poissons Ratio (x) = 0.45602 0.41241
# Poissons Ratio (y) = 0.33142 0.14786
# Poissons Ratio (z) = 0.32479 0.16022
#
# Static dielectric constant tensor:
#      x y z
#    x 3.914630 0.000000 -0.054800 
#    y 0.000000 3.615060 0.000000 
#    z -0.054800 0.000000 3.589080 
# 
# 
# High freq. dielectric constant tensor:
#      x y z
#    x 1.750780 0.000000 -0.009830 
#    y 0.000000 1.734230 0.000000 
#    z -0.009830 0.000000 1.742200 
# 
# From -- ./inp_files/79831.got.cif
#   From: 2010.06.25/outbox.cif.g09.slc.cpg/sg13_40_cif.got.tgz:79831.got - 2010.06.28 04:50:58.
