data_PCOD8118883
_publ_section_title
;
Structure prediction by ZEFSAII (Michael W. Deem and Ramdas Pophale) SiO2 
 PCOD8118883
Probable space group: P 2/C
;
_chemical_formula_sum "Si O2"
_cell_formula_units_Z 20
_cell_length_a 12.881242
_cell_length_b 11.182001
_cell_length_c 10.378205
_cell_angle_alpha 90.000000
_cell_angle_beta 43.798346
_cell_angle_gamma 90.000000
_cell_volume 1034.623592
_symmetry_space_group_name_H-M "P 2/C"
_symmetry_group_IT_number 13
_symmetry_cell_setting 'monoclinic'
loop_
_space_group_symop_operation_xyz
x,y,z
-x,y,1/2-z
-x,-y,-z
x,-y,1/2+z
loop_
_atom_site_type_symbol
_atom_site_label
_atom_site_fract_x
_atom_site_fract_y
_atom_site_fract_z
Si Si1 0.664968 0.215598 0.573614
Si Si2 0.401914 0.528541 0.464684
Si Si3 0.920395 0.567417 0.191098
Si Si4 0.119837 0.041267 0.245894
Si Si5 0.886640 0.188993 0.600327
O O1 0.500000 0.169379 0.750000
O O2 0.650961 0.333761 0.498342
O O3 0.734600 0.101847 0.441980
O O4 0.764273 0.244360 0.611534
O O5 0.500000 0.492078 0.250000
O O6 0.500000 0.500000 0.500000
O O7 0.253678 0.453789 0.624878
O O8 0.934776 0.708994 0.156557
O O9 0.000000 0.526245 0.250000
O O10 0.000000 0.500000 0.000000
O O11 0.000000 0.991676 0.250000
O O12 0.040059 0.146664 0.396738
O O13 0.181436 0.928673 0.270639
#
# Coordination Sequence:
#
# PCOD8118883 Si02
#       5
#     4   4   4   4   4
#     4  10  20  36  57  80 110 150 193 235 287 350
#     4  11  23  41  60  84 121 159 193 240 305 358
#     4  12  23  37  60  89 116 151 203 250 290 351
#     4   9  19  36  57  81 112 149 188 237 293 344
#     4  10  20  36  57  82 114 150 190 239 292 344
#
# _framework density 19.330703
#
# number of rings (size 3 to 8) (size 9 to 14) (size 15 to 20)
#    0.000    1.600    0.000    6.600    0.000    2.400 
#    0.000    1.000    0.000    0.000    0.000    0.000 
#    0.000    0.000    0.000    0.000    0.000    0.000 
#
# Total GULP energy -247876.588374 kJ/mol
# GULP energy per Si atom -12393.829419 kJ/mol
# Density = 1.928671 g / cm^3
# Si number density = 19.330703 Si / 1000 Ang^3
#
#
#
# Elastic Constant Matrix: (Units=GPa)
#
#
# Indices 1 2 3 4 5 6 
#
# 1 130.1843 56.1423 37.6683 0.0000 8.6489 0.0000
# 2 56.1423 84.0763 47.6395 0.0000 -8.1508 0.0000
# 3 37.6683 47.6395 112.2696 0.0000 5.6504 0.0000
# 4 0.0000 0.0000 0.0000 5.5138 0.0000 9.6947
# 5 8.6489 -8.1508 5.6504 0.0000 30.0182 0.0000
# 6 0.0000 0.0000 0.0000 9.6947 0.0000 37.7714
#
#
#
# Elastic Compliance Matrix: (Units=1/GPa)
#
#
# Indices 1 2 3 4 5 6 
#
# 1 0.011643 -0.008241 -0.000129 0.000000 -0.005568 0.000000
# 2 -0.008241 0.022467 -0.007264 0.000000 0.009842 0.000000
# 3 -0.000129 -0.007264 0.012246 0.000000 -0.004240 0.000000
# 4 0.000000 0.000000 0.000000 0.330527 0.000000 -0.084836
# 5 -0.005568 0.009842 -0.004240 0.000000 0.038388 0.000000
# 6 0.000000 0.000000 0.000000 -0.084836 0.000000 0.048250
#
#
# Mechanical properties :
#
#
# Convention : Reuss Voigt Hill
#
# Bulk Modulus (GPa) = 66.27875 67.71451 66.99663
# Shear Modulus (GPa) = 10.00366 26.99935 18.50150
#
# Velocity S-wave (km/s) = 2.27733 3.74131 3.09707
# Velocity P-wave (km/s) = 6.42466 7.33272 6.89366
#
# Compressibility (1/GPa) = 0.01508779
#
# Stress axis : x y z
#
# Youngs Moduli (GPa) = 85.89096 44.50989 81.65868
#
# Poissons Ratio (x) = 0.36681 0.01055
# Poissons Ratio (y) = 0.70783 0.59315
# Poissons Ratio (z) = 0.01109 0.32331
#
# Static dielectric constant tensor:
#      x y z
#    x 3.563310 0.000000 0.118610 
#    y 0.000000 3.429720 0.000000 
#    z 0.118610 0.000000 3.938380 
# 
# 
# High freq. dielectric constant tensor:
#      x y z
#    x 1.755510 0.000000 0.001100 
#    y 0.000000 1.753990 0.000000 
#    z 0.001100 0.000000 1.762130 
# 
# From -- ./inp_files/33586.got.cif
#   From: 2010.06.25/outbox.cif.g09.slc.cpg/sg13_17_cif.got.tgz:33586.got - 2010.06.28 04:50:58.
