data_PCOD8118000
_publ_section_title
;
Structure prediction by ZEFSAII (Michael W. Deem and Ramdas Pophale) SiO2 
 PCOD8118000
Probable space group: P 2/C
;
_chemical_formula_sum "Si O2"
_cell_formula_units_Z 24
_cell_length_a 14.089411
_cell_length_b 13.808193
_cell_length_c 9.993095
_cell_angle_alpha 90.000000
_cell_angle_beta 39.773415
_cell_angle_gamma 90.000000
_cell_volume 1243.775895
_symmetry_space_group_name_H-M "P 2/C"
_symmetry_group_IT_number 13
_symmetry_cell_setting 'monoclinic'
loop_
_space_group_symop_operation_xyz
x,y,z
-x,y,1/2-z
-x,-y,-z
x,-y,1/2+z
loop_
_atom_site_type_symbol
_atom_site_label
_atom_site_fract_x
_atom_site_fract_y
_atom_site_fract_z
Si Si1 0.692748 0.394772 0.285961
Si Si2 0.649372 0.387026 0.809574
Si Si3 0.109774 0.105728 0.754643
Si Si4 0.671371 0.725063 0.550156
Si Si5 0.091736 0.106536 0.282150
Si Si6 0.167733 0.696452 0.620184
O O1 0.526530 0.379586 0.519768
O O2 0.710237 0.504994 0.218341
O O3 0.732128 0.323162 0.120707
O O4 0.804712 0.377203 0.287479
O O5 0.720996 0.318308 0.622109
O O6 0.695485 0.353445 0.907608
O O7 0.245687 0.175874 0.575023
O O8 0.000000 0.104992 0.750000
O O9 0.171516 0.996996 0.724150
O O10 0.018208 0.142025 0.981620
O O11 0.500000 0.752908 0.750000
O O12 0.204372 0.195247 0.135502
O O13 0.000000 0.087615 0.250000
O O14 0.000000 0.685799 0.750000
#
# Coordination Sequence:
#
# PCOD8118000 Si02
#       6
#     4   4   4   4   4   4
#     4  10  21  38  57  77 106 148 184 212 263 326
#     4  10  21  38  57  76 107 148 183 214 260 326
#     4  10  19  35  57  77 104 142 178 213 263 326
#     4  10  20  34  55  82 108 137 179 227 265 305
#     4   9  19  34  55  78 104 141 178 211 262 325
#     4  11  21  35  56  83 110 135 177 230 268 305
#
# _framework density 19.296081000000001
#
# number of rings (size 3 to 8) (size 9 to 14) (size 15 to 20)
#    0.000    2.000    0.000    4.500    0.000    3.333 
#    0.000    5.000    0.000   13.000    0.000    0.000 
#    0.000    0.000    0.000    0.000    0.000    0.000 
#
# Total GULP energy -297546.631684 kJ/mol
# GULP energy per Si atom -12397.776320 kJ/mol
# Density = 1.925216 g / cm^3
# Si number density = 19.296081 Si / 1000 Ang^3
#
#
#
# Elastic Constant Matrix: (Units=GPa)
#
#
# Indices 1 2 3 4 5 6 
#
# 1 86.2339 28.2643 35.1296 0.0000 15.1952 0.0000
# 2 28.2643 136.8059 76.3299 0.0000 -7.2767 0.0000
# 3 35.1296 76.3299 127.5355 0.0000 19.5063 0.0000
# 4 0.0000 0.0000 0.0000 41.4870 0.0000 0.3447
# 5 15.1952 -7.2767 19.5063 0.0000 22.9931 0.0000
# 6 0.0000 0.0000 0.0000 0.3447 0.0000 24.3610
#
#
#
# Elastic Compliance Matrix: (Units=1/GPa)
#
#
# Indices 1 2 3 4 5 6 
#
# 1 0.014707 -0.003325 -0.000475 0.000000 -0.010368 0.000000
# 2 -0.003325 0.014418 -0.010051 0.000000 0.015287 0.000000
# 3 -0.000475 -0.010051 0.016577 0.000000 -0.016930 0.000000
# 4 0.000000 0.000000 0.000000 0.024107 0.000000 -0.000341
# 5 -0.010368 0.015287 -0.016930 0.000000 0.069544 0.000000
# 6 0.000000 0.000000 0.000000 -0.000341 0.000000 0.041054
#
#
# Mechanical properties :
#
#
# Convention : Reuss Voigt Hill
#
# Bulk Modulus (GPa) = 55.55979 70.00255 62.78117
# Shear Modulus (GPa) = 23.35270 31.82500 27.58885
#
# Velocity S-wave (km/s) = 3.48261 4.06556 3.78532
# Velocity P-wave (km/s) = 6.71023 7.64168 7.19105
#
# Compressibility (1/GPa) = 0.01799863
#
# Stress axis : x y z
#
# Youngs Moduli (GPa) = 67.99650 69.35919 60.32444
#
# Poissons Ratio (x) = 0.23059 0.02868
# Poissons Ratio (y) = 0.22606 0.60634
# Poissons Ratio (z) = 0.03233 0.69715
#
# Static dielectric constant tensor:
#      x y z
#    x 3.422280 0.000000 0.220790 
#    y 0.000000 3.890960 0.000000 
#    z 0.220790 0.000000 3.500460 
# 
# 
# High freq. dielectric constant tensor:
#      x y z
#    x 1.737370 0.000000 0.029500 
#    y 0.000000 1.762520 0.000000 
#    z 0.029500 0.000000 1.752340 
# 
# From -- ./inp_files/19461.got.cif
#   From: 2010.06.25/outbox.cif.g09.slc.cpg/sg13_10_cif.got.tgz:19461.got - 2010.06.28 04:50:58.
