data_PCOD8118097
_publ_section_title
;
Structure prediction by ZEFSAII (Michael W. Deem and Ramdas Pophale) SiO2 
 PCOD8118097
Probable space group: P 2/C
;
_chemical_formula_sum "Si O2"
_cell_formula_units_Z 24
_cell_length_a 8.815873
_cell_length_b 12.260837
_cell_length_c 23.199910
_cell_angle_alpha 90.000000
_cell_angle_beta 28.296203
_cell_angle_gamma 90.000000
_cell_volume 1188.714177
_symmetry_space_group_name_H-M "P 2/C"
_symmetry_group_IT_number 13
_symmetry_cell_setting 'monoclinic'
loop_
_space_group_symop_operation_xyz
x,y,z
-x,y,1/2-z
-x,-y,-z
x,-y,1/2+z
loop_
_atom_site_type_symbol
_atom_site_label
_atom_site_fract_x
_atom_site_fract_y
_atom_site_fract_z
Si Si1 0.237727 0.376839 0.120261
Si Si2 0.631303 0.010248 0.873771
Si Si3 0.750794 0.515686 0.998431
Si Si4 0.688556 0.172598 0.956367
Si Si5 0.260499 0.369148 0.877640
Si Si6 0.573287 0.856874 0.284114
O O1 0.080150 0.415853 0.111329
O O2 0.000000 0.333184 0.250000
O O3 0.402328 0.483655 0.092136
O O4 0.502256 0.285700 0.018145
O O5 0.579033 0.106835 0.936588
O O6 0.505352 0.057440 0.856188
O O7 0.000000 0.972783 0.750000
O O8 0.413764 0.904031 0.956187
O O9 0.922513 0.404513 0.962907
O O10 0.697251 0.589249 0.071954
O O11 0.069275 0.194088 0.829866
O O12 0.500000 0.420623 0.750000
O O13 0.310764 0.240060 0.867567
O O14 0.500000 0.923858 0.250000
#
# Coordination Sequence:
#
# PCOD8118097 Si02
#       6
#     4   4   4   4   4   4
#     4  11  21  34  53  79 107 139 180 226 274 321
#     4   9  19  36  56  80 108 141 181 225 273 325
#     4  10  22  35  52  78 107 140 180 226 272 323
#     4  10  20  35  56  79 108 143 182 227 272 324
#     4  10  19  36  56  76 106 142 180 222 270 325
#     4  10  20  34  56  81 107 143 182 223 274 329
#
# _framework density 20.189883999999999
#
# number of rings (size 3 to 8) (size 9 to 14) (size 15 to 20)
#    0.000    2.000    0.000    4.500    0.000    2.000 
#    0.000    0.833    0.000    3.000    0.000    0.000 
#    0.000    0.000    0.000    0.000    0.000    0.000 
#
# Total GULP energy -297347.117151 kJ/mol
# GULP energy per Si atom -12389.463215 kJ/mol
# Density = 2.014393 g / cm^3
# Si number density = 20.189884 Si / 1000 Ang^3
#
#
#
# Elastic Constant Matrix: (Units=GPa)
#
#
# Indices 1 2 3 4 5 6 
#
# 1 138.8414 45.1263 24.0351 0.0000 29.8565 0.0000
# 2 45.1263 74.0943 16.7268 0.0000 7.6702 0.0000
# 3 24.0351 16.7268 58.5051 0.0000 23.1923 0.0000
# 4 0.0000 0.0000 0.0000 26.3871 0.0000 -1.8282
# 5 29.8565 7.6702 23.1923 0.0000 29.8062 0.0000
# 6 0.0000 0.0000 0.0000 -1.8282 0.0000 17.2580
#
#
#
# Elastic Compliance Matrix: (Units=1/GPa)
#
#
# Indices 1 2 3 4 5 6 
#
# 1 0.011248 -0.006046 0.001384 0.000000 -0.010788 0.000000
# 2 -0.006046 0.017688 -0.004583 0.000000 0.005071 0.000000
# 3 0.001384 -0.004583 0.025908 0.000000 -0.020366 0.000000
# 4 0.000000 0.000000 0.000000 0.038177 0.000000 0.004044
# 5 -0.010788 0.005071 -0.020366 0.000000 0.058898 0.000000
# 6 0.000000 0.000000 0.000000 0.004044 0.000000 0.058373
#
#
# Mechanical properties :
#
#
# Convention : Reuss Voigt Hill
#
# Bulk Modulus (GPa) = 27.50778 49.24636 38.37707
# Shear Modulus (GPa) = 20.75548 27.06045 23.90797
#
# Velocity S-wave (km/s) = 3.20974 3.66498 3.44489
# Velocity P-wave (km/s) = 5.23361 6.50799 5.90528
#
# Compressibility (1/GPa) = 0.03635336
#
# Stress axis : x y z
#
# Youngs Moduli (GPa) = 88.90642 56.53420 38.59864
#
# Poissons Ratio (x) = 0.34181 -0.05343
# Poissons Ratio (y) = 0.53754 0.17692
# Poissons Ratio (z) = -0.12308 0.25912
#
# Static dielectric constant tensor:
#      x y z
#    x 3.957440 0.000000 0.310740 
#    y 0.000000 3.434820 0.000000 
#    z 0.310740 0.000000 3.687570 
# 
# 
# High freq. dielectric constant tensor:
#      x y z
#    x 1.803930 0.000000 0.018760 
#    y 0.000000 1.774840 0.000000 
#    z 0.018760 0.000000 1.778550 
# 
# From -- ./inp_files/80133.got.cif
#   From: 2010.06.25/outbox.cif.g09.slc.cpg/sg13_41_cif.got.tgz:80133.got - 2010.06.28 04:50:58.
