data_PCOD8118279
_publ_section_title
;
Structure prediction by ZEFSAII (Michael W. Deem and Ramdas Pophale) SiO2 
 PCOD8118279
Probable space group: P 2/C
;
_chemical_formula_sum "Si O2"
_cell_formula_units_Z 24
_cell_length_a 12.763859
_cell_length_b 7.654793
_cell_length_c 16.431561
_cell_angle_alpha 90.000000
_cell_angle_beta 49.121733
_cell_angle_gamma 90.000000
_cell_volume 1213.876559
_symmetry_space_group_name_H-M "P 2/C"
_symmetry_group_IT_number 13
_symmetry_cell_setting 'monoclinic'
loop_
_space_group_symop_operation_xyz
x,y,z
-x,y,1/2-z
-x,-y,-z
x,-y,1/2+z
loop_
_atom_site_type_symbol
_atom_site_label
_atom_site_fract_x
_atom_site_fract_y
_atom_site_fract_z
Si Si1 0.907456 0.463195 0.468900
Si Si2 0.448124 0.025027 0.435745
Si Si3 0.359252 0.260130 0.858297
Si Si4 0.014009 0.882108 0.837608
Si Si5 0.812424 0.178393 0.990657
Si Si6 0.716562 0.936278 0.704952
O O1 0.750184 0.412259 0.570926
O O2 0.978047 0.317785 0.376779
O O3 0.895161 0.645500 0.425395
O O4 0.000000 0.500000 0.500000
O O5 0.395218 0.842922 0.423560
O O6 0.500000 0.000000 0.500000
O O7 0.317611 0.156771 0.504014
O O8 0.567918 0.111107 0.319266
O O9 0.500000 0.343008 0.750000
O O10 0.290893 0.130766 0.827294
O O11 0.000000 0.916789 0.750000
O O12 0.170702 0.926512 0.781325
O O13 0.912236 0.010304 0.937929
O O14 0.756211 0.196099 0.112118
#
# Coordination Sequence:
#
# PCOD8118279 Si02
#       6
#     4   4   4   4   4   4
#     4  12  23  40  66  95 126 168 215 258 313 384
#     4  10  20  38  64  93 126 168 209 262 322 367
#     4   9  20  38  62  92 127 160 218 259 305 381
#     4  12  24  41  64  92 132 163 207 275 320 366
#     4  11  22  40  67  90 124 169 217 251 311 387
#     4  10  19  37  64  90 118 171 214 249 312 375
#
# _framework density 19.771367000000001
#
# number of rings (size 3 to 8) (size 9 to 14) (size 15 to 20)
#    0.000    1.333    5.000    4.000    0.000    2.000 
#    0.000    4.167    0.000    0.000    0.000    0.000 
#    0.000    0.000    0.000    0.000    0.000    0.000 
#
# Total GULP energy -297593.531293 kJ/mol
# GULP energy per Si atom -12399.730471 kJ/mol
# Density = 1.972637 g / cm^3
# Si number density = 19.771367 Si / 1000 Ang^3
#
#
#
# Elastic Constant Matrix: (Units=GPa)
#
#
# Indices 1 2 3 4 5 6 
#
# 1 153.9678 40.4733 27.0092 0.0000 -4.3936 0.0000
# 2 40.4733 93.0364 26.0108 0.0000 -4.4360 0.0000
# 3 27.0092 26.0108 60.0829 0.0000 -7.2120 0.0000
# 4 0.0000 0.0000 0.0000 19.8783 0.0000 -9.6287
# 5 -4.3936 -4.4360 -7.2120 0.0000 37.9559 0.0000
# 6 0.0000 0.0000 0.0000 -9.6287 0.0000 26.7144
#
#
#
# Elastic Compliance Matrix: (Units=1/GPa)
#
#
# Indices 1 2 3 4 5 6 
#
# 1 0.007594 -0.002670 -0.002241 0.000000 0.000141 0.000000
# 2 -0.002670 0.013175 -0.004457 0.000000 0.000384 0.000000
# 3 -0.002241 -0.004457 0.019942 0.000000 0.003009 0.000000
# 4 0.000000 0.000000 0.000000 0.060947 0.000000 0.021967
# 5 0.000141 0.000384 0.003009 0.000000 0.026979 0.000000
# 6 0.000000 0.000000 0.000000 0.021967 0.000000 0.045351
#
#
# Mechanical properties :
#
#
# Convention : Reuss Voigt Hill
#
# Bulk Modulus (GPa) = 45.50847 54.89706 50.20277
# Shear Modulus (GPa) = 24.99410 31.14932 28.07171
#
# Velocity S-wave (km/s) = 3.55936 3.97353 3.77213
# Velocity P-wave (km/s) = 6.32134 6.99129 6.66474
#
# Compressibility (1/GPa) = 0.02197393
#
# Stress axis : x y z
#
# Youngs Moduli (GPa) = 131.68425 75.90406 50.14640
#
# Poissons Ratio (x) = 0.20269 0.11236
# Poissons Ratio (y) = 0.35165 0.22350
# Poissons Ratio (z) = 0.29507 0.33830
#
# Static dielectric constant tensor:
#      x y z
#    x 3.770670 0.000000 -0.263420 
#    y 0.000000 3.489670 0.000000 
#    z -0.263420 0.000000 3.717920 
# 
# 
# High freq. dielectric constant tensor:
#      x y z
#    x 1.785510 0.000000 -0.020560 
#    y 0.000000 1.747980 0.000000 
#    z -0.020560 0.000000 1.767530 
# 
# From -- ./inp_files/65931.got.cif
#   From: 2010.06.25/outbox.cif.g09.slc.cpg/sg13_33_cif.got.tgz:65931.got - 2010.06.28 04:50:58.
