data_PCOD8118771
_publ_section_title
;
Structure prediction by ZEFSAII (Michael W. Deem and Ramdas Pophale) SiO2 
 PCOD8118771
Probable space group: P 2/C
;
_chemical_formula_sum "Si O2"
_cell_formula_units_Z 32
_cell_length_a 14.663768
_cell_length_b 9.321681
_cell_length_c 24.744655
_cell_angle_alpha 90.000000
_cell_angle_beta 151.040584
_cell_angle_gamma 90.000000
_cell_volume 1637.710080
_symmetry_space_group_name_H-M "P 2/C"
_symmetry_group_IT_number 13
_symmetry_cell_setting 'monoclinic'
loop_
_space_group_symop_operation_xyz
x,y,z
-x,y,1/2-z
-x,-y,-z
x,-y,1/2+z
loop_
_atom_site_type_symbol
_atom_site_label
_atom_site_fract_x
_atom_site_fract_y
_atom_site_fract_z
Si Si1 0.300505 0.657284 0.356701
Si Si2 0.701375 0.442069 0.878029
Si Si3 0.954061 0.611886 0.413057
Si Si4 0.347119 0.662266 0.031513
Si Si5 0.013544 0.175257 0.852540
Si Si6 0.027579 0.856395 0.828089
Si Si7 0.636626 0.646017 0.991235
Si Si8 0.775250 0.389949 0.241361
O O1 0.439390 0.684399 0.378002
O O2 0.128801 0.770619 0.268282
O O3 0.412165 0.663877 0.470680
O O4 0.215493 0.497998 0.304884
O O5 0.500000 0.492701 0.750000
O O6 0.827742 0.355596 0.900110
O O7 0.662198 0.335700 0.908225
O O8 0.825280 0.581963 0.959051
O O9 0.938148 0.754817 0.368969
O O10 0.874096 0.466440 0.343493
O O11 0.264427 0.508135 0.968429
O O12 0.231720 0.790813 0.945047
O O13 0.010549 0.004839 0.851656
O O14 0.226891 0.226086 0.954366
O O15 0.000000 0.879480 0.750000
O O16 0.873246 0.755864 0.775110
O O17 0.441775 0.650058 0.856630
#
# Coordination Sequence:
#
# PCOD8118771 Si02
#       8
#     4   4   4   4   4   4   4   4
#     4  10  20  35  58  85 117 155 205 249 297 347
#     4  11  20  38  68  92 114 148 202 265 318 346
#     4  10  22  39  62  91 116 152 203 260 310 353
#     4  11  21  38  61  91 116 152 203 255 298 357
#     4  11  23  38  54  85 126 164 198 239 297 363
#     4  12  23  37  57  86 129 170 197 235 296 369
#     4  11  19  35  58  85 117 157 201 252 297 349
#     4  10  20  36  57  86 113 150 202 253 296 350
#
# _framework density 19.539477999999999
#
# number of rings (size 3 to 8) (size 9 to 14) (size 15 to 20)
#    0.000    1.250    2.500    7.125    0.000    1.000 
#    0.000    3.125    0.000    0.750    0.000    0.000 
#    0.000    0.000    0.000    0.000    0.000    0.000 
#
# Total GULP energy -396741.631238 kJ/mol
# GULP energy per Si atom -12398.175976 kJ/mol
# Density = 1.949501 g / cm^3
# Si number density = 19.539478 Si / 1000 Ang^3
#
#
#
# Elastic Constant Matrix: (Units=GPa)
#
#
# Indices 1 2 3 4 5 6 
#
# 1 120.6100 42.6156 36.5887 0.0000 -5.3208 0.0000
# 2 42.6156 142.1251 47.6113 0.0000 8.5596 0.0000
# 3 36.5887 47.6113 124.8267 0.0000 6.3777 0.0000
# 4 0.0000 0.0000 0.0000 14.2540 0.0000 1.6078
# 5 -5.3208 8.5596 6.3777 0.0000 31.5195 0.0000
# 6 0.0000 0.0000 0.0000 1.6078 0.0000 19.1805
#
#
#
# Elastic Compliance Matrix: (Units=1/GPa)
#
#
# Indices 1 2 3 4 5 6 
#
# 1 0.009915 -0.002429 -0.002121 0.000000 0.002762 0.000000
# 2 -0.002429 0.008741 -0.002506 0.000000 -0.002277 0.000000
# 3 -0.002121 -0.002506 0.009672 0.000000 -0.001635 0.000000
# 4 0.000000 0.000000 0.000000 0.070825 0.000000 -0.005937
# 5 0.002762 -0.002277 -0.001635 0.000000 0.033142 0.000000
# 6 0.000000 0.000000 0.000000 -0.005937 0.000000 0.052634
#
#
# Mechanical properties :
#
#
# Convention : Reuss Voigt Hill
#
# Bulk Modulus (GPa) = 70.33937 71.24365 70.79151
# Shear Modulus (GPa) = 24.53652 30.37389 27.45520
#
# Velocity S-wave (km/s) = 3.54749 3.94698 3.75255
# Velocity P-wave (km/s) = 7.27023 7.57047 7.42187
#
# Compressibility (1/GPa) = 0.01421679
#
# Stress axis : x y z
#
# Youngs Moduli (GPa) = 100.86132 114.40598 103.39109
#
# Poissons Ratio (x) = 0.27786 0.21928
# Poissons Ratio (y) = 0.24496 0.25907
# Poissons Ratio (z) = 0.21392 0.28667
#
# Static dielectric constant tensor:
#      x y z
#    x 3.639290 0.000000 -0.025260 
#    y 0.000000 3.223960 0.000000 
#    z -0.025260 0.000000 3.781240 
# 
# 
# High freq. dielectric constant tensor:
#      x y z
#    x 1.766700 0.000000 0.007690 
#    y 0.000000 1.717420 0.000000 
#    z 0.007690 0.000000 1.776740 
# 
# From -- ./inp_files/92848.got.cif
#   From: 2010.06.25/outbox.cif.g09.slc.cpg/sg13_47_cif.got.tgz:92848.got - 2010.06.28 04:50:58.
