data_PCOD8118366
_publ_section_title
;
Structure prediction by ZEFSAII (Michael W. Deem and Ramdas Pophale) SiO2 
 PCOD8118366
Probable space group: P 2/C
;
_chemical_formula_sum "Si O2"
_cell_formula_units_Z 32
_cell_length_a 13.233558
_cell_length_b 13.602788
_cell_length_c 18.613074
_cell_angle_alpha 90.000000
_cell_angle_beta 153.568797
_cell_angle_gamma 90.000000
_cell_volume 1491.429090
_symmetry_space_group_name_H-M "P 2/C"
_symmetry_group_IT_number 13
_symmetry_cell_setting 'monoclinic'
loop_
_space_group_symop_operation_xyz
x,y,z
-x,y,1/2-z
-x,-y,-z
x,-y,1/2+z
loop_
_atom_site_type_symbol
_atom_site_label
_atom_site_fract_x
_atom_site_fract_y
_atom_site_fract_z
Si Si1 0.590613 0.168007 0.604513
Si Si2 0.072850 0.202584 0.485219
Si Si3 0.464265 0.455923 0.812745
Si Si4 0.903111 0.326275 0.858703
Si Si5 0.566402 0.145811 0.148771
Si Si6 0.746090 0.034897 0.824820
Si Si7 0.780449 0.706422 0.563410
Si Si8 0.617521 0.666056 0.897242
O O1 0.743351 0.267073 0.701226
O O2 0.547542 0.119071 0.499673
O O3 0.721831 0.084156 0.731465
O O4 0.352286 0.199513 0.489387
O O5 0.024070 0.256082 0.529408
O O6 0.271617 0.118875 0.624424
O O7 0.167528 0.275626 0.486716
O O8 0.832159 0.163521 0.303675
O O9 0.500000 0.440974 0.750000
O O10 0.215014 0.422088 0.680763
O O11 0.496884 0.570110 0.854217
O O12 0.636548 0.393089 0.970667
O O13 0.120056 0.359937 0.950851
O O14 0.418654 0.240135 0.075882
O O15 0.562151 0.055692 0.205366
O O16 0.000000 0.000000 0.000000
O O17 0.000000 0.685407 0.750000
O O18 0.500000 0.698605 0.750000
#
# Coordination Sequence:
#
# PCOD8118366 Si02
#       8
#     4   4   4   4   4   4   4   4
#     4  10  22  39  65  92 123 166 208 269 320 379
#     4  10  19  38  65  91 123 161 203 272 317 372
#     4  10  22  39  65  94 123 168 220 263 321 378
#     4  10  21  41  62  92 131 159 219 269 312 384
#     4  11  21  41  61  89 130 168 210 256 326 383
#     4   9  21  39  66  91 124 165 216 263 317 387
#     4  11  21  39  63  96 124 156 206 270 330 375
#     4  11  24  40  64  94 128 176 218 260 321 386
#
# _framework density 21.455932000000001
#
# number of rings (size 3 to 8) (size 9 to 14) (size 15 to 20)
#    0.000    1.750    3.750    0.375    0.000    3.500 
#    4.500    1.250    0.000    0.000    0.000    0.000 
#    0.000    0.000    0.000    0.000    0.000    0.000 
#
# Total GULP energy -396477.129911 kJ/mol
# GULP energy per Si atom -12389.910310 kJ/mol
# Density = 2.140710 g / cm^3
# Si number density = 21.455932 Si / 1000 Ang^3
#
#
#
# Elastic Constant Matrix: (Units=GPa)
#
#
# Indices 1 2 3 4 5 6 
#
# 1 57.5012 35.7828 41.5403 0.0000 -2.6750 0.0000
# 2 35.7828 120.4338 40.5728 0.0000 -3.2878 0.0000
# 3 41.5403 40.5728 120.2868 0.0000 -9.1510 0.0000
# 4 0.0000 0.0000 0.0000 -46.7468 0.0000 33.3691
# 5 -2.6750 -3.2878 -9.1510 0.0000 37.4720 0.0000
# 6 0.0000 0.0000 0.0000 33.3691 0.0000 -7.2969
#
#
#
# Elastic Compliance Matrix: (Units=1/GPa)
#
#
# Indices 1 2 3 4 5 6 
#
# 1 0.025835 -0.005270 -0.007173 0.000000 -0.000370 0.000000
# 2 -0.005270 0.010443 -0.001693 0.000000 0.000127 0.000000
# 3 -0.007173 -0.001693 0.011525 0.000000 0.002154 0.000000
# 4 0.000000 0.000000 0.000000 0.009447 0.000000 0.043202
# 5 -0.000370 0.000127 0.002154 0.000000 0.027197 0.000000
# 6 0.000000 0.000000 0.000000 0.043202 0.000000 0.060522
#
#
# Mechanical properties :
#
#
# Convention : Reuss Voigt Hill
#
# Bulk Modulus (GPa) = 51.19627 59.33485 55.26556
# Shear Modulus (GPa) = 27.81636 8.70739 18.26187
#
# Velocity S-wave (km/s) = 3.60452 2.01670 2.92059
# Velocity P-wave (km/s) = 6.42155 5.75648 6.09809
#
# Compressibility (1/GPa) = 0.01953267
#
# Stress axis : x y z
#
# Youngs Moduli (GPa) = 38.70776 95.75992 86.76545
#
# Poissons Ratio (x) = 0.50462 0.62233
# Poissons Ratio (y) = 0.20398 0.14688
# Poissons Ratio (z) = 0.27763 0.16211
#
# Static dielectric constant tensor:
#      x y z
#    x 3.632420 0.000000 -0.040190 
#    y 0.000000 4.086720 0.000000 
#    z -0.040190 0.000000 4.033790 
# 
# 
# High freq. dielectric constant tensor:
#      x y z
#    x 1.810920 0.000000 -0.008820 
#    y 0.000000 1.846490 0.000000 
#    z -0.008820 0.000000 1.854080 
# 
# From -- ./inp_files/66952.got.cif
#   From: 2010.06.25/outbox.cif.g09.slc.cpg/sg13_34_cif.got.tgz:66952.got - 2010.06.28 04:50:58.
