data_PCOD8118082
_publ_section_title
;
Structure prediction by ZEFSAII (Michael W. Deem and Ramdas Pophale) SiO2 
 PCOD8118082
Probable space group: P 2/C
;
_chemical_formula_sum "Si O2"
_cell_formula_units_Z 20
_cell_length_a 18.547517
_cell_length_b 7.961682
_cell_length_c 7.502741
_cell_angle_alpha 90.000000
_cell_angle_beta 49.745744
_cell_angle_gamma 90.000000
_cell_volume 845.551541
_symmetry_space_group_name_H-M "P 2/C"
_symmetry_group_IT_number 13
_symmetry_cell_setting 'monoclinic'
loop_
_space_group_symop_operation_xyz
x,y,z
-x,y,1/2-z
-x,-y,-z
x,-y,1/2+z
loop_
_atom_site_type_symbol
_atom_site_label
_atom_site_fract_x
_atom_site_fract_y
_atom_site_fract_z
Si Si1 0.813282 0.341822 0.132257
Si Si2 0.108581 0.311084 0.113876
Si Si3 0.406870 0.825036 0.994745
Si Si4 0.343777 0.843003 0.470517
Si Si5 0.215278 0.859760 0.156328
O O1 0.878459 0.289173 0.195515
O O2 0.700653 0.315685 0.354682
O O3 0.828778 0.533038 0.054288
O O4 0.838443 0.220853 0.926097
O O5 0.000000 0.347237 0.250000
O O6 0.144887 0.151688 0.939494
O O7 0.500000 0.752638 0.750000
O O8 0.406632 0.032601 0.993169
O O9 0.404262 0.775081 0.206902
O O10 0.313174 0.757549 0.044567
O O11 0.248517 0.948838 0.560712
#
# Coordination Sequence:
#
# PCOD8118082 Si02
#       5
#     4   4   4   4   4
#     4  12  22  41  65  91 129 160 215 260 312 379
#     4  12  26  42  65  92 122 174 217 256 314 382
#     4  10  19  35  64 100 127 161 212 253 314 381
#     4  10  19  37  63  93 126 164 202 262 315 357
#     4  10  22  39  63  95 128 164 205 260 321 360
#
# _framework density 23.653199999999998
#
# number of rings (size 3 to 8) (size 9 to 14) (size 15 to 20)
#    1.200    0.000    6.000    1.200    0.000    0.000 
#    0.000    2.000    0.000    6.000    0.000    0.000 
#    0.000    0.000    0.000    0.000    0.000    0.000 
#
# Total GULP energy -247764.996752 kJ/mol
# GULP energy per Si atom -12388.249838 kJ/mol
# Density = 2.359936 g / cm^3
# Si number density = 23.653200 Si / 1000 Ang^3
#
#
#
# Elastic Constant Matrix: (Units=GPa)
#
#
# Indices 1 2 3 4 5 6 
#
# 1 61.4237 -9.8564 18.0467 0.0000 11.7026 0.0000
# 2 -9.8564 36.2669 24.4779 0.0000 -6.9949 0.0000
# 3 18.0467 24.4779 117.1618 0.0000 3.8575 0.0000
# 4 0.0000 0.0000 0.0000 21.0360 0.0000 -5.6050
# 5 11.7026 -6.9949 3.8575 0.0000 38.5024 0.0000
# 6 0.0000 0.0000 0.0000 -5.6050 0.0000 18.9496
#
#
#
# Elastic Compliance Matrix: (Units=1/GPa)
#
#
# Indices 1 2 3 4 5 6 
#
# 1 0.019586 0.007531 -0.004454 0.000000 -0.004139 0.000000
# 2 0.007531 0.036717 -0.009005 0.000000 0.005284 0.000000
# 3 -0.004454 -0.009005 0.011149 0.000000 -0.001399 0.000000
# 4 0.000000 0.000000 0.000000 0.051605 0.000000 0.015264
# 5 -0.004139 0.005284 -0.001399 0.000000 0.028330 0.000000
# 6 0.000000 0.000000 0.000000 0.015264 0.000000 0.057287
#
#
# Mechanical properties :
#
#
# Convention : Reuss Voigt Hill
#
# Bulk Modulus (GPa) = 17.98712 31.13209 24.55960
# Shear Modulus (GPa) = 21.27105 27.84320 24.55713
#
# Velocity S-wave (km/s) = 3.00207 3.43467 3.22563
# Velocity P-wave (km/s) = 4.43143 5.37771 4.92734
#
# Compressibility (1/GPa) = 0.05559535
#
# Stress axis : x y z
#
# Youngs Moduli (GPa) = 51.05707 27.23536 89.69663
#
# Poissons Ratio (x) = -0.20511 0.39951
# Poissons Ratio (y) = -0.38450 0.80772
# Poissons Ratio (z) = 0.22741 0.24526
#
# Static dielectric constant tensor:
#      x y z
#    x 4.039630 0.000000 0.189420 
#    y 0.000000 3.804710 0.000000 
#    z 0.189420 0.000000 4.271100 
# 
# 
# High freq. dielectric constant tensor:
#      x y z
#    x 1.924750 0.000000 0.022620 
#    y 0.000000 1.885870 0.000000 
#    z 0.022620 0.000000 1.942520 
# 
# From -- ./inp_files/22657.got.cif
#   From: 2010.06.25/outbox.cif.g09.slc.cpg/sg13_12_cif.got.tgz:22657.got - 2010.06.28 04:50:58.
