data_PCOD8118484
_publ_section_title
;
Structure prediction by ZEFSAII (Michael W. Deem and Ramdas Pophale) SiO2 
 PCOD8118484
Probable space group: P 2/C
;
_chemical_formula_sum "Si O2"
_cell_formula_units_Z 32
_cell_length_a 20.434758
_cell_length_b 8.687041
_cell_length_c 31.862722
_cell_angle_alpha 90.000000
_cell_angle_beta 161.325892
_cell_angle_gamma 90.000000
_cell_volume 1811.027766
_symmetry_space_group_name_H-M "P 2/C"
_symmetry_group_IT_number 13
_symmetry_cell_setting 'monoclinic'
loop_
_space_group_symop_operation_xyz
x,y,z
-x,y,1/2-z
-x,-y,-z
x,-y,1/2+z
loop_
_atom_site_type_symbol
_atom_site_label
_atom_site_fract_x
_atom_site_fract_y
_atom_site_fract_z
Si Si1 0.431883 0.604835 0.083122
Si Si2 0.102930 0.319735 0.746891
Si Si3 0.318038 0.679718 0.464245
Si Si4 0.714065 0.591175 0.805256
Si Si5 0.968320 0.609380 0.617601
Si Si6 0.209777 0.177056 0.728372
Si Si7 0.281848 0.824213 0.764140
Si Si8 0.925204 0.405356 0.514909
O O1 0.507163 0.499096 0.167966
O O2 0.586441 0.737087 0.163536
O O3 0.401023 0.491219 0.024866
O O4 0.215741 0.678451 0.966025
O O5 0.260988 0.318162 0.880965
O O6 0.182516 0.193942 0.761904
O O7 0.875039 0.277796 0.623831
O O8 0.104485 0.488312 0.726572
O O9 0.494204 0.805049 0.579519
O O10 0.725477 0.751073 0.786742
O O11 0.892311 0.477262 0.900413
O O12 0.733311 0.624549 0.866950
O O13 0.113979 0.747096 0.692321
O O14 0.865306 0.521689 0.515595
O O15 0.005646 0.243755 0.582439
O O16 0.228927 0.001461 0.727024
#
# Coordination Sequence:
#
# PCOD8118484 Si02
#       8
#     4   4   4   4   4   4   4   4
#     4   9  18  32  50  71  94 125 166 206 243 287
#     4   9  18  34  54  72  92 124 168 212 247 284
#     4   9  18  34  54  72  92 124 168 212 247 284
#     4   8  15  30  50  69  91 123 163 201 234 274
#     4   9  18  32  50  71  94 125 166 206 243 287
#     4  10  20  31  47  74 105 133 157 192 247 303
#     4  10  20  31  47  74 105 133 157 192 247 303
#     4   8  15  30  50  69  91 123 163 201 234 274
#
# _framework density 17.669525
#
# number of rings (size 3 to 8) (size 9 to 14) (size 15 to 20)
#    0.000    3.000    0.000    2.250    0.000    4.500 
#    0.000    0.000    0.000    3.000    0.000    7.000 
#    0.000    0.000    0.000    0.000    0.000    0.000 
#
# Total GULP energy -396665.606068 kJ/mol
# GULP energy per Si atom -12395.800190 kJ/mol
# Density = 1.762931 g / cm^3
# Si number density = 17.669525 Si / 1000 Ang^3
#
#
#
# Elastic Constant Matrix: (Units=GPa)
#
#
# Indices 1 2 3 4 5 6 
#
# 1 68.3879 28.3830 39.4378 0.0000 -9.0507 0.0000
# 2 28.3830 94.1465 31.6577 0.0000 -0.6533 0.0000
# 3 39.4378 31.6577 89.4283 0.0000 -20.5833 0.0000
# 4 0.0000 0.0000 0.0000 12.4905 0.0000 1.0642
# 5 -9.0507 -0.6533 -20.5833 0.0000 35.6792 0.0000
# 6 0.0000 0.0000 0.0000 1.0642 0.0000 14.5914
#
#
#
# Elastic Compliance Matrix: (Units=1/GPa)
#
#
# Indices 1 2 3 4 5 6 
#
# 1 0.020641 -0.003650 -0.007635 0.000000 0.000765 0.000000
# 2 -0.003650 0.012913 -0.003598 0.000000 -0.002765 0.000000
# 3 -0.007635 -0.003598 0.017714 0.000000 0.008217 0.000000
# 4 0.000000 0.000000 0.000000 0.080561 0.000000 -0.005875
# 5 0.000765 -0.002765 0.008217 0.000000 0.032911 0.000000
# 6 0.000000 0.000000 0.000000 -0.005875 0.000000 0.068962
#
#
# Mechanical properties :
#
#
# Convention : Reuss Voigt Hill
#
# Bulk Modulus (GPa) = 46.50608 50.10218 48.30413
# Shear Modulus (GPa) = 18.47506 22.71785 20.59645
#
# Velocity S-wave (km/s) = 3.23706 3.58957 3.41786
# Velocity P-wave (km/s) = 6.35205 6.75253 6.55535
#
# Compressibility (1/GPa) = 0.02150256
#
# Stress axis : x y z
#
# Youngs Moduli (GPa) = 48.44636 77.44217 56.45335
#
# Poissons Ratio (x) = 0.28270 0.43099
# Poissons Ratio (y) = 0.17685 0.20311
# Poissons Ratio (z) = 0.36987 0.27862
#
# Static dielectric constant tensor:
#      x y z
#    x 3.373780 0.000000 -0.145070 
#    y 0.000000 2.910380 0.000000 
#    z -0.145070 0.000000 3.595060 
# 
# 
# High freq. dielectric constant tensor:
#      x y z
#    x 1.687390 0.000000 -0.000770 
#    y 0.000000 1.648080 0.000000 
#    z -0.000770 0.000000 1.688320 
# 
# From -- ./inp_files/97548.got.cif
#   From: 2010.06.25/outbox.cif.g09.slc.cpg/sg13_49_cif.got.tgz:97548.got - 2010.06.28 04:50:58.
