data_PCOD8118227
_publ_section_title
;
Structure prediction by ZEFSAII (Michael W. Deem and Ramdas Pophale) SiO2 
 PCOD8118227
Probable space group: P 2/C
;
_chemical_formula_sum "Si O2"
_cell_formula_units_Z 22
_cell_length_a 7.451330
_cell_length_b 15.609704
_cell_length_c 15.013296
_cell_angle_alpha 90.000000
_cell_angle_beta 143.651795
_cell_angle_gamma 90.000000
_cell_volume 1034.982160
_symmetry_space_group_name_H-M "P 2/C"
_symmetry_group_IT_number 13
_symmetry_cell_setting 'monoclinic'
loop_
_space_group_symop_operation_xyz
x,y,z
-x,y,1/2-z
-x,-y,-z
x,-y,1/2+z
loop_
_atom_site_type_symbol
_atom_site_label
_atom_site_fract_x
_atom_site_fract_y
_atom_site_fract_z
Si Si1 0.978711 0.314750 0.035698
Si Si2 0.720300 0.421118 0.077379
Si Si3 0.501122 0.713612 0.618955
Si Si4 0.500000 0.807871 0.250000
Si Si5 0.331405 0.115336 0.372095
Si Si6 0.696899 0.930490 0.181042
O O1 0.816629 0.400077 0.012832
O O2 0.196047 0.280144 0.200322
O O3 0.210009 0.333375 0.046705
O O4 0.720531 0.249725 0.899275
O O5 0.560962 0.335772 0.051164
O O6 0.000000 0.447497 0.250000
O O7 0.500000 0.500000 0.000000
O O8 0.433196 0.813306 0.570367
O O9 0.697873 0.870686 0.267882
O O10 0.413036 0.088300 0.504770
O O11 0.000000 0.157111 0.250000
O O12 0.322105 0.032210 0.303087
O O13 0.000000 0.908915 0.250000
#
# Coordination Sequence:
#
# PCOD8118227 Si02
#       6
#     4   4   4   2   4   4
#     4  10  23  37  58  88 115 150 191 235 291 352
#     4  10  22  41  64  88 114 149 192 238 294 356
#     4  10  20  40  61  81 115 153 192 239 288 347
#     4  12  22  36  58  90 124 154 198 248 296 344
#     4  10  19  37  60  80 114 162 202 240 291 346
#     4  10  22  36  53  84 121 155 198 249 292 340
#
# _framework density 21.256405000000001
#
# number of rings (size 3 to 8) (size 9 to 14) (size 15 to 20)
#    0.000    1.818    0.000    4.909    0.000    3.636 
#    0.000   12.727    0.000    0.000    0.000    0.000 
#    0.000    0.000    0.000    0.000    0.000    0.000 
#
# Total GULP energy -272610.359419 kJ/mol
# GULP energy per Si atom -12391.379974 kJ/mol
# Density = 2.120802 g / cm^3
# Si number density = 21.256405 Si / 1000 Ang^3
#
#
#
# Elastic Constant Matrix: (Units=GPa)
#
#
# Indices 1 2 3 4 5 6 
#
# 1 129.7733 70.5103 43.3462 0.0000 18.2506 0.0000
# 2 70.5103 127.8244 51.7624 0.0000 12.5912 0.0000
# 3 43.3462 51.7624 65.3333 0.0000 10.1726 0.0000
# 4 0.0000 0.0000 0.0000 21.7839 0.0000 6.2375
# 5 18.2506 12.5912 10.1726 0.0000 25.6303 0.0000
# 6 0.0000 0.0000 0.0000 6.2375 0.0000 41.6777
#
#
#
# Elastic Compliance Matrix: (Units=1/GPa)
#
#
# Indices 1 2 3 4 5 6 
#
# 1 0.012185 -0.004820 -0.003500 0.000000 -0.004920 0.000000
# 2 -0.004820 0.013540 -0.007491 0.000000 -0.000246 0.000000
# 3 -0.003500 -0.007491 0.024091 0.000000 -0.003389 0.000000
# 4 0.000000 0.000000 0.000000 0.047961 0.000000 -0.007178
# 5 -0.004920 -0.000246 -0.003389 0.000000 0.043986 0.000000
# 6 0.000000 0.000000 0.000000 -0.007178 0.000000 0.025068
#
#
# Mechanical properties :
#
#
# Convention : Reuss Voigt Hill
#
# Bulk Modulus (GPa) = 54.96174 72.68543 63.82358
# Shear Modulus (GPa) = 24.44781 28.30585 26.37683
#
# Velocity S-wave (km/s) = 3.39505 3.65312 3.52645
# Velocity P-wave (km/s) = 6.42504 7.21544 6.83168
#
# Compressibility (1/GPa) = 0.01819448
#
# Stress axis : x y z
#
# Youngs Moduli (GPa) = 82.06505 73.85662 41.50920
#
# Poissons Ratio (x) = 0.35597 0.14528
# Poissons Ratio (y) = 0.39554 0.31095
# Poissons Ratio (z) = 0.28722 0.55327
#
# Static dielectric constant tensor:
#      x y z
#    x 4.000270 0.000000 0.046450 
#    y 0.000000 3.791610 0.000000 
#    z 0.046450 0.000000 3.853750 
# 
# 
# High freq. dielectric constant tensor:
#      x y z
#    x 1.830430 0.000000 0.011110 
#    y 0.000000 1.824660 0.000000 
#    z 0.011110 0.000000 1.831310 
# 
# From -- ./inp_files/64702.got.cif
#   From: 2010.06.25/outbox.cif.g09.slc.cpg/sg13_33_cif.got.tgz:64702.got - 2010.06.28 04:50:58.
