data_PCOD8118826
_publ_section_title
;
Structure prediction by ZEFSAII (Michael W. Deem and Ramdas Pophale) SiO2 
 PCOD8118826
Probable space group: P 2/C
;
_chemical_formula_sum "Si O2"
_cell_formula_units_Z 24
_cell_length_a 5.210672
_cell_length_b 15.699141
_cell_length_c 13.955239
_cell_angle_alpha 90.000000
_cell_angle_beta 96.463990
_cell_angle_gamma 90.000000
_cell_volume 1134.324201
_symmetry_space_group_name_H-M "P 2/C"
_symmetry_group_IT_number 13
_symmetry_cell_setting 'monoclinic'
loop_
_space_group_symop_operation_xyz
x,y,z
-x,y,1/2-z
-x,-y,-z
x,-y,1/2+z
loop_
_atom_site_type_symbol
_atom_site_label
_atom_site_fract_x
_atom_site_fract_y
_atom_site_fract_z
Si Si1 0.936448 0.945233 0.405154
Si Si2 0.498244 0.697539 0.008302
Si Si3 0.340288 0.204495 0.329116
Si Si4 0.000000 0.645484 0.750000
Si Si5 0.000000 0.067215 0.250000
Si Si6 0.977853 0.593539 0.958237
Si Si7 0.552123 0.844858 0.140103
O O1 0.697794 0.884979 0.422816
O O2 0.186049 0.892295 0.379704
O O3 0.836888 0.006201 0.313882
O O4 0.000000 0.000000 0.500000
O O5 0.562237 0.744915 0.110386
O O6 0.499786 0.775271 0.931176
O O7 0.222987 0.650122 0.999285
O O8 0.721806 0.631608 0.994140
O O9 0.500000 0.162924 0.250000
O O10 0.239310 0.294917 0.285857
O O11 0.134524 0.129181 0.334939
O O12 0.941979 0.588007 0.841211
O O13 0.000000 0.500000 0.000000
O O14 0.500000 0.848198 0.250000
#
# Coordination Sequence:
#
# PCOD8118826 Si02
#       7
#     4   4   4   2   2   4   4
#     4  12  26  43  64  94 131 176 225 281 328 376
#     4  11  24  43  67  95 128 171 216 256 324 397
#     4  10  20  35  63  89 123 162 212 267 320 375
#     4   9  20  40  60  95 130 164 200 263 324 380
#     4  11  24  36  60  95 124 164 226 271 328 360
#     4  11  23  43  68 101 132 163 207 266 324 388
#     4  12  25  47  65  90 135 182 220 270 325 391
#
# _framework density 21.157973999999999
#
# number of rings (size 3 to 8) (size 9 to 14) (size 15 to 20)
#    0.000    1.000    3.333    3.000    4.667    0.000 
#    3.000    0.000    0.000    0.000    0.000    0.000 
#    0.000    0.000    0.000    0.000    0.000    0.000 
#
# Total GULP energy -297441.543201 kJ/mol
# GULP energy per Si atom -12393.397633 kJ/mol
# Density = 2.110982 g / cm^3
# Si number density = 21.157974 Si / 1000 Ang^3
#
#
#
# Elastic Constant Matrix: (Units=GPa)
#
#
# Indices 1 2 3 4 5 6 
#
# 1 98.5565 24.2404 9.4670 0.0000 7.9484 0.0000
# 2 24.2404 106.5311 47.1225 0.0000 2.0440 0.0000
# 3 9.4670 47.1225 79.8773 0.0000 1.2194 0.0000
# 4 0.0000 0.0000 0.0000 32.2585 0.0000 -0.8826
# 5 7.9484 2.0440 1.2194 0.0000 23.4569 0.0000
# 6 0.0000 0.0000 0.0000 -0.8826 0.0000 28.4492
#
#
#
# Elastic Compliance Matrix: (Units=1/GPa)
#
#
# Indices 1 2 3 4 5 6 
#
# 1 0.011035 -0.002555 0.000254 0.000000 -0.003530 0.000000
# 2 -0.002555 0.013305 -0.007548 0.000000 0.000099 0.000000
# 3 0.000254 -0.007548 0.016947 0.000000 -0.000309 0.000000
# 4 0.000000 0.000000 0.000000 0.031026 0.000000 0.000963
# 5 -0.003530 0.000099 -0.000309 0.000000 0.043835 0.000000
# 6 0.000000 0.000000 0.000000 0.000963 0.000000 0.035180
#
#
# Mechanical properties :
#
#
# Convention : Reuss Voigt Hill
#
# Bulk Modulus (GPa) = 46.32286 49.62498 47.97392
# Shear Modulus (GPa) = 28.05466 30.44192 29.24829
#
# Velocity S-wave (km/s) = 3.64533 3.79726 3.72207
# Velocity P-wave (km/s) = 6.29756 6.53689 6.41834
#
# Compressibility (1/GPa) = 0.02158761
#
# Stress axis : x y z
#
# Youngs Moduli (GPa) = 90.61828 75.15868 59.00877
#
# Poissons Ratio (x) = 0.19206 -0.01496
# Poissons Ratio (y) = 0.23157 0.44539
# Poissons Ratio (z) = -0.02297 0.56729
#
# Static dielectric constant tensor:
#      x y z
#    x 4.003840 0.000000 -0.075030 
#    y 0.000000 3.711790 0.000000 
#    z -0.075030 0.000000 4.131270 
# 
# 
# High freq. dielectric constant tensor:
#      x y z
#    x 1.833070 0.000000 -0.004790 
#    y 0.000000 1.822940 0.000000 
#    z -0.004790 0.000000 1.833650 
# 
# From -- ./inp_files/43889.got.cif
#   From: 2010.06.25/outbox.cif.g09.slc.cpg/sg13_22_cif.got.tgz:43889.got - 2010.06.28 04:50:58.
