data_PCOD8118472
_publ_section_title
;
Structure prediction by ZEFSAII (Michael W. Deem and Ramdas Pophale) SiO2 
 PCOD8118472
Probable space group: P 2/C
;
_chemical_formula_sum "Si O2"
_cell_formula_units_Z 32
_cell_length_a 22.129878
_cell_length_b 14.728056
_cell_length_c 9.594619
_cell_angle_alpha 90.000000
_cell_angle_beta 41.204301
_cell_angle_gamma 90.000000
_cell_volume 2060.013808
_symmetry_space_group_name_H-M "P 2/C"
_symmetry_group_IT_number 13
_symmetry_cell_setting 'monoclinic'
loop_
_space_group_symop_operation_xyz
x,y,z
-x,y,1/2-z
-x,-y,-z
x,-y,1/2+z
loop_
_atom_site_type_symbol
_atom_site_label
_atom_site_fract_x
_atom_site_fract_y
_atom_site_fract_z
Si Si1 0.250517 0.904420 0.980171
Si Si2 0.240368 0.083346 0.173824
Si Si3 0.565634 0.896707 0.251775
Si Si4 0.108839 0.252017 0.716415
Si Si5 0.450105 0.112514 0.204633
Si Si6 0.109310 0.579477 0.401079
Si Si7 0.891357 0.412951 0.280889
Si Si8 0.897264 0.756529 0.590579
O O1 0.169774 0.834261 0.145861
O O2 0.224879 0.988953 0.122164
O O3 0.255755 0.937390 0.810738
O O4 0.346469 0.854061 0.854102
O O5 0.154488 0.148673 0.295612
O O6 0.330125 0.133921 0.956124
O O7 0.500000 0.854893 0.250000
O O8 0.524729 0.856649 0.462937
O O9 0.560946 0.005093 0.261419
O O10 0.142228 0.332464 0.758905
O O11 0.120560 0.281689 0.534507
O O12 0.004341 0.223857 0.928266
O O13 0.500000 0.156766 0.250000
O O14 0.148298 0.492739 0.248978
O O15 0.148020 0.580694 0.492744
O O16 0.000152 0.577228 0.595728
O O17 0.861846 0.317399 0.263324
#
# Coordination Sequence:
#
# PCOD8118472 Si02
#       8
#     4   4   4   4   4   4   4   4
#     4  10  20  31  43  63  87 119 154 185 220 260
#     4  10  20  30  44  63  87 119 154 185 219 260
#     4   9  15  27  43  61  82 107 138 183 231 267
#     4   9  18  32  46  60  89 122 151 184 216 251
#     4   9  17  27  43  63  82 106 140 183 230 269
#     4   9  16  27  45  67  87 112 141 180 224 264
#     4   9  16  27  45  67  88 110 143 179 223 265
#     4   9  18  32  45  62  88 121 153 183 214 255
#
# _framework density 15.533878
#
# number of rings (size 3 to 8) (size 9 to 14) (size 15 to 20)
#    0.000    2.750    1.250    0.750    5.250    4.500 
#    0.000    0.000    0.000    0.000    0.000    0.000 
#    0.000    2.000    0.000    0.125    0.000    0.000 
#
# Total GULP energy -396579.057705 kJ/mol
# GULP energy per Si atom -12393.095553 kJ/mol
# Density = 1.549852 g / cm^3
# Si number density = 15.533878 Si / 1000 Ang^3
#
#
#
# Elastic Constant Matrix: (Units=GPa)
#
#
# Indices 1 2 3 4 5 6 
#
# 1 99.3413 48.4032 50.9800 0.0000 16.6338 0.0000
# 2 48.4032 69.7564 44.8510 0.0000 8.2553 0.0000
# 3 50.9800 44.8510 86.4147 0.0000 14.5881 0.0000
# 4 0.0000 0.0000 0.0000 11.6055 0.0000 11.4833
# 5 16.6338 8.2553 14.5881 0.0000 28.6404 0.0000
# 6 0.0000 0.0000 0.0000 11.4833 0.0000 6.0698
#
#
#
# Elastic Compliance Matrix: (Units=1/GPa)
#
#
# Indices 1 2 3 4 5 6 
#
# 1 0.017656 -0.008260 -0.005252 0.000000 -0.005199 0.000000
# 2 -0.008260 0.025388 -0.008620 0.000000 0.001870 0.000000
# 3 -0.005252 -0.008620 0.019923 0.000000 -0.004613 0.000000
# 4 0.000000 0.000000 0.000000 -0.098818 0.000000 0.186952
# 5 -0.005199 0.001870 -0.004613 0.000000 0.039746 0.000000
# 6 0.000000 0.000000 0.000000 0.186952 0.000000 -0.188940
#
#
# Mechanical properties :
#
#
# Convention : Reuss Voigt Hill
#
# Bulk Modulus (GPa) = 53.46193 60.44233 56.95213
# Shear Modulus (GPa) = -37.16133 16.68167 -10.23983
#
# Velocity S-wave (km/s) = -4.89640 3.28058 -2.57026
# Velocity P-wave (km/s) = 1.58896 7.30370 5.28530
#
# Compressibility (1/GPa) = 0.01870490
#
# Stress axis : x y z
#
# Youngs Moduli (GPa) = 56.63700 39.38906 50.19347
#
# Poissons Ratio (x) = 0.32534 0.26360
# Poissons Ratio (y) = 0.46780 0.43265
# Poissons Ratio (z) = 0.29744 0.33952
#
# Static dielectric constant tensor:
#      x y z
#    x 3.140030 0.000000 0.197010 
#    y 0.000000 2.657790 0.000000 
#    z 0.197010 0.000000 3.014080 
# 
# 
# High freq. dielectric constant tensor:
#      x y z
#    x 1.596720 0.000000 0.022660 
#    y 0.000000 1.556300 0.000000 
#    z 0.022660 0.000000 1.591280 
# 
# From -- ./inp_files/23549.got.cif
#   From: 2010.06.25/outbox.cif.g09.slc.cpg/sg13_12_cif.got.tgz:23549.got - 2010.06.28 04:50:58.
