data_PCOD8118764
_publ_section_title
;
Structure prediction by ZEFSAII (Michael W. Deem and Ramdas Pophale) SiO2 
 PCOD8118764
Probable space group: P 2/C
;
_chemical_formula_sum "Si O2"
_cell_formula_units_Z 24
_cell_length_a 14.556471
_cell_length_b 10.274981
_cell_length_c 16.603744
_cell_angle_alpha 90.000000
_cell_angle_beta 32.398075
_cell_angle_gamma 90.000000
_cell_volume 1330.591026
_symmetry_space_group_name_H-M "P 2/C"
_symmetry_group_IT_number 13
_symmetry_cell_setting 'monoclinic'
loop_
_space_group_symop_operation_xyz
x,y,z
-x,y,1/2-z
-x,-y,-z
x,-y,1/2+z
loop_
_atom_site_type_symbol
_atom_site_label
_atom_site_fract_x
_atom_site_fract_y
_atom_site_fract_z
Si Si1 0.816309 0.527189 0.920749
Si Si2 0.663731 0.762059 0.685775
Si Si3 0.817699 0.220906 0.913906
Si Si4 0.488479 0.866864 0.961205
Si Si5 0.493420 0.383218 0.566573
Si Si6 0.193334 0.511685 0.387481
O O1 0.785634 0.374757 0.925667
O O2 0.000000 0.572315 0.750000
O O3 0.660104 0.608830 0.999744
O O4 0.815234 0.560713 0.015259
O O5 0.500000 0.735643 0.750000
O O6 0.806143 0.815849 0.517871
O O7 0.632059 0.859685 0.783766
O O8 0.716622 0.627417 0.687389
O O9 0.000000 0.174538 0.750000
O O10 0.690451 0.140244 0.952607
O O11 0.505912 0.753132 0.012628
O O12 0.500000 0.000000 0.000000
O O13 0.500000 0.500000 0.500000
O O14 0.311917 0.388553 0.748991
O O15 0.000000 0.500000 0.500000
#
# Coordination Sequence:
#
# PCOD8118764 Si02
#       6
#     4   4   4   4   4   4
#     4  10  20  35  57  92 119 149 190 245 298 349
#     4   9  18  36  58  81 116 151 194 234 287 348
#     4   9  18  35  62  84 111 151 202 233 283 358
#     4  11  23  38  58  86 116 158 199 237 292 349
#     4  12  20  36  59  85 118 149 192 245 296 342
#     4  11  21  32  58  92 117 148 193 245 297 348
#
# _framework density 18.037099000000001
#
# number of rings (size 3 to 8) (size 9 to 14) (size 15 to 20)
#    0.000    1.667    3.333    3.500    4.667    0.000 
#    0.000    6.667    0.000    0.000    0.000    0.000 
#    0.000    0.000    0.000    0.000    0.000    0.000 
#
# Total GULP energy -297515.731878 kJ/mol
# GULP energy per Si atom -12396.488828 kJ/mol
# Density = 1.799605 g / cm^3
# Si number density = 18.037099 Si / 1000 Ang^3
#
#
#
# Elastic Constant Matrix: (Units=GPa)
#
#
# Indices 1 2 3 4 5 6 
#
# 1 115.9968 53.5097 61.0568 0.0000 17.3656 0.0000
# 2 53.5097 92.5960 43.9211 0.0000 15.5204 0.0000
# 3 61.0568 43.9211 165.4456 0.0000 20.5072 0.0000
# 4 0.0000 0.0000 0.0000 14.5207 0.0000 6.3154
# 5 17.3656 15.5204 20.5072 0.0000 29.9656 0.0000
# 6 0.0000 0.0000 0.0000 6.3154 0.0000 28.3156
#
#
#
# Elastic Compliance Matrix: (Units=1/GPa)
#
#
# Indices 1 2 3 4 5 6 
#
# 1 0.013288 -0.005798 -0.003040 0.000000 -0.002617 0.000000
# 2 -0.005798 0.015478 -0.001521 0.000000 -0.003616 0.000000
# 3 -0.003040 -0.001521 0.007926 0.000000 -0.002875 0.000000
# 4 0.000000 0.000000 0.000000 0.076265 0.000000 -0.017010
# 5 -0.002617 -0.003616 -0.002875 0.000000 0.038728 0.000000
# 6 0.000000 0.000000 0.000000 -0.017010 0.000000 0.039110
#
#
# Mechanical properties :
#
#
# Convention : Reuss Voigt Hill
#
# Bulk Modulus (GPa) = 62.60462 76.77928 69.69195
# Shear Modulus (GPa) = 23.05871 28.93042 25.99457
#
# Velocity S-wave (km/s) = 3.57936 4.00927 3.80040
# Velocity P-wave (km/s) = 7.20184 8.00576 7.61442
#
# Compressibility (1/GPa) = 0.01597326
#
# Stress axis : x y z
#
# Youngs Moduli (GPa) = 75.25838 64.60927 126.16149
#
# Poissons Ratio (x) = 0.37461 0.38355
# Poissons Ratio (y) = 0.43635 0.19189
# Poissons Ratio (z) = 0.22880 0.09827
#
# Static dielectric constant tensor:
#      x y z
#    x 3.954080 0.000000 -0.040280 
#    y 0.000000 2.826320 0.000000 
#    z -0.040280 0.000000 4.053150 
# 
# 
# High freq. dielectric constant tensor:
#      x y z
#    x 1.711910 0.000000 0.011500 
#    y 0.000000 1.642490 0.000000 
#    z 0.011500 0.000000 1.722660 
# 
# From -- ./inp_files/46539.got.cif
#   From: 2010.06.25/outbox.cif.g09.slc.cpg/sg13_24_cif.got.tgz:46539.got - 2010.06.28 04:50:58.
