data_PCOD8118824
_publ_section_title
;
Structure prediction by ZEFSAII (Michael W. Deem and Ramdas Pophale) SiO2 
 PCOD8118824
Probable space group: P 2/C
;
_chemical_formula_sum "Si O2"
_cell_formula_units_Z 24
_cell_length_a 25.940159
_cell_length_b 5.322415
_cell_length_c 17.774754
_cell_angle_alpha 90.000000
_cell_angle_beta 154.385739
_cell_angle_gamma 90.000000
_cell_volume 1060.914664
_symmetry_space_group_name_H-M "P 2/C"
_symmetry_group_IT_number 13
_symmetry_cell_setting 'monoclinic'
loop_
_space_group_symop_operation_xyz
x,y,z
-x,y,1/2-z
-x,-y,-z
x,-y,1/2+z
loop_
_atom_site_type_symbol
_atom_site_label
_atom_site_fract_x
_atom_site_fract_y
_atom_site_fract_z
Si Si1 0.327636 0.470271 0.707884
Si Si2 0.256399 0.344258 0.958248
Si Si3 0.007179 0.705970 0.350150
Si Si4 0.099391 0.792743 0.946226
Si Si5 0.436266 0.201654 0.469336
Si Si6 0.628514 0.844063 0.452816
O O1 0.283450 0.640511 0.581966
O O2 0.235605 0.235794 0.596226
O O3 0.459656 0.379393 0.861805
O O4 0.335387 0.642254 0.792407
O O5 0.289051 0.601931 0.957454
O O6 0.325350 0.101889 0.020784
O O7 0.116489 0.286970 0.767981
O O8 0.000000 0.692737 0.250000
O O9 0.074591 0.452369 0.465082
O O10 0.085350 0.951389 0.475813
O O11 0.000000 0.807397 0.750000
O O12 0.373407 0.093414 0.460697
O O13 0.500000 0.000000 0.500000
O O14 0.500000 0.781094 0.250000
#
# Coordination Sequence:
#
# PCOD8118824 Si02
#       6
#     4   4   4   4   4   4
#     4  11  24  42  70 103 136 179 234 287 344 412
#     4  12  24  42  69 104 136 175 227 296 341 402
#     4  10  20  35  63 100 129 166 222 284 333 390
#     4  10  20  35  64 101 126 167 231 286 327 388
#     4  11  27  45  68  99 142 189 229 279 349 429
#     4  12  26  42  67  98 142 181 232 283 350 403
#
# _framework density 22.621988000000002
#
# number of rings (size 3 to 8) (size 9 to 14) (size 15 to 20)
#    0.000    1.000    5.000    2.500    9.333    0.000 
#    0.000    0.000    0.000    6.000    0.000    0.000 
#    0.000    0.000    0.000    0.000    0.000    0.000 
#
# Total GULP energy -297467.560551 kJ/mol
# GULP energy per Si atom -12394.481690 kJ/mol
# Density = 2.257050 g / cm^3
# Si number density = 22.621988 Si / 1000 Ang^3
#
#
#
# Elastic Constant Matrix: (Units=GPa)
#
#
# Indices 1 2 3 4 5 6 
#
# 1 116.5634 49.1386 38.3489 0.0000 13.4640 0.0000
# 2 49.1386 180.3860 23.6730 0.0000 15.2974 0.0000
# 3 38.3489 23.6730 48.8281 0.0000 10.7623 0.0000
# 4 0.0000 0.0000 0.0000 -154.8844 0.0000 -70.6673
# 5 13.4640 15.2974 10.7623 0.0000 26.1545 0.0000
# 6 0.0000 0.0000 0.0000 -70.6673 0.0000 -3.8306
#
#
#
# Elastic Compliance Matrix: (Units=1/GPa)
#
#
# Indices 1 2 3 4 5 6 
#
# 1 0.012425 -0.002145 -0.008342 0.000000 -0.001709 0.000000
# 2 -0.002145 0.006444 -0.000937 0.000000 -0.002279 0.000000
# 3 -0.008342 -0.000937 0.029054 0.000000 -0.007113 0.000000
# 4 0.000000 0.000000 0.000000 0.000870 0.000000 -0.016059
# 5 -0.001709 -0.002279 -0.007113 0.000000 0.043374 0.000000
# 6 0.000000 0.000000 0.000000 -0.016059 0.000000 0.035196
#
#
# Mechanical properties :
#
#
# Convention : Reuss Voigt Hill
#
# Bulk Modulus (GPa) = 39.88066 63.12204 51.50135
# Shear Modulus (GPa) = 31.53169 -10.87095 10.33037
#
# Velocity S-wave (km/s) = 3.73748 -2.19452 2.13926
# Velocity P-wave (km/s) = 6.02432 4.64137 5.37749
#
# Compressibility (1/GPa) = 0.02507481
#
# Stress axis : x y z
#
# Youngs Moduli (GPa) = 80.48205 155.17624 34.41901
#
# Poissons Ratio (x) = 0.33286 0.28712
# Poissons Ratio (y) = 0.17264 0.03226
# Poissons Ratio (z) = 0.67137 0.14545
#
# Static dielectric constant tensor:
#      x y z
#    x 3.993190 0.000000 0.238800 
#    y 0.000000 5.345160 0.000000 
#    z 0.238800 0.000000 4.071620 
# 
# 
# High freq. dielectric constant tensor:
#      x y z
#    x 1.866960 0.000000 0.028520 
#    y 0.000000 1.914740 0.000000 
#    z 0.028520 0.000000 1.883160 
# 
# From -- ./inp_files/70954.got.cif
#   From: 2010.06.25/outbox.cif.g09.slc.cpg/sg13_36_cif.got.tgz:70954.got - 2010.06.28 04:50:58.
