data_PCOD8118193
_publ_section_title
;
Structure prediction by ZEFSAII (Michael W. Deem and Ramdas Pophale) SiO2 
 PCOD8118193
Probable space group: P 2/C
;
_chemical_formula_sum "Si O2"
_cell_formula_units_Z 20
_cell_length_a 13.247884
_cell_length_b 8.890407
_cell_length_c 10.589892
_cell_angle_alpha 90.000000
_cell_angle_beta 127.013904
_cell_angle_gamma 90.000000
_cell_volume 995.930127
_symmetry_space_group_name_H-M "P 2/C"
_symmetry_group_IT_number 13
_symmetry_cell_setting 'monoclinic'
loop_
_space_group_symop_operation_xyz
x,y,z
-x,y,1/2-z
-x,-y,-z
x,-y,1/2+z
loop_
_atom_site_type_symbol
_atom_site_label
_atom_site_fract_x
_atom_site_fract_y
_atom_site_fract_z
Si Si1 0.324471 0.754971 0.722166
Si Si2 0.920245 0.669210 0.568948
Si Si3 0.335824 0.744666 0.014619
Si Si4 0.500000 0.002701 0.750000
Si Si5 0.935740 0.312817 0.572699
Si Si6 0.500000 0.496445 0.250000
O O1 0.200437 0.767036 0.541110
O O2 0.401223 0.604203 0.751284
O O3 0.411018 0.900559 0.769820
O O4 0.278206 0.744957 0.831306
O O5 0.778892 0.734891 0.472270
O O6 0.913633 0.490030 0.560725
O O7 0.000000 0.724199 0.750000
O O8 0.977764 0.732133 0.481801
O O9 0.414590 0.896222 0.094662
O O10 0.427148 0.600988 0.095327
O O11 0.000000 0.254091 0.750000
#
# Coordination Sequence:
#
# PCOD8118193 Si02
#       6
#     4   4   4   2   4   2
#     4  11  21  42  62  88 128 163 205 261 304 368
#     4  10  19  36  63  92 123 158 202 258 317 363
#     4  11  21  41  63  91 123 164 208 258 304 372
#     4  10  26  42  58  88 126 172 210 246 308 362
#     4  10  21  36  61  96 124 156 199 260 318 369
#     4  10  22  34  62  98 116 160 208 254 318 364
#
# _framework density 20.081728999999999
#
# number of rings (size 3 to 8) (size 9 to 14) (size 15 to 20)
#    0.000    1.600    4.000    1.200    0.000    0.000 
#   18.000    2.000    0.000    0.000    0.000    0.000 
#    0.000    0.000    0.000    0.000    0.000    0.000 
#
# Total GULP energy -248067.479118 kJ/mol
# GULP energy per Si atom -12403.373956 kJ/mol
# Density = 2.003602 g / cm^3
# Si number density = 20.081729 Si / 1000 Ang^3
#
#
#
# Elastic Constant Matrix: (Units=GPa)
#
#
# Indices 1 2 3 4 5 6 
#
# 1 149.0040 41.4636 71.6674 0.0000 4.5857 0.0000
# 2 41.4636 87.0579 38.3164 0.0000 7.9458 0.0000
# 3 71.6674 38.3164 150.5279 0.0000 1.9583 0.0000
# 4 0.0000 0.0000 0.0000 7.3148 0.0000 -0.0633
# 5 4.5857 7.9458 1.9583 0.0000 41.9348 0.0000
# 6 0.0000 0.0000 0.0000 -0.0633 0.0000 12.4226
#
#
#
# Elastic Compliance Matrix: (Units=1/GPa)
#
#
# Indices 1 2 3 4 5 6 
#
# 1 0.009271 -0.002754 -0.003709 0.000000 -0.000319 0.000000
# 2 -0.002754 0.013979 -0.002218 0.000000 -0.002244 0.000000
# 3 -0.003709 -0.002218 0.008968 0.000000 0.000407 0.000000
# 4 0.000000 0.000000 0.000000 0.136714 0.000000 0.000697
# 5 -0.000319 -0.002244 0.000407 0.000000 0.024288 0.000000
# 6 0.000000 0.000000 0.000000 0.000697 0.000000 0.080502
#
#
# Mechanical properties :
#
#
# Convention : Reuss Voigt Hill
#
# Bulk Modulus (GPa) = 67.30836 76.60938 71.95887
# Shear Modulus (GPa) = 16.88973 28.01060 22.45017
#
# Velocity S-wave (km/s) = 2.90323 3.73879 3.34719
# Velocity P-wave (km/s) = 6.69540 7.54120 7.13085
#
# Compressibility (1/GPa) = 0.01485699
#
# Stress axis : x y z
#
# Youngs Moduli (GPa) = 107.85883 71.53406 111.50270
#
# Poissons Ratio (x) = 0.19702 0.41356
# Poissons Ratio (y) = 0.29707 0.24730
# Poissons Ratio (z) = 0.40004 0.15865
#
# Static dielectric constant tensor:
#      x y z
#    x 3.670660 0.000000 0.055620 
#    y 0.000000 3.467440 0.000000 
#    z 0.055620 0.000000 3.673180 
# 
# 
# High freq. dielectric constant tensor:
#      x y z
#    x 1.791730 0.000000 0.008500 
#    y 0.000000 1.761320 0.000000 
#    z 0.008500 0.000000 1.790190 
# 
# From -- ./inp_files/14874.got.cif
#   From: 2010.06.25/outbox.cif.g09.slc.cpg/sg13_8_cif.got.tgz:14874.got - 2010.06.28 04:50:58.
