data_PCOD8119635
_publ_section_title
;
Structure prediction by ZEFSAII (Michael W. Deem and Ramdas Pophale) SiO2 
 PCOD8119635
Probable space group: P 2/C
;
_chemical_formula_sum "Si O2"
_cell_formula_units_Z 24
_cell_length_a 18.681608
_cell_length_b 5.230595
_cell_length_c 18.580684
_cell_angle_alpha 90.000000
_cell_angle_beta 35.424549
_cell_angle_gamma 90.000000
_cell_volume 1052.393553
_symmetry_space_group_name_H-M "P 2/C"
_symmetry_group_IT_number 13
_symmetry_cell_setting 'monoclinic'
loop_
_space_group_symop_operation_xyz
x,y,z
-x,y,1/2-z
-x,-y,-z
x,-y,1/2+z
loop_
_atom_site_type_symbol
_atom_site_label
_atom_site_fract_x
_atom_site_fract_y
_atom_site_fract_z
Si Si1 0.592157 0.380947 0.485738
Si Si2 0.615319 0.552901 0.615210
Si Si3 0.477533 0.876472 0.625090
Si Si4 0.224060 0.257031 0.394007
Si Si5 0.839328 0.548564 0.703501
Si Si6 0.020249 0.965160 0.400337
O O1 0.656400 0.387041 0.512763
O O2 0.494965 0.622998 0.558415
O O3 0.698834 0.402834 0.340153
O O4 0.517078 0.116455 0.545130
O O5 0.500000 0.415920 0.750000
O O6 0.562588 0.825301 0.626222
O O7 0.726161 0.575046 0.580720
O O8 0.334719 0.907203 0.766973
O O9 0.158248 0.432301 0.386300
O O10 0.117741 0.081026 0.517879
O O11 0.919609 0.771611 0.677143
O O12 0.888248 0.274158 0.689968
O O13 0.000000 0.000000 0.500000
#
# Coordination Sequence:
#
# PCOD8119635 Si02
#       6
#     4   4   4   4   4   4
#     4  10  21  40  60  87 130 153 192 251 312 353
#     4   8  19  40  57  90 117 159 195 244 300 366
#     4   9  21  37  60  87 121 153 197 247 305 357
#     4  10  20  40  64  92 115 164 205 250 295 367
#     4  11  23  40  63  90 125 160 202 255 302 350
#     4  10  22  41  61  89 122 161 206 250 295 354
#
# _framework density 22.805154000000002
#
# number of rings (size 3 to 8) (size 9 to 14) (size 15 to 20)
#    1.000    1.333    0.000    3.000    0.000    7.333 
#    9.000    0.833    0.000    0.000    0.000    0.000 
#    0.000    0.000    0.000    0.000    0.000    0.000 
#
# Total GULP energy -297351.480177 kJ/mol
# GULP energy per Si atom -12389.645007 kJ/mol
# Density = 2.275325 g / cm^3
# Si number density = 22.805154 Si / 1000 Ang^3
#
#
#
# Elastic Constant Matrix: (Units=GPa)
#
#
# Indices 1 2 3 4 5 6 
#
# 1 95.6640 26.8769 25.0114 0.0000 -13.3967 0.0000
# 2 26.8769 133.2926 34.7253 0.0000 -3.8124 0.0000
# 3 25.0114 34.7253 92.2370 0.0000 -15.2960 0.0000
# 4 0.0000 0.0000 0.0000 34.2148 0.0000 1.1370
# 5 -13.3967 -3.8124 -15.2960 0.0000 35.1198 0.0000
# 6 0.0000 0.0000 0.0000 1.1370 0.0000 14.5530
#
#
#
# Elastic Compliance Matrix: (Units=1/GPa)
#
#
# Indices 1 2 3 4 5 6 
#
# 1 0.011968 -0.001795 -0.001988 0.000000 0.003504 0.000000
# 2 -0.001795 0.008595 -0.002919 0.000000 -0.001023 0.000000
# 3 -0.001988 -0.002919 0.013259 0.000000 0.004699 0.000000
# 4 0.000000 0.000000 0.000000 0.029303 0.000000 -0.002289
# 5 0.003504 -0.001023 0.004699 0.000000 0.031747 0.000000
# 6 0.000000 0.000000 0.000000 -0.002289 0.000000 0.068893
#
#
# Mechanical properties :
#
#
# Convention : Reuss Voigt Hill
#
# Bulk Modulus (GPa) = 48.97621 54.93563 51.95592
# Shear Modulus (GPa) = 27.17741 32.41618 29.79680
#
# Velocity S-wave (km/s) = 3.45588 3.77429 3.61859
# Velocity P-wave (km/s) = 6.11937 6.56773 6.34751
#
# Compressibility (1/GPa) = 0.02041808
#
# Stress axis : x y z
#
# Youngs Moduli (GPa) = 83.55475 116.34130 75.42016
#
# Poissons Ratio (x) = 0.20883 0.14997
# Poissons Ratio (y) = 0.14998 0.22014
# Poissons Ratio (z) = 0.16614 0.33959
#
# Static dielectric constant tensor:
#      x y z
#    x 4.660040 0.000000 -0.655210 
#    y 0.000000 4.283800 0.000000 
#    z -0.655210 0.000000 4.841700 
# 
# 
# High freq. dielectric constant tensor:
#      x y z
#    x 1.896610 0.000000 -0.005760 
#    y 0.000000 1.882320 0.000000 
#    z -0.005760 0.000000 1.896300 
# 
# From -- ./inp_files/81210.got.cif
#   From: 2010.06.25/outbox.cif.g09.slc.cpg/sg13_41_cif.got.tgz:81210.got - 2010.06.28 04:50:58.
