data_PCOD8119930
_publ_section_title
;
Structure prediction by ZEFSAII (Michael W. Deem and Ramdas Pophale) SiO2 
 PCOD8119930
Probable space group: P 2/C
;
_chemical_formula_sum "Si O2"
_cell_formula_units_Z 30
_cell_length_a 10.825905
_cell_length_b 18.923221
_cell_length_c 8.880270
_cell_angle_alpha 90.000000
_cell_angle_beta 61.395141
_cell_angle_gamma 90.000000
_cell_volume 1597.171146
_symmetry_space_group_name_H-M "P 2/C"
_symmetry_group_IT_number 13
_symmetry_cell_setting 'monoclinic'
loop_
_space_group_symop_operation_xyz
x,y,z
-x,y,1/2-z
-x,-y,-z
x,-y,1/2+z
loop_
_atom_site_type_symbol
_atom_site_label
_atom_site_fract_x
_atom_site_fract_y
_atom_site_fract_z
Si Si1 0.500000 0.198005 0.250000
Si Si2 0.615925 0.463987 0.784427
Si Si3 0.662694 0.953238 0.185104
Si Si4 0.660118 0.586238 0.959187
Si Si5 0.133562 0.153764 0.076359
Si Si6 0.285001 0.905782 0.007303
Si Si7 0.259213 0.267888 0.221053
Si Si8 0.055191 0.204789 0.565757
O O1 0.407216 0.151227 0.416072
O O2 0.411893 0.247468 0.190783
O O3 0.500000 0.507956 0.750000
O O4 0.706364 0.516957 0.834617
O O5 0.712392 0.422155 0.604466
O O6 0.513366 0.410381 0.941317
O O7 0.500000 0.934957 0.250000
O O8 0.705392 0.938700 0.332225
O O9 0.756357 0.908571 0.014290
O O10 0.694269 0.034846 0.132341
O O11 0.736537 0.653115 0.843853
O O12 0.212559 0.216040 0.116310
O O13 0.000000 0.125232 0.250000
O O14 0.082273 0.183622 0.947467
O O15 0.137503 0.867371 0.060654
O O16 0.148372 0.261994 0.422478
O O17 0.000000 0.241926 0.750000
#
# Coordination Sequence:
#
# PCOD8119930 Si02
#       8
#     2   4   4   4   4   4   4   4
#     4  10  22  38  52  82 124 150 188 240 308 370
#     4   7  14  28  50  76 129 147 182 224 268 337
#     4  12  24  38  62  84 118 149 191 252 317 364
#     4   8  15  30  49  85 114 161 185 224 277 337
#     4  10  23  41  60  82 112 155 201 250 291 355
#     4  11  24  38  59  82 111 153 193 250 308 364
#     4  10  21  35  61  83 116 157 195 233 293 357
#     4  10  21  43  57  79 112 148 208 252 286 343
#
# _framework density 18.783207999999998
#
# number of rings (size 3 to 8) (size 9 to 14) (size 15 to 20)
#    0.800    1.333    2.000    1.200    6.533    1.067 
#    7.200    1.333    0.000    0.000    0.000   12.133 
#    0.000    0.000    0.000    0.000    0.000    0.000 
#
# Total GULP energy -371684.328914 kJ/mol
# GULP energy per Si atom -12389.477630 kJ/mol
# Density = 1.874046 g / cm^3
# Si number density = 18.783208 Si / 1000 Ang^3
#
#
#
# Elastic Constant Matrix: (Units=GPa)
#
#
# Indices 1 2 3 4 5 6 
#
# 1 84.7509 24.4701 33.9249 0.0000 2.6581 0.0000
# 2 24.4701 82.5555 51.5359 0.0000 -6.2593 0.0000
# 3 33.9249 51.5359 118.5686 0.0000 10.3622 0.0000
# 4 0.0000 0.0000 0.0000 31.0976 0.0000 3.9579
# 5 2.6581 -6.2593 10.3622 0.0000 25.9893 0.0000
# 6 0.0000 0.0000 0.0000 3.9579 0.0000 2.1245
#
#
#
# Elastic Compliance Matrix: (Units=1/GPa)
#
#
# Indices 1 2 3 4 5 6 
#
# 1 0.013627 -0.002354 -0.002802 0.000000 -0.000843 0.000000
# 2 -0.002354 0.018413 -0.008018 0.000000 0.007872 0.000000
# 3 -0.002802 -0.008018 0.013329 0.000000 -0.006959 0.000000
# 4 0.000000 0.000000 0.000000 0.042151 0.000000 -0.078529
# 5 -0.000843 0.007872 -0.006959 0.000000 0.043234 0.000000
# 6 0.000000 0.000000 0.000000 -0.078529 0.000000 0.617007
#
#
# Mechanical properties :
#
#
# Convention : Reuss Voigt Hill
#
# Bulk Modulus (GPa) = 52.57282 56.19298 54.38290
# Shear Modulus (GPa) = 6.40658 23.57188 14.98923
#
# Velocity S-wave (km/s) = 1.84884 3.54636 2.82798
# Velocity P-wave (km/s) = 5.71031 6.83743 6.29913
#
# Compressibility (1/GPa) = 0.01902124
#
# Stress axis : x y z
#
# Youngs Moduli (GPa) = 73.38348 54.31068 75.02640
#
# Poissons Ratio (x) = 0.12784 0.21024
# Poissons Ratio (y) = 0.17273 0.60152
# Poissons Ratio (z) = 0.20563 0.43544
#
# Static dielectric constant tensor:
#      x y z
#    x 3.353810 0.000000 0.077470 
#    y 0.000000 3.075110 0.000000 
#    z 0.077470 0.000000 3.684310 
# 
# 
# High freq. dielectric constant tensor:
#      x y z
#    x 1.711180 0.000000 0.013070 
#    y 0.000000 1.697240 0.000000 
#    z 0.013070 0.000000 1.747900 
# 
# From -- ./inp_files/17154.got.cif
#   From: 2010.06.25/outbox.cif.g09.slc.cpg/sg13_9_cif.got.tgz:17154.got - 2010.06.28 04:50:58.
