data_PCOD8119311
_publ_section_title
;
Structure prediction by ZEFSAII (Michael W. Deem and Ramdas Pophale) SiO2 
 PCOD8119311
Probable space group: P 2/C
;
_chemical_formula_sum "Si O2"
_cell_formula_units_Z 22
_cell_length_a 14.884732
_cell_length_b 15.560544
_cell_length_c 5.041687
_cell_angle_alpha 90.000000
_cell_angle_beta 63.456711
_cell_angle_gamma 90.000000
_cell_volume 1044.645908
_symmetry_space_group_name_H-M "P 2/C"
_symmetry_group_IT_number 13
_symmetry_cell_setting 'monoclinic'
loop_
_space_group_symop_operation_xyz
x,y,z
-x,y,1/2-z
-x,-y,-z
x,-y,1/2+z
loop_
_atom_site_type_symbol
_atom_site_label
_atom_site_fract_x
_atom_site_fract_y
_atom_site_fract_z
Si Si1 0.211245 0.741373 0.108026
Si Si2 0.500000 0.937154 0.250000
Si Si3 0.715408 0.439897 0.922571
Si Si4 0.707455 0.162145 0.486401
Si Si5 0.893365 0.945501 0.717519
Si Si6 0.500000 0.440811 0.250000
Si Si7 0.000000 0.810855 0.250000
O O1 0.209204 0.639077 0.156854
O O2 0.262028 0.795163 0.276422
O O3 0.092589 0.757052 0.241829
O O4 0.274198 0.766485 0.763497
O O5 0.405679 0.872502 0.366184
O O6 0.500000 0.000000 0.500000
O O7 0.731081 0.487646 0.623893
O O8 0.605956 0.390891 0.096573
O O9 0.776744 0.078825 0.340180
O O10 0.960667 0.864566 0.552753
O O11 0.917204 0.025419 0.487859
O O12 0.500000 0.500000 0.500000
#
# Coordination Sequence:
#
# PCOD8119311 Si02
#       7
#     4   2   4   4   4   2   2
#     4  11  24  42  61  88 125 160 202 259 309 368
#     4  12  24  42  64  92 130 174 210 246 292 368
#     4  10  20  38  61  88 117 153 197 247 303 366
#     4  11  24  40  60  90 124 163 203 249 309 361
#     4  11  21  37  59  85 112 150 200 251 293 346
#     4   8  16  30  54  82 108 136 178 230 282 334
#     4  10  24  40  60  88 122 160 202 256 318 356
#
# _framework density 21.059766
#
# number of rings (size 3 to 8) (size 9 to 14) (size 15 to 20)
#    0.000    1.455    0.000    6.000    0.000    7.273 
#    0.000    2.727    0.000    0.000    0.000    0.000 
#    0.000    0.000    0.000    0.000    0.000    0.000 
#
# Total GULP energy -272690.259258 kJ/mol
# GULP energy per Si atom -12395.011784 kJ/mol
# Density = 2.101183 g / cm^3
# Si number density = 21.059766 Si / 1000 Ang^3
#
#
#
# Elastic Constant Matrix: (Units=GPa)
#
#
# Indices 1 2 3 4 5 6 
#
# 1 153.3680 60.7611 50.6880 0.0000 -15.4113 0.0000
# 2 60.7611 95.2180 17.6039 0.0000 -14.6415 0.0000
# 3 50.6880 17.6039 85.6598 0.0000 2.1570 0.0000
# 4 0.0000 0.0000 0.0000 19.7017 0.0000 1.0853
# 5 -15.4113 -14.6415 2.1570 0.0000 49.4407 0.0000
# 6 0.0000 0.0000 0.0000 1.0853 0.0000 32.6082
#
#
#
# Elastic Compliance Matrix: (Units=1/GPa)
#
#
# Indices 1 2 3 4 5 6 
#
# 1 0.010616 -0.005521 -0.005195 0.000000 0.001901 0.000000
# 2 -0.005521 0.014367 0.000251 0.000000 0.002523 0.000000
# 3 -0.005195 0.000251 0.014752 0.000000 -0.002188 0.000000
# 4 0.000000 0.000000 0.000000 0.050850 0.000000 -0.001692
# 5 0.001901 0.002523 -0.002188 0.000000 0.021661 0.000000
# 6 0.000000 0.000000 0.000000 -0.001692 0.000000 0.030723
#
#
# Mechanical properties :
#
#
# Convention : Reuss Voigt Hill
#
# Bulk Modulus (GPa) = 53.18009 65.81686 59.49848
# Shear Modulus (GPa) = 29.38288 34.02965 31.70626
#
# Velocity S-wave (km/s) = 3.73931 4.02414 3.88433
# Velocity P-wave (km/s) = 6.62948 7.27405 6.95923
#
# Compressibility (1/GPa) = 0.01880403
#
# Stress axis : x y z
#
# Youngs Moduli (GPa) = 94.20118 69.60370 67.78960
#
# Poissons Ratio (x) = 0.38431 0.35215
# Poissons Ratio (y) = 0.52012 -0.01702
# Poissons Ratio (z) = 0.48935 -0.01748
#
# Static dielectric constant tensor:
#      x y z
#    x 4.236980 0.000000 -0.183350 
#    y 0.000000 3.537740 0.000000 
#    z -0.183350 0.000000 4.095950 
# 
# 
# High freq. dielectric constant tensor:
#      x y z
#    x 1.846830 0.000000 0.006840 
#    y 0.000000 1.802540 0.000000 
#    z 0.006840 0.000000 1.843780 
# 
# From -- ./inp_files/4923.got.cif
#   From: 2010.06.25/outbox.cif.g09.slc.cpg/sg13_3_cif.got.tgz:4923.got - 2010.06.28 04:50:58.
