data_PCOD8119966
_publ_section_title
;
Structure prediction by ZEFSAII (Michael W. Deem and Ramdas Pophale) SiO2 
 PCOD8119966
Probable space group: P 2/C
;
_chemical_formula_sum "Si O2"
_cell_formula_units_Z 20
_cell_length_a 8.970215
_cell_length_b 23.453321
_cell_length_c 5.097183
_cell_angle_alpha 90.000000
_cell_angle_beta 114.506703
_cell_angle_gamma 90.000000
_cell_volume 975.746892
_symmetry_space_group_name_H-M "P 2/C"
_symmetry_group_IT_number 13
_symmetry_cell_setting 'monoclinic'
loop_
_space_group_symop_operation_xyz
x,y,z
-x,y,1/2-z
-x,-y,-z
x,-y,1/2+z
loop_
_atom_site_type_symbol
_atom_site_label
_atom_site_fract_x
_atom_site_fract_y
_atom_site_fract_z
Si Si1 0.605472 0.147264 0.075303
Si Si2 0.107508 0.638321 0.572470
Si Si3 0.890202 0.768410 0.922522
Si Si4 0.306966 0.531952 0.632530
Si Si5 0.189592 0.037259 0.374795
O O1 0.500000 0.128310 0.250000
O O2 0.726337 0.195317 0.274163
O O3 0.704026 0.093856 0.033148
O O4 0.500000 0.170782 0.750000
O O5 0.169000 0.703260 0.588279
O O6 0.262569 0.596484 0.681276
O O7 0.000000 0.629978 0.750000
O O8 0.000000 0.619752 0.250000
O O9 0.000000 0.777216 0.750000
O O10 0.000000 0.788419 0.250000
O O11 0.500000 0.528867 0.750000
O O12 0.235264 0.511037 0.301662
O O13 0.000000 0.055611 0.250000
O O14 0.234977 0.996812 0.647708
#
# Coordination Sequence:
#
# PCOD8119966 Si02
#       5
#     4   4   4   4   4
#     4  12  25  39  61  93 123 152 193 245 296 341
#     4  10  21  37  59  85 109 144 194 242 283 329
#     4  10  22  42  63  83 116 158 198 239 289 351
#     4  10  21  36  54  80 115 151 183 224 286 350
#     4  10  22  40  62  86 116 158 198 232 284 351
#
# _framework density 20.497119000000001
#
# number of rings (size 3 to 8) (size 9 to 14) (size 15 to 20)
#    0.000    1.600    0.000    4.200    0.000    8.000 
#    0.000    3.000    0.000    0.000    0.000    0.000 
#    0.000    0.000    0.000    0.000    0.000    0.000 
#
# Total GULP energy -248027.000397 kJ/mol
# GULP energy per Si atom -12401.350020 kJ/mol
# Density = 2.045047 g / cm^3
# Si number density = 20.497119 Si / 1000 Ang^3
#
#
#
# Elastic Constant Matrix: (Units=GPa)
#
#
# Indices 1 2 3 4 5 6 
#
# 1 85.9883 67.6741 53.2128 0.0000 -20.8384 0.0000
# 2 67.6741 134.8814 55.1314 0.0000 -3.4562 0.0000
# 3 53.2128 55.1314 156.0207 0.0000 -24.6472 0.0000
# 4 0.0000 0.0000 0.0000 17.6301 0.0000 1.8429
# 5 -20.8384 -3.4562 -24.6472 0.0000 39.7257 0.0000
# 6 0.0000 0.0000 0.0000 1.8429 0.0000 26.9658
#
#
#
# Elastic Compliance Matrix: (Units=1/GPa)
#
#
# Indices 1 2 3 4 5 6 
#
# 1 0.024326 -0.010758 -0.002913 0.000000 0.010017 0.000000
# 2 -0.010758 0.013481 -0.001996 0.000000 -0.005709 0.000000
# 3 -0.002913 -0.001996 0.008691 0.000000 0.003691 0.000000
# 4 0.000000 0.000000 0.000000 0.057129 0.000000 -0.003904
# 5 0.010017 -0.005709 0.003691 0.000000 0.032221 0.000000
# 6 0.000000 0.000000 0.000000 -0.003904 0.000000 0.037351
#
#
# Mechanical properties :
#
#
# Convention : Reuss Voigt Hill
#
# Bulk Modulus (GPa) = 65.94402 80.99188 73.46795
# Shear Modulus (GPa) = 23.85618 30.25580 27.05599
#
# Velocity S-wave (km/s) = 3.41527 3.84617 3.63711
# Velocity P-wave (km/s) = 6.91334 7.70218 7.31840
#
# Compressibility (1/GPa) = 0.01516438
#
# Stress axis : x y z
#
# Youngs Moduli (GPa) = 41.10762 74.17701 115.05624
#
# Poissons Ratio (x) = 0.79799 0.33515
# Poissons Ratio (y) = 0.44223 0.22970
# Poissons Ratio (z) = 0.11974 0.14809
#
# Static dielectric constant tensor:
#      x y z
#    x 3.700870 0.000000 -0.244560 
#    y 0.000000 3.692880 0.000000 
#    z -0.244560 0.000000 3.949280 
# 
# 
# High freq. dielectric constant tensor:
#      x y z
#    x 1.804240 0.000000 -0.017780 
#    y 0.000000 1.803260 0.000000 
#    z -0.017780 0.000000 1.815240 
# 
# From -- ./inp_files/1968.got.cif
#   From: 2010.06.25/outbox.cif.g09.slc.cpg/sg13_1_cif.got.tgz:1968.got - 2010.06.28 04:50:58.
