data_PCOD8119196
_publ_section_title
;
Structure prediction by ZEFSAII (Michael W. Deem and Ramdas Pophale) SiO2 
 PCOD8119196
Probable space group: P 2/C
;
_chemical_formula_sum "Si O2"
_cell_formula_units_Z 22
_cell_length_a 15.944999
_cell_length_b 9.782249
_cell_length_c 7.979079
_cell_angle_alpha 90.000000
_cell_angle_beta 56.826922
_cell_angle_gamma 90.000000
_cell_volume 1041.723815
_symmetry_space_group_name_H-M "P 2/C"
_symmetry_group_IT_number 13
_symmetry_cell_setting 'monoclinic'
loop_
_space_group_symop_operation_xyz
x,y,z
-x,y,1/2-z
-x,-y,-z
x,-y,1/2+z
loop_
_atom_site_type_symbol
_atom_site_label
_atom_site_fract_x
_atom_site_fract_y
_atom_site_fract_z
Si Si1 0.193039 0.432079 0.694022
Si Si2 0.500000 0.687471 0.750000
Si Si3 0.887277 0.696204 0.894150
Si Si4 0.679531 0.622234 0.744327
Si Si5 0.597978 0.908213 0.420489
Si Si6 0.295676 0.142344 0.029357
O O1 0.126636 0.560220 0.703416
O O2 0.291108 0.488425 0.683201
O O3 0.233501 0.348433 0.489762
O O4 0.131882 0.335258 0.887663
O O5 0.570687 0.590902 0.784694
O O6 0.576037 0.782329 0.564140
O O7 0.817246 0.819529 0.903564
O O8 0.000000 0.748838 0.750000
O O9 0.665768 0.753344 0.873991
O O10 0.500000 0.000000 0.500000
O O11 0.690653 0.992913 0.402489
O O12 0.631767 0.845463 0.208261
#
# Coordination Sequence:
#
# PCOD8119196 Si02
#       6
#     4   2   4   4   4   4
#     4   9  20  39  57  85 125 151 194 235 293 339
#     4  12  22  34  60  82 114 150 208 222 302 338
#     4  10  20  37  64  90 116 157 195 239 293 347
#     4  10  21  36  56  86 116 159 184 248 279 349
#     4  12  21  37  59  86 110 155 196 243 285 352
#     4  11  22  38  59  86 120 145 203 243 291 341
#
# _framework density 21.118843999999999
#
# number of rings (size 3 to 8) (size 9 to 14) (size 15 to 20)
#    0.000    1.455    3.636    1.636    0.000    0.727 
#    0.000    0.909    0.000    0.000    0.000    0.000 
#    0.000    0.000    0.000    0.000    0.000    0.000 
#
# Total GULP energy -272782.497813 kJ/mol
# GULP energy per Si atom -12399.204446 kJ/mol
# Density = 2.107078 g / cm^3
# Si number density = 21.118844 Si / 1000 Ang^3
#
#
#
# Elastic Constant Matrix: (Units=GPa)
#
#
# Indices 1 2 3 4 5 6 
#
# 1 116.1341 22.2062 55.6131 0.0000 -14.2244 0.0000
# 2 22.2062 40.9520 40.4315 0.0000 -5.6850 0.0000
# 3 55.6131 40.4315 133.4134 0.0000 12.7969 0.0000
# 4 0.0000 0.0000 0.0000 32.3558 0.0000 1.4043
# 5 -14.2244 -5.6850 12.7969 0.0000 36.7464 0.0000
# 6 0.0000 0.0000 0.0000 1.4043 0.0000 31.9779
#
#
#
# Elastic Compliance Matrix: (Units=1/GPa)
#
#
# Indices 1 2 3 4 5 6 
#
# 1 0.012168 -0.000040 -0.005702 0.000000 0.006690 0.000000
# 2 -0.000040 0.038279 -0.012570 0.000000 0.010284 0.000000
# 3 -0.005702 -0.012570 0.014567 0.000000 -0.009225 0.000000
# 4 0.000000 0.000000 0.000000 0.030965 0.000000 -0.001360
# 5 0.006690 0.010284 -0.009225 0.000000 0.034607 0.000000
# 6 0.000000 0.000000 0.000000 -0.001360 0.000000 0.031331
#
#
# Mechanical properties :
#
#
# Convention : Reuss Voigt Hill
#
# Bulk Modulus (GPa) = 35.22481 58.55568 46.89025
# Shear Modulus (GPa) = 24.03795 31.69926 27.86860
#
# Velocity S-wave (km/s) = 3.37742 3.87847 3.63658
# Velocity P-wave (km/s) = 5.65020 6.91691 6.31539
#
# Compressibility (1/GPa) = 0.02838908
#
# Stress axis : x y z
#
# Youngs Moduli (GPa) = 82.18144 26.12415 68.65034
#
# Poissons Ratio (x) = 0.00105 0.39143
# Poissons Ratio (y) = 0.00330 0.86295
# Poissons Ratio (z) = 0.46858 0.32839
#
# Static dielectric constant tensor:
#      x y z
#    x 3.999220 0.000000 0.331840 
#    y 0.000000 3.591660 0.000000 
#    z 0.331840 0.000000 4.009050 
# 
# 
# High freq. dielectric constant tensor:
#      x y z
#    x 1.828960 0.000000 0.022880 
#    y 0.000000 1.797570 0.000000 
#    z 0.022880 0.000000 1.837720 
# 
# From -- ./inp_files/15962.got.cif
#   From: 2010.06.25/outbox.cif.g09.slc.cpg/sg13_8_cif.got.tgz:15962.got - 2010.06.28 04:50:58.
