data_PCOD8119916
_publ_section_title
;
Structure prediction by ZEFSAII (Michael W. Deem and Ramdas Pophale) SiO2 
 PCOD8119916
Probable space group: P 2/C
;
_chemical_formula_sum "Si O2"
_cell_formula_units_Z 30
_cell_length_a 9.042200
_cell_length_b 6.276942
_cell_length_c 27.523712
_cell_angle_alpha 90.000000
_cell_angle_beta 79.813934
_cell_angle_gamma 90.000000
_cell_volume 1537.551398
_symmetry_space_group_name_H-M "P 2/C"
_symmetry_group_IT_number 13
_symmetry_cell_setting 'monoclinic'
loop_
_space_group_symop_operation_xyz
x,y,z
-x,y,1/2-z
-x,-y,-z
x,-y,1/2+z
loop_
_atom_site_type_symbol
_atom_site_label
_atom_site_fract_x
_atom_site_fract_y
_atom_site_fract_z
Si Si1 0.813237 0.028434 0.628789
Si Si2 0.928973 0.263995 0.838150
Si Si3 0.000000 0.041483 0.250000
Si Si4 0.409022 0.323334 0.802941
Si Si5 0.559541 0.689023 0.964611
Si Si6 0.600659 0.629063 0.384058
Si Si7 0.144129 0.643878 0.811460
Si Si8 0.366759 0.074149 0.952544
O O1 0.680735 0.120321 0.670982
O O2 0.776177 0.063280 0.574355
O O3 0.965686 0.158559 0.627416
O O4 0.836427 0.778642 0.639730
O O5 0.763392 0.271516 0.868565
O O6 0.995119 0.497159 0.821667
O O7 0.915912 0.112601 0.792213
O O8 0.125047 0.186889 0.268950
O O9 0.500000 0.250570 0.750000
O O10 0.522431 0.416640 0.836820
O O11 0.292286 0.505829 0.793742
O O12 0.627725 0.594686 0.910882
O O13 0.419315 0.834537 0.958072
O O14 0.500000 0.500000 0.000000
O O15 0.676102 0.821492 0.992387
O O16 0.502052 0.792624 0.420779
#
# Coordination Sequence:
#
# PCOD8119916 Si02
#       8
#     4   4   2   4   4   4   4   4
#     4   9  20  38  54  79 111 152 186 231 285 338
#     4  10  22  37  56  79 115 150 196 233 279 334
#     4  10  22  36  56  70 108 158 194 228 278 328
#     4  10  22  35  54  82 117 144 188 238 275 331
#     4   9  18  34  60  87 110 145 183 232 293 340
#     4  10  21  35  58  85 113 145 185 238 279 332
#     4  10  21  37  55  75 106 155 194 223 284 337
#     4   9  18  37  60  83 113 141 185 235 288 342
#
# _framework density 19.511541000000001
#
# number of rings (size 3 to 8) (size 9 to 14) (size 15 to 20)
#    0.000    2.400    0.000    1.200    7.467    3.733 
#    2.400    0.667    0.000    8.000    0.000    0.000 
#    0.000    0.000    0.000    0.000    0.000    0.000 
#
# Total GULP energy -371888.225318 kJ/mol
# GULP energy per Si atom -12396.274177 kJ/mol
# Density = 1.946713 g / cm^3
# Si number density = 19.511541 Si / 1000 Ang^3
#
#
#
# Elastic Constant Matrix: (Units=GPa)
#
#
# Indices 1 2 3 4 5 6 
#
# 1 81.0936 15.3404 27.5637 0.0000 12.7829 0.0000
# 2 15.3404 93.3761 23.8652 0.0000 10.4306 0.0000
# 3 27.5637 23.8652 89.0805 0.0000 25.1588 0.0000
# 4 0.0000 0.0000 0.0000 22.4771 0.0000 6.0730
# 5 12.7829 10.4306 25.1588 0.0000 28.1206 0.0000
# 6 0.0000 0.0000 0.0000 6.0730 0.0000 15.3885
#
#
#
# Elastic Compliance Matrix: (Units=1/GPa)
#
#
# Indices 1 2 3 4 5 6 
#
# 1 0.014125 -0.001158 -0.003169 0.000000 -0.003156 0.000000
# 2 -0.001158 0.011678 -0.002269 0.000000 -0.001775 0.000000
# 3 -0.003169 -0.002269 0.016284 0.000000 -0.012287 0.000000
# 4 0.000000 0.000000 0.000000 0.049800 0.000000 -0.019653
# 5 -0.003156 -0.001775 -0.012287 0.000000 0.048647 0.000000
# 6 0.000000 0.000000 0.000000 -0.019653 0.000000 0.072740
#
#
# Mechanical properties :
#
#
# Convention : Reuss Voigt Hill
#
# Bulk Modulus (GPa) = 34.60743 44.12099 39.36421
# Shear Modulus (GPa) = 21.17768 26.31597 23.74682
#
# Velocity S-wave (km/s) = 3.29810 3.67650 3.49243
# Velocity P-wave (km/s) = 5.68144 6.37841 6.03998
#
# Compressibility (1/GPa) = 0.02889553
#
# Stress axis : x y z
#
# Youngs Moduli (GPa) = 70.79566 85.63241 61.40830
#
# Poissons Ratio (x) = 0.09917 0.19461
# Poissons Ratio (y) = 0.08199 0.13933
# Poissons Ratio (z) = 0.22435 0.19429
#
# Static dielectric constant tensor:
#      x y z
#    x 3.353050 0.000000 0.389350 
#    y 0.000000 3.826980 0.000000 
#    z 0.389350 0.000000 3.831720 
# 
# 
# High freq. dielectric constant tensor:
#      x y z
#    x 1.737190 0.000000 0.031500 
#    y 0.000000 1.772470 0.000000 
#    z 0.031500 0.000000 1.759650 
# 
# From -- ./inp_files/95502.got.cif
#   From: 2010.06.25/outbox.cif.g09.slc.cpg/sg13_48_cif.got.tgz:95502.got - 2010.06.28 04:50:58.
