data_PCOD8119409
_publ_section_title
;
Structure prediction by ZEFSAII (Michael W. Deem and Ramdas Pophale) SiO2 
 PCOD8119409
Probable space group: P 2/C
;
_chemical_formula_sum "Si O2"
_cell_formula_units_Z 24
_cell_length_a 5.951606
_cell_length_b 16.754215
_cell_length_c 12.115665
_cell_angle_alpha 90.000000
_cell_angle_beta 67.798610
_cell_angle_gamma 90.000000
_cell_volume 1118.539951
_symmetry_space_group_name_H-M "P 2/C"
_symmetry_group_IT_number 13
_symmetry_cell_setting 'monoclinic'
loop_
_space_group_symop_operation_xyz
x,y,z
-x,y,1/2-z
-x,-y,-z
x,-y,1/2+z
loop_
_atom_site_type_symbol
_atom_site_label
_atom_site_fract_x
_atom_site_fract_y
_atom_site_fract_z
Si Si1 0.000000 0.560566 0.750000
Si Si2 0.456133 0.202611 0.549229
Si Si3 0.171804 0.092244 0.941922
Si Si4 0.000000 0.145551 0.750000
Si Si5 0.739905 0.497531 0.099639
Si Si6 0.342901 0.074590 0.388627
Si Si7 0.414164 0.620652 0.533661
O O1 0.208254 0.507476 0.777028
O O2 0.144744 0.616032 0.637172
O O3 0.687031 0.176145 0.578687
O O4 0.214329 0.203437 0.667827
O O5 0.452506 0.137013 0.453708
O O6 0.501333 0.289453 0.493418
O O7 0.075990 0.086195 0.834124
O O8 0.354319 0.017608 0.928677
O O9 0.947337 0.091901 0.070522
O O10 0.606331 0.418873 0.080648
O O11 0.591968 0.575966 0.085038
O O12 0.000000 0.500000 0.000000
O O13 0.500000 0.085915 0.250000
#
# Coordination Sequence:
#
# PCOD8119409 Si02
#       7
#     2   4   4   2   4   4   4
#     4  10  20  38  65  85 118 164 196 240 300 363
#     4  11  23  40  62  90 122 159 199 249 305 356
#     4  10  22  41  61  85 122 164 202 249 301 351
#     4  10  22  40  61  85 120 162 206 250 296 355
#     4   9  20  40  61  85 117 157 196 241 295 357
#     4  10  22  37  61  92 120 157 207 249 293 357
#     4  10  22  39  60  91 124 153 198 248 301 360
#
# _framework density 21.45654
#
# number of rings (size 3 to 8) (size 9 to 14) (size 15 to 20)
#    0.000    2.000    0.000    2.500    0.000   11.333 
#    0.000   20.000    0.000    1.000    0.000    0.000 
#    0.000    0.000    0.000    0.000    0.000    0.000 
#
# Total GULP energy -297402.948694 kJ/mol
# GULP energy per Si atom -12391.789529 kJ/mol
# Density = 2.140770 g / cm^3
# Si number density = 21.456540 Si / 1000 Ang^3
#
#
#
# Elastic Constant Matrix: (Units=GPa)
#
#
# Indices 1 2 3 4 5 6 
#
# 1 103.6111 55.7826 54.5071 0.0000 8.9307 0.0000
# 2 55.7826 147.6161 52.6803 0.0000 5.8973 0.0000
# 3 54.5071 52.6803 140.5777 0.0000 -20.3041 0.0000
# 4 0.0000 0.0000 0.0000 25.1031 0.0000 -6.4683
# 5 8.9307 5.8973 -20.3041 0.0000 44.3077 0.0000
# 6 0.0000 0.0000 0.0000 -6.4683 0.0000 25.4510
#
#
#
# Elastic Compliance Matrix: (Units=1/GPa)
#
#
# Indices 1 2 3 4 5 6 
#
# 1 0.014614 -0.003536 -0.005032 0.000000 -0.004781 0.000000
# 2 -0.003536 0.008955 -0.002200 0.000000 -0.001487 0.000000
# 3 -0.005032 -0.002200 0.010792 0.000000 0.006252 0.000000
# 4 0.000000 0.000000 0.000000 0.042627 0.000000 0.010834
# 5 -0.004781 -0.001487 0.006252 0.000000 0.026596 0.000000
# 6 0.000000 0.000000 0.000000 0.010834 0.000000 0.042045
#
#
# Mechanical properties :
#
#
# Convention : Reuss Voigt Hill
#
# Bulk Modulus (GPa) = 77.96480 79.74944 78.85712
# Shear Modulus (GPa) = 29.16476 34.22801 31.69638
#
# Velocity S-wave (km/s) = 3.69080 3.99836 3.84765
# Velocity P-wave (km/s) = 7.38767 7.65274 7.52137
#
# Compressibility (1/GPa) = 0.01282630
#
# Stress axis : x y z
#
# Youngs Moduli (GPa) = 68.42537 111.67110 92.66147
#
# Poissons Ratio (x) = 0.39485 0.46628
# Poissons Ratio (y) = 0.24194 0.20382
# Poissons Ratio (z) = 0.34432 0.24563
#
# Static dielectric constant tensor:
#      x y z
#    x 5.028460 0.000000 0.642740 
#    y 0.000000 3.679340 0.000000 
#    z 0.642740 0.000000 4.687500 
# 
# 
# High freq. dielectric constant tensor:
#      x y z
#    x 1.860650 0.000000 -0.010680 
#    y 0.000000 1.813850 0.000000 
#    z -0.010680 0.000000 1.846860 
# 
# From -- ./inp_files/26502.got.cif
#   From: 2010.06.25/outbox.cif.g09.slc.cpg/sg13_14_cif.got.tgz:26502.got - 2010.06.28 04:50:58.
