data_PCOD8119780
_publ_section_title
;
Structure prediction by ZEFSAII (Michael W. Deem and Ramdas Pophale) SiO2 
 PCOD8119780
Probable space group: P 2/C
;
_chemical_formula_sum "Si O2"
_cell_formula_units_Z 24
_cell_length_a 8.946560
_cell_length_b 10.491989
_cell_length_c 22.428235
_cell_angle_alpha 90.000000
_cell_angle_beta 147.455764
_cell_angle_gamma 90.000000
_cell_volume 1132.534393
_symmetry_space_group_name_H-M "P 2/C"
_symmetry_group_IT_number 13
_symmetry_cell_setting 'monoclinic'
loop_
_space_group_symop_operation_xyz
x,y,z
-x,y,1/2-z
-x,-y,-z
x,-y,1/2+z
loop_
_atom_site_type_symbol
_atom_site_label
_atom_site_fract_x
_atom_site_fract_y
_atom_site_fract_z
Si Si1 0.500000 0.861564 0.750000
Si Si2 0.800325 0.764139 0.062771
Si Si3 0.162178 0.253694 0.360065
Si Si4 0.969095 0.340286 0.420586
Si Si5 0.218495 0.617656 0.125587
Si Si6 0.874499 0.994027 0.293269
Si Si7 0.000000 0.199451 0.750000
O O1 0.239712 0.778065 0.640429
O O2 0.405853 0.954927 0.771145
O O3 0.945457 0.669407 0.066053
O O4 0.852552 0.716709 0.149354
O O5 0.475739 0.754683 0.942664
O O6 0.925392 0.907264 0.096307
O O7 0.000000 0.319054 0.250000
O O8 0.116395 0.334996 0.405271
O O9 0.059055 0.110790 0.333646
O O10 0.783708 0.465942 0.366796
O O11 0.205819 0.340038 0.551830
O O12 0.500000 0.673028 0.250000
O O13 0.780244 0.899711 0.207630
#
# Coordination Sequence:
#
# PCOD8119780 Si02
#       7
#     2   4   4   4   4   4   2
#     4  10  20  42  66  96 120 178 224 260 318 400
#     4  10  23  38  63  95 129 170 206 269 327 376
#     4  11  22  41  66  93 130 173 219 264 318 390
#     4  10  25  43  67  94 127 176 221 267 319 382
#     4  11  25  44  67  93 136 168 217 273 325 378
#     4   9  20  37  64  91 131 165 216 263 322 385
#     4   8  20  38  56  90 130 162 204 258 332 370
#
# _framework density 21.191410000000001
#
# number of rings (size 3 to 8) (size 9 to 14) (size 15 to 20)
#    1.000    1.000    1.667    0.500    8.167    0.667 
#    1.500    1.667    0.000    0.000    0.000    0.000 
#    0.000    0.000    0.000    0.000    0.000    0.000 
#
# Total GULP energy -297349.204269 kJ/mol
# GULP energy per Si atom -12389.550178 kJ/mol
# Density = 2.114318 g / cm^3
# Si number density = 21.191410 Si / 1000 Ang^3
#
#
#
# Elastic Constant Matrix: (Units=GPa)
#
#
# Indices 1 2 3 4 5 6 
#
# 1 140.3529 37.4640 64.4068 0.0000 -3.7776 0.0000
# 2 37.4640 35.1867 14.8379 0.0000 -9.1580 0.0000
# 3 64.4068 14.8379 109.8858 0.0000 -6.3050 0.0000
# 4 0.0000 0.0000 0.0000 -2.6993 0.0000 -5.3342
# 5 -3.7776 -9.1580 -6.3050 0.0000 46.0918 0.0000
# 6 0.0000 0.0000 0.0000 -5.3342 0.0000 21.6956
#
#
#
# Elastic Compliance Matrix: (Units=1/GPa)
#
#
# Indices 1 2 3 4 5 6 
#
# 1 0.013071 -0.011866 -0.006182 0.000000 -0.002132 0.000000
# 2 -0.011866 0.042342 0.001677 0.000000 0.007670 0.000000
# 3 -0.006182 0.001677 0.012586 0.000000 0.001548 0.000000
# 4 0.000000 0.000000 0.000000 -0.249326 0.000000 -0.061300
# 5 -0.002132 0.007670 0.001548 0.000000 0.023257 0.000000
# 6 0.000000 0.000000 0.000000 -0.061300 0.000000 0.031021
#
#
# Mechanical properties :
#
#
# Convention : Reuss Voigt Hill
#
# Bulk Modulus (GPa) = 28.36082 57.64918 43.00500
# Shear Modulus (GPa) = -60.56541 24.26540 -18.15001
#
# Velocity S-wave (km/s) = -5.35184 3.38754 -2.92974
# Velocity P-wave (km/s) = 4.97769 6.52408 2.98214
#
# Compressibility (1/GPa) = 0.03525991
#
# Stress axis : x y z
#
# Youngs Moduli (GPa) = 76.50267 23.61706 79.45399
#
# Poissons Ratio (x) = 0.28023 0.49115
# Poissons Ratio (y) = 0.90775 -0.13327
# Poissons Ratio (z) = 0.47291 -0.03961
#
# Static dielectric constant tensor:
#      x y z
#    x 3.965220 0.000000 -0.184140 
#    y 0.000000 3.646660 0.000000 
#    z -0.184140 0.000000 3.622800 
# 
# 
# High freq. dielectric constant tensor:
#      x y z
#    x 1.838800 0.000000 -0.006300 
#    y 0.000000 1.815900 0.000000 
#    z -0.006300 0.000000 1.814220 
# 
# From -- ./inp_files/85266.got.cif
#   From: 2010.06.25/outbox.cif.g09.slc.cpg/sg13_43_cif.got.tgz:85266.got - 2010.06.28 04:50:58.
