data_PCOD8119878
_publ_section_title
;
Structure prediction by ZEFSAII (Michael W. Deem and Ramdas Pophale) SiO2 
 PCOD8119878
Probable space group: P 2/C
;
_chemical_formula_sum "Si O2"
_cell_formula_units_Z 24
_cell_length_a 12.445024
_cell_length_b 11.871539
_cell_length_c 17.185027
_cell_angle_alpha 90.000000
_cell_angle_beta 154.283382
_cell_angle_gamma 90.000000
_cell_volume 1101.699273
_symmetry_space_group_name_H-M "P 2/C"
_symmetry_group_IT_number 13
_symmetry_cell_setting 'monoclinic'
loop_
_space_group_symop_operation_xyz
x,y,z
-x,y,1/2-z
-x,-y,-z
x,-y,1/2+z
loop_
_atom_site_type_symbol
_atom_site_label
_atom_site_fract_x
_atom_site_fract_y
_atom_site_fract_z
Si Si1 0.399470 0.701584 0.560059
Si Si2 0.681736 0.100566 0.193422
Si Si3 0.894164 0.326459 0.787627
Si Si4 0.126310 0.443723 0.156351
Si Si5 0.432111 0.144790 0.863815
Si Si6 0.902277 0.762278 0.598989
O O1 0.536249 0.820987 0.660015
O O2 0.225100 0.707306 0.371251
O O3 0.607641 0.606198 0.693045
O O4 0.194995 0.681466 0.493867
O O5 0.962446 0.140082 0.362125
O O6 0.681910 0.976917 0.231810
O O7 0.556170 0.120309 0.027692
O O8 0.811760 0.454882 0.745186
O O9 0.784300 0.238063 0.777983
O O10 0.941957 0.354603 0.077838
O O11 0.000000 0.500000 0.000000
O O12 0.621384 0.193693 0.922788
O O13 0.000000 0.742753 0.750000
#
# Coordination Sequence:
#
# PCOD8119878 Si02
#       6
#     4   4   4   4   4   4
#     4   9  20  37  57  86 117 153 195 242 301 356
#     4   8  16  31  53  86 119 143 190 248 295 346
#     4  10  21  34  58  86 116 156 194 242 301 363
#     4  11  24  39  58  84 119 160 200 252 296 354
#     4   9  17  30  54  86 116 150 190 241 299 358
#     4   9  19  34  57  85 118 156 197 246 298 350
#
# _framework density 21.784531000000001
#
# number of rings (size 3 to 8) (size 9 to 14) (size 15 to 20)
#    0.000    2.667    0.000    1.500    7.000    0.667 
#    0.000    0.000    0.000    4.000    8.667    0.000 
#    0.000    0.000    0.000    0.000    0.000    0.000 
#
# Total GULP energy -297314.796029 kJ/mol
# GULP energy per Si atom -12388.116501 kJ/mol
# Density = 2.173495 g / cm^3
# Si number density = 21.784531 Si / 1000 Ang^3
#
#
#
# Elastic Constant Matrix: (Units=GPa)
#
#
# Indices 1 2 3 4 5 6 
#
# 1 85.8566 77.1209 62.4480 0.0000 45.7766 0.0000
# 2 77.1209 212.1612 57.6532 0.0000 56.5577 0.0000
# 3 62.4480 57.6532 73.3578 0.0000 55.1517 0.0000
# 4 0.0000 0.0000 0.0000 15.1067 0.0000 12.2382
# 5 45.7766 56.5577 55.1517 0.0000 49.3054 0.0000
# 6 0.0000 0.0000 0.0000 12.2382 0.0000 27.8344
#
#
#
# Elastic Compliance Matrix: (Units=1/GPa)
#
#
# Indices 1 2 3 4 5 6 
#
# 1 0.038040 -0.007898 -0.040458 0.000000 0.018997 0.000000
# 2 -0.007898 0.008556 0.011726 0.000000 -0.015598 0.000000
# 3 -0.040458 0.011726 0.130344 0.000000 -0.121687 0.000000
# 4 0.000000 0.000000 0.000000 0.102819 0.000000 -0.045207
# 5 0.018997 -0.015598 -0.121687 0.000000 0.156653 0.000000
# 6 0.000000 0.000000 0.000000 -0.045207 0.000000 0.055803
#
#
# Mechanical properties :
#
#
# Convention : Reuss Voigt Hill
#
# Bulk Modulus (GPa) = 9.64504 85.09107 47.36806
# Shear Modulus (GPa) = 8.33285 30.05954 19.19620
#
# Velocity S-wave (km/s) = 1.95791 3.71867 2.97170
# Velocity P-wave (km/s) = 3.09004 7.58836 5.79359
#
# Compressibility (1/GPa) = 0.10368019
#
# Stress axis : x y z
#
# Youngs Moduli (GPa) = 26.28830 116.87764 7.67200
#
# Poissons Ratio (x) = 0.92306 0.31039
# Poissons Ratio (y) = 0.20761 -0.08996
# Poissons Ratio (z) = 1.06357 -1.37049
#
# Static dielectric constant tensor:
#      x y z
#    x 4.055610 0.000000 0.598990 
#    y 0.000000 4.306910 0.000000 
#    z 0.598990 0.000000 3.793760 
# 
# 
# High freq. dielectric constant tensor:
#      x y z
#    x 1.843030 0.000000 0.030340 
#    y 0.000000 1.865410 0.000000 
#    z 0.030340 0.000000 1.837510 
# 
# From -- ./inp_files/39214.got.cif
#   From: 2010.06.25/outbox.cif.g09.slc.cpg/sg13_20_cif.got.tgz:39214.got - 2010.06.28 04:50:58.
