data_PCOD8119198
_publ_section_title
;
Structure prediction by ZEFSAII (Michael W. Deem and Ramdas Pophale) SiO2 
 PCOD8119198
Probable space group: P 2/C
;
_chemical_formula_sum "Si O2"
_cell_formula_units_Z 32
_cell_length_a 7.614296
_cell_length_b 11.856941
_cell_length_c 15.864406
_cell_angle_alpha 90.000000
_cell_angle_beta 101.641293
_cell_angle_gamma 90.000000
_cell_volume 1402.812630
_symmetry_space_group_name_H-M "P 2/C"
_symmetry_group_IT_number 13
_symmetry_cell_setting 'monoclinic'
loop_
_space_group_symop_operation_xyz
x,y,z
-x,y,1/2-z
-x,-y,-z
x,-y,1/2+z
loop_
_atom_site_type_symbol
_atom_site_label
_atom_site_fract_x
_atom_site_fract_y
_atom_site_fract_z
Si Si1 0.061542 0.126450 0.523814
Si Si2 0.697752 0.908794 0.753941
Si Si3 0.785150 0.461942 0.073942
Si Si4 0.788472 0.538474 0.889764
Si Si5 0.786323 0.393641 0.731123
Si Si6 0.726871 0.786053 0.914856
Si Si7 0.184749 0.850955 0.223288
Si Si8 0.676028 0.211597 0.088712
O O1 0.145906 0.152808 0.621325
O O2 0.225990 0.158478 0.480694
O O3 0.887298 0.208819 0.499008
O O4 0.000000 0.000000 0.500000
O O5 0.500000 0.860624 0.750000
O O6 0.799886 0.872449 0.849402
O O7 0.772737 0.844644 0.679396
O O8 0.691082 0.043252 0.740498
O O9 0.716046 0.554339 0.135900
O O10 0.699366 0.345245 0.094721
O O11 0.998258 0.454693 0.094608
O O12 0.719105 0.491279 0.973203
O O13 0.713953 0.463305 0.805182
O O14 0.708688 0.662932 0.872106
O O15 0.720494 0.264147 0.735233
O O16 0.000000 0.393615 0.750000
O O17 0.535566 0.821094 0.936464
O O18 0.000000 0.876011 0.250000
#
# Coordination Sequence:
#
# PCOD8119198 Si02
#       8
#     4   4   4   4   4   4   4   4
#     4  12  24  43  68  99 131 174 222 265 335 392
#     4  10  23  44  62  94 131 168 217 271 323 386
#     4  10  20  38  64  94 125 171 216 267 329 390
#     4  10  20  37  64  91 130 163 215 270 320 389
#     4   9  20  35  60  95 125 167 216 266 324 393
#     4  11  24  41  68 100 130 170 217 275 323 388
#     4  11  23  41  65  94 130 172 218 267 331 397
#     4  11  24  43  69  97 131 169 222 273 322 392
#
# _framework density 22.811313999999999
#
# number of rings (size 3 to 8) (size 9 to 14) (size 15 to 20)
#    0.000    1.500    2.500    2.250    5.250    1.000 
#    2.250    1.250    0.000    0.000    0.000    0.000 
#    0.000    0.000    0.000    0.000    0.000    0.000 
#
# Total GULP energy -396775.603147 kJ/mol
# GULP energy per Si atom -12399.237598 kJ/mol
# Density = 2.275939 g / cm^3
# Si number density = 22.811314 Si / 1000 Ang^3
#
#
#
# Elastic Constant Matrix: (Units=GPa)
#
#
# Indices 1 2 3 4 5 6 
#
# 1 61.6454 23.3558 41.2602 0.0000 -18.0420 0.0000
# 2 23.3558 170.4197 59.5888 0.0000 -17.4564 0.0000
# 3 41.2602 59.5888 152.4142 0.0000 -28.9818 0.0000
# 4 0.0000 0.0000 0.0000 41.6833 0.0000 -9.1671
# 5 -18.0420 -17.4564 -28.9818 0.0000 23.1680 0.0000
# 6 0.0000 0.0000 0.0000 -9.1671 0.0000 26.5184
#
#
#
# Elastic Compliance Matrix: (Units=1/GPa)
#
#
# Indices 1 2 3 4 5 6 
#
# 1 0.022475 -0.000572 -0.003431 0.000000 0.012780 0.000000
# 2 -0.000572 0.006911 -0.002154 0.000000 0.002068 0.000000
# 3 -0.003431 -0.002154 0.009861 0.000000 0.008041 0.000000
# 4 0.000000 0.000000 0.000000 0.025964 0.000000 0.008976
# 5 0.012780 0.002068 0.008041 0.000000 0.064732 0.000000
# 6 0.000000 0.000000 0.000000 0.008976 0.000000 0.040812
#
#
# Mechanical properties :
#
#
# Convention : Reuss Voigt Hill
#
# Bulk Modulus (GPa) = 37.12718 70.32097 53.72408
# Shear Modulus (GPa) = 26.03541 35.62560 30.83050
#
# Velocity S-wave (km/s) = 3.38203 3.95619 3.68032
# Velocity P-wave (km/s) = 5.61800 7.19463 6.45464
#
# Compressibility (1/GPa) = 0.02693444
#
# Stress axis : x y z
#
# Youngs Moduli (GPa) = 44.49412 144.69259 101.41016
#
# Poissons Ratio (x) = 0.08270 0.34790
# Poissons Ratio (y) = 0.02543 0.21846
# Poissons Ratio (z) = 0.15264 0.31169
#
# Static dielectric constant tensor:
#      x y z
#    x 7.992270 0.000000 4.411160 
#    y 0.000000 4.304310 0.000000 
#    z 4.411160 0.000000 9.187550 
# 
# 
# High freq. dielectric constant tensor:
#      x y z
#    x 1.883620 0.000000 -0.016510 
#    y 0.000000 1.910420 0.000000 
#    z -0.016510 0.000000 1.906760 
# 
# From -- ./inp_files/47249.got.cif
#   From: 2010.06.25/outbox.cif.g09.slc.cpg/sg13_24_cif.got.tgz:47249.got - 2010.06.28 04:50:58.
