data_PCOD8119551
_publ_section_title
;
Structure prediction by ZEFSAII (Michael W. Deem and Ramdas Pophale) SiO2 
 PCOD8119551
Probable space group: P 2/C
;
_chemical_formula_sum "Si O2"
_cell_formula_units_Z 28
_cell_length_a 8.233348
_cell_length_b 9.284993
_cell_length_c 25.276170
_cell_angle_alpha 90.000000
_cell_angle_beta 138.191400
_cell_angle_gamma 90.000000
_cell_volume 1288.141369
_symmetry_space_group_name_H-M "P 2/C"
_symmetry_group_IT_number 13
_symmetry_cell_setting 'monoclinic'
loop_
_space_group_symop_operation_xyz
x,y,z
-x,y,1/2-z
-x,-y,-z
x,-y,1/2+z
loop_
_atom_site_type_symbol
_atom_site_label
_atom_site_fract_x
_atom_site_fract_y
_atom_site_fract_z
Si Si1 0.190771 0.330220 0.750158
Si Si2 0.965984 0.358286 0.457693
Si Si3 0.440064 0.170289 0.588860
Si Si4 0.153428 0.860754 0.397826
Si Si5 0.239199 0.620023 0.703391
Si Si6 0.371115 0.844362 0.563127
Si Si7 0.913566 0.855351 0.673784
O O1 0.418688 0.240685 0.827710
O O2 0.290359 0.475765 0.748810
O O3 0.000000 0.366095 0.750000
O O4 0.065588 0.240908 0.673000
O O5 0.929291 0.408028 0.388513
O O6 0.730856 0.267202 0.418818
O O7 0.000000 0.500000 0.500000
O O8 0.200848 0.258870 0.518273
O O9 0.601374 0.172026 0.575070
O O10 0.374383 0.005805 0.587867
O O11 0.195595 0.837272 0.469742
O O12 0.076738 0.026322 0.369970
O O13 0.500000 0.684803 0.750000
O O14 0.102191 0.729380 0.708443
O O15 0.641379 0.792437 0.613124
O O16 0.000000 0.929750 0.750000
#
# Coordination Sequence:
#
# PCOD8119551 Si02
#       7
#     4   4   4   4   4   4   4
#     4  10  22  41  64  88 120 164 208 254 312 374
#     4  12  25  40  60  92 130 169 208 257 312 368
#     4  10  21  41  65  90 125 165 210 260 310 371
#     4  10  20  39  66  94 120 157 207 258 308 369
#     4  12  25  41  58  87 126 163 204 257 312 371
#     4  11  22  40  65  94 124 164 209 257 311 376
#     4  11  22  40  64  91 120 158 205 259 312 367
#
# _framework density 21.736744000000002
#
# number of rings (size 3 to 8) (size 9 to 14) (size 15 to 20)
#    0.000    1.143    0.000    9.000    0.000    2.286 
#    0.000    5.714    0.000    0.000    0.000    0.000 
#    0.000    0.000    0.000    0.000    0.000    0.000 
#
# Total GULP energy -347384.179518 kJ/mol
# GULP energy per Si atom -12406.577840 kJ/mol
# Density = 2.168727 g / cm^3
# Si number density = 21.736744 Si / 1000 Ang^3
#
#
#
# Elastic Constant Matrix: (Units=GPa)
#
#
# Indices 1 2 3 4 5 6 
#
# 1 54.2833 51.6196 36.7566 0.0000 4.0881 0.0000
# 2 51.6196 121.3652 28.9537 0.0000 12.5514 0.0000
# 3 36.7566 28.9537 108.9938 0.0000 0.6034 0.0000
# 4 0.0000 0.0000 0.0000 38.5741 0.0000 1.1963
# 5 4.0881 12.5514 0.6034 0.0000 40.5917 0.0000
# 6 0.0000 0.0000 0.0000 1.1963 0.0000 23.6072
#
#
#
# Elastic Compliance Matrix: (Units=1/GPa)
#
#
# Indices 1 2 3 4 5 6 
#
# 1 0.037786 -0.013984 -0.009032 0.000000 0.000653 0.000000
# 2 -0.013984 0.014275 0.000941 0.000000 -0.003020 0.000000
# 3 -0.009032 0.000941 0.011968 0.000000 0.000441 0.000000
# 4 0.000000 0.000000 0.000000 0.025965 0.000000 -0.001316
# 5 0.000653 -0.003020 0.000441 0.000000 0.025497 0.000000
# 6 0.000000 0.000000 0.000000 -0.001316 0.000000 0.042427
#
#
# Mechanical properties :
#
#
# Convention : Reuss Voigt Hill
#
# Bulk Modulus (GPa) = 50.30382 57.70024 54.00203
# Shear Modulus (GPa) = 23.95829 31.70877 27.83353
#
# Velocity S-wave (km/s) = 3.32355 3.82352 3.58227
# Velocity P-wave (km/s) = 6.15796 6.78933 6.48134
#
# Compressibility (1/GPa) = 0.01987921
#
# Stress axis : x y z
#
# Youngs Moduli (GPa) = 26.46455 70.05062 83.55377
#
# Poissons Ratio (x) = 0.97961 0.75463
# Poissons Ratio (y) = 0.37009 -0.07859
# Poissons Ratio (z) = 0.23902 -0.06589
#
# Static dielectric constant tensor:
#      x y z
#    x 3.849340 0.000000 0.058980 
#    y 0.000000 3.909140 0.000000 
#    z 0.058980 0.000000 4.166840 
# 
# 
# High freq. dielectric constant tensor:
#      x y z
#    x 1.846620 0.000000 0.001480 
#    y 0.000000 1.853530 0.000000 
#    z 0.001480 0.000000 1.876400 
# 
# From -- ./inp_files/91495.got.cif
#   From: 2010.06.25/outbox.cif.g09.slc.cpg/sg13_46_cif.got.tgz:91495.got - 2010.06.28 04:50:58.
