data_PCOD8119701
_publ_section_title
;
Structure prediction by ZEFSAII (Michael W. Deem and Ramdas Pophale) SiO2 
 PCOD8119701
Probable space group: P 2/C
;
_chemical_formula_sum "Si O2"
_cell_formula_units_Z 26
_cell_length_a 26.365814
_cell_length_b 6.578411
_cell_length_c 23.468974
_cell_angle_alpha 90.000000
_cell_angle_beta 162.427948
_cell_angle_gamma 90.000000
_cell_volume 1228.928051
_symmetry_space_group_name_H-M "P 2/C"
_symmetry_group_IT_number 13
_symmetry_cell_setting 'monoclinic'
loop_
_space_group_symop_operation_xyz
x,y,z
-x,y,1/2-z
-x,-y,-z
x,-y,1/2+z
loop_
_atom_site_type_symbol
_atom_site_label
_atom_site_fract_x
_atom_site_fract_y
_atom_site_fract_z
Si Si1 0.516679 0.959500 0.923141
Si Si2 0.378179 0.695714 0.674069
Si Si3 0.338563 0.648128 0.217134
Si Si4 0.000000 0.166262 0.750000
Si Si5 0.256868 0.720777 0.704154
Si Si6 0.142074 0.103467 0.188683
Si Si7 0.051548 0.049775 0.414809
O O1 0.442252 0.876740 0.783557
O O2 0.433962 0.838266 0.887055
O O3 0.487758 0.203248 0.896747
O O4 0.716157 0.934723 0.144249
O O5 0.500000 0.695530 0.750000
O O6 0.404020 0.482453 0.734001
O O7 0.175614 0.709800 0.446261
O O8 0.273993 0.507966 0.200011
O O9 0.188970 0.796046 0.038284
O O10 0.953841 0.028873 0.755012
O O11 0.210908 0.713628 0.722193
O O12 0.124451 0.851115 0.525046
O O13 0.069023 0.176525 0.171255
O O14 0.000000 0.000000 0.000000
#
# Coordination Sequence:
#
# PCOD8119701 Si02
#       7
#     4   4   4   2   4   4   4
#     4  10  20  41  61  90 127 160 207 263 314 371
#     4  11  24  42  65  92 124 169 215 257 313 379
#     4  10  20  41  59  88 130 157 203 258 318 363
#     4  12  20  44  68  88 124 170 208 260 316 372
#     4   9  19  39  62  86 122 165 202 250 309 373
#     4  10  21  38  65  92 122 169 209 253 317 375
#     4  10  21  39  60  92 125 158 209 254 306 371
#
# _framework density 21.156651
#
# number of rings (size 3 to 8) (size 9 to 14) (size 15 to 20)
#    0.000    1.846    4.615    1.385    0.000    2.462 
#    5.538    6.154    0.000    0.000    0.000    0.000 
#    0.000    0.000    0.000    0.000    0.000    0.000 
#
# Total GULP energy -322107.247620 kJ/mol
# GULP energy per Si atom -12388.740293 kJ/mol
# Density = 2.110850 g / cm^3
# Si number density = 21.156651 Si / 1000 Ang^3
#
#
#
# Elastic Constant Matrix: (Units=GPa)
#
#
# Indices 1 2 3 4 5 6 
#
# 1 142.3402 23.5699 14.2218 0.0000 16.3634 0.0000
# 2 23.5699 97.1926 13.2755 0.0000 -0.6308 0.0000
# 3 14.2218 13.2755 112.9060 0.0000 7.1989 0.0000
# 4 0.0000 0.0000 0.0000 10.0370 0.0000 2.4626
# 5 16.3634 -0.6308 7.1989 0.0000 25.7224 0.0000
# 6 0.0000 0.0000 0.0000 2.4626 0.0000 17.1397
#
#
#
# Elastic Compliance Matrix: (Units=1/GPa)
#
#
# Indices 1 2 3 4 5 6 
#
# 1 0.007959 -0.001899 -0.000462 0.000000 -0.004980 0.000000
# 2 -0.001899 0.010920 -0.001159 0.000000 0.001801 0.000000
# 3 -0.000462 -0.001159 0.009199 0.000000 -0.002309 0.000000
# 4 0.000000 0.000000 0.000000 0.103272 0.000000 -0.014838
# 5 -0.004980 0.001801 -0.002309 0.000000 0.042735 0.000000
# 6 0.000000 0.000000 0.000000 -0.014838 0.000000 0.060476
#
#
# Mechanical properties :
#
#
# Convention : Reuss Voigt Hill
#
# Bulk Modulus (GPa) = 47.53765 50.50814 49.02290
# Shear Modulus (GPa) = 20.11159 30.67124 25.39141
#
# Velocity S-wave (km/s) = 3.08653 3.81165 3.46809
# Velocity P-wave (km/s) = 5.93468 6.58003 6.26567
#
# Compressibility (1/GPa) = 0.02103596
#
# Stress axis : x y z
#
# Youngs Moduli (GPa) = 125.65064 91.57925 108.71176
#
# Poissons Ratio (x) = 0.17394 0.05018
# Poissons Ratio (y) = 0.23865 0.12605
# Poissons Ratio (z) = 0.05800 0.10618
#
# Static dielectric constant tensor:
#      x y z
#    x 4.371660 0.000000 0.225070 
#    y 0.000000 3.609340 0.000000 
#    z 0.225070 0.000000 3.961030 
# 
# 
# High freq. dielectric constant tensor:
#      x y z
#    x 1.840530 0.000000 0.003750 
#    y 0.000000 1.802450 0.000000 
#    z 0.003750 0.000000 1.833280 
# 
# From -- ./inp_files/89443.got.cif
#   From: 2010.06.25/outbox.cif.g09.slc.cpg/sg13_45_cif.got.tgz:89443.got - 2010.06.28 04:50:58.
