data_PCOD8119018
_publ_section_title
;
Structure prediction by ZEFSAII (Michael W. Deem and Ramdas Pophale) SiO2 
 PCOD8119018
Probable space group: P 2/C
;
_chemical_formula_sum "Si O2"
_cell_formula_units_Z 28
_cell_length_a 13.986010
_cell_length_b 13.619861
_cell_length_c 9.710435
_cell_angle_alpha 90.000000
_cell_angle_beta 130.676576
_cell_angle_gamma 90.000000
_cell_volume 1402.826678
_symmetry_space_group_name_H-M "P 2/C"
_symmetry_group_IT_number 13
_symmetry_cell_setting 'monoclinic'
loop_
_space_group_symop_operation_xyz
x,y,z
-x,y,1/2-z
-x,-y,-z
x,-y,1/2+z
loop_
_atom_site_type_symbol
_atom_site_label
_atom_site_fract_x
_atom_site_fract_y
_atom_site_fract_z
Si Si1 0.358041 0.692278 0.063423
Si Si2 0.745185 0.811661 0.778487
Si Si3 0.410724 0.004715 0.289485
Si Si4 0.357203 0.277923 0.060233
Si Si5 0.265323 0.184575 0.704209
Si Si6 0.591619 0.485614 0.459693
Si Si7 0.999536 0.100600 0.414833
O O1 0.500000 0.694334 0.250000
O O2 0.271268 0.720186 0.111355
O O3 0.321018 0.582004 0.978633
O O4 0.343745 0.767527 0.924010
O O5 0.696419 0.915376 0.787049
O O6 0.740419 0.737631 0.904760
O O7 0.883648 0.828806 0.847068
O O8 0.500000 0.036416 0.250000
O O9 0.500000 0.000000 0.500000
O O10 0.340858 0.901871 0.196434
O O11 0.500000 0.262355 0.250000
O O12 0.329070 0.384392 0.963147
O O13 0.327596 0.199761 0.912315
O O14 0.119855 0.159031 0.581809
O O15 0.500000 0.468217 0.250000
O O16 0.500000 0.500000 0.500000
O O17 0.000000 0.081157 0.250000
O O18 0.000000 0.000000 0.500000
#
# Coordination Sequence:
#
# PCOD8119018 Si02
#       7
#     4   4   4   4   4   4   4
#     4  11  21  38  64  94 129 169 209 264 334 390
#     4  12  24  41  63  90 132 169 216 273 312 387
#     4  12  24  35  56  91 125 156 194 253 328 386
#     4  11  23  40  64 102 133 164 210 267 335 392
#     4  12  24  41  64  89 130 173 217 264 320 388
#     4  10  20  36  62  95 134 170 209 260 325 404
#     4  12  28  48  67  89 125 179 238 263 311 378
#
# _framework density 19.959700000000002
#
# number of rings (size 3 to 8) (size 9 to 14) (size 15 to 20)
#    0.000    0.571    2.857    8.571    2.000    0.000 
#    0.000    0.000    0.000    5.143    0.000    0.000 
#    0.000    0.000    0.000    0.000    0.000    0.000 
#
# Total GULP energy -347142.922467 kJ/mol
# GULP energy per Si atom -12397.961517 kJ/mol
# Density = 1.991427 g / cm^3
# Si number density = 19.959700 Si / 1000 Ang^3
#
#
#
# Elastic Constant Matrix: (Units=GPa)
#
#
# Indices 1 2 3 4 5 6 
#
# 1 131.6696 58.6343 47.6703 0.0000 -11.4951 0.0000
# 2 58.6343 117.3561 45.1214 0.0000 2.2299 0.0000
# 3 47.6703 45.1214 97.2024 0.0000 -17.3403 0.0000
# 4 0.0000 0.0000 0.0000 19.7701 0.0000 -12.7402
# 5 -11.4951 2.2299 -17.3403 0.0000 40.0137 0.0000
# 6 0.0000 0.0000 0.0000 -12.7402 0.0000 35.7655
#
#
#
# Elastic Compliance Matrix: (Units=1/GPa)
#
#
# Indices 1 2 3 4 5 6 
#
# 1 0.010736 -0.004285 -0.002908 0.000000 0.002063 0.000000
# 2 -0.004285 0.012400 -0.004332 0.000000 -0.003800 0.000000
# 3 -0.002908 -0.004332 0.014760 0.000000 0.005802 0.000000
# 4 0.000000 0.000000 0.000000 0.065652 0.000000 0.023386
# 5 0.002063 -0.003800 0.005802 0.000000 0.028310 0.000000
# 6 0.000000 0.000000 0.000000 0.023386 0.000000 0.036290
#
#
# Mechanical properties :
#
#
# Convention : Reuss Voigt Hill
#
# Bulk Modulus (GPa) = 67.36224 72.12001 69.74112
# Shear Modulus (GPa) = 25.49101 32.09668 28.79385
#
# Velocity S-wave (km/s) = 3.57756 4.01443 3.80228
# Velocity P-wave (km/s) = 7.13356 7.59597 7.36839
#
# Compressibility (1/GPa) = 0.01484511
#
# Stress axis : x y z
#
# Youngs Moduli (GPa) = 93.14564 80.64572 67.74987
#
# Poissons Ratio (x) = 0.34557 0.19702
# Poissons Ratio (y) = 0.39913 0.29352
# Poissons Ratio (z) = 0.27087 0.34939
#
# Static dielectric constant tensor:
#      x y z
#    x 3.329500 0.000000 -0.182150 
#    y 0.000000 4.539750 0.000000 
#    z -0.182150 0.000000 3.598670 
# 
# 
# High freq. dielectric constant tensor:
#      x y z
#    x 1.771730 0.000000 -0.031070 
#    y 0.000000 1.788230 0.000000 
#    z -0.031070 0.000000 1.776540 
# 
# From -- ./inp_files/16880.got.cif
#   From: 2010.06.25/outbox.cif.g09.slc.cpg/sg13_9_cif.got.tgz:16880.got - 2010.06.28 04:50:58.
