data_PCOD8119324
_publ_section_title
;
Structure prediction by ZEFSAII (Michael W. Deem and Ramdas Pophale) SiO2 
 PCOD8119324
Probable space group: P 2/C
;
_chemical_formula_sum "Si O2"
_cell_formula_units_Z 18
_cell_length_a 11.949403
_cell_length_b 9.281089
_cell_length_c 8.193627
_cell_angle_alpha 90.000000
_cell_angle_beta 118.736866
_cell_angle_gamma 90.000000
_cell_volume 796.783254
_symmetry_space_group_name_H-M "P 2/C"
_symmetry_group_IT_number 13
_symmetry_cell_setting 'monoclinic'
loop_
_space_group_symop_operation_xyz
x,y,z
-x,y,1/2-z
-x,-y,-z
x,-y,1/2+z
loop_
_atom_site_type_symbol
_atom_site_label
_atom_site_fract_x
_atom_site_fract_y
_atom_site_fract_z
Si Si1 0.500000 0.324281 0.750000
Si Si2 0.358864 0.181600 0.100341
Si Si3 0.321184 0.878924 0.928735
Si Si4 0.727037 0.577218 0.196370
Si Si5 0.142550 0.664244 0.908653
O O1 0.437457 0.221442 0.570662
O O2 0.399987 0.425911 0.778010
O O3 0.500000 0.230043 0.250000
O O4 0.286507 0.140045 0.214776
O O5 0.284436 0.308975 0.958009
O O6 0.359959 0.043627 0.982923
O O7 0.191398 0.829716 0.931321
O O8 0.847437 0.616493 0.395955
O O9 0.756729 0.423924 0.135515
O O10 0.000000 0.642546 0.750000
#
# Coordination Sequence:
#
# PCOD8119324 Si02
#       5
#     2   4   4   4   4
#     4  10  20  38  62 100 128 166 208 264 332 388
#     4  12  22  41  66 101 137 165 206 267 337 398
#     4  11  22  39  66  97 133 169 212 261 330 388
#     4  11  24  41  67  96 130 174 215 266 329 384
#     4  11  25  47  65  91 132 178 224 268 310 376
#
# _framework density 22.590834999999998
#
# number of rings (size 3 to 8) (size 9 to 14) (size 15 to 20)
#    0.000    0.889    3.333    5.333    0.000    3.556 
#   10.000    5.556    0.000    0.000    0.000    0.000 
#    0.000    0.000    0.000    0.000    0.000    0.000 
#
# Total GULP energy -223184.379817 kJ/mol
# GULP energy per Si atom -12399.132212 kJ/mol
# Density = 2.253942 g / cm^3
# Si number density = 22.590835 Si / 1000 Ang^3
#
#
#
# Elastic Constant Matrix: (Units=GPa)
#
#
# Indices 1 2 3 4 5 6 
#
# 1 59.3116 23.2077 33.0025 0.0000 11.2284 0.0000
# 2 23.2077 48.4270 29.3291 0.0000 25.0843 0.0000
# 3 33.0025 29.3291 163.5866 0.0000 4.5866 0.0000
# 4 0.0000 0.0000 0.0000 37.1480 0.0000 -11.8567
# 5 11.2284 25.0843 4.5866 0.0000 33.3039 0.0000
# 6 0.0000 0.0000 0.0000 -11.8567 0.0000 19.8567
#
#
#
# Elastic Compliance Matrix: (Units=1/GPa)
#
#
# Indices 1 2 3 4 5 6 
#
# 1 0.021877 -0.008394 -0.002890 0.000000 -0.000655 0.000000
# 2 -0.008394 0.042552 -0.005136 0.000000 -0.028512 0.000000
# 3 -0.002890 -0.005136 0.007510 0.000000 0.003809 0.000000
# 4 0.000000 0.000000 0.000000 0.033258 0.000000 0.019859
# 5 -0.000655 -0.028512 0.003809 0.000000 0.051198 0.000000
# 6 0.000000 0.000000 0.000000 0.019859 0.000000 0.062219
#
#
# Mechanical properties :
#
#
# Convention : Reuss Voigt Hill
#
# Bulk Modulus (GPa) = 25.57690 49.15598 37.36644
# Shear Modulus (GPa) = 18.90449 30.44744 24.67596
#
# Velocity S-wave (km/s) = 2.89592 3.67519 3.30858
# Velocity P-wave (km/s) = 4.74639 6.30998 5.58319
#
# Compressibility (1/GPa) = 0.03909777
#
# Stress axis : x y z
#
# Youngs Moduli (GPa) = 45.71037 23.50065 133.15395
#
# Poissons Ratio (x) = 0.19727 0.38483
# Poissons Ratio (y) = 0.38371 0.68390
# Poissons Ratio (z) = 0.13211 0.12070
#
# Static dielectric constant tensor:
#      x y z
#    x 3.728490 0.000000 -0.225480 
#    y 0.000000 4.004600 0.000000 
#    z -0.225480 0.000000 4.496310 
# 
# 
# High freq. dielectric constant tensor:
#      x y z
#    x 1.855980 0.000000 -0.020190 
#    y 0.000000 1.888040 0.000000 
#    z -0.020190 0.000000 1.918570 
# 
# From -- ./inp_files/14489.got.cif
#   From: 2010.06.25/outbox.cif.g09.slc.cpg/sg13_8_cif.got.tgz:14489.got - 2010.06.28 04:50:58.
