data_PCOD8119665
_publ_section_title
;
Structure prediction by ZEFSAII (Michael W. Deem and Ramdas Pophale) SiO2 
 PCOD8119665
Probable space group: P 2/C
;
_chemical_formula_sum "Si O2"
_cell_formula_units_Z 20
_cell_length_a 8.167151
_cell_length_b 11.829681
_cell_length_c 17.981544
_cell_angle_alpha 90.000000
_cell_angle_beta 32.300173
_cell_angle_gamma 90.000000
_cell_volume 928.325748
_symmetry_space_group_name_H-M "P 2/C"
_symmetry_group_IT_number 13
_symmetry_cell_setting 'monoclinic'
loop_
_space_group_symop_operation_xyz
x,y,z
-x,y,1/2-z
-x,-y,-z
x,-y,1/2+z
loop_
_atom_site_type_symbol
_atom_site_label
_atom_site_fract_x
_atom_site_fract_y
_atom_site_fract_z
Si Si1 0.618907 0.912166 0.621839
Si Si2 0.646607 0.634345 0.024946
Si Si3 0.304648 0.534110 0.751950
Si Si4 0.643862 0.272302 0.372430
Si Si5 0.282412 0.161072 0.897358
O O1 0.500000 0.879747 0.750000
O O2 0.446521 0.852742 0.619160
O O3 0.965935 0.872325 0.480381
O O4 0.575250 0.045707 0.623295
O O5 0.366661 0.571819 0.173443
O O6 0.766153 0.745261 0.021604
O O7 0.498668 0.678642 0.004267
O O8 0.939055 0.549139 0.905222
O O9 0.500000 0.509451 0.750000
O O10 0.447217 0.645989 0.660334
O O11 0.000000 0.275310 0.250000
O O12 0.500000 0.211877 0.750000
#
# Coordination Sequence:
#
# PCOD8119665 Si02
#       5
#     4   4   4   4   4
#     4  10  20  40  67  90 120 161 198 242 301 366
#     4  11  23  39  58  87 122 156 201 253 302 353
#     4  11  22  38  61  83 115 161 207 249 296 356
#     4  10  21  37  61  90 122 157 199 248 303 363
#     4  10  22  40  63  92 122 154 202 251 297 359
#
# _framework density 21.544160000000002
#
# number of rings (size 3 to 8) (size 9 to 14) (size 15 to 20)
#    0.000    1.600    0.000    6.000    0.000    2.400 
#    0.000    3.000    0.000    0.000    0.000    0.000 
#    0.000    0.000    0.000    0.000    0.000    0.000 
#
# Total GULP energy -247959.726685 kJ/mol
# GULP energy per Si atom -12397.986334 kJ/mol
# Density = 2.149512 g / cm^3
# Si number density = 21.544160 Si / 1000 Ang^3
#
#
#
# Elastic Constant Matrix: (Units=GPa)
#
#
# Indices 1 2 3 4 5 6 
#
# 1 71.2079 42.9967 35.8310 0.0000 23.2982 0.0000
# 2 42.9967 114.9650 42.8815 0.0000 12.5991 0.0000
# 3 35.8310 42.8815 109.0590 0.0000 17.5558 0.0000
# 4 0.0000 0.0000 0.0000 33.6822 0.0000 6.1039
# 5 23.2982 12.5991 17.5558 0.0000 18.7112 0.0000
# 6 0.0000 0.0000 0.0000 6.1039 0.0000 21.1819
#
#
#
# Elastic Compliance Matrix: (Units=1/GPa)
#
#
# Indices 1 2 3 4 5 6 
#
# 1 0.028767 -0.006774 -0.002068 0.000000 -0.029317 0.000000
# 2 -0.006774 0.012005 -0.003005 0.000000 0.003171 0.000000
# 3 -0.002068 -0.003005 0.012121 0.000000 -0.006774 0.000000
# 4 0.000000 0.000000 0.000000 0.031325 0.000000 -0.009027
# 5 -0.029317 0.003171 -0.006774 0.000000 0.094168 0.000000
# 6 0.000000 0.000000 0.000000 -0.009027 0.000000 0.049811
#
#
# Mechanical properties :
#
#
# Convention : Reuss Voigt Hill
#
# Bulk Modulus (GPa) = 34.24989 59.85003 47.04996
# Shear Modulus (GPa) = 19.11130 26.28323 22.69727
#
# Velocity S-wave (km/s) = 2.98161 3.49660 3.24932
# Velocity P-wave (km/s) = 5.27119 6.64395 5.99698
#
# Compressibility (1/GPa) = 0.02919718
#
# Stress axis : x y z
#
# Youngs Moduli (GPa) = 34.76249 83.29649 82.50226
#
# Poissons Ratio (x) = 0.56428 0.17064
# Poissons Ratio (y) = 0.23549 0.24793
# Poissons Ratio (z) = 0.07190 0.25032
#
# Static dielectric constant tensor:
#      x y z
#    x 3.853880 0.000000 0.319300 
#    y 0.000000 4.135810 0.000000 
#    z 0.319300 0.000000 4.044260 
# 
# 
# High freq. dielectric constant tensor:
#      x y z
#    x 1.830460 0.000000 0.010720 
#    y 0.000000 1.853140 0.000000 
#    z 0.010720 0.000000 1.848720 
# 
# From -- ./inp_files/34010.got.cif
#   From: 2010.06.25/outbox.cif.g09.slc.cpg/sg13_18_cif.got.tgz:34010.got - 2010.06.28 04:50:58.
