data_PCOD8119900
_publ_section_title
;
Structure prediction by ZEFSAII (Michael W. Deem and Ramdas Pophale) SiO2 
 PCOD8119900
Probable space group: P 2/C
;
_chemical_formula_sum "Si O2"
_cell_formula_units_Z 32
_cell_length_a 11.165652
_cell_length_b 9.258708
_cell_length_c 22.072183
_cell_angle_alpha 90.000000
_cell_angle_beta 45.333538
_cell_angle_gamma 90.000000
_cell_volume 1622.849626
_symmetry_space_group_name_H-M "P 2/C"
_symmetry_group_IT_number 13
_symmetry_cell_setting 'monoclinic'
loop_
_space_group_symop_operation_xyz
x,y,z
-x,y,1/2-z
-x,-y,-z
x,-y,1/2+z
loop_
_atom_site_type_symbol
_atom_site_label
_atom_site_fract_x
_atom_site_fract_y
_atom_site_fract_z
Si Si1 0.248866 0.147826 0.302790
Si Si2 0.103212 0.451110 0.375163
Si Si3 0.246094 0.446709 0.452388
Si Si4 0.495066 0.600367 0.060708
Si Si5 0.134330 0.066403 0.748702
Si Si6 0.392164 0.858171 0.878809
Si Si7 0.860153 0.387298 0.756631
Si Si8 0.501456 0.923742 0.062878
O O1 0.121053 0.280530 0.357805
O O2 0.414638 0.190890 0.204253
O O3 0.306526 0.085893 0.347328
O O4 0.140029 0.025878 0.308056
O O5 0.212190 0.494453 0.395263
O O6 0.181628 0.525301 0.288729
O O7 0.911561 0.505426 0.450212
O O8 0.409312 0.529375 0.417263
O O9 0.285487 0.276179 0.443291
O O10 0.302564 0.619753 0.144631
O O11 0.571320 0.761804 0.025793
O O12 0.500000 0.500000 0.000000
O O13 0.075180 0.228371 0.786238
O O14 0.315035 0.074836 0.654477
O O15 0.000000 0.995660 0.750000
O O16 0.382018 0.988590 0.930788
O O17 0.000000 0.462437 0.750000
O O18 0.500000 0.000000 0.000000
#
# Coordination Sequence:
#
# PCOD8119900 Si02
#       8
#     4   4   4   4   4   4   4   4
#     4   9  18  34  56  80 104 139 185 225 268 321
#     4  10  21  36  56  81 109 143 182 225 274 325
#     4  10  21  37  55  80 112 143 181 227 272 323
#     4  11  22  36  57  83 110 142 183 228 272 326
#     4   9  20  36  54  78 107 138 175 221 269 323
#     4   9  18  35  56  77 108 144 178 223 273 324
#     4  10  21  37  56  79 109 144 178 220 277 328
#     4  10  21  35  54  80 107 141 180 219 272 328
#
# _framework density 19.718401
#
# number of rings (size 3 to 8) (size 9 to 14) (size 15 to 20)
#    0.000    2.250    0.000    2.250    0.000    7.000 
#    0.000    2.500    0.000    5.250    0.000    0.000 
#    0.000    0.000    0.000    0.000    0.000    0.000 
#
# Total GULP energy -396721.283199 kJ/mol
# GULP energy per Si atom -12397.540100 kJ/mol
# Density = 1.967352 g / cm^3
# Si number density = 19.718401 Si / 1000 Ang^3
#
#
#
# Elastic Constant Matrix: (Units=GPa)
#
#
# Indices 1 2 3 4 5 6 
#
# 1 127.8199 67.2818 29.2175 0.0000 18.4422 0.0000
# 2 67.2818 124.5895 46.2683 0.0000 23.4537 0.0000
# 3 29.2175 46.2683 62.1744 0.0000 21.6014 0.0000
# 4 0.0000 0.0000 0.0000 31.2461 0.0000 8.5366
# 5 18.4422 23.4537 21.6014 0.0000 31.7613 0.0000
# 6 0.0000 0.0000 0.0000 8.5366 0.0000 33.3657
#
#
#
# Elastic Compliance Matrix: (Units=1/GPa)
#
#
# Indices 1 2 3 4 5 6 
#
# 1 0.011086 -0.005424 -0.000430 0.000000 -0.002139 0.000000
# 2 -0.005424 0.014029 -0.007052 0.000000 -0.002413 0.000000
# 3 -0.000430 -0.007052 0.025714 0.000000 -0.012031 0.000000
# 4 0.000000 0.000000 0.000000 0.034409 0.000000 -0.008804
# 5 -0.002139 -0.002413 -0.012031 0.000000 0.042692 0.000000
# 6 0.000000 0.000000 0.000000 -0.008804 0.000000 0.032223
#
#
# Mechanical properties :
#
#
# Convention : Reuss Voigt Hill
#
# Bulk Modulus (GPa) = 39.97472 66.67989 53.32730
# Shear Modulus (GPa) = 25.73288 30.72904 28.23096
#
# Velocity S-wave (km/s) = 3.61642 3.95193 3.78789
# Velocity P-wave (km/s) = 6.14450 7.39684 6.79956
#
# Compressibility (1/GPa) = 0.02501581
#
# Stress axis : x y z
#
# Youngs Moduli (GPa) = 90.20712 71.28098 38.88949
#
# Poissons Ratio (x) = 0.38665 0.01671
# Poissons Ratio (y) = 0.48931 0.27426
# Poissons Ratio (z) = 0.03875 0.50270
#
# Static dielectric constant tensor:
#      x y z
#    x 3.722140 0.000000 0.101270 
#    y 0.000000 3.788720 0.000000 
#    z 0.101270 0.000000 3.402040 
# 
# 
# High freq. dielectric constant tensor:
#      x y z
#    x 1.780020 0.000000 0.009660 
#    y 0.000000 1.764070 0.000000 
#    z 0.009660 0.000000 1.759580 
# 
# From -- ./inp_files/78268.got.cif
#   From: 2010.06.25/outbox.cif.g09.slc.cpg/sg13_40_cif.got.tgz:78268.got - 2010.06.28 04:50:58.
