data_PCOD8119042
_publ_section_title
;
Structure prediction by ZEFSAII (Michael W. Deem and Ramdas Pophale) SiO2 
 PCOD8119042
Probable space group: P 2/C
;
_chemical_formula_sum "Si O2"
_cell_formula_units_Z 22
_cell_length_a 7.894558
_cell_length_b 16.172750
_cell_length_c 9.361624
_cell_angle_alpha 90.000000
_cell_angle_beta 111.842790
_cell_angle_gamma 90.000000
_cell_volume 1109.451438
_symmetry_space_group_name_H-M "P 2/C"
_symmetry_group_IT_number 13
_symmetry_cell_setting 'monoclinic'
loop_
_space_group_symop_operation_xyz
x,y,z
-x,y,1/2-z
-x,-y,-z
x,-y,1/2+z
loop_
_atom_site_type_symbol
_atom_site_label
_atom_site_fract_x
_atom_site_fract_y
_atom_site_fract_z
Si Si1 0.500000 0.501603 0.250000
Si Si2 0.865325 0.000691 0.828794
Si Si3 0.522691 0.775171 0.989157
Si Si4 0.642879 0.607253 0.541000
Si Si5 0.226114 0.184987 0.168020
Si Si6 0.500000 0.108991 0.750000
Si Si7 0.000000 0.304976 0.250000
O O1 0.637676 0.555630 0.391570
O O2 0.389166 0.445994 0.326616
O O3 0.682521 0.054433 0.791277
O O4 0.000000 0.035848 0.750000
O O5 0.802774 0.907431 0.785868
O O6 0.000000 0.000000 0.000000
O O7 0.513596 0.678389 0.029250
O O8 0.714064 0.805777 0.979592
O O9 0.375948 0.779368 0.819644
O O10 0.473514 0.833943 0.104760
O O11 0.845686 0.640674 0.627101
O O12 0.053863 0.244424 0.135481
#
# Coordination Sequence:
#
# PCOD8119042 Si02
#       7
#     2   4   4   4   4   2   2
#     4  10  21  40  63  88 124 158 198 248 313 388
#     4  12  25  40  60  90 128 168 216 274 312 368
#     4  10  21  39  63  86 117 164 211 250 310 384
#     4  10  21  38  62  90 121 158 200 254 312 381
#     4  10  20  38  61  83 119 166 209 251 310 369
#     4  12  25  40  61  92 130 170 218 272 327 356
#     4  10  20  36  64  92 122 158 208 258 310 376
#
# _framework density 19.829618
#
# number of rings (size 3 to 8) (size 9 to 14) (size 15 to 20)
#    0.000    1.455    0.909    6.000    2.545    2.909 
#    0.000    0.000    0.000    4.364    0.000    0.000 
#    0.000    0.000    0.000    0.000    0.000    0.000 
#
# Total GULP energy -272576.920523 kJ/mol
# GULP energy per Si atom -12389.860024 kJ/mol
# Density = 1.978448 g / cm^3
# Si number density = 19.829618 Si / 1000 Ang^3
#
#
#
# Elastic Constant Matrix: (Units=GPa)
#
#
# Indices 1 2 3 4 5 6 
#
# 1 131.1021 62.9958 56.6153 0.0000 -21.1876 0.0000
# 2 62.9958 135.0329 53.5213 0.0000 -9.7923 0.0000
# 3 56.6153 53.5213 110.6729 0.0000 -20.0664 0.0000
# 4 0.0000 0.0000 0.0000 30.2110 0.0000 -4.6005
# 5 -21.1876 -9.7923 -20.0664 0.0000 29.9735 0.0000
# 6 0.0000 0.0000 0.0000 -4.6005 0.0000 38.4103
#
#
#
# Elastic Compliance Matrix: (Units=1/GPa)
#
#
# Indices 1 2 3 4 5 6 
#
# 1 0.011626 -0.003790 -0.003243 0.000000 0.004809 0.000000
# 2 -0.003790 0.010397 -0.003368 0.000000 -0.001537 0.000000
# 3 -0.003243 -0.003368 0.013326 0.000000 0.005529 0.000000
# 4 0.000000 0.000000 0.000000 0.033715 0.000000 0.004038
# 5 0.004809 -0.001537 0.005529 0.000000 0.039962 0.000000
# 6 0.000000 0.000000 0.000000 0.004038 0.000000 0.026518
#
#
# Mechanical properties :
#
#
# Convention : Reuss Voigt Hill
#
# Bulk Modulus (GPa) = 68.73857 80.34141 74.53999
# Shear Modulus (GPa) = 31.01836 33.29732 32.15784
#
# Velocity S-wave (km/s) = 3.95934 4.10221 4.03141
# Velocity P-wave (km/s) = 7.45934 7.93986 7.70335
#
# Compressibility (1/GPa) = 0.01454787
#
# Stress axis : x y z
#
# Youngs Moduli (GPa) = 86.01188 96.18036 75.04341
#
# Poissons Ratio (x) = 0.36451 0.24334
# Poissons Ratio (y) = 0.32598 0.25275
# Poissons Ratio (z) = 0.27891 0.32393
#
# Static dielectric constant tensor:
#      x y z
#    x 4.242410 0.000000 -0.477620 
#    y 0.000000 3.511680 0.000000 
#    z -0.477620 0.000000 3.730700 
# 
# 
# High freq. dielectric constant tensor:
#      x y z
#    x 1.772880 0.000000 -0.014110 
#    y 0.000000 1.789160 0.000000 
#    z -0.014110 0.000000 1.773400 
# 
# From -- ./inp_files/12593.got.cif
#   From: 2010.06.25/outbox.cif.g09.slc.cpg/sg13_7_cif.got.tgz:12593.got - 2010.06.28 04:50:58.
