data_PCOD8120522
_publ_section_title
;
Structure prediction by ZEFSAII (Michael W. Deem and Ramdas Pophale) SiO2 
 PCOD8120522
Probable space group: P 2/C
;
_chemical_formula_sum "Si O2"
_cell_formula_units_Z 16
_cell_length_a 14.276280
_cell_length_b 4.809126
_cell_length_c 15.106911
_cell_angle_alpha 90.000000
_cell_angle_beta 41.454133
_cell_angle_gamma 90.000000
_cell_volume 686.638536
_symmetry_space_group_name_H-M "P 2/C"
_symmetry_group_IT_number 13
_symmetry_cell_setting 'monoclinic'
loop_
_space_group_symop_operation_xyz
x,y,z
-x,y,1/2-z
-x,-y,-z
x,-y,1/2+z
loop_
_atom_site_type_symbol
_atom_site_label
_atom_site_fract_x
_atom_site_fract_y
_atom_site_fract_z
Si Si1 0.842652 0.757364 0.178379
Si Si2 0.623481 0.087651 0.976864
Si Si3 0.622105 0.430148 0.596928
Si Si4 0.163981 0.752759 0.933409
O O1 0.761039 0.809587 0.326886
O O2 0.831302 0.438137 0.157560
O O3 0.777681 0.949870 0.144074
O O4 0.007156 0.819367 0.080136
O O5 0.555488 0.350099 0.075761
O O6 0.500000 0.000000 0.000000
O O7 0.673404 0.845222 0.009152
O O8 0.500000 0.336072 0.750000
O O9 0.749868 0.603621 0.550270
#
# Coordination Sequence:
#
# PCOD8120522 Si02
#       4
#     4   4   4   4
#     4  10  21  40  63  88 122 163 205 253 314 376
#     4  12  24  40  63  92 127 166 213 265 316 378
#     4  12  24  40  63  92 127 166 212 263 316 376
#     4  10  21  40  63  88 122 163 205 253 312 376
#
# _framework density 23.301926999999999
#
# number of rings (size 3 to 8) (size 9 to 14) (size 15 to 20)
#    0.000    1.000    0.000    7.500    0.000    1.000 
#    0.000    2.500    0.000    0.000    0.000    0.000 
#    0.000    0.000    0.000    0.000    0.000    0.000 
#
# Total GULP energy -198410.765461 kJ/mol
# GULP energy per Si atom -12400.672841 kJ/mol
# Density = 2.324889 g / cm^3
# Si number density = 23.301927 Si / 1000 Ang^3
#
#
#
# Elastic Constant Matrix: (Units=GPa)
#
#
# Indices 1 2 3 4 5 6 
#
# 1 51.5608 -3.8523 52.5030 0.0000 0.0074 0.0000
# 2 -3.8523 108.1573 55.0259 0.0000 6.7715 0.0000
# 3 52.5030 55.0259 149.1523 0.0000 9.8841 0.0000
# 4 0.0000 0.0000 0.0000 43.2181 0.0000 9.3392
# 5 0.0074 6.7715 9.8841 0.0000 27.0015 0.0000
# 6 0.0000 0.0000 0.0000 9.3392 0.0000 37.7934
#
#
#
# Elastic Compliance Matrix: (Units=1/GPa)
#
#
# Indices 1 2 3 4 5 6 
#
# 1 0.037489 0.009774 -0.017053 0.000000 0.003781 0.000000
# 2 0.009774 0.013979 -0.008573 0.000000 -0.000370 0.000000
# 3 -0.017053 -0.008573 0.016119 0.000000 -0.003746 0.000000
# 4 0.000000 0.000000 0.000000 0.024444 0.000000 -0.006040
# 5 0.003781 -0.000370 -0.003746 0.000000 0.038498 0.000000
# 6 0.000000 0.000000 0.000000 -0.006040 0.000000 0.027952
#
#
# Mechanical properties :
#
#
# Convention : Reuss Voigt Hill
#
# Bulk Modulus (GPa) = 27.86873 57.35816 42.61344
# Shear Modulus (GPa) = 24.73473 35.28220 30.00846
#
# Velocity S-wave (km/s) = 3.26158 3.89541 3.59250
# Velocity P-wave (km/s) = 5.11563 6.70081 5.96115
#
# Compressibility (1/GPa) = 0.03588251
#
# Stress axis : x y z
#
# Youngs Moduli (GPa) = 26.67449 71.53666 62.04048
#
# Poissons Ratio (x) = -0.69923 1.05798
# Poissons Ratio (y) = -0.26073 0.53189
# Poissons Ratio (z) = 0.45488 0.61331
#
# Static dielectric constant tensor:
#      x y z
#    x 4.052970 0.000000 0.132600 
#    y 0.000000 4.595990 0.000000 
#    z 0.132600 0.000000 4.207080 
# 
# 
# High freq. dielectric constant tensor:
#      x y z
#    x 1.910790 0.000000 0.004450 
#    y 0.000000 1.948170 0.000000 
#    z 0.004450 0.000000 1.921560 
# 
# From -- ./inp_files/51964.got.cif
#   From: 2010.06.25/outbox.cif.g09.slc.cpg/sg13_26_cif.got.tgz:51964.got - 2010.06.28 04:50:58.
