data_PCOD8120106
_publ_section_title
;
Structure prediction by ZEFSAII (Michael W. Deem and Ramdas Pophale) SiO2 
 PCOD8120106
Probable space group: P 2/C
;
_chemical_formula_sum "Si O2"
_cell_formula_units_Z 24
_cell_length_a 14.840824
_cell_length_b 8.929607
_cell_length_c 17.060015
_cell_angle_alpha 90.000000
_cell_angle_beta 148.316733
_cell_angle_gamma 90.000000
_cell_volume 1187.445350
_symmetry_space_group_name_H-M "P 2/C"
_symmetry_group_IT_number 13
_symmetry_cell_setting 'monoclinic'
loop_
_space_group_symop_operation_xyz
x,y,z
-x,y,1/2-z
-x,-y,-z
x,-y,1/2+z
loop_
_atom_site_type_symbol
_atom_site_label
_atom_site_fract_x
_atom_site_fract_y
_atom_site_fract_z
Si Si1 0.823758 0.569561 0.084615
Si Si2 0.496171 0.378543 0.840390
Si Si3 0.824304 0.905770 0.084379
Si Si4 0.830890 0.424450 0.405584
Si Si5 0.164996 0.911937 0.592489
Si Si6 0.502889 0.941822 0.090793
O O1 0.791000 0.737809 0.092557
O O2 0.000000 0.502826 0.250000
O O3 0.667961 0.463808 0.993833
O O4 0.841015 0.579446 0.005418
O O5 0.500000 0.337475 0.750000
O O6 0.337664 0.485508 0.745131
O O7 0.481773 0.236390 0.886883
O O8 0.000000 0.970915 0.250000
O O9 0.840921 0.909462 0.004451
O O10 0.671059 0.011540 0.996080
O O11 0.827930 0.256650 0.368625
O O12 0.000000 0.500000 0.500000
O O13 0.336034 0.991462 0.745866
O O14 0.000000 0.000000 0.500000
O O15 0.500000 0.000000 0.000000
#
# Coordination Sequence:
#
# PCOD8120106 Si02
#       6
#     4   4   4   4   4   4
#     4   9  20  38  61  86 114 149 190 237 296 354
#     4  10  21  39  60  84 116 155 196 242 295 354
#     4  10  21  40  62  86 118 154 193 244 299 357
#     4  10  21  37  60  87 116 151 194 241 294 352
#     4  11  22  39  62  88 120 158 196 242 299 358
#     4  12  25  39  58  87 119 157 202 246 295 353
#
# _framework density 20.211456999999999
#
# number of rings (size 3 to 8) (size 9 to 14) (size 15 to 20)
#    0.000    1.667    0.000    4.500    0.000    8.667 
#    0.000    2.500    0.000    0.000    0.000    0.000 
#    0.000    0.000    0.000    0.000    0.000    0.000 
#
# Total GULP energy -297627.076266 kJ/mol
# GULP energy per Si atom -12401.128178 kJ/mol
# Density = 2.016545 g / cm^3
# Si number density = 20.211457 Si / 1000 Ang^3
#
#
#
# Elastic Constant Matrix: (Units=GPa)
#
#
# Indices 1 2 3 4 5 6 
#
# 1 73.2457 57.8813 40.3639 0.0000 21.7983 0.0000
# 2 57.8813 164.6693 81.1925 0.0000 23.8922 0.0000
# 3 40.3639 81.1925 181.5493 0.0000 29.4884 0.0000
# 4 0.0000 0.0000 0.0000 25.8772 0.0000 4.6482
# 5 21.7983 23.8922 29.4884 0.0000 38.0596 0.0000
# 6 0.0000 0.0000 0.0000 4.6482 0.0000 34.2509
#
#
#
# Elastic Compliance Matrix: (Units=1/GPa)
#
#
# Indices 1 2 3 4 5 6 
#
# 1 0.021042 -0.005883 -0.000789 0.000000 -0.007747 0.000000
# 2 -0.005883 0.009650 -0.002941 0.000000 -0.000410 0.000000
# 3 -0.000789 -0.002941 0.007580 0.000000 -0.003574 0.000000
# 4 0.000000 0.000000 0.000000 0.039610 0.000000 -0.005375
# 5 -0.007747 -0.000410 -0.003574 0.000000 0.033738 0.000000
# 6 0.000000 0.000000 0.000000 -0.005375 0.000000 0.029926
#
#
# Mechanical properties :
#
#
# Convention : Reuss Voigt Hill
#
# Bulk Modulus (GPa) = 52.50642 86.48216 69.49429
# Shear Modulus (GPa) = 29.91838 35.63931 32.77885
#
# Velocity S-wave (km/s) = 3.85160 4.20375 4.03152
# Velocity P-wave (km/s) = 6.76866 8.15129 7.49194
#
# Compressibility (1/GPa) = 0.01904529
#
# Stress axis : x y z
#
# Youngs Moduli (GPa) = 47.52345 103.62207 131.93479
#
# Poissons Ratio (x) = 0.60964 0.10407
# Poissons Ratio (y) = 0.27960 0.38806
# Poissons Ratio (z) = 0.03749 0.30478
#
# Static dielectric constant tensor:
#      x y z
#    x 3.463000 0.000000 -0.067320 
#    y 0.000000 4.160990 0.000000 
#    z -0.067320 0.000000 3.695180 
# 
# 
# High freq. dielectric constant tensor:
#      x y z
#    x 1.783410 0.000000 0.009840 
#    y 0.000000 1.798420 0.000000 
#    z 0.009840 0.000000 1.808410 
# 
# From -- ./inp_files/68321.got.cif
#   From: 2010.06.25/outbox.cif.g09.slc.cpg/sg13_35_cif.got.tgz:68321.got - 2010.06.28 04:50:58.
