data_PCOD8120947
_publ_section_title
;
Structure prediction by ZEFSAII (Michael W. Deem and Ramdas Pophale) SiO2 
 PCOD8120947
Probable space group: P 2/C
;
_chemical_formula_sum "Si O2"
_cell_formula_units_Z 28
_cell_length_a 13.325128
_cell_length_b 12.910137
_cell_length_c 9.473347
_cell_angle_alpha 90.000000
_cell_angle_beta 121.370736
_cell_angle_gamma 90.000000
_cell_volume 1391.458885
_symmetry_space_group_name_H-M "P 2/C"
_symmetry_group_IT_number 13
_symmetry_cell_setting 'monoclinic'
loop_
_space_group_symop_operation_xyz
x,y,z
-x,y,1/2-z
-x,-y,-z
x,-y,1/2+z
loop_
_atom_site_type_symbol
_atom_site_label
_atom_site_fract_x
_atom_site_fract_y
_atom_site_fract_z
Si Si1 0.871362 0.586528 0.673697
Si Si2 0.863241 0.212840 0.660377
Si Si3 0.726648 0.316459 0.305694
Si Si4 0.417819 0.519885 0.312033
Si Si5 0.403742 0.888238 0.852436
Si Si6 0.811800 0.606941 0.309932
Si Si7 0.341030 0.947227 0.508652
O O1 0.796449 0.666098 0.711578
O O2 0.824118 0.575134 0.481826
O O3 0.876847 0.475971 0.757036
O O4 0.000000 0.633761 0.750000
O O5 0.817431 0.283290 0.495783
O O6 0.856368 0.279756 0.799485
O O7 0.780597 0.112232 0.615092
O O8 0.000000 0.178454 0.750000
O O9 0.654067 0.418772 0.295693
O O10 0.632238 0.228760 0.202933
O O11 0.500000 0.565900 0.250000
O O12 0.500000 0.500000 0.500000
O O13 0.328799 0.604703 0.310129
O O14 0.360297 0.958844 0.689609
O O15 0.545150 0.888246 0.974257
O O16 0.338114 0.937319 0.940174
#
# Coordination Sequence:
#
# PCOD8120947 Si02
#       7
#     4   4   4   4   4   4   4
#     4  11  21  37  55  79 111 153 195 236 282 342
#     4  11  22  39  60  87 117 157 202 241 290 354
#     4  10  22  37  59  84 115 155 191 242 300 350
#     4  11  22  35  54  81 116 149 189 238 289 349
#     4   9  19  38  61  85 115 147 192 237 299 353
#     4  11  22  36  54  82 112 153 195 237 287 340
#     4   9  20  37  61  86 113 153 189 242 292 352
#
# _framework density 20.122765000000001
#
# number of rings (size 3 to 8) (size 9 to 14) (size 15 to 20)
#    0.000    1.714    0.000    6.000    6.000    1.143 
#    0.000    3.571    0.000    0.000    0.000    0.000 
#    0.000    0.000    0.000    0.000    0.000    0.000 
#
# Total GULP energy -347049.869073 kJ/mol
# GULP energy per Si atom -12394.638181 kJ/mol
# Density = 2.007697 g / cm^3
# Si number density = 20.122765 Si / 1000 Ang^3
#
#
#
# Elastic Constant Matrix: (Units=GPa)
#
#
# Indices 1 2 3 4 5 6 
#
# 1 125.9140 25.2518 27.7333 0.0000 9.4035 0.0000
# 2 25.2518 46.6171 3.3135 0.0000 4.4093 0.0000
# 3 27.7333 3.3135 75.3197 0.0000 -1.5933 0.0000
# 4 0.0000 0.0000 0.0000 23.4611 0.0000 -0.9393
# 5 9.4035 4.4093 -1.5933 0.0000 42.5696 0.0000
# 6 0.0000 0.0000 0.0000 -0.9393 0.0000 27.6705
#
#
#
# Elastic Compliance Matrix: (Units=1/GPa)
#
#
# Indices 1 2 3 4 5 6 
#
# 1 0.009816 -0.004904 -0.003436 0.000000 -0.001789 0.000000
# 2 -0.004904 0.024189 0.000712 0.000000 -0.001396 0.000000
# 3 -0.003436 0.000712 0.014537 0.000000 0.001229 0.000000
# 4 0.000000 0.000000 0.000000 0.042682 0.000000 0.001449
# 5 -0.001789 -0.001396 0.001229 0.000000 0.024077 0.000000
# 6 0.000000 0.000000 0.000000 0.001449 0.000000 0.036189
#
#
# Mechanical properties :
#
#
# Convention : Reuss Voigt Hill
#
# Bulk Modulus (GPa) = 30.04327 40.04977 35.04652
# Shear Modulus (GPa) = 28.11516 31.51040 29.81278
#
# Velocity S-wave (km/s) = 3.74194 3.96145 3.85326
# Velocity P-wave (km/s) = 5.79930 6.39297 6.10336
#
# Compressibility (1/GPa) = 0.03328532
#
# Stress axis : x y z
#
# Youngs Moduli (GPa) = 101.87622 41.34115 68.79126
#
# Poissons Ratio (x) = 0.20272 0.23639
# Poissons Ratio (y) = 0.49956 -0.04897
# Poissons Ratio (z) = 0.35009 -0.02943
#
# Static dielectric constant tensor:
#      x y z
#    x 3.761970 0.000000 0.049470 
#    y 0.000000 3.381290 0.000000 
#    z 0.049470 0.000000 3.857970 
# 
# 
# High freq. dielectric constant tensor:
#      x y z
#    x 1.798130 0.000000 0.000560 
#    y 0.000000 1.749840 0.000000 
#    z 0.000560 0.000000 1.795580 
# 
# From -- ./inp_files/16528.got.cif
#   From: 2010.06.25/outbox.cif.g09.slc.cpg/sg13_9_cif.got.tgz:16528.got - 2010.06.28 04:50:58.
