data_PCOD8120531
_publ_section_title
;
Structure prediction by ZEFSAII (Michael W. Deem and Ramdas Pophale) SiO2 
 PCOD8120531
Probable space group: P 2/C
;
_chemical_formula_sum "Si O2"
_cell_formula_units_Z 30
_cell_length_a 13.534517
_cell_length_b 8.678865
_cell_length_c 12.279830
_cell_angle_alpha 90.000000
_cell_angle_beta 87.718484
_cell_angle_gamma 90.000000
_cell_volume 1441.297533
_symmetry_space_group_name_H-M "P 2/C"
_symmetry_group_IT_number 13
_symmetry_cell_setting 'monoclinic'
loop_
_space_group_symop_operation_xyz
x,y,z
-x,y,1/2-z
-x,-y,-z
x,-y,1/2+z
loop_
_atom_site_type_symbol
_atom_site_label
_atom_site_fract_x
_atom_site_fract_y
_atom_site_fract_z
Si Si1 0.071230 0.777037 0.048678
Si Si2 0.469030 0.257502 0.526552
Si Si3 0.065066 0.103380 0.135999
Si Si4 0.735362 0.253439 0.323196
Si Si5 0.434329 0.966659 0.649648
Si Si6 0.180699 0.416259 0.370583
Si Si7 0.346653 0.551598 0.482705
Si Si8 0.000000 0.567816 0.250000
O O1 0.033005 0.668723 0.146601
O O2 0.107303 0.933772 0.105186
O O3 0.153050 0.682529 0.978731
O O4 0.990019 0.823766 0.964067
O O5 0.506500 0.147713 0.430101
O O6 0.385420 0.376916 0.492390
O O7 0.564637 0.346601 0.572492
O O8 0.419391 0.143138 0.614553
O O9 0.154906 0.219053 0.142087
O O10 0.000000 0.098271 0.250000
O O11 0.674891 0.095448 0.322794
O O12 0.742421 0.314614 0.200656
O O13 0.682623 0.382890 0.398194
O O14 0.500000 0.972477 0.750000
O O15 0.248402 0.558523 0.410744
O O16 0.089054 0.464884 0.296504
#
# Coordination Sequence:
#
# PCOD8120531 Si02
#       8
#     4   4   4   4   4   4   4   2
#     4  11  24  41  66  90 129 178 218 281 331 385
#     4   9  21  42  64  90 131 163 212 278 321 401
#     4  11  22  45  65  93 133 174 229 274 330 391
#     4  11  23  40  64  93 127 173 214 269 324 402
#     4  10  21  40  63  94 127 164 211 265 336 391
#     4  12  23  39  64  95 131 173 216 273 332 396
#     4  10  22  41  64  94 126 172 216 265 340 396
#     4  12  24  42  64  98 136 172 228 276 336 394
#
# _framework density 20.814578000000001
#
# number of rings (size 3 to 8) (size 9 to 14) (size 15 to 20)
#    0.000    1.333    2.000    3.600    1.867    1.067 
#    4.800    1.333    0.000    0.000    0.000    0.000 
#    0.000    0.000    0.000    0.000    0.000    0.000 
#
# Total GULP energy -371773.269410 kJ/mol
# GULP energy per Si atom -12392.442314 kJ/mol
# Density = 2.076720 g / cm^3
# Si number density = 20.814578 Si / 1000 Ang^3
#
#
#
# Elastic Constant Matrix: (Units=GPa)
#
#
# Indices 1 2 3 4 5 6 
#
# 1 98.1342 41.6702 36.2935 0.0000 4.2829 0.0000
# 2 41.6702 125.1448 47.3827 0.0000 -5.7066 0.0000
# 3 36.2935 47.3827 111.2554 0.0000 -10.5797 0.0000
# 4 0.0000 0.0000 0.0000 23.7169 0.0000 -6.7368
# 5 4.2829 -5.7066 -10.5797 0.0000 36.0500 0.0000
# 6 0.0000 0.0000 0.0000 -6.7368 0.0000 34.6526
#
#
#
# Elastic Compliance Matrix: (Units=1/GPa)
#
#
# Indices 1 2 3 4 5 6 
#
# 1 0.012836 -0.003239 -0.003088 0.000000 -0.002944 0.000000
# 2 -0.003239 0.010348 -0.003249 0.000000 0.001069 0.000000
# 3 -0.003088 -0.003249 0.011691 0.000000 0.003284 0.000000
# 4 0.000000 0.000000 0.000000 0.044629 0.000000 0.008676
# 5 -0.002944 0.001069 0.003284 0.000000 0.029222 0.000000
# 6 0.000000 0.000000 0.000000 0.008676 0.000000 0.030545
#
#
# Mechanical properties :
#
#
# Convention : Reuss Voigt Hill
#
# Bulk Modulus (GPa) = 63.59640 65.02525 64.31083
# Shear Modulus (GPa) = 30.55046 32.82977 31.69012
#
# Velocity S-wave (km/s) = 3.83527 3.97577 3.90615
# Velocity P-wave (km/s) = 7.08749 7.23766 7.16297
#
# Compressibility (1/GPa) = 0.01572416
#
# Stress axis : x y z
#
# Youngs Moduli (GPa) = 77.90583 96.63546 85.53228
#
# Poissons Ratio (x) = 0.31303 0.26410
# Poissons Ratio (y) = 0.25236 0.27788
# Poissons Ratio (z) = 0.24055 0.31395
#
# Static dielectric constant tensor:
#      x y z
#    x 3.752480 0.000000 -0.098250 
#    y 0.000000 4.308940 0.000000 
#    z -0.098250 0.000000 3.877070 
# 
# 
# High freq. dielectric constant tensor:
#      x y z
#    x 1.817250 0.000000 -0.003580 
#    y 0.000000 1.827070 0.000000 
#    z -0.003580 0.000000 1.818220 
# 
# From -- ./inp_files/36225.got.cif
#   From: 2010.06.25/outbox.cif.g09.slc.cpg/sg13_19_cif.got.tgz:36225.got - 2010.06.28 04:50:58.
