data_PCOD8120072
_publ_section_title
;
Structure prediction by ZEFSAII (Michael W. Deem and Ramdas Pophale) SiO2 
 PCOD8120072
Probable space group: P 2/C
;
_chemical_formula_sum "Si O2"
_cell_formula_units_Z 28
_cell_length_a 18.570970
_cell_length_b 11.135213
_cell_length_c 22.177621
_cell_angle_alpha 90.000000
_cell_angle_beta 18.292609
_cell_angle_gamma 90.000000
_cell_volume 1439.454211
_symmetry_space_group_name_H-M "P 2/C"
_symmetry_group_IT_number 13
_symmetry_cell_setting 'monoclinic'
loop_
_space_group_symop_operation_xyz
x,y,z
-x,y,1/2-z
-x,-y,-z
x,-y,1/2+z
loop_
_atom_site_type_symbol
_atom_site_label
_atom_site_fract_x
_atom_site_fract_y
_atom_site_fract_z
Si Si1 0.021841 0.778951 0.890712
Si Si2 0.194854 0.796873 0.168723
Si Si3 0.253573 0.976922 0.221718
Si Si4 0.524742 0.640780 0.984690
Si Si5 0.394867 0.213155 0.701835
Si Si6 0.193497 0.896833 0.550424
Si Si7 0.698447 0.841132 0.547606
O O1 0.217188 0.678066 0.737302
O O2 0.928695 0.805490 0.898080
O O3 0.121499 0.900683 0.841169
O O4 0.808998 0.727455 0.097697
O O5 0.135228 0.906437 0.261261
O O6 0.929851 0.759190 0.367520
O O7 0.336849 0.693830 0.088746
O O8 0.347608 0.835033 0.988492
O O9 0.281205 0.902551 0.260831
O O10 0.500000 0.000000 0.000000
O O11 0.500000 0.500000 0.000000
O O12 0.481013 0.687443 0.086791
O O13 0.600873 0.174084 0.581235
O O14 0.000000 0.942049 0.750000
O O15 0.282609 0.018716 0.448354
O O16 0.500000 0.786937 0.750000
#
# Coordination Sequence:
#
# PCOD8120072 Si02
#       7
#     4   4   4   4   4   4   4
#     4  12  22  38  62  95 128 160 202 255 304 371
#     4  10  21  37  58  88 124 155 201 238 301 371
#     4  11  18  36  56  92 131 161 190 238 312 375
#     4  11  26  46  64  82 115 167 218 266 304 344
#     4  11  24  37  63  94 125 163 206 248 310 369
#     4  12  20  37  59  94 134 163 191 240 308 384
#     4  11  21  34  58  94 132 159 183 235 307 383
#
# _framework density 19.451816000000001
#
# number of rings (size 3 to 8) (size 9 to 14) (size 15 to 20)
#    0.000    0.857    7.143    2.571    0.000    2.857 
#    0.000    2.857    0.000    0.000    0.000    0.000 
#    0.000    0.000    0.000    0.000    0.000    0.000 
#
# Total GULP energy -347017.850399 kJ/mol
# GULP energy per Si atom -12393.494657 kJ/mol
# Density = 1.940754 g / cm^3
# Si number density = 19.451816 Si / 1000 Ang^3
#
#
#
# Elastic Constant Matrix: (Units=GPa)
#
#
# Indices 1 2 3 4 5 6 
#
# 1 77.0258 43.6528 33.0051 0.0000 -25.0048 0.0000
# 2 43.6528 96.0498 38.4820 0.0000 -10.0944 0.0000
# 3 33.0051 38.4820 150.1412 0.0000 0.4015 0.0000
# 4 0.0000 0.0000 0.0000 12.3636 0.0000 -2.5713
# 5 -25.0048 -10.0944 0.4015 0.0000 25.6134 0.0000
# 6 0.0000 0.0000 0.0000 -2.5713 0.0000 14.1863
#
#
#
# Elastic Compliance Matrix: (Units=1/GPa)
#
#
# Indices 1 2 3 4 5 6 
#
# 1 0.026701 -0.008194 -0.003831 0.000000 0.022897 0.000000
# 2 -0.008194 0.014691 -0.001958 0.000000 -0.002179 0.000000
# 3 -0.003831 -0.001958 0.008017 0.000000 -0.004637 0.000000
# 4 0.000000 0.000000 0.000000 0.084051 0.000000 0.015235
# 5 0.022897 -0.002179 -0.004637 0.000000 0.060609 0.000000
# 6 0.000000 0.000000 0.000000 0.015235 0.000000 0.073252
#
#
# Mechanical properties :
#
#
# Convention : Reuss Voigt Hill
#
# Bulk Modulus (GPa) = 46.63559 61.49961 54.06760
# Shear Modulus (GPa) = 16.53251 24.30444 20.41848
#
# Velocity S-wave (km/s) = 2.91850 3.53862 3.24341
# Velocity P-wave (km/s) = 5.94843 6.95563 6.47166
#
# Compressibility (1/GPa) = 0.02144285
#
# Stress axis : x y z
#
# Youngs Moduli (GPa) = 37.45187 68.06959 124.73823
#
# Poissons Ratio (x) = 0.55776 0.47783
# Poissons Ratio (y) = 0.30688 0.24427
# Poissons Ratio (z) = 0.14347 0.13330
#
# Static dielectric constant tensor:
#      x y z
#    x 3.677960 0.000000 -0.147730 
#    y 0.000000 2.978990 0.000000 
#    z -0.147730 0.000000 3.701490 
# 
# 
# High freq. dielectric constant tensor:
#      x y z
#    x 1.775700 0.000000 -0.006200 
#    y 0.000000 1.697710 0.000000 
#    z -0.006200 0.000000 1.775580 
# 
# From -- ./inp_files/81046.got.cif
#   From: 2010.06.25/outbox.cif.g09.slc.cpg/sg13_41_cif.got.tgz:81046.got - 2010.06.28 04:50:58.
