data_PCOD8120163
_publ_section_title
;
Structure prediction by ZEFSAII (Michael W. Deem and Ramdas Pophale) SiO2 
 PCOD8120163
Probable space group: P 2/C
;
_chemical_formula_sum "Si O2"
_cell_formula_units_Z 24
_cell_length_a 12.084746
_cell_length_b 11.531153
_cell_length_c 18.518717
_cell_angle_alpha 90.000000
_cell_angle_beta 27.106481
_cell_angle_gamma 90.000000
_cell_volume 1175.840291
_symmetry_space_group_name_H-M "P 2/C"
_symmetry_group_IT_number 13
_symmetry_cell_setting 'monoclinic'
loop_
_space_group_symop_operation_xyz
x,y,z
-x,y,1/2-z
-x,-y,-z
x,-y,1/2+z
loop_
_atom_site_type_symbol
_atom_site_label
_atom_site_fract_x
_atom_site_fract_y
_atom_site_fract_z
Si Si1 0.559082 0.844908 0.796136
Si Si2 0.616776 0.949878 0.359173
Si Si3 0.398289 0.242509 0.889893
Si Si4 0.958620 0.776791 0.353959
Si Si5 0.062349 0.651887 0.895165
Si Si6 0.806475 0.594097 0.186448
O O1 0.500000 0.887047 0.750000
O O2 0.731835 0.733552 0.691331
O O3 0.694859 0.946153 0.760658
O O4 0.315820 0.818193 0.980856
O O5 0.428165 0.868248 0.425016
O O6 0.864893 0.883562 0.231344
O O7 0.500000 0.000000 0.500000
O O8 0.500000 0.214133 0.750000
O O9 0.538732 0.350297 0.846030
O O10 0.112346 0.275897 0.057224
O O11 0.000000 0.730271 0.250000
O O12 0.999664 0.668579 0.381980
O O13 0.193409 0.538650 0.783973
O O14 0.882365 0.599707 0.059166
#
# Coordination Sequence:
#
# PCOD8120163 Si02
#       6
#     4   4   4   4   4   4
#     4  12  25  39  66  97 124 163 218 259 309 379
#     4  11  24  42  62  88 127 173 205 259 319 373
#     4   9  20  39  61  92 126 162 209 258 311 368
#     4  11  23  43  63  91 131 168 203 261 323 372
#     4  10  21  37  66  96 123 162 210 262 305 376
#     4   9  20  39  64  92 128 163 204 259 317 363
#
# _framework density 20.410934999999998
#
# number of rings (size 3 to 8) (size 9 to 14) (size 15 to 20)
#    0.000    1.667    3.333    0.500    4.667    1.333 
#    0.000    2.500    0.000    0.000    0.000    0.000 
#    0.000    0.000    0.000    0.000    0.000    0.000 
#
# Total GULP energy -297583.790317 kJ/mol
# GULP energy per Si atom -12399.324597 kJ/mol
# Density = 2.036448 g / cm^3
# Si number density = 20.410935 Si / 1000 Ang^3
#
#
#
# Elastic Constant Matrix: (Units=GPa)
#
#
# Indices 1 2 3 4 5 6 
#
# 1 83.0664 45.3464 23.1023 0.0000 -7.8101 0.0000
# 2 45.3464 126.6390 18.3226 0.0000 -1.0861 0.0000
# 3 23.1023 18.3226 54.6359 0.0000 -4.9089 0.0000
# 4 0.0000 0.0000 0.0000 20.4905 0.0000 0.9227
# 5 -7.8101 -1.0861 -4.9089 0.0000 31.9377 0.0000
# 6 0.0000 0.0000 0.0000 0.9227 0.0000 10.1398
#
#
#
# Elastic Compliance Matrix: (Units=1/GPa)
#
#
# Indices 1 2 3 4 5 6 
#
# 1 0.016541 -0.005176 -0.004980 0.000000 0.003104 0.000000
# 2 -0.005176 0.009919 -0.001239 0.000000 -0.001119 0.000000
# 3 -0.004980 -0.001239 0.021001 0.000000 0.001968 0.000000
# 4 0.000000 0.000000 0.000000 0.049004 0.000000 -0.004459
# 5 0.003104 -0.001119 0.001968 0.000000 0.032334 0.000000
# 6 0.000000 0.000000 0.000000 -0.004459 0.000000 0.099027
#
#
# Mechanical properties :
#
#
# Convention : Reuss Voigt Hill
#
# Bulk Modulus (GPa) = 40.52985 48.65378 44.59182
# Shear Modulus (GPa) = 19.31711 24.35161 21.83436
#
# Velocity S-wave (km/s) = 3.07972 3.45783 3.27423
# Velocity P-wave (km/s) = 5.70493 6.31118 6.01570
#
# Compressibility (1/GPa) = 0.02467317
#
# Stress axis : x y z
#
# Youngs Moduli (GPa) = 60.45681 100.81278 47.61741
#
# Poissons Ratio (x) = 0.52178 0.23711
# Poissons Ratio (y) = 0.31291 0.05898
# Poissons Ratio (z) = 0.30105 0.12486
#
# Static dielectric constant tensor:
#      x y z
#    x 3.816350 0.000000 -0.106550 
#    y 0.000000 3.909760 0.000000 
#    z -0.106550 0.000000 3.434740 
# 
# 
# High freq. dielectric constant tensor:
#      x y z
#    x 1.805180 0.000000 -0.014680 
#    y 0.000000 1.806120 0.000000 
#    z -0.014680 0.000000 1.771840 
# 
# From -- ./inp_files/39111.got.cif
#   From: 2010.06.25/outbox.cif.g09.slc.cpg/sg13_20_cif.got.tgz:39111.got - 2010.06.28 04:50:58.
