data_PCOD8120175
_publ_section_title
;
Structure prediction by ZEFSAII (Michael W. Deem and Ramdas Pophale) SiO2 
 PCOD8120175
Probable space group: P 2/C
;
_chemical_formula_sum "Si O2"
_cell_formula_units_Z 28
_cell_length_a 30.090989
_cell_length_b 8.768574
_cell_length_c 29.809986
_cell_angle_alpha 90.000000
_cell_angle_beta 170.108671
_cell_angle_gamma 90.000000
_cell_volume 1351.138409
_symmetry_space_group_name_H-M "P 2/C"
_symmetry_group_IT_number 13
_symmetry_cell_setting 'monoclinic'
loop_
_space_group_symop_operation_xyz
x,y,z
-x,y,1/2-z
-x,-y,-z
x,-y,1/2+z
loop_
_atom_site_type_symbol
_atom_site_label
_atom_site_fract_x
_atom_site_fract_y
_atom_site_fract_z
Si Si1 0.990685 0.501237 0.792548
Si Si2 0.081327 0.220188 0.637791
Si Si3 0.980120 0.814679 0.324395
Si Si4 0.372301 0.055471 0.419135
Si Si5 0.591324 0.670793 0.599047
Si Si6 0.519818 0.007539 0.665751
Si Si7 0.490116 0.325544 0.793912
O O1 0.000000 0.535502 0.750000
O O2 0.989789 0.320018 0.798216
O O3 0.732805 0.580653 0.554920
O O4 0.242073 0.579395 0.064150
O O5 0.033698 0.268090 0.641267
O O6 0.871642 0.312260 0.400835
O O7 0.090485 0.032258 0.642636
O O8 0.374824 0.260290 0.916167
O O9 0.232911 0.917140 0.571008
O O10 0.733099 0.918843 0.069330
O O11 0.363807 0.239393 0.403677
O O12 0.500000 0.000000 0.500000
O O13 0.531243 0.023400 0.622869
O O14 0.500000 0.500000 0.500000
O O15 0.516980 0.166743 0.687795
O O16 0.500000 0.300713 0.750000
#
# Coordination Sequence:
#
# PCOD8120175 Si02
#       7
#     4   4   4   4   4   4   4
#     4  10  22  40  62  86 118 158 191 233 301 358
#     4  10  21  38  55  78 113 152 186 235 295 340
#     4  11  22  38  60  87 116 149 198 242 281 349
#     4   9  20  38  58  78 114 155 191 236 291 349
#     4  11  22  36  56  83 110 147 196 242 286 341
#     4  11  23  37  60  91 116 154 201 243 293 344
#     4  10  22  41  61  87 122 155 190 239 297 355
#
# _framework density 20.723264
#
# number of rings (size 3 to 8) (size 9 to 14) (size 15 to 20)
#    0.000    1.714    0.000    5.143    0.000    6.857 
#    0.000    0.000    0.000    0.000    0.000    0.000 
#    0.000    0.000    0.000    0.000    0.000    0.000 
#
# Total GULP energy -346995.395155 kJ/mol
# GULP energy per Si atom -12392.692684 kJ/mol
# Density = 2.067610 g / cm^3
# Si number density = 20.723264 Si / 1000 Ang^3
#
#
#
# Elastic Constant Matrix: (Units=GPa)
#
#
# Indices 1 2 3 4 5 6 
#
# 1 33.8478 28.3171 27.0137 0.0000 1.2023 0.0000
# 2 28.3171 148.8161 57.7190 0.0000 2.1696 0.0000
# 3 27.0137 57.7190 152.6337 0.0000 11.6657 0.0000
# 4 0.0000 0.0000 0.0000 43.2236 0.0000 3.6852
# 5 1.2023 2.1696 11.6657 0.0000 11.6846 0.0000
# 6 0.0000 0.0000 0.0000 3.6852 0.0000 28.4260
#
#
#
# Elastic Compliance Matrix: (Units=1/GPa)
#
#
# Indices 1 2 3 4 5 6 
#
# 1 0.037794 -0.005354 -0.004810 0.000000 0.001908 0.000000
# 2 -0.005354 0.008662 -0.002433 0.000000 0.001371 0.000000
# 3 -0.004810 -0.002433 0.008932 0.000000 -0.007971 0.000000
# 4 0.000000 0.000000 0.000000 0.023394 0.000000 -0.003033
# 5 0.001908 0.001371 -0.007971 0.000000 0.093090 0.000000
# 6 0.000000 0.000000 0.000000 -0.003033 0.000000 0.035572
#
#
# Mechanical properties :
#
#
# Convention : Reuss Voigt Hill
#
# Bulk Modulus (GPa) = 33.11836 62.37749 47.74792
# Shear Modulus (GPa) = 20.60125 31.48333 26.04229
#
# Velocity S-wave (km/s) = 3.15638 3.90195 3.54880
# Velocity P-wave (km/s) = 5.41291 7.10394 6.31528
#
# Compressibility (1/GPa) = 0.03019473
#
# Stress axis : x y z
#
# Youngs Moduli (GPa) = 26.45911 115.44632 111.95454
#
# Poissons Ratio (x) = 0.61807 0.53853
# Poissons Ratio (y) = 0.14165 0.27237
# Poissons Ratio (z) = 0.12727 0.28087
#
# Static dielectric constant tensor:
#      x y z
#    x 3.691720 0.000000 0.087220 
#    y 0.000000 4.298120 0.000000 
#    z 0.087220 0.000000 4.239120 
# 
# 
# High freq. dielectric constant tensor:
#      x y z
#    x 1.799220 0.000000 0.004760 
#    y 0.000000 1.817440 0.000000 
#    z 0.004760 0.000000 1.823460 
# 
# From -- ./inp_files/98013.got.cif
#   From: 2010.06.25/outbox.cif.g09.slc.cpg/sg13_50_cif.got.tgz:98013.got - 2010.06.28 04:50:58.
