data_PCOD8120858
_publ_section_title
;
Structure prediction by ZEFSAII (Michael W. Deem and Ramdas Pophale) SiO2 
 PCOD8120858
Probable space group: P 2/C
;
_chemical_formula_sum "Si O2"
_cell_formula_units_Z 16
_cell_length_a 7.096321
_cell_length_b 17.563368
_cell_length_c 5.551395
_cell_angle_alpha 90.000000
_cell_angle_beta 71.060485
_cell_angle_gamma 90.000000
_cell_volume 654.441515
_symmetry_space_group_name_H-M "P 2/C"
_symmetry_group_IT_number 13
_symmetry_cell_setting 'monoclinic'
loop_
_space_group_symop_operation_xyz
x,y,z
-x,y,1/2-z
-x,-y,-z
x,-y,1/2+z
loop_
_atom_site_type_symbol
_atom_site_label
_atom_site_fract_x
_atom_site_fract_y
_atom_site_fract_z
Si Si1 0.712773 0.698685 0.284043
Si Si2 0.500000 0.046112 0.750000
Si Si3 0.803221 0.158073 0.475652
Si Si4 0.500000 0.779990 0.750000
Si Si5 0.781732 0.527431 0.294798
O O1 0.500000 0.690494 0.250000
O O2 0.674522 0.726796 0.570368
O O3 0.815563 0.617150 0.244123
O O4 0.849772 0.761702 0.092202
O O5 0.712064 0.093218 0.687025
O O6 0.500000 0.000000 0.500000
O O7 0.607124 0.165961 0.393235
O O8 0.000000 0.131808 0.250000
O O9 0.671938 0.506703 0.597316
O O10 0.000000 0.489818 0.250000
#
# Coordination Sequence:
#
# PCOD8120858 Si02
#       5
#     4   2   4   2   4
#     4  10  23  41  67  98 135 186 243 305 353 425
#     4  12  27  52  76 109 160 186 232 304 357 446
#     4  11  25  45  75 108 142 194 244 295 363 431
#     4  10  21  44  66 105 144 176 244 314 353 416
#     4  10  24  41  60  94 140 185 238 298 362 427
#
# _framework density 24.448328
#
# number of rings (size 3 to 8) (size 9 to 14) (size 15 to 20)
#    0.000    1.500    3.750    0.750   10.500    3.000 
#    0.000    0.000    0.000    0.000    0.000    0.000 
#    0.000    0.000    0.000    0.000    0.000    0.000 
#
# Total GULP energy -198209.517262 kJ/mol
# GULP energy per Si atom -12388.094829 kJ/mol
# Density = 2.439268 g / cm^3
# Si number density = 24.448328 Si / 1000 Ang^3
#
#
#
# Elastic Constant Matrix: (Units=GPa)
#
#
# Indices 1 2 3 4 5 6 
#
# 1 39.1541 24.1066 50.2454 0.0000 -7.6273 0.0000
# 2 24.1066 148.1392 73.4398 0.0000 -5.1257 0.0000
# 3 50.2454 73.4398 181.9693 0.0000 3.3015 0.0000
# 4 0.0000 0.0000 0.0000 -58.2480 0.0000 -55.9537
# 5 -7.6273 -5.1257 3.3015 0.0000 57.9531 0.0000
# 6 0.0000 0.0000 0.0000 -55.9537 0.0000 -11.1258
#
#
#
# Elastic Compliance Matrix: (Units=1/GPa)
#
#
# Indices 1 2 3 4 5 6 
#
# 1 0.041753 -0.001019 -0.011227 0.000000 0.006045 0.000000
# 2 -0.001019 0.008515 -0.003170 0.000000 0.000800 0.000000
# 3 -0.011227 -0.003170 0.009917 0.000000 -0.002323 0.000000
# 4 0.000000 0.000000 0.000000 0.004481 0.000000 -0.022537
# 5 0.006045 0.000800 -0.002323 0.000000 0.018254 0.000000
# 6 0.000000 0.000000 0.000000 -0.022537 0.000000 0.023461
#
#
# Mechanical properties :
#
#
# Convention : Reuss Voigt Hill
#
# Bulk Modulus (GPa) = 34.06867 73.87180 53.97024
# Shear Modulus (GPa) = 34.01428 12.48057 23.24742
#
# Velocity S-wave (km/s) = 3.73402 2.26185 3.08698
# Velocity P-wave (km/s) = 5.70577 6.09117 5.90162
#
# Compressibility (1/GPa) = 0.02935248
#
# Stress axis : x y z
#
# Youngs Moduli (GPa) = 23.95063 117.43538 100.83917
#
# Poissons Ratio (x) = 0.11972 1.13212
# Poissons Ratio (y) = 0.02442 0.31962
# Poissons Ratio (z) = 0.26889 0.37223
#
# Static dielectric constant tensor:
#      x y z
#    x 4.011050 0.000000 0.219600 
#    y 0.000000 4.379610 0.000000 
#    z 0.219600 0.000000 5.493380 
# 
# 
# High freq. dielectric constant tensor:
#      x y z
#    x 1.954180 0.000000 0.001260 
#    y 0.000000 1.961370 0.000000 
#    z 0.001260 0.000000 1.994020 
# 
# From -- ./inp_files/1271.got.cif
#   From: 2010.06.25/outbox.cif.g09.slc.cpg/sg13_1_cif.got.tgz:1271.got - 2010.06.28 04:50:58.
