data_PCOD8120705
_publ_section_title
;
Structure prediction by ZEFSAII (Michael W. Deem and Ramdas Pophale) SiO2 
 PCOD8120705
Probable space group: P 2/C
;
_chemical_formula_sum "Si O2"
_cell_formula_units_Z 30
_cell_length_a 20.860816
_cell_length_b 5.321518
_cell_length_c 12.507443
_cell_angle_alpha 90.000000
_cell_angle_beta 97.888195
_cell_angle_gamma 90.000000
_cell_volume 1375.328354
_symmetry_space_group_name_H-M "P 2/C"
_symmetry_group_IT_number 13
_symmetry_cell_setting 'monoclinic'
loop_
_space_group_symop_operation_xyz
x,y,z
-x,y,1/2-z
-x,-y,-z
x,-y,1/2+z
loop_
_atom_site_type_symbol
_atom_site_label
_atom_site_fract_x
_atom_site_fract_y
_atom_site_fract_z
Si Si1 0.000000 0.352694 0.750000
Si Si2 0.064258 0.087418 0.575499
Si Si3 0.182991 0.780428 0.559870
Si Si4 0.888134 0.419977 0.098206
Si Si5 0.579889 0.245591 0.566525
Si Si6 0.725009 0.122371 0.594996
Si Si7 0.525401 0.253705 0.138641
Si Si8 0.226558 0.637868 0.790003
O O1 0.953015 0.183866 0.810890
O O2 0.957996 0.526971 0.664002
O O3 0.100019 0.285872 0.510380
O O4 0.121642 0.892887 0.609107
O O5 0.000000 0.000000 0.500000
O O6 0.152009 0.659073 0.447353
O O7 0.237439 0.942219 0.508746
O O8 0.219045 0.617290 0.659166
O O9 0.842743 0.280883 0.173424
O O10 0.652485 0.191997 0.545190
O O11 0.536356 0.253280 0.451857
O O12 0.574234 0.515997 0.623485
O O13 0.560036 0.016848 0.640225
O O14 0.750073 0.365458 0.666726
O O15 0.726405 0.870853 0.668657
O O16 0.500000 0.301849 0.250000
#
# Coordination Sequence:
#
# PCOD8120705 Si02
#       8
#     2   4   4   4   4   4   4   4
#     4  12  26  40  68  92 126 166 220 288 356 418
#     4  12  26  42  65  94 121 166 221 283 347 415
#     4  11  26  45  64  91 130 169 221 278 337 405
#     4  11  25  46  61  94 122 164 218 284 341 416
#     4  10  22  40  68 101 142 172 229 270 319 389
#     4  11  25  46  65 101 132 181 224 272 324 398
#     4  10  21  41  69 105 139 182 214 275 327 376
#     4  11  26  43  71  89 134 177 221 274 336 398
#
# _framework density 21.812974000000001
#
# number of rings (size 3 to 8) (size 9 to 14) (size 15 to 20)
#    0.000    1.067    2.667    2.400    9.333    2.133 
#    0.000    0.000    0.000    0.000    0.000    0.000 
#    0.000    0.000    0.000    0.000    0.000    0.000 
#
# Total GULP energy -371716.990586 kJ/mol
# GULP energy per Si atom -12390.566353 kJ/mol
# Density = 2.176333 g / cm^3
# Si number density = 21.812974 Si / 1000 Ang^3
#
#
#
# Elastic Constant Matrix: (Units=GPa)
#
#
# Indices 1 2 3 4 5 6 
#
# 1 90.4500 1.2540 2.1710 0.0000 0.5227 0.0000
# 2 1.2540 89.0306 1.9757 0.0000 8.8699 0.0000
# 3 2.1710 1.9757 77.3113 0.0000 -4.3599 0.0000
# 4 0.0000 0.0000 0.0000 10.2765 0.0000 -28.3394
# 5 0.5227 8.8699 -4.3599 0.0000 19.6431 0.0000
# 6 0.0000 0.0000 0.0000 -28.3394 0.0000 15.2927
#
#
#
# Elastic Compliance Matrix: (Units=1/GPa)
#
#
# Indices 1 2 3 4 5 6 
#
# 1 0.011067 -0.000117 -0.000325 0.000000 -0.000314 0.000000
# 2 -0.000117 0.011791 -0.000606 0.000000 -0.005455 0.000000
# 3 -0.000325 -0.000606 0.013140 0.000000 0.003199 0.000000
# 4 0.000000 0.000000 0.000000 -0.023674 0.000000 -0.043871
# 5 -0.000314 -0.005455 0.003199 0.000000 0.054090 0.000000
# 6 0.000000 0.000000 0.000000 -0.043871 0.000000 -0.015909
#
#
# Mechanical properties :
#
#
# Convention : Reuss Voigt Hill
#
# Bulk Modulus (GPa) = 29.49816 29.73259 29.61537
# Shear Modulus (GPa) = 78.24491 25.80188 52.02340
#
# Velocity S-wave (km/s) = 5.99572 3.44302 4.88892
# Velocity P-wave (km/s) = 7.84118 5.42827 6.74353
#
# Compressibility (1/GPa) = 0.03390042
#
# Stress axis : x y z
#
# Youngs Moduli (GPa) = 90.35800 84.81267 76.10518
#
# Poissons Ratio (x) = 0.00996 0.02477
# Poissons Ratio (y) = 0.01061 0.04609
# Poissons Ratio (z) = 0.02941 0.05137
#
# Static dielectric constant tensor:
#      x y z
#    x 4.079340 0.000000 -0.291390 
#    y 0.000000 3.812820 0.000000 
#    z -0.291390 0.000000 4.794800 
# 
# 
# High freq. dielectric constant tensor:
#      x y z
#    x 1.862870 0.000000 -0.003780 
#    y 0.000000 1.852060 0.000000 
#    z -0.003780 0.000000 1.862740 
# 
# From -- ./inp_files/40136.got.cif
#   From: 2010.06.25/outbox.cif.g09.slc.cpg/sg13_21_cif.got.tgz:40136.got - 2010.06.28 04:50:58.
