data_PCOD8120073
_publ_section_title
;
Structure prediction by ZEFSAII (Michael W. Deem and Ramdas Pophale) SiO2 
 PCOD8120073
Probable space group: P 2/C
;
_chemical_formula_sum "Si O2"
_cell_formula_units_Z 26
_cell_length_a 7.768565
_cell_length_b 19.154612
_cell_length_c 11.827730
_cell_angle_alpha 90.000000
_cell_angle_beta 138.660458
_cell_angle_gamma 90.000000
_cell_volume 1162.522932
_symmetry_space_group_name_H-M "P 2/C"
_symmetry_group_IT_number 13
_symmetry_cell_setting 'monoclinic'
loop_
_space_group_symop_operation_xyz
x,y,z
-x,y,1/2-z
-x,-y,-z
x,-y,1/2+z
loop_
_atom_site_type_symbol
_atom_site_label
_atom_site_fract_x
_atom_site_fract_y
_atom_site_fract_z
Si Si1 0.893999 0.849693 0.465880
Si Si2 0.241029 0.934014 0.782652
Si Si3 0.500000 0.665105 0.750000
Si Si4 0.590789 0.087443 0.647887
Si Si5 0.663042 0.426630 0.945622
Si Si6 0.747708 0.422810 0.561379
Si Si7 0.008651 0.291075 0.124222
O O1 0.669291 0.896477 0.410371
O O2 0.830431 0.859735 0.300035
O O3 0.860682 0.768329 0.480255
O O4 0.170776 0.881635 0.644079
O O5 0.000000 0.936342 0.750000
O O6 0.304717 0.010553 0.768707
O O7 0.505624 0.905603 0.974578
O O8 0.307057 0.620288 0.577706
O O9 0.689646 0.710409 0.764867
O O10 0.500000 0.433370 0.750000
O O11 0.487972 0.412314 0.968483
O O12 0.806470 0.499068 0.045214
O O13 0.876374 0.366112 0.038269
O O14 0.000000 0.393925 0.750000
O O15 0.000000 0.268834 0.250000
#
# Coordination Sequence:
#
# PCOD8120073 Si02
#       7
#     4   4   2   4   4   4   4
#     4  10  21  37  58  88 124 169 216 268 332 413
#     4   9  17  34  59  88 120 158 211 275 332 388
#     4  12  26  48  68  98 138 184 238 298 340 422
#     4   9  18  34  57  84 115 157 206 268 321 391
#     4  11  24  41  72 104 136 188 227 290 356 415
#     4  11  24  44  70 105 140 171 240 298 346 409
#     4  12  25  45  68  95 140 189 230 277 358 421
#
# _framework density 22.36515
#
# number of rings (size 3 to 8) (size 9 to 14) (size 15 to 20)
#    0.000    1.538    2.308    3.231    4.308    1.231 
#    0.000    7.692    0.000    0.000    0.000    0.000 
#    0.000    0.000    0.000    0.000    0.000    0.000 
#
# Total GULP energy -322220.466338 kJ/mol
# GULP energy per Si atom -12393.094859 kJ/mol
# Density = 2.231425 g / cm^3
# Si number density = 22.365150 Si / 1000 Ang^3
#
#
#
# Elastic Constant Matrix: (Units=GPa)
#
#
# Indices 1 2 3 4 5 6 
#
# 1 72.2016 36.7218 26.1366 0.0000 1.6837 0.0000
# 2 36.7218 103.5220 63.1877 0.0000 -1.3922 0.0000
# 3 26.1366 63.1877 175.4430 0.0000 -7.6091 0.0000
# 4 0.0000 0.0000 0.0000 28.8017 0.0000 10.1506
# 5 1.6837 -1.3922 -7.6091 0.0000 25.4669 0.0000
# 6 0.0000 0.0000 0.0000 10.1506 0.0000 5.1307
#
#
#
# Elastic Compliance Matrix: (Units=1/GPa)
#
#
# Indices 1 2 3 4 5 6 
#
# 1 0.016992 -0.005719 -0.000541 0.000000 -0.001598 0.000000
# 2 -0.005719 0.014317 -0.004310 0.000000 -0.000127 0.000000
# 3 -0.000541 -0.004310 0.007420 0.000000 0.002017 0.000000
# 4 0.000000 0.000000 0.000000 0.114685 0.000000 -0.226896
# 5 -0.001598 -0.000127 0.002017 0.000000 0.039968 0.000000
# 6 0.000000 0.000000 0.000000 -0.226896 0.000000 0.643800
#
#
# Mechanical properties :
#
#
# Convention : Reuss Voigt Hill
#
# Bulk Modulus (GPa) = 56.85097 67.02875 61.93986
# Shear Modulus (GPa) = 5.78579 26.88789 16.33684
#
# Velocity S-wave (km/s) = 1.61015 3.47107 2.70563
# Velocity P-wave (km/s) = 5.37879 6.78967 6.12499
#
# Compressibility (1/GPa) = 0.01758985
#
# Stress axis : x y z
#
# Youngs Moduli (GPa) = 58.85224 69.84482 134.76559
#
# Poissons Ratio (x) = 0.39942 0.07291
# Poissons Ratio (y) = 0.33656 0.58086
# Poissons Ratio (z) = 0.03184 0.30104
#
# Static dielectric constant tensor:
#      x y z
#    x 3.781540 0.000000 -0.226300 
#    y 0.000000 3.826100 0.000000 
#    z -0.226300 0.000000 5.113120 
# 
# 
# High freq. dielectric constant tensor:
#      x y z
#    x 1.857190 0.000000 -0.005220 
#    y 0.000000 1.865010 0.000000 
#    z -0.005220 0.000000 1.909700 
# 
# From -- ./inp_files/30822.got.cif
#   From: 2010.06.25/outbox.cif.g09.slc.cpg/sg13_16_cif.got.tgz:30822.got - 2010.06.28 04:50:58.
