data_PCOD8120953
_publ_section_title
;
Structure prediction by ZEFSAII (Michael W. Deem and Ramdas Pophale) SiO2 
 PCOD8120953
Probable space group: P 2/C
;
_chemical_formula_sum "Si O2"
_cell_formula_units_Z 22
_cell_length_a 10.594787
_cell_length_b 10.790096
_cell_length_c 9.568482
_cell_angle_alpha 90.000000
_cell_angle_beta 76.008840
_cell_angle_gamma 90.000000
_cell_volume 1061.405668
_symmetry_space_group_name_H-M "P 2/C"
_symmetry_group_IT_number 13
_symmetry_cell_setting 'monoclinic'
loop_
_space_group_symop_operation_xyz
x,y,z
-x,y,1/2-z
-x,-y,-z
x,-y,1/2+z
loop_
_atom_site_type_symbol
_atom_site_label
_atom_site_fract_x
_atom_site_fract_y
_atom_site_fract_z
Si Si1 0.000000 0.680098 0.750000
Si Si2 0.647745 0.604176 0.174200
Si Si3 0.801460 0.520356 0.400695
Si Si4 0.146178 0.983760 0.164411
Si Si5 0.938540 0.757744 0.479192
Si Si6 0.781556 0.151838 0.600436
O O1 0.109835 0.599637 0.644742
O O2 0.067712 0.765533 0.849890
O O3 0.500000 0.576124 0.250000
O O4 0.741433 0.570220 0.275475
O O5 0.664114 0.750010 0.132974
O O6 0.684691 0.516993 0.034703
O O7 0.893001 0.623679 0.443084
O O8 0.236728 0.954549 0.275513
O O9 0.000000 0.017092 0.250000
O O10 0.150704 0.865928 0.058743
O O11 0.206283 0.097196 0.059487
O O12 0.086432 0.777253 0.388024
#
# Coordination Sequence:
#
# PCOD8120953 Si02
#       6
#     2   4   4   4   4   4
#     4  12  22  32  64 104 124 156 198 252 330 370
#     4  12  26  45  64  86 124 173 213 253 299 362
#     4  12  23  41  64  93 128 158 207 258 310 374
#     4  10  22  37  61  92 130 156 196 251 317 370
#     4  11  21  35  62  95 130 155 189 258 321 367
#     4  11  23  39  62  92 125 162 203 252 308 370
#
# _framework density 20.727231
#
# number of rings (size 3 to 8) (size 9 to 14) (size 15 to 20)
#    0.000    0.727    5.455    4.364    5.091    0.000 
#    0.000    0.909    0.000    0.000    0.000    0.000 
#    0.000    0.000    0.000    0.000    0.000    0.000 
#
# Total GULP energy -272880.085189 kJ/mol
# GULP energy per Si atom -12403.640236 kJ/mol
# Density = 2.068005 g / cm^3
# Si number density = 20.727231 Si / 1000 Ang^3
#
#
#
# Elastic Constant Matrix: (Units=GPa)
#
#
# Indices 1 2 3 4 5 6 
#
# 1 30.9043 6.7372 12.2915 0.0000 -14.0804 0.0000
# 2 6.7372 74.1847 35.7399 0.0000 -8.3320 0.0000
# 3 12.2915 35.7399 122.8179 0.0000 0.4020 0.0000
# 4 0.0000 0.0000 0.0000 45.5667 0.0000 2.7466
# 5 -14.0804 -8.3320 0.4020 0.0000 34.5086 0.0000
# 6 0.0000 0.0000 0.0000 2.7466 0.0000 20.0676
#
#
#
# Elastic Compliance Matrix: (Units=1/GPa)
#
#
# Indices 1 2 3 4 5 6 
#
# 1 0.041851 0.000201 -0.004303 0.000000 0.017175 0.000000
# 2 0.000201 0.016204 -0.004749 0.000000 0.004050 0.000000
# 3 -0.004303 -0.004749 0.009965 0.000000 -0.003019 0.000000
# 4 0.000000 0.000000 0.000000 0.022128 0.000000 -0.003029
# 5 0.017175 0.004050 -0.003019 0.000000 0.036999 0.000000
# 6 0.000000 0.000000 0.000000 -0.003029 0.000000 0.050246
#
#
# Mechanical properties :
#
#
# Convention : Reuss Voigt Hill
#
# Bulk Modulus (GPa) = 19.87349 37.49380 28.68364
# Shear Modulus (GPa) = 23.59967 31.57112 27.58540
#
# Velocity S-wave (km/s) = 3.37795 3.90702 3.65208
# Velocity P-wave (km/s) = 4.98227 6.20334 5.62603
#
# Compressibility (1/GPa) = 0.05031828
#
# Stress axis : x y z
#
# Youngs Moduli (GPa) = 23.89447 61.71198 100.35534
#
# Poissons Ratio (x) = -0.01243 0.43185
# Poissons Ratio (y) = -0.00481 0.47657
# Poissons Ratio (z) = 0.10282 0.29306
#
# Static dielectric constant tensor:
#      x y z
#    x 3.282680 0.000000 0.236330 
#    y 0.000000 3.915750 0.000000 
#    z 0.236330 0.000000 4.126320 
# 
# 
# High freq. dielectric constant tensor:
#      x y z
#    x 1.748700 0.000000 0.018610 
#    y 0.000000 1.826250 0.000000 
#    z 0.018610 0.000000 1.837850 
# 
# From -- ./inp_files/15618.got.cif
#   From: 2010.06.25/outbox.cif.g09.slc.cpg/sg13_8_cif.got.tgz:15618.got - 2010.06.28 04:50:58.
