data_PCOD8120164
_publ_section_title
;
Structure prediction by ZEFSAII (Michael W. Deem and Ramdas Pophale) SiO2 
 PCOD8120164
Probable space group: P 2/C
;
_chemical_formula_sum "Si O2"
_cell_formula_units_Z 28
_cell_length_a 11.955120
_cell_length_b 8.186784
_cell_length_c 14.544530
_cell_angle_alpha 90.000000
_cell_angle_beta 67.561060
_cell_angle_gamma 90.000000
_cell_volume 1315.751064
_symmetry_space_group_name_H-M "P 2/C"
_symmetry_group_IT_number 13
_symmetry_cell_setting 'monoclinic'
loop_
_space_group_symop_operation_xyz
x,y,z
-x,y,1/2-z
-x,-y,-z
x,-y,1/2+z
loop_
_atom_site_type_symbol
_atom_site_label
_atom_site_fract_x
_atom_site_fract_y
_atom_site_fract_z
Si Si1 0.382961 0.383059 0.743860
Si Si2 0.631084 0.577375 0.449301
Si Si3 0.043812 0.031677 0.632739
Si Si4 0.672138 0.961278 0.456664
Si Si5 0.029688 0.746023 0.968487
Si Si6 0.483803 0.031210 0.657599
Si Si7 0.801959 0.530275 0.050834
O O1 0.500000 0.479737 0.750000
O O2 0.330579 0.462750 0.667586
O O3 0.432211 0.206463 0.700934
O O4 0.273049 0.373431 0.848982
O O5 0.500000 0.500000 0.500000
O O6 0.637475 0.769901 0.469961
O O7 0.722263 0.482507 0.485301
O O8 0.186837 0.998659 0.587347
O O9 0.000000 0.067618 0.750000
O O10 0.016264 0.185735 0.576470
O O11 0.969534 0.881688 0.611711
O O12 0.612604 0.046216 0.384257
O O13 0.614083 0.043390 0.565950
O O14 0.918234 0.629271 0.983095
O O15 0.155940 0.646702 0.923518
O O16 0.500000 0.932736 0.750000
#
# Coordination Sequence:
#
# PCOD8120164 Si02
#       7
#     4   4   4   4   4   4   4
#     4  10  21  37  66  97 123 171 218 263 341 405
#     4  11  22  40  63  95 137 172 213 279 343 404
#     4  11  25  44  68  97 134 180 238 284 339 392
#     4  10  22  41  63  97 135 172 226 280 329 410
#     4  10  26  44  67  97 130 185 227 285 335 398
#     4   9  21  38  64  97 127 169 214 267 347 397
#     4  11  23  44  68  96 138 173 230 277 338 412
#
# _framework density 21.280621
#
# number of rings (size 3 to 8) (size 9 to 14) (size 15 to 20)
#    0.000    1.714    2.857    0.000    8.000    3.429 
#    2.571    2.857    0.000    0.000    0.000    0.000 
#    0.000    0.000    0.000    0.000    0.000    0.000 
#
# Total GULP energy -347006.838915 kJ/mol
# GULP energy per Si atom -12393.101390 kJ/mol
# Density = 2.123219 g / cm^3
# Si number density = 21.280621 Si / 1000 Ang^3
#
#
#
# Elastic Constant Matrix: (Units=GPa)
#
#
# Indices 1 2 3 4 5 6 
#
# 1 135.1898 17.8612 49.0693 0.0000 11.0364 0.0000
# 2 17.8612 55.9655 28.0238 0.0000 1.8058 0.0000
# 3 49.0693 28.0238 140.7776 0.0000 23.6851 0.0000
# 4 0.0000 0.0000 0.0000 22.1406 0.0000 -4.6116
# 5 11.0364 1.8058 23.6851 0.0000 40.2346 0.0000
# 6 0.0000 0.0000 0.0000 -4.6116 0.0000 25.7215
#
#
#
# Elastic Compliance Matrix: (Units=1/GPa)
#
#
# Indices 1 2 3 4 5 6 
#
# 1 0.008584 -0.001423 -0.002579 0.000000 -0.000773 0.000000
# 2 -0.001423 0.020175 -0.003811 0.000000 0.001728 0.000000
# 3 -0.002579 -0.003811 0.009560 0.000000 -0.004749 0.000000
# 4 0.000000 0.000000 0.000000 0.046918 0.000000 0.008412
# 5 -0.000773 0.001728 -0.004749 0.000000 0.027784 0.000000
# 6 0.000000 0.000000 0.000000 0.008412 0.000000 0.040386
#
#
# Mechanical properties :
#
#
# Convention : Reuss Voigt Hill
#
# Bulk Modulus (GPa) = 44.06620 57.98237 51.02429
# Shear Modulus (GPa) = 28.31300 33.41791 30.86546
#
# Velocity S-wave (km/s) = 3.65150 3.96706 3.81255
# Velocity P-wave (km/s) = 6.20726 6.94904 6.58860
#
# Compressibility (1/GPa) = 0.02269313
#
# Stress axis : x y z
#
# Youngs Moduli (GPa) = 116.49390 49.56676 104.60409
#
# Poissons Ratio (x) = 0.07055 0.26974
# Poissons Ratio (y) = 0.16582 0.39861
# Poissons Ratio (z) = 0.30041 0.18888
#
# Static dielectric constant tensor:
#      x y z
#    x -0.659240 0.000000 4.810410 
#    y 0.000000 3.710650 0.000000 
#    z 4.810410 0.000000 1.301740 
# 
# 
# High freq. dielectric constant tensor:
#      x y z
#    x 1.854970 0.000000 0.020560 
#    y 0.000000 1.810280 0.000000 
#    z 0.020560 0.000000 1.837320 
# 
# From -- ./inp_files/49964.got.cif
#   From: 2010.06.25/outbox.cif.g09.slc.cpg/sg13_25_cif.got.tgz:49964.got - 2010.06.28 04:50:58.
