data_PCOD8120377
_publ_section_title
;
Structure prediction by ZEFSAII (Michael W. Deem and Ramdas Pophale) SiO2 
 PCOD8120377
Probable space group: P 2/C
;
_chemical_formula_sum "Si O2"
_cell_formula_units_Z 20
_cell_length_a 4.833845
_cell_length_b 13.538865
_cell_length_c 13.492681
_cell_angle_alpha 90.000000
_cell_angle_beta 81.460095
_cell_angle_gamma 90.000000
_cell_volume 873.235083
_symmetry_space_group_name_H-M "P 2/C"
_symmetry_group_IT_number 13
_symmetry_cell_setting 'monoclinic'
loop_
_space_group_symop_operation_xyz
x,y,z
-x,y,1/2-z
-x,-y,-z
x,-y,1/2+z
loop_
_atom_site_type_symbol
_atom_site_label
_atom_site_fract_x
_atom_site_fract_y
_atom_site_fract_z
Si Si1 0.500718 0.685772 0.969951
Si Si2 0.415692 0.104600 0.545695
Si Si3 0.863800 0.831176 0.149641
Si Si4 0.981897 0.622624 0.367727
Si Si5 0.056516 0.402856 0.363297
O O1 0.808691 0.638857 0.945895
O O2 0.336164 0.655518 0.877957
O O3 0.525285 0.805241 0.971349
O O4 0.332962 0.641253 0.074236
O O5 0.561682 0.118705 0.647768
O O6 0.082175 0.108874 0.569892
O O7 0.500000 0.000000 0.500000
O O8 0.000000 0.833836 0.250000
O O9 0.830584 0.717989 0.110321
O O10 0.100185 0.516736 0.394310
O O11 0.000000 0.622537 0.250000
O O12 0.000000 0.388839 0.250000
#
# Coordination Sequence:
#
# PCOD8120377 Si02
#       5
#     4   4   4   4   4
#     4  11  22  40  61  86 121 162 203 250 301 359
#     4  11  23  41  61  85 116 155 199 250 303 351
#     4  10  21  39  62  90 117 148 194 249 300 356
#     4   9  20  37  62  92 123 156 197 248 305 362
#     4  11  23  39  59  89 126 165 202 241 294 366
#
# _framework density 22.903341000000001
#
# number of rings (size 3 to 8) (size 9 to 14) (size 15 to 20)
#    0.000    1.600    0.000    5.400    0.000    3.200 
#    0.000   21.000    0.000    0.000    0.000    0.000 
#    0.000    0.000    0.000    0.000    0.000    0.000 
#
# Total GULP energy -247826.587981 kJ/mol
# GULP energy per Si atom -12391.329399 kJ/mol
# Density = 2.285121 g / cm^3
# Si number density = 22.903341 Si / 1000 Ang^3
#
#
#
# Elastic Constant Matrix: (Units=GPa)
#
#
# Indices 1 2 3 4 5 6 
#
# 1 68.6447 23.2732 -12.8657 0.0000 10.4246 0.0000
# 2 23.2732 174.3146 38.0331 0.0000 10.8043 0.0000
# 3 -12.8657 38.0331 85.1848 0.0000 2.1969 0.0000
# 4 0.0000 0.0000 0.0000 158.9790 0.0000 -103.9361
# 5 10.4246 10.8043 2.1969 0.0000 34.8508 0.0000
# 6 0.0000 0.0000 0.0000 -103.9361 0.0000 109.9446
#
#
#
# Elastic Compliance Matrix: (Units=1/GPa)
#
#
# Indices 1 2 3 4 5 6 
#
# 1 0.016947 -0.002849 0.003946 0.000000 -0.004435 0.000000
# 2 -0.002849 0.006949 -0.003505 0.000000 -0.001081 0.000000
# 3 0.003946 -0.003505 0.013925 0.000000 -0.000971 0.000000
# 4 0.000000 0.000000 0.000000 0.016468 0.000000 0.015568
# 5 -0.004435 -0.001081 -0.000971 0.000000 0.030417 0.000000
# 6 0.000000 0.000000 0.000000 0.015568 0.000000 0.023813
#
#
# Mechanical properties :
#
#
# Convention : Reuss Voigt Hill
#
# Bulk Modulus (GPa) = 30.29860 47.22503 38.76181
# Shear Modulus (GPa) = 40.21388 79.40179 59.80784
#
# Velocity S-wave (km/s) = 4.19478 5.89436 5.11565
# Velocity P-wave (km/s) = 6.05964 8.18466 7.20097
#
# Compressibility (1/GPa) = 0.03300483
#
# Stress axis : x y z
#
# Youngs Moduli (GPa) = 59.00915 143.90964 71.81331
#
# Poissons Ratio (x) = 0.40994 -0.28335
# Poissons Ratio (y) = 0.16809 0.25169
# Poissons Ratio (z) = -0.23283 0.50438
#
# Static dielectric constant tensor:
#      x y z
#    x 4.154020 0.000000 -0.039590 
#    y 0.000000 4.332770 0.000000 
#    z -0.039590 0.000000 4.145830 
# 
# 
# High freq. dielectric constant tensor:
#      x y z
#    x 1.912280 0.000000 0.010780 
#    y 0.000000 1.897970 0.000000 
#    z 0.010780 0.000000 1.907420 
# 
# From -- ./inp_files/43669.got.cif
#   From: 2010.06.25/outbox.cif.g09.slc.cpg/sg13_22_cif.got.tgz:43669.got - 2010.06.28 04:50:58.
