data_PCOD8120696
_publ_section_title
;
Structure prediction by ZEFSAII (Michael W. Deem and Ramdas Pophale) SiO2 
 PCOD8120696
Probable space group: P 2/C
;
_chemical_formula_sum "Si O2"
_cell_formula_units_Z 30
_cell_length_a 12.304854
_cell_length_b 8.839928
_cell_length_c 14.070261
_cell_angle_alpha 90.000000
_cell_angle_beta 74.181299
_cell_angle_gamma 90.000000
_cell_volume 1472.518243
_symmetry_space_group_name_H-M "P 2/C"
_symmetry_group_IT_number 13
_symmetry_cell_setting 'monoclinic'
loop_
_space_group_symop_operation_xyz
x,y,z
-x,y,1/2-z
-x,-y,-z
x,-y,1/2+z
loop_
_atom_site_type_symbol
_atom_site_label
_atom_site_fract_x
_atom_site_fract_y
_atom_site_fract_z
Si Si1 0.756865 0.328560 0.589944
Si Si2 0.808073 0.672465 0.567738
Si Si3 0.626258 0.657250 0.935041
Si Si4 0.000000 0.121722 0.250000
Si Si5 0.974673 0.169845 0.470969
Si Si6 0.379052 0.160082 0.731027
Si Si7 0.756926 0.129170 0.260783
Si Si8 0.622574 0.318599 0.959772
O O1 0.808948 0.494285 0.585225
O O2 0.655450 0.321646 0.538714
O O3 0.852405 0.209488 0.538970
O O4 0.704511 0.282467 0.702867
O O5 0.778692 0.754719 0.671856
O O6 0.721391 0.724999 0.507939
O O7 0.932061 0.722218 0.502640
O O8 0.703524 0.771102 0.857478
O O9 0.646922 0.480975 0.904189
O O10 0.493432 0.687367 0.952193
O O11 0.020347 0.206105 0.144228
O O12 0.124206 0.043690 0.236237
O O13 0.000000 0.000000 0.500000
O O14 0.500000 0.168968 0.750000
O O15 0.384626 0.190578 0.618028
O O16 0.330911 0.992618 0.756104
#
# Coordination Sequence:
#
# PCOD8120696 Si02
#       8
#     4   4   4   2   4   4   4   4
#     4  11  21  44  67  92 126 165 213 262 316 372
#     4  10  24  41  67  96 123 164 213 263 314 380
#     4  10  21  41  68  90 122 172 205 265 316 375
#     4  10  22  42  64  88 126 168 202 256 308 372
#     4  11  23  42  68  95 133 165 211 257 324 373
#     4  12  26  41  62  95 130 168 209 262 319 377
#     4  11  24  41  64  94 127 165 214 255 325 374
#     4  10  23  42  63  93 128 160 215 260 317 377
#
# _framework density 20.373262
#
# number of rings (size 3 to 8) (size 9 to 14) (size 15 to 20)
#    0.000    1.333    2.667    2.800    3.733    1.600 
#    0.000    0.000    0.000    0.000    0.000    0.000 
#    0.000    0.000    0.000    0.000    0.000    0.000 
#
# Total GULP energy -371790.025653 kJ/mol
# GULP energy per Si atom -12393.000855 kJ/mol
# Density = 2.032689 g / cm^3
# Si number density = 20.373262 Si / 1000 Ang^3
#
#
#
# Elastic Constant Matrix: (Units=GPa)
#
#
# Indices 1 2 3 4 5 6 
#
# 1 130.6875 36.7052 37.8473 0.0000 -4.6350 0.0000
# 2 36.7052 91.1677 21.4678 0.0000 -2.5635 0.0000
# 3 37.8473 21.4678 78.8645 0.0000 1.7672 0.0000
# 4 0.0000 0.0000 0.0000 12.4707 0.0000 -6.4565
# 5 -4.6350 -2.5635 1.7672 0.0000 30.6451 0.0000
# 6 0.0000 0.0000 0.0000 -6.4565 0.0000 33.8996
#
#
#
# Elastic Compliance Matrix: (Units=1/GPa)
#
#
# Indices 1 2 3 4 5 6 
#
# 1 0.009645 -0.002933 -0.003862 0.000000 0.001436 0.000000
# 2 -0.002933 0.012654 -0.002053 0.000000 0.000733 0.000000
# 3 -0.003862 -0.002053 0.015129 0.000000 -0.001628 0.000000
# 4 0.000000 0.000000 0.000000 0.088960 0.000000 0.016943
# 5 0.001436 0.000733 -0.001628 0.000000 0.033004 0.000000
# 6 0.000000 0.000000 0.000000 0.016943 0.000000 0.032726
#
#
# Mechanical properties :
#
#
# Convention : Reuss Voigt Hill
#
# Bulk Modulus (GPa) = 50.68429 54.75116 52.71772
# Shear Modulus (GPa) = 23.10611 29.04970 26.07791
#
# Velocity S-wave (km/s) = 3.37135 3.78017 3.58160
# Velocity P-wave (km/s) = 6.33139 6.78125 6.56018
#
# Compressibility (1/GPa) = 0.01972998
#
# Stress axis : x y z
#
# Youngs Moduli (GPa) = 103.67815 79.02693 66.09828
#
# Poissons Ratio (x) = 0.23182 0.25530
# Poissons Ratio (y) = 0.30413 0.13572
# Poissons Ratio (z) = 0.40045 0.16226
#
# Static dielectric constant tensor:
#      x y z
#    x 4.124170 0.000000 0.008410 
#    y 0.000000 3.541700 0.000000 
#    z 0.008410 0.000000 3.676650 
# 
# 
# High freq. dielectric constant tensor:
#      x y z
#    x 1.819810 0.000000 -0.004640 
#    y 0.000000 1.781210 0.000000 
#    z -0.004640 0.000000 1.796240 
# 
# From -- ./inp_files/50316.got.cif
#   From: 2010.06.25/outbox.cif.g09.slc.cpg/sg13_26_cif.got.tgz:50316.got - 2010.06.28 04:50:58.
