data_PCOD8120185
_publ_section_title
;
Structure prediction by ZEFSAII (Michael W. Deem and Ramdas Pophale) SiO2 
 PCOD8120185
Probable space group: P 2/C
;
_chemical_formula_sum "Si O2"
_cell_formula_units_Z 18
_cell_length_a 9.384743
_cell_length_b 12.856873
_cell_length_c 7.948634
_cell_angle_alpha 90.000000
_cell_angle_beta 115.908865
_cell_angle_gamma 90.000000
_cell_volume 862.673916
_symmetry_space_group_name_H-M "P 2/C"
_symmetry_group_IT_number 13
_symmetry_cell_setting 'monoclinic'
loop_
_space_group_symop_operation_xyz
x,y,z
-x,y,1/2-z
-x,-y,-z
x,-y,1/2+z
loop_
_atom_site_type_symbol
_atom_site_label
_atom_site_fract_x
_atom_site_fract_y
_atom_site_fract_z
Si Si1 0.670685 0.129460 0.142406
Si Si2 0.500000 0.046694 0.750000
Si Si3 0.500000 0.691174 0.750000
Si Si4 0.000000 0.196888 0.250000
Si Si5 0.211714 0.425368 0.956936
Si Si6 0.900645 0.372218 0.966944
O O1 0.602872 0.236082 0.182447
O O2 0.861523 0.126960 0.258138
O O3 0.620869 0.025607 0.212158
O O4 0.604629 0.122154 0.919544
O O5 0.386174 0.613513 0.590171
O O6 0.098324 0.261086 0.442160
O O7 0.177354 0.374784 0.757747
O O8 0.087263 0.395430 0.039250
O O9 0.192839 0.551145 0.950756
#
# Coordination Sequence:
#
# PCOD8120185 Si02
#       6
#     4   2   2   2   4   4
#     4  10  23  41  68  90 125 152 206 253 317 376
#     4   9  22  48  65  90 122 156 185 274 332 355
#     4  11  22  40  61  98 118 168 211 254 288 375
#     4  12  22  40  64  98 118 168 210 244 290 386
#     4  10  21  38  59  83 129 173 206 247 298 342
#     4  10  21  38  57  85 128 170 203 250 295 346
#
# _framework density 20.865355000000001
#
# number of rings (size 3 to 8) (size 9 to 14) (size 15 to 20)
#    0.000    1.778    2.222    2.667    3.111    1.778 
#    0.000    0.000    0.000    0.000    0.000    0.000 
#    0.000    0.000    0.000    0.000    0.000    0.000 
#
# Total GULP energy -223086.054817 kJ/mol
# GULP energy per Si atom -12393.669712 kJ/mol
# Density = 2.081786 g / cm^3
# Si number density = 20.865355 Si / 1000 Ang^3
#
#
#
# Elastic Constant Matrix: (Units=GPa)
#
#
# Indices 1 2 3 4 5 6 
#
# 1 114.0511 37.1057 53.4485 0.0000 28.1059 0.0000
# 2 37.1057 59.5900 36.1082 0.0000 11.6093 0.0000
# 3 53.4485 36.1082 137.2359 0.0000 7.9761 0.0000
# 4 0.0000 0.0000 0.0000 27.4878 0.0000 8.3111
# 5 28.1059 11.6093 7.9761 0.0000 35.9989 0.0000
# 6 0.0000 0.0000 0.0000 8.3111 0.0000 3.7865
#
#
#
# Elastic Compliance Matrix: (Units=1/GPa)
#
#
# Indices 1 2 3 4 5 6 
#
# 1 0.014281 -0.004912 -0.003762 0.000000 -0.008732 0.000000
# 2 -0.004912 0.022722 -0.003913 0.000000 -0.002626 0.000000
# 3 -0.003762 -0.003913 0.009662 0.000000 0.002058 0.000000
# 4 0.000000 0.000000 0.000000 0.108164 0.000000 -0.237415
# 5 -0.008732 -0.002626 0.002058 0.000000 0.034987 0.000000
# 6 0.000000 0.000000 0.000000 -0.237415 0.000000 0.785215
#
#
# Mechanical properties :
#
#
# Convention : Reuss Voigt Hill
#
# Bulk Modulus (GPa) = 46.52957 62.68910 54.60933
# Shear Modulus (GPa) = 4.96342 25.73561 15.34952
#
# Velocity S-wave (km/s) = 1.54401 3.51581 2.71522
# Velocity P-wave (km/s) = 5.05242 6.82576 6.00491
#
# Compressibility (1/GPa) = 0.02149171
#
# Stress axis : x y z
#
# Youngs Moduli (GPa) = 70.02332 44.00950 103.50003
#
# Poissons Ratio (x) = 0.21616 0.38938
# Poissons Ratio (y) = 0.34393 0.40499
# Poissons Ratio (z) = 0.26343 0.17221
#
# Static dielectric constant tensor:
#      x y z
#    x 3.824990 0.000000 -0.026060 
#    y 0.000000 3.602270 0.000000 
#    z -0.026060 0.000000 3.727200 
# 
# 
# High freq. dielectric constant tensor:
#      x y z
#    x 1.818290 0.000000 -0.003040 
#    y 0.000000 1.801390 0.000000 
#    z -0.003040 0.000000 1.822030 
# 
# From -- ./inp_files/11639.got.cif
#   From: 2010.06.25/outbox.cif.g09.slc.cpg/sg13_6_cif.got.tgz:11639.got - 2010.06.28 04:50:58.
