data_PCOD8120478
_publ_section_title
;
Structure prediction by ZEFSAII (Michael W. Deem and Ramdas Pophale) SiO2 
 PCOD8120478
Probable space group: P 2/C
;
_chemical_formula_sum "Si O2"
_cell_formula_units_Z 28
_cell_length_a 12.827316
_cell_length_b 11.854712
_cell_length_c 8.938643
_cell_angle_alpha 90.000000
_cell_angle_beta 112.586724
_cell_angle_gamma 90.000000
_cell_volume 1254.991749
_symmetry_space_group_name_H-M "P 2/C"
_symmetry_group_IT_number 13
_symmetry_cell_setting 'monoclinic'
loop_
_space_group_symop_operation_xyz
x,y,z
-x,y,1/2-z
-x,-y,-z
x,-y,1/2+z
loop_
_atom_site_type_symbol
_atom_site_label
_atom_site_fract_x
_atom_site_fract_y
_atom_site_fract_z
Si Si1 0.119000 0.850660 0.370634
Si Si2 0.478238 0.173936 0.072783
Si Si3 0.302846 0.650646 0.446570
Si Si4 0.694749 0.774429 0.511740
Si Si5 0.181944 0.074094 0.216742
Si Si6 0.361944 0.552842 0.165964
Si Si7 0.620022 0.937705 0.241236
O O1 0.207112 0.746855 0.405911
O O2 0.102665 0.888158 0.535557
O O3 0.000000 0.800646 0.250000
O O4 0.144244 0.960819 0.282334
O O5 0.500000 0.129178 0.250000
O O6 0.594310 0.173830 0.050679
O O7 0.426270 0.297245 0.037853
O O8 0.395697 0.084378 0.945265
O O9 0.304166 0.585014 0.290557
O O10 0.300591 0.562657 0.583124
O O11 0.806771 0.819977 0.660306
O O12 0.681073 0.641060 0.484802
O O13 0.685896 0.828442 0.341331
O O14 0.301930 0.048098 0.200948
O O15 0.500000 0.548981 0.250000
O O16 0.500000 0.956863 0.250000
#
# Coordination Sequence:
#
# PCOD8120478 Si02
#       7
#     4   4   4   4   4   4   4
#     4  12  28  51  74 100 132 179 240 300 353 406
#     4  11  21  35  60  96 140 185 223 261 329 406
#     4  12  26  44  72  98 143 184 238 285 339 402
#     4  11  22  38  64  98 144 184 221 264 338 416
#     4  12  24  44  73  99 138 180 227 282 357 418
#     4  12  24  45  69 104 147 190 225 274 334 420
#     4  10  21  40  58  96 144 184 213 272 328 421
#
# _framework density 22.310904000000001
#
# number of rings (size 3 to 8) (size 9 to 14) (size 15 to 20)
#    0.000    0.571    5.714    2.571    4.000    4.000 
#    0.000    1.429    0.000    0.000    0.000    0.000 
#    0.000    0.000    0.000    0.000    0.000    0.000 
#
# Total GULP energy -346897.951817 kJ/mol
# GULP energy per Si atom -12389.212565 kJ/mol
# Density = 2.226012 g / cm^3
# Si number density = 22.310904 Si / 1000 Ang^3
#
#
#
# Elastic Constant Matrix: (Units=GPa)
#
#
# Indices 1 2 3 4 5 6 
#
# 1 43.3576 25.1174 36.3473 0.0000 3.4486 0.0000
# 2 25.1174 132.9786 58.3865 0.0000 10.8691 0.0000
# 3 36.3473 58.3865 177.2149 0.0000 -3.6661 0.0000
# 4 0.0000 0.0000 0.0000 28.4773 0.0000 10.6145
# 5 3.4486 10.8691 -3.6661 0.0000 23.5670 0.0000
# 6 0.0000 0.0000 0.0000 10.6145 0.0000 8.5000
#
#
#
# Elastic Compliance Matrix: (Units=1/GPa)
#
#
# Indices 1 2 3 4 5 6 
#
# 1 0.029386 -0.003001 -0.005115 0.000000 -0.003712 0.000000
# 2 -0.003001 0.009606 -0.002640 0.000000 -0.004402 0.000000
# 3 -0.005115 -0.002640 0.007627 0.000000 0.003153 0.000000
# 4 0.000000 0.000000 0.000000 0.065693 0.000000 -0.082035
# 5 -0.003712 -0.004402 0.003153 0.000000 0.045496 0.000000
# 6 0.000000 0.000000 0.000000 -0.082035 0.000000 0.220090
#
#
# Mechanical properties :
#
#
# Convention : Reuss Voigt Hill
#
# Bulk Modulus (GPa) = 39.83176 65.91708 52.87442
# Shear Modulus (GPa) = 12.26152 27.68884 19.97518
#
# Velocity S-wave (km/s) = 2.34685 3.52667 2.99542
# Velocity P-wave (km/s) = 5.02348 6.79648 5.97610
#
# Compressibility (1/GPa) = 0.02510560
#
# Stress axis : x y z
#
# Youngs Moduli (GPa) = 34.02987 104.10199 131.11106
#
# Poissons Ratio (x) = 0.31244 0.67065
# Poissons Ratio (y) = 0.10213 0.34618
# Poissons Ratio (z) = 0.17407 0.27487
#
# Static dielectric constant tensor:
#      x y z
#    x 3.747840 0.000000 -0.061760 
#    y 0.000000 4.141960 0.000000 
#    z -0.061760 0.000000 4.802260 
# 
# 
# High freq. dielectric constant tensor:
#      x y z
#    x 1.833900 0.000000 -0.018250 
#    y 0.000000 1.885530 0.000000 
#    z -0.018250 0.000000 1.902730 
# 
# From -- ./inp_files/19101.got.cif
#   From: 2010.06.25/outbox.cif.g09.slc.cpg/sg13_10_cif.got.tgz:19101.got - 2010.06.28 04:50:58.
