data_PCOD8120342
_publ_section_title
;
Structure prediction by ZEFSAII (Michael W. Deem and Ramdas Pophale) SiO2 
 PCOD8120342
Probable space group: P 2/C
;
_chemical_formula_sum "Si O2"
_cell_formula_units_Z 28
_cell_length_a 20.358730
_cell_length_b 9.314615
_cell_length_c 14.566916
_cell_angle_alpha 90.000000
_cell_angle_beta 151.532018
_cell_angle_gamma 90.000000
_cell_volume 1316.736358
_symmetry_space_group_name_H-M "P 2/C"
_symmetry_group_IT_number 13
_symmetry_cell_setting 'monoclinic'
loop_
_space_group_symop_operation_xyz
x,y,z
-x,y,1/2-z
-x,-y,-z
x,-y,1/2+z
loop_
_atom_site_type_symbol
_atom_site_label
_atom_site_fract_x
_atom_site_fract_y
_atom_site_fract_z
Si Si1 0.386339 0.578773 0.173266
Si Si2 0.515707 0.826044 0.444640
Si Si3 0.713214 0.062730 0.716297
Si Si4 0.098913 0.279329 0.640953
Si Si5 0.165742 0.590880 0.755076
Si Si6 0.289868 0.644714 0.708600
Si Si7 0.930230 0.875138 0.075067
O O1 0.500000 0.492854 0.250000
O O2 0.473468 0.716353 0.313803
O O3 0.329114 0.483960 0.187569
O O4 0.262041 0.639096 0.957692
O O5 0.379923 0.907687 0.309820
O O6 0.576052 0.742242 0.608099
O O7 0.630428 0.944774 0.551391
O O8 0.760439 0.212370 0.728173
O O9 0.853449 0.996598 0.924868
O O10 0.129934 0.426644 0.731267
O O11 0.971696 0.309470 0.413425
O O12 0.055171 0.169044 0.664255
O O13 0.241353 0.590356 0.749167
O O14 0.167673 0.741146 0.516162
O O15 0.000000 0.943299 0.250000
#
# Coordination Sequence:
#
# PCOD8120342 Si02
#       7
#     4   4   4   4   4   4   4
#     4  12  23  36  65  95 123 158 209 264 318 376
#     4  10  22  41  59  89 127 162 207 254 307 375
#     4  10  22  40  64  82 122 174 200 247 315 372
#     4  10  21  40  64  87 122 162 207 251 313 379
#     4  10  22  39  63  96 122 157 206 263 319 366
#     4  10  21  40  60  85 128 158 196 261 322 367
#     4  10  21  39  58  86 118 157 206 256 302 374
#
# _framework density 21.264697000000002
#
# number of rings (size 3 to 8) (size 9 to 14) (size 15 to 20)
#    0.000    1.714    1.429    2.571    2.000    1.143 
#    2.571    4.286    0.000    0.000    0.000    0.000 
#    0.000    0.000    0.000    0.000    0.000    0.000 
#
# Total GULP energy -346991.382468 kJ/mol
# GULP energy per Si atom -12392.549374 kJ/mol
# Density = 2.121630 g / cm^3
# Si number density = 21.264697 Si / 1000 Ang^3
#
#
#
# Elastic Constant Matrix: (Units=GPa)
#
#
# Indices 1 2 3 4 5 6 
#
# 1 71.2625 26.3475 32.9544 0.0000 5.8160 0.0000
# 2 26.3475 70.3143 20.7075 0.0000 4.2563 0.0000
# 3 32.9544 20.7075 83.4836 0.0000 -3.5902 0.0000
# 4 0.0000 0.0000 0.0000 -31.9958 0.0000 21.2451
# 5 5.8160 4.2563 -3.5902 0.0000 29.3791 0.0000
# 6 0.0000 0.0000 0.0000 21.2451 0.0000 29.0431
#
#
#
# Elastic Compliance Matrix: (Units=1/GPa)
#
#
# Indices 1 2 3 4 5 6 
#
# 1 0.019223 -0.005055 -0.006501 0.000000 -0.003868 0.000000
# 2 -0.005055 0.016888 -0.002268 0.000000 -0.001723 0.000000
# 3 -0.006501 -0.002268 0.015257 0.000000 0.003480 0.000000
# 4 0.000000 0.000000 0.000000 -0.021036 0.000000 0.015388
# 5 -0.003868 -0.001723 0.003480 0.000000 0.035478 0.000000
# 6 0.000000 0.000000 0.000000 0.015388 0.000000 0.023175
#
#
# Mechanical properties :
#
#
# Convention : Reuss Voigt Hill
#
# Bulk Modulus (GPa) = 42.15558 42.78659 42.47109
# Shear Modulus (GPa) = 40.14815 14.95534 27.55175
#
# Velocity S-wave (km/s) = 4.34985 2.65485 3.60343
# Velocity P-wave (km/s) = 6.71532 5.43712 6.10974
#
# Compressibility (1/GPa) = 0.02372165
#
# Stress axis : x y z
#
# Youngs Moduli (GPa) = 52.02020 59.21347 65.54494
#
# Poissons Ratio (x) = 0.29930 0.42610
# Poissons Ratio (y) = 0.26294 0.14864
# Poissons Ratio (z) = 0.33817 0.13429
#
# Static dielectric constant tensor:
#      x y z
#    x 3.606860 0.000000 0.224300 
#    y 0.000000 3.869280 0.000000 
#    z 0.224300 0.000000 4.064020 
# 
# 
# High freq. dielectric constant tensor:
#      x y z
#    x 1.815570 0.000000 0.020150 
#    y 0.000000 1.829870 0.000000 
#    z 0.020150 0.000000 1.844700 
# 
# From -- ./inp_files/57535.got.cif
#   From: 2010.06.25/outbox.cif.g09.slc.cpg/sg13_29_cif.got.tgz:57535.got - 2010.06.28 04:50:58.
