data_PCOD8120497
_publ_section_title
;
Structure prediction by ZEFSAII (Michael W. Deem and Ramdas Pophale) SiO2 
 PCOD8120497
Probable space group: P 2/C
;
_chemical_formula_sum "Si O2"
_cell_formula_units_Z 20
_cell_length_a 8.343474
_cell_length_b 12.971814
_cell_length_c 11.556493
_cell_angle_alpha 90.000000
_cell_angle_beta 129.562934
_cell_angle_gamma 90.000000
_cell_volume 964.242059
_symmetry_space_group_name_H-M "P 2/C"
_symmetry_group_IT_number 13
_symmetry_cell_setting 'monoclinic'
loop_
_space_group_symop_operation_xyz
x,y,z
-x,y,1/2-z
-x,-y,-z
x,-y,1/2+z
loop_
_atom_site_type_symbol
_atom_site_label
_atom_site_fract_x
_atom_site_fract_y
_atom_site_fract_z
Si Si1 0.114489 0.995395 0.425942
Si Si2 0.720964 0.201885 0.409036
Si Si3 0.097352 0.218782 0.413023
Si Si4 0.225397 0.605010 0.408895
Si Si5 0.601436 0.600049 0.414295
O O1 0.277349 0.900448 0.509232
O O2 0.000000 0.972309 0.250000
O O3 0.218159 0.108762 0.454470
O O4 0.000000 0.000000 0.500000
O O5 0.500000 0.211053 0.250000
O O6 0.769305 0.307855 0.493810
O O7 0.899891 0.192228 0.398313
O O8 0.254255 0.300630 0.540225
O O9 0.000000 0.262932 0.250000
O O10 0.413066 0.631461 0.409888
O O11 0.255330 0.491510 0.474042
O O12 0.000000 0.607175 0.250000
O O13 0.500000 0.561276 0.250000
#
# Coordination Sequence:
#
# PCOD8120497 Si02
#       5
#     4   4   4   4   4
#     4   9  20  39  61  88 123 164 206 252 306 364
#     4  11  22  38  62  91 123 160 203 251 303 360
#     4  10  21  40  61  86 122 159 199 246 299 361
#     4  11  24  41  61  87 120 156 198 248 302 363
#     4  11  24  40  61  88 117 155 199 246 303 361
#
# _framework density 20.741679000000001
#
# number of rings (size 3 to 8) (size 9 to 14) (size 15 to 20)
#    0.000    1.600    0.000    4.200    0.000    8.800 
#    0.000   16.000    0.000    0.000    0.000    0.000 
#    0.000    0.000    0.000    0.000    0.000    0.000 
#
# Total GULP energy -247768.425551 kJ/mol
# GULP energy per Si atom -12388.421278 kJ/mol
# Density = 2.069447 g / cm^3
# Si number density = 20.741679 Si / 1000 Ang^3
#
#
#
# Elastic Constant Matrix: (Units=GPa)
#
#
# Indices 1 2 3 4 5 6 
#
# 1 50.6375 43.3105 43.4168 0.0000 8.3871 0.0000
# 2 43.3105 119.8328 57.2526 0.0000 26.7402 0.0000
# 3 43.4168 57.2526 152.9105 0.0000 12.7956 0.0000
# 4 0.0000 0.0000 0.0000 28.6025 0.0000 -24.3128
# 5 8.3871 26.7402 12.7956 0.0000 42.1522 0.0000
# 6 0.0000 0.0000 0.0000 -24.3128 0.0000 -0.6959
#
#
#
# Elastic Compliance Matrix: (Units=1/GPa)
#
#
# Indices 1 2 3 4 5 6 
#
# 1 0.032440 -0.009176 -0.005871 0.000000 0.001149 0.000000
# 2 -0.009176 0.014133 -0.002143 0.000000 -0.006490 0.000000
# 3 -0.005871 -0.002143 0.009027 0.000000 -0.000212 0.000000
# 4 0.000000 0.000000 0.000000 0.001139 0.000000 -0.039791
# 5 0.001149 -0.006490 -0.000212 0.000000 0.027676 0.000000
# 6 0.000000 0.000000 0.000000 -0.039791 0.000000 -0.046811
#
#
# Mechanical properties :
#
#
# Convention : Reuss Voigt Hill
#
# Bulk Modulus (GPa) = 47.12635 67.92672 57.52653
# Shear Modulus (GPa) = 63.24331 25.97182 44.60756
#
# Velocity S-wave (km/s) = 5.52785 3.54242 4.64251
# Velocity P-wave (km/s) = 7.96949 7.03929 7.51879
#
# Compressibility (1/GPa) = 0.02121955
#
# Stress axis : x y z
#
# Youngs Moduli (GPa) = 30.82585 70.75389 110.77604
#
# Poissons Ratio (x) = 0.64922 0.65042
# Poissons Ratio (y) = 0.28285 0.23745
# Poissons Ratio (z) = 0.18099 0.15166
#
# Static dielectric constant tensor:
#      x y z
#    x 3.799010 0.000000 -0.114220 
#    y 0.000000 4.116290 0.000000 
#    z -0.114220 0.000000 3.923590 
# 
# 
# High freq. dielectric constant tensor:
#      x y z
#    x 1.799890 0.000000 -0.013170 
#    y 0.000000 1.840660 0.000000 
#    z -0.013170 0.000000 1.819060 
# 
# From -- ./inp_files/29246.got.cif
#   From: 2010.06.25/outbox.cif.g09.slc.cpg/sg13_15_cif.got.tgz:29246.got - 2010.06.28 04:50:58.
