data_PCOD8120814
_publ_section_title
;
Structure prediction by ZEFSAII (Michael W. Deem and Ramdas Pophale) SiO2 
 PCOD8120814
Probable space group: P 2/C
;
_chemical_formula_sum "Si O2"
_cell_formula_units_Z 22
_cell_length_a 11.295602
_cell_length_b 13.371260
_cell_length_c 13.660176
_cell_angle_alpha 90.000000
_cell_angle_beta 148.429313
_cell_angle_gamma 90.000000
_cell_volume 1080.180284
_symmetry_space_group_name_H-M "P 2/C"
_symmetry_group_IT_number 13
_symmetry_cell_setting 'monoclinic'
loop_
_space_group_symop_operation_xyz
x,y,z
-x,y,1/2-z
-x,-y,-z
x,-y,1/2+z
loop_
_atom_site_type_symbol
_atom_site_label
_atom_site_fract_x
_atom_site_fract_y
_atom_site_fract_z
Si Si1 0.182412 0.695522 0.735571
Si Si2 0.249523 0.967649 0.089230
Si Si3 0.613173 0.610348 0.934531
Si Si4 0.000000 0.245907 0.750000
Si Si5 0.986211 0.841510 0.046025
Si Si6 0.000000 0.456107 0.250000
Si Si7 0.000000 0.848767 0.750000
O O1 0.425133 0.645605 0.881332
O O2 0.073665 0.744191 0.561430
O O3 0.019039 0.608648 0.663415
O O4 0.187410 0.780341 0.824693
O O5 0.500000 0.934178 0.250000
O O6 0.232870 0.088177 0.088866
O O7 0.174603 0.913336 0.134880
O O8 0.110508 0.924664 0.901928
O O9 0.500000 0.587074 0.750000
O O10 0.796310 0.697099 0.052711
O O11 0.763184 0.516585 0.076958
O O12 0.101315 0.185249 0.730727
#
# Coordination Sequence:
#
# PCOD8120814 Si02
#       7
#     4   4   4   2   4   2   2
#     4  10  21  43  65  89 127 163 204 257 306 367
#     4  10  22  39  62  91 127 166 204 254 307 351
#     4  11  23  41  64  91 121 162 202 257 314 366
#     4  11  23  39  61  90 122 160 211 245 305 375
#     4  10  22  41  61  92 127 161 212 254 293 376
#     4  10  24  44  64  92 122 156 208 262 314 372
#     4   9  21  41  61  94 130 162 209 249 295 369
#
# _framework density 20.366969999999998
#
# number of rings (size 3 to 8) (size 9 to 14) (size 15 to 20)
#    0.000    1.818    1.818    1.091    5.091    0.727 
#    3.273    5.455    0.000    0.000    0.000    0.000 
#    0.000    0.000    0.000    0.000    0.000    0.000 
#
# Total GULP energy -272557.718338 kJ/mol
# GULP energy per Si atom -12388.987197 kJ/mol
# Density = 2.032061 g / cm^3
# Si number density = 20.366970 Si / 1000 Ang^3
#
#
#
# Elastic Constant Matrix: (Units=GPa)
#
#
# Indices 1 2 3 4 5 6 
#
# 1 130.4477 59.6107 48.8904 0.0000 -12.3008 0.0000
# 2 59.6107 117.1077 51.0078 0.0000 -9.5719 0.0000
# 3 48.8904 51.0078 83.5580 0.0000 -2.9175 0.0000
# 4 0.0000 0.0000 0.0000 9.4075 0.0000 -5.1443
# 5 -12.3008 -9.5719 -2.9175 0.0000 41.3138 0.0000
# 6 0.0000 0.0000 0.0000 -5.1443 0.0000 30.1910
#
#
#
# Elastic Compliance Matrix: (Units=1/GPa)
#
#
# Indices 1 2 3 4 5 6 
#
# 1 0.011112 -0.003651 -0.004197 0.000000 0.002166 0.000000
# 2 -0.003651 0.013034 -0.005767 0.000000 0.001526 0.000000
# 3 -0.004197 -0.005767 0.017898 0.000000 -0.001322 0.000000
# 4 0.000000 0.000000 0.000000 0.117220 0.000000 0.019973
# 5 0.002166 0.001526 -0.001322 0.000000 0.025110 0.000000
# 6 0.000000 0.000000 0.000000 0.019973 0.000000 0.036526
#
#
# Mechanical properties :
#
#
# Convention : Reuss Voigt Hill
#
# Bulk Modulus (GPa) = 67.50766 72.23680 69.87223
# Shear Modulus (GPa) = 19.75750 27.62275 23.69012
#
# Velocity S-wave (km/s) = 3.11798 3.68673 3.41422
# Velocity P-wave (km/s) = 6.79559 7.32579 7.06567
#
# Compressibility (1/GPa) = 0.01481313
#
# Stress axis : x y z
#
# Youngs Moduli (GPa) = 89.99636 76.72089 55.87215
#
# Poissons Ratio (x) = 0.28010 0.23450
# Poissons Ratio (y) = 0.32857 0.32223
# Poissons Ratio (z) = 0.37773 0.44247
#
# Static dielectric constant tensor:
#      x y z
#    x 3.998150 0.000000 0.025150 
#    y 0.000000 3.911040 0.000000 
#    z 0.025150 0.000000 3.293450 
# 
# 
# High freq. dielectric constant tensor:
#      x y z
#    x 1.819320 0.000000 -0.004850 
#    y 0.000000 1.806550 0.000000 
#    z -0.004850 0.000000 1.766710 
# 
# From -- ./inp_files/51362.got.cif
#   From: 2010.06.25/outbox.cif.g09.slc.cpg/sg13_26_cif.got.tgz:51362.got - 2010.06.28 04:50:58.
