data_PCOD8120899
_publ_section_title
;
Structure prediction by ZEFSAII (Michael W. Deem and Ramdas Pophale) SiO2 
 PCOD8120899
Probable space group: P 2/C
;
_chemical_formula_sum "Si O2"
_cell_formula_units_Z 30
_cell_length_a 18.277384
_cell_length_b 11.622245
_cell_length_c 10.555537
_cell_angle_alpha 90.000000
_cell_angle_beta 35.890729
_cell_angle_gamma 90.000000
_cell_volume 1314.500599
_symmetry_space_group_name_H-M "P 2/C"
_symmetry_group_IT_number 13
_symmetry_cell_setting 'monoclinic'
loop_
_space_group_symop_operation_xyz
x,y,z
-x,y,1/2-z
-x,-y,-z
x,-y,1/2+z
loop_
_atom_site_type_symbol
_atom_site_label
_atom_site_fract_x
_atom_site_fract_y
_atom_site_fract_z
Si Si1 0.000000 0.030630 0.250000
Si Si2 0.223044 0.172546 0.181109
Si Si3 0.220997 0.926511 0.070530
Si Si4 0.872158 0.539203 0.117977
Si Si5 0.948750 0.215037 0.528568
Si Si6 0.383621 0.771653 0.695292
Si Si7 0.274853 0.466823 0.416892
Si Si8 0.406838 0.697702 0.262411
O O1 0.966259 0.107902 0.414247
O O2 0.875783 0.955761 0.406189
O O3 0.296913 0.211357 0.197682
O O4 0.085980 0.226193 0.397779
O O5 0.234524 0.034928 0.145016
O O6 0.282991 0.231100 0.971970
O O7 0.158433 0.816119 0.222446
O O8 0.354677 0.879783 0.830045
O O9 0.828021 0.470897 0.053538
O O10 0.775992 0.525729 0.368633
O O11 0.898309 0.669623 0.033751
O O12 0.000000 0.500000 0.000000
O O13 0.352516 0.650117 0.802213
O O14 0.526780 0.767794 0.446315
O O15 0.369035 0.572716 0.263689
O O16 0.500000 0.684274 0.250000
#
# Coordination Sequence:
#
# PCOD8120899 Si02
#       8
#     2   4   4   4   4   4   4   4
#     4  10  22  34  64  90 132 182 204 278 330 426
#     4  10  22  39  65  91 130 176 218 275 341 405
#     4  11  21  39  63  95 131 167 225 271 346 400
#     4  12  26  40  68 101 142 176 218 280 346 414
#     4  11  22  39  60  98 132 168 223 266 342 417
#     4  11  22  42  65  91 129 172 227 279 332 393
#     4  12  25  45  68 100 136 179 227 282 339 410
#     4  10  23  44  70  95 129 181 231 280 338 400
#
# _framework density 22.822355999999999
#
# number of rings (size 3 to 8) (size 9 to 14) (size 15 to 20)
#    0.000    1.067    1.333    7.200    5.600    0.533 
#    0.000    0.000    0.000    0.000    0.000    0.000 
#    0.000    0.000    0.000    0.000    0.000    0.000 
#
# Total GULP energy -371797.348326 kJ/mol
# GULP energy per Si atom -12393.244944 kJ/mol
# Density = 2.277041 g / cm^3
# Si number density = 22.822356 Si / 1000 Ang^3
#
#
#
# Elastic Constant Matrix: (Units=GPa)
#
#
# Indices 1 2 3 4 5 6 
#
# 1 33.6628 -6.3289 -2.2638 0.0000 5.5577 0.0000
# 2 -6.3289 83.7765 21.5523 0.0000 -4.5451 0.0000
# 3 -2.2638 21.5523 111.7336 0.0000 8.8633 0.0000
# 4 0.0000 0.0000 0.0000 41.7247 0.0000 -11.9700
# 5 5.5577 -4.5451 8.8633 0.0000 20.3486 0.0000
# 6 0.0000 0.0000 0.0000 -11.9700 0.0000 21.6104
#
#
#
# Elastic Compliance Matrix: (Units=1/GPa)
#
#
# Indices 1 2 3 4 5 6 
#
# 1 0.031517 0.001651 0.001009 0.000000 -0.008679 0.000000
# 2 0.001651 0.012968 -0.002757 0.000000 0.003647 0.000000
# 3 0.001009 -0.002757 0.009915 0.000000 -0.005210 0.000000
# 4 0.000000 0.000000 0.000000 0.028495 0.000000 0.015783
# 5 -0.008679 0.003647 -0.005210 0.000000 0.054598 0.000000
# 6 0.000000 0.000000 0.000000 0.015783 0.000000 0.055016
#
#
# Mechanical properties :
#
#
# Convention : Reuss Voigt Hill
#
# Bulk Modulus (GPa) = 18.44841 28.34356 23.39599
# Shear Modulus (GPa) = 23.72202 31.15094 27.43648
#
# Velocity S-wave (km/s) = 3.22750 3.69850 3.47100
# Velocity P-wave (km/s) = 4.68936 5.53938 5.13200
#
# Compressibility (1/GPa) = 0.05420521
#
# Stress axis : x y z
#
# Youngs Moduli (GPa) = 31.72847 77.11032 100.85256
#
# Poissons Ratio (x) = -0.12728 -0.10172
# Poissons Ratio (y) = -0.05237 0.27808
# Poissons Ratio (z) = -0.03200 0.21262
#
# Static dielectric constant tensor:
#      x y z
#    x 3.646190 0.000000 -0.063270 
#    y 0.000000 4.280230 0.000000 
#    z -0.063270 0.000000 4.916660 
# 
# 
# High freq. dielectric constant tensor:
#      x y z
#    x 1.880460 0.000000 0.007850 
#    y 0.000000 1.912250 0.000000 
#    z 0.007850 0.000000 1.912470 
# 
# From -- ./inp_files/40867.got.cif
#   From: 2010.06.25/outbox.cif.g09.slc.cpg/sg13_21_cif.got.tgz:40867.got - 2010.06.28 04:50:58.
