data_PCOD8120089
_publ_section_title
;
Structure prediction by ZEFSAII (Michael W. Deem and Ramdas Pophale) SiO2 
 PCOD8120089
Probable space group: P 2/C
;
_chemical_formula_sum "Si O2"
_cell_formula_units_Z 16
_cell_length_a 6.882401
_cell_length_b 18.659340
_cell_length_c 8.086858
_cell_angle_alpha 90.000000
_cell_angle_beta 140.730793
_cell_angle_gamma 90.000000
_cell_volume 657.348519
_symmetry_space_group_name_H-M "P 2/C"
_symmetry_group_IT_number 13
_symmetry_cell_setting 'monoclinic'
loop_
_space_group_symop_operation_xyz
x,y,z
-x,y,1/2-z
-x,-y,-z
x,-y,1/2+z
loop_
_atom_site_type_symbol
_atom_site_label
_atom_site_fract_x
_atom_site_fract_y
_atom_site_fract_z
Si Si1 0.638423 0.210026 0.011804
Si Si2 0.637634 0.928063 0.018034
Si Si3 0.119402 0.424213 0.644444
Si Si4 0.376056 0.642214 0.846995
O O1 0.559432 0.273887 0.086308
O O2 0.000000 0.192981 0.250000
O O3 0.500000 0.237869 0.750000
O O4 0.450907 0.138541 0.927331
O O5 0.000000 0.936420 0.250000
O O6 0.500000 0.912246 0.750000
O O7 0.500000 0.000000 0.000000
O O8 0.000000 0.405546 0.750000
O O9 0.000000 0.500000 0.500000
O O10 0.991877 0.369334 0.418447
O O11 0.485825 0.409561 0.913605
O O12 0.500000 0.616088 0.750000
#
# Coordination Sequence:
#
# PCOD8120089 Si02
#       4
#     4   4   4   4
#     4  12  25  42  65  98 132 170 218 269 320 382
#     4  12  25  45  71 100 135 175 215 264 318 380
#     4  10  21  37  59  86 119 159 209 265 322 382
#     4  10  22  40  60  86 122 166 211 262 322 382
#
# _framework density 24.340205999999998
#
# number of rings (size 3 to 8) (size 9 to 14) (size 15 to 20)
#    0.000    1.000    0.000    6.750    0.000    6.000 
#    0.000    0.000    0.000    0.000    0.000    0.000 
#    0.000    0.000    0.000    0.000    0.000    0.000 
#
# Total GULP energy -198291.433907 kJ/mol
# GULP energy per Si atom -12393.214619 kJ/mol
# Density = 2.428481 g / cm^3
# Si number density = 24.340206 Si / 1000 Ang^3
#
#
#
# Elastic Constant Matrix: (Units=GPa)
#
#
# Indices 1 2 3 4 5 6 
#
# 1 38.5891 20.9151 58.8330 0.0000 18.2095 0.0000
# 2 20.9151 173.0776 67.3261 0.0000 2.8482 0.0000
# 3 58.8330 67.3261 241.9136 0.0000 19.3245 0.0000
# 4 0.0000 0.0000 0.0000 44.7734 0.0000 2.6770
# 5 18.2095 2.8482 19.3245 0.0000 48.6250 0.0000
# 6 0.0000 0.0000 0.0000 2.6770 0.0000 12.8028
#
#
#
# Elastic Compliance Matrix: (Units=1/GPa)
#
#
# Indices 1 2 3 4 5 6 
#
# 1 0.049445 -0.001689 -0.010414 0.000000 -0.014279 0.000000
# 2 -0.001689 0.006543 -0.001477 0.000000 0.000836 0.000000
# 3 -0.010414 -0.001477 0.006981 0.000000 0.001212 0.000000
# 4 0.000000 0.000000 0.000000 0.022617 0.000000 -0.004729
# 5 -0.014279 0.000836 0.001212 0.000000 0.025382 0.000000
# 6 0.000000 0.000000 0.000000 -0.004729 0.000000 0.079097
#
#
# Mechanical properties :
#
#
# Convention : Reuss Voigt Hill
#
# Bulk Modulus (GPa) = 27.92674 83.08096 55.50385
# Shear Modulus (GPa) = 21.81874 41.67399 31.74636
#
# Velocity S-wave (km/s) = 2.99725 4.14230 3.61539
# Velocity P-wave (km/s) = 4.84525 7.55549 6.34673
#
# Compressibility (1/GPa) = 0.03580797
#
# Stress axis : x y z
#
# Youngs Moduli (GPa) = 20.22447 152.84459 143.25346
#
# Poissons Ratio (x) = 0.25815 1.49188
# Poissons Ratio (y) = 0.03416 0.21157
# Poissons Ratio (z) = 0.21062 0.22573
#
# Static dielectric constant tensor:
#      x y z
#    x 4.446700 0.000000 0.060770 
#    y 0.000000 4.120660 0.000000 
#    z 0.060770 0.000000 5.612690 
# 
# 
# High freq. dielectric constant tensor:
#      x y z
#    x 1.961340 0.000000 -0.004270 
#    y 0.000000 1.966520 0.000000 
#    z -0.004270 0.000000 2.014080 
# 
# From -- ./inp_files/12928.got.cif
#   From: 2010.06.25/outbox.cif.g09.slc.cpg/sg13_7_cif.got.tgz:12928.got - 2010.06.28 04:50:58.
