data_PCOD8120760
_publ_section_title
;
Structure prediction by ZEFSAII (Michael W. Deem and Ramdas Pophale) SiO2 
 PCOD8120760
Probable space group: P 2/C
;
_chemical_formula_sum "Si O2"
_cell_formula_units_Z 18
_cell_length_a 11.808817
_cell_length_b 8.263576
_cell_length_c 18.648668
_cell_angle_alpha 90.000000
_cell_angle_beta 154.080101
_cell_angle_gamma 90.000000
_cell_volume 795.457776
_symmetry_space_group_name_H-M "P 2/C"
_symmetry_group_IT_number 13
_symmetry_cell_setting 'monoclinic'
loop_
_space_group_symop_operation_xyz
x,y,z
-x,y,1/2-z
-x,-y,-z
x,-y,1/2+z
loop_
_atom_site_type_symbol
_atom_site_label
_atom_site_fract_x
_atom_site_fract_y
_atom_site_fract_z
Si Si1 0.500000 0.466054 0.750000
Si Si2 0.451302 0.120099 0.105565
Si Si3 0.718904 0.635308 0.114100
Si Si4 0.616721 0.769860 0.204574
Si Si5 0.149015 0.759393 0.566936
O O1 0.563532 0.363761 0.859008
O O2 0.241643 0.572973 0.613926
O O3 0.740180 0.169483 0.295528
O O4 0.255820 0.145050 0.059172
O O5 0.453848 0.928563 0.091163
O O6 0.372871 0.223244 0.991598
O O7 0.760918 0.711145 0.215714
O O8 0.000000 0.564471 0.250000
O O9 0.500000 0.500000 0.000000
O O10 0.841551 0.788149 0.393395
#
# Coordination Sequence:
#
# PCOD8120760 Si02
#       5
#     2   4   4   4   4
#     4  10  22  38  66 104 130 176 232 270 354 396
#     4  10  22  43  64 101 135 177 229 282 349 403
#     4  12  26  49  71 101 141 183 232 286 350 421
#     4  12  23  41  71  96 138 181 228 288 345 410
#     4  10  21  42  66  95 141 170 229 287 332 421
#
# _framework density 22.628478000000001
#
# number of rings (size 3 to 8) (size 9 to 14) (size 15 to 20)
#    0.000    1.333    2.222    6.000    0.000    0.000 
#    4.000    0.000    0.000    0.000    0.000    0.000 
#    0.000    0.000    0.000    0.000    0.000    0.000 
#
# Total GULP energy -223097.887794 kJ/mol
# GULP energy per Si atom -12394.327100 kJ/mol
# Density = 2.257697 g / cm^3
# Si number density = 22.628478 Si / 1000 Ang^3
#
#
#
# Elastic Constant Matrix: (Units=GPa)
#
#
# Indices 1 2 3 4 5 6 
#
# 1 102.1178 44.6141 13.7909 0.0000 -10.8524 0.0000
# 2 44.6141 140.0271 24.2234 0.0000 16.2128 0.0000
# 3 13.7909 24.2234 70.5609 0.0000 -0.0725 0.0000
# 4 0.0000 0.0000 0.0000 27.4815 0.0000 -8.6513
# 5 -10.8524 16.2128 -0.0725 0.0000 28.6517 0.0000
# 6 0.0000 0.0000 0.0000 -8.6513 0.0000 22.8808
#
#
#
# Elastic Compliance Matrix: (Units=1/GPa)
#
#
# Indices 1 2 3 4 5 6 
#
# 1 0.012815 -0.004814 -0.000844 0.000000 0.007576 0.000000
# 2 -0.004814 0.009971 -0.002490 0.000000 -0.007472 0.000000
# 3 -0.000844 -0.002490 0.015193 0.000000 0.001128 0.000000
# 4 0.000000 0.000000 0.000000 0.041305 0.000000 0.015617
# 5 0.007576 -0.007472 0.001128 0.000000 0.042002 0.000000
# 6 0.000000 0.000000 0.000000 0.015617 0.000000 0.049610
#
#
# Mechanical properties :
#
#
# Convention : Reuss Voigt Hill
#
# Bulk Modulus (GPa) = 46.11929 53.10695 49.61312
# Shear Modulus (GPa) = 25.71754 31.14130 28.42942
#
# Velocity S-wave (km/s) = 3.37488 3.71374 3.54836
# Velocity P-wave (km/s) = 5.96756 6.47373 6.22579
#
# Compressibility (1/GPa) = 0.02168290
#
# Stress axis : x y z
#
# Youngs Moduli (GPa) = 78.03374 100.28931 65.81948
#
# Poissons Ratio (x) = 0.48280 0.05556
# Poissons Ratio (y) = 0.37566 0.16388
# Poissons Ratio (z) = 0.06587 0.24971
#
# Static dielectric constant tensor:
#      x y z
#    x 4.042410 0.000000 -0.148220 
#    y 0.000000 4.148000 0.000000 
#    z -0.148220 0.000000 4.138790 
# 
# 
# High freq. dielectric constant tensor:
#      x y z
#    x 1.893750 0.000000 -0.004150 
#    y 0.000000 1.895990 0.000000 
#    z -0.004150 0.000000 1.882590 
# 
# From -- ./inp_files/66214.got.cif
#   From: 2010.06.25/outbox.cif.g09.slc.cpg/sg13_34_cif.got.tgz:66214.got - 2010.06.28 04:50:58.
