data_PCOD8120114
_publ_section_title
;
Structure prediction by ZEFSAII (Michael W. Deem and Ramdas Pophale) SiO2 
 PCOD8120114
Probable space group: P 2/C
;
_chemical_formula_sum "Si O2"
_cell_formula_units_Z 28
_cell_length_a 12.062517
_cell_length_b 22.953141
_cell_length_c 5.192725
_cell_angle_alpha 90.000000
_cell_angle_beta 102.613620
_cell_angle_gamma 90.000000
_cell_volume 1403.023917
_symmetry_space_group_name_H-M "P 2/C"
_symmetry_group_IT_number 13
_symmetry_cell_setting 'monoclinic'
loop_
_space_group_symop_operation_xyz
x,y,z
-x,y,1/2-z
-x,-y,-z
x,-y,1/2+z
loop_
_atom_site_type_symbol
_atom_site_label
_atom_site_fract_x
_atom_site_fract_y
_atom_site_fract_z
Si Si1 0.372783 0.025498 0.938892
Si Si2 0.729652 0.144990 0.617964
Si Si3 0.874356 0.295079 0.223541
Si Si4 0.129372 0.841517 0.814288
Si Si5 0.130337 0.462556 0.802148
Si Si6 0.765012 0.658799 0.168098
Si Si7 0.424481 0.743219 0.461651
O O1 0.369081 0.095807 0.942620
O O2 0.308565 0.000683 0.654991
O O3 0.500000 0.000000 0.000000
O O4 0.811048 0.137613 0.415339
O O5 0.673019 0.208192 0.592070
O O6 0.804138 0.133049 0.908258
O O7 0.868157 0.227671 0.157279
O O8 0.840226 0.305573 0.501374
O O9 0.000000 0.320368 0.250000
O O10 0.795821 0.328579 0.980079
O O11 0.000000 0.864367 0.750000
O O12 0.154649 0.492258 0.541572
O O13 0.218452 0.409486 0.877846
O O14 0.000000 0.439859 0.750000
O O15 0.634578 0.679452 0.063680
O O16 0.500000 0.750930 0.250000
O O17 0.500000 0.751750 0.750000
#
# Coordination Sequence:
#
# PCOD8120114 Si02
#       7
#     4   4   4   4   4   4   4
#     4  10  23  40  61  92 120 160 211 260 311 375
#     4  12  23  42  67  91 134 166 201 266 323 361
#     4  11  20  34  58  92 126 159 198 242 303 387
#     4  11  22  39  63  97 130 164 204 245 310 398
#     4  10  21  37  60  91 122 158 203 253 309 369
#     4  12  22  40  58  88 129 167 205 248 321 367
#     4  12  26  40  61  90 126 169 208 263 319 369
#
# _framework density 19.956893000000001
#
# number of rings (size 3 to 8) (size 9 to 14) (size 15 to 20)
#    0.000    0.857    2.857    5.143    4.000    3.429 
#    0.000    0.000    0.000   11.143    0.000    0.000 
#    0.000    0.000    0.000    0.000    0.000    0.000 
#
# Total GULP energy -347214.467614 kJ/mol
# GULP energy per Si atom -12400.516700 kJ/mol
# Density = 1.991147 g / cm^3
# Si number density = 19.956893 Si / 1000 Ang^3
#
#
#
# Elastic Constant Matrix: (Units=GPa)
#
#
# Indices 1 2 3 4 5 6 
#
# 1 102.8247 41.0777 50.5338 0.0000 -1.9218 0.0000
# 2 41.0777 87.1559 21.4062 0.0000 5.2908 0.0000
# 3 50.5338 21.4062 136.3090 0.0000 -18.2256 0.0000
# 4 0.0000 0.0000 0.0000 20.9168 0.0000 5.0895
# 5 -1.9218 5.2908 -18.2256 0.0000 32.2358 0.0000
# 6 0.0000 0.0000 0.0000 5.0895 0.0000 28.2876
#
#
#
# Elastic Compliance Matrix: (Units=1/GPa)
#
#
# Indices 1 2 3 4 5 6 
#
# 1 0.014106 -0.005503 -0.004470 0.000000 -0.000783 0.000000
# 2 -0.005503 0.014407 -0.000630 0.000000 -0.003049 0.000000
# 3 -0.004470 -0.000630 0.009812 0.000000 0.005385 0.000000
# 4 0.000000 0.000000 0.000000 0.049997 0.000000 -0.008995
# 5 -0.000783 -0.003049 0.005385 0.000000 0.034520 0.000000
# 6 0.000000 0.000000 0.000000 -0.008995 0.000000 0.036970
#
#
# Mechanical properties :
#
#
# Convention : Reuss Voigt Hill
#
# Bulk Modulus (GPa) = 58.41332 61.36946 59.89139
# Shear Modulus (GPa) = 26.77749 30.50616 28.64182
#
# Velocity S-wave (km/s) = 3.66699 3.91398 3.79249
# Velocity P-wave (km/s) = 6.87476 7.15845 7.01804
#
# Compressibility (1/GPa) = 0.01711938
#
# Stress axis : x y z
#
# Youngs Moduli (GPa) = 70.89287 69.41020 101.91235
#
# Poissons Ratio (x) = 0.38195 0.45555
# Poissons Ratio (y) = 0.39011 0.06422
# Poissons Ratio (z) = 0.31689 0.04374
#
# Static dielectric constant tensor:
#      x y z
#    x 3.531810 0.000000 0.060500 
#    y 0.000000 3.511280 0.000000 
#    z 0.060500 0.000000 3.677340 
# 
# 
# High freq. dielectric constant tensor:
#      x y z
#    x 1.760160 0.000000 -0.018020 
#    y 0.000000 1.765780 0.000000 
#    z -0.018020 0.000000 1.804860 
# 
# From -- ./inp_files/4098.got.cif
#   From: 2010.06.25/outbox.cif.g09.slc.cpg/sg13_3_cif.got.tgz:4098.got - 2010.06.28 04:50:58.
