data_PCOD8120786
_publ_section_title
;
Structure prediction by ZEFSAII (Michael W. Deem and Ramdas Pophale) SiO2 
 PCOD8120786
Probable space group: P 2/C
;
_chemical_formula_sum "Si O2"
_cell_formula_units_Z 20
_cell_length_a 11.479657
_cell_length_b 10.165124
_cell_length_c 13.332141
_cell_angle_alpha 90.000000
_cell_angle_beta 32.613644
_cell_angle_gamma 90.000000
_cell_volume 838.507979
_symmetry_space_group_name_H-M "P 2/C"
_symmetry_group_IT_number 13
_symmetry_cell_setting 'monoclinic'
loop_
_space_group_symop_operation_xyz
x,y,z
-x,y,1/2-z
-x,-y,-z
x,-y,1/2+z
loop_
_atom_site_type_symbol
_atom_site_label
_atom_site_fract_x
_atom_site_fract_y
_atom_site_fract_z
Si Si1 0.473667 0.238228 0.656805
Si Si2 0.617438 0.459708 0.285587
Si Si3 0.981253 0.151218 0.539260
Si Si4 0.149219 0.307850 0.230816
Si Si5 0.811718 0.661592 0.464967
O O1 0.500000 0.180934 0.750000
O O2 0.475171 0.396264 0.658118
O O3 0.265906 0.180479 0.750879
O O4 0.683041 0.201585 0.438437
O O5 0.725194 0.435328 0.315733
O O6 0.426845 0.348021 0.412184
O O7 0.801441 0.441792 0.065552
O O8 0.018474 0.234987 0.411865
O O9 0.135533 0.196143 0.519992
O O10 0.000000 0.000000 0.500000
O O11 0.000000 0.362891 0.250000
O O12 0.000000 0.625881 0.250000
#
# Coordination Sequence:
#
# PCOD8120786 Si02
#       5
#     4   4   4   4   4
#     4  12  23  43  67 104 138 172 223 279 336 404
#     4  10  23  41  66 107 137 167 222 276 342 415
#     4  11  27  47  65  98 133 183 236 276 328 396
#     4  11  24  43  69 100 139 181 218 278 343 396
#     4  10  21  42  69  95 134 177 223 279 340 397
#
# _framework density 23.851890000000001
#
# number of rings (size 3 to 8) (size 9 to 14) (size 15 to 20)
#    0.000    1.200    4.000    1.800    0.000    8.800 
#    7.200    0.000    0.000    0.000    0.000    0.000 
#    0.000    0.000    0.000    0.000    0.000    0.000 
#
# Total GULP energy -247883.806911 kJ/mol
# GULP energy per Si atom -12394.190346 kJ/mol
# Density = 2.379760 g / cm^3
# Si number density = 23.851890 Si / 1000 Ang^3
#
#
#
# Elastic Constant Matrix: (Units=GPa)
#
#
# Indices 1 2 3 4 5 6 
#
# 1 156.2527 29.4820 34.3641 0.0000 -18.3925 0.0000
# 2 29.4820 74.1362 -0.7063 0.0000 -22.0845 0.0000
# 3 34.3641 -0.7063 123.9243 0.0000 2.7301 0.0000
# 4 0.0000 0.0000 0.0000 11.0373 0.0000 -7.6567
# 5 -18.3925 -22.0845 2.7301 0.0000 45.9237 0.0000
# 6 0.0000 0.0000 0.0000 -7.6567 0.0000 21.8631
#
#
#
# Elastic Compliance Matrix: (Units=1/GPa)
#
#
# Indices 1 2 3 4 5 6 
#
# 1 0.007568 -0.002438 -0.002156 0.000000 0.001987 0.000000
# 2 -0.002438 0.016530 0.000618 0.000000 0.006936 0.000000
# 3 -0.002156 0.000618 0.008695 0.000000 -0.001084 0.000000
# 4 0.000000 0.000000 0.000000 0.119676 0.000000 0.041912
# 5 0.001987 0.006936 -0.001084 0.000000 0.025971 0.000000
# 6 0.000000 0.000000 0.000000 0.041912 0.000000 0.060417
#
#
# Mechanical properties :
#
#
# Convention : Reuss Voigt Hill
#
# Bulk Modulus (GPa) = 40.25908 53.39919 46.82913
# Shear Modulus (GPa) = 19.60082 35.17639 27.38860
#
# Velocity S-wave (km/s) = 2.86977 3.84446 3.39230
# Velocity P-wave (km/s) = 5.28168 6.49176 5.91773
#
# Compressibility (1/GPa) = 0.02483912
#
# Stress axis : x y z
#
# Youngs Moduli (GPa) = 132.13494 60.49440 115.01171
#
# Poissons Ratio (x) = 0.14751 0.24800
# Poissons Ratio (y) = 0.32219 -0.07103
# Poissons Ratio (z) = 0.28492 -0.03736
#
# Static dielectric constant tensor:
#      x y z
#    x 4.605120 0.000000 0.157420 
#    y 0.000000 3.662490 0.000000 
#    z 0.157420 0.000000 4.902080 
# 
# 
# High freq. dielectric constant tensor:
#      x y z
#    x 1.961790 0.000000 0.007170 
#    y 0.000000 1.881670 0.000000 
#    z 0.007170 0.000000 1.974440 
# 
# From -- ./inp_files/51053.got.cif
#   From: 2010.06.25/outbox.cif.g09.slc.cpg/sg13_26_cif.got.tgz:51053.got - 2010.06.28 04:50:58.
