data_PCOD8120539
_publ_section_title
;
Structure prediction by ZEFSAII (Michael W. Deem and Ramdas Pophale) SiO2 
 PCOD8120539
Probable space group: P 2/C
;
_chemical_formula_sum "Si O2"
_cell_formula_units_Z 16
_cell_length_a 10.004298
_cell_length_b 10.816123
_cell_length_c 9.168923
_cell_angle_alpha 90.000000
_cell_angle_beta 138.126142
_cell_angle_gamma 90.000000
_cell_volume 662.251884
_symmetry_space_group_name_H-M "P 2/C"
_symmetry_group_IT_number 13
_symmetry_cell_setting 'monoclinic'
loop_
_space_group_symop_operation_xyz
x,y,z
-x,y,1/2-z
-x,-y,-z
x,-y,1/2+z
loop_
_atom_site_type_symbol
_atom_site_label
_atom_site_fract_x
_atom_site_fract_y
_atom_site_fract_z
Si Si1 0.758440 0.166170 0.056260
Si Si2 0.219574 0.267066 0.978813
Si Si3 0.562657 0.639523 0.575118
Si Si4 0.771856 0.023200 0.345288
O O1 0.658743 0.300331 0.005854
O O2 0.676530 0.074840 0.119024
O O3 0.000000 0.179353 0.250000
O O4 0.682369 0.105282 0.841044
O O5 0.000000 0.304340 0.750000
O O6 0.275379 0.353307 0.162234
O O7 0.364823 0.285964 0.959926
O O8 0.242532 0.123849 0.037826
O O9 0.500000 0.500000 0.500000
O O10 0.000000 0.000000 0.500000
#
# Coordination Sequence:
#
# PCOD8120539 Si02
#       4
#     4   4   4   4
#     4   9  18  35  62  93 128 164 203 262 321 375
#     4  10  21  40  64  89 126 165 204 269 325 364
#     4  10  23  41  60  90 126 169 224 256 298 385
#     4   9  17  34  62  96 126 158 206 256 320 392
#
# _framework density 24.159994000000001
#
# number of rings (size 3 to 8) (size 9 to 14) (size 15 to 20)
#    0.000    2.500    0.000    2.250    0.000    3.000 
#    0.000   22.500    0.000    0.000    0.000    0.000 
#    0.000    0.000    0.000    0.750    0.000    0.000 
#
# Total GULP energy -198281.203942 kJ/mol
# GULP energy per Si atom -12392.575246 kJ/mol
# Density = 2.410500 g / cm^3
# Si number density = 24.159994 Si / 1000 Ang^3
#
#
#
# Elastic Constant Matrix: (Units=GPa)
#
#
# Indices 1 2 3 4 5 6 
#
# 1 141.0754 70.6067 25.2892 0.0000 -12.5698 0.0000
# 2 70.6067 167.2213 33.2168 0.0000 -21.1020 0.0000
# 3 25.2892 33.2168 92.8613 0.0000 10.0469 0.0000
# 4 0.0000 0.0000 0.0000 31.0386 0.0000 1.5472
# 5 -12.5698 -21.1020 10.0469 0.0000 24.7596 0.0000
# 6 0.0000 0.0000 0.0000 1.5472 0.0000 37.5600
#
#
#
# Elastic Compliance Matrix: (Units=1/GPa)
#
#
# Indices 1 2 3 4 5 6 
#
# 1 0.009238 -0.003250 -0.001632 0.000000 0.002582 0.000000
# 2 -0.003250 0.008861 -0.003057 0.000000 0.007143 0.000000
# 3 -0.001632 -0.003057 0.013261 0.000000 -0.008815 0.000000
# 4 0.000000 0.000000 0.000000 0.032284 0.000000 -0.001330
# 5 0.002582 0.007143 -0.008815 0.000000 0.051364 0.000000
# 6 0.000000 0.000000 0.000000 -0.001330 0.000000 0.026679
#
#
# Mechanical properties :
#
#
# Convention : Reuss Voigt Hill
#
# Bulk Modulus (GPa) = 64.60174 73.26480 68.93327
# Shear Modulus (GPa) = 30.72637 36.80800 33.76718
#
# Velocity S-wave (km/s) = 3.57008 3.90745 3.74257
# Velocity P-wave (km/s) = 6.61749 7.12378 6.87530
#
# Compressibility (1/GPa) = 0.01547946
#
# Stress axis : x y z
#
# Youngs Moduli (GPa) = 108.24944 112.85170 75.41107
#
# Poissons Ratio (x) = 0.36682 0.12310
# Poissons Ratio (y) = 0.35186 0.23055
# Poissons Ratio (z) = 0.17671 0.34501
#
# Static dielectric constant tensor:
#      x y z
#    x 4.816050 0.000000 -0.247680 
#    y 0.000000 4.227980 0.000000 
#    z -0.247680 0.000000 4.332670 
# 
# 
# High freq. dielectric constant tensor:
#      x y z
#    x 1.982990 0.000000 -0.001370 
#    y 0.000000 1.935680 0.000000 
#    z -0.001370 0.000000 1.949750 
# 
# From -- ./inp_files/15389.got.cif
#   From: 2010.06.25/outbox.cif.g09.slc.cpg/sg13_8_cif.got.tgz:15389.got - 2010.06.28 04:50:58.
