data_PCOD8120643
_publ_section_title
;
Structure prediction by ZEFSAII (Michael W. Deem and Ramdas Pophale) SiO2 
 PCOD8120643
Probable space group: P 2/C
;
_chemical_formula_sum "Si O2"
_cell_formula_units_Z 24
_cell_length_a 27.968928
_cell_length_b 5.202896
_cell_length_c 19.165598
_cell_angle_alpha 90.000000
_cell_angle_beta 155.055926
_cell_angle_gamma 90.000000
_cell_volume 1176.200496
_symmetry_space_group_name_H-M "P 2/C"
_symmetry_group_IT_number 13
_symmetry_cell_setting 'monoclinic'
loop_
_space_group_symop_operation_xyz
x,y,z
-x,y,1/2-z
-x,-y,-z
x,-y,1/2+z
loop_
_atom_site_type_symbol
_atom_site_label
_atom_site_fract_x
_atom_site_fract_y
_atom_site_fract_z
Si Si1 0.576156 0.748164 0.595047
Si Si2 0.680799 0.792207 0.007927
Si Si3 0.744162 0.747955 0.944282
Si Si4 0.323630 0.284524 0.423524
Si Si5 0.894387 0.922287 0.813726
Si Si6 0.893372 0.242560 0.159056
O O1 0.500000 0.500000 0.500000
O O2 0.670722 0.729738 0.778455
O O3 0.642990 0.748701 0.611468
O O4 0.500000 0.000000 0.500000
O O5 0.632307 0.553671 0.987521
O O6 0.620983 0.051409 0.957829
O O7 0.818417 0.823326 0.197139
O O8 0.656585 0.755151 0.893827
O O9 0.825457 0.504914 0.059683
O O10 0.814826 0.008310 0.032077
O O11 0.186213 0.274101 0.249400
O O12 0.933133 0.791509 0.792146
O O13 0.000000 0.000000 0.000000
O O14 0.000000 0.251824 0.250000
#
# Coordination Sequence:
#
# PCOD8120643 Si02
#       6
#     4   4   4   4   4   4
#     4  12  27  45  67  96 123 169 225 278 338 379
#     4   9  19  40  62  88 124 165 202 255 320 378
#     4  11  22  45  64  89 137 166 214 279 315 389
#     4  10  21  41  63  88 128 158 214 264 318 377
#     4   9  21  36  62  93 129 167 213 252 312 387
#     4  11  23  39  64 100 132 176 213 251 329 398
#
# _framework density 20.404684
#
# number of rings (size 3 to 8) (size 9 to 14) (size 15 to 20)
#    1.000    0.667    1.667    2.500    2.333    2.000 
#    0.000    5.000    0.000    0.000    0.000    0.000 
#    0.000    0.000    0.000    0.000    0.000    0.000 
#
# Total GULP energy -297466.041406 kJ/mol
# GULP energy per Si atom -12394.418392 kJ/mol
# Density = 2.035824 g / cm^3
# Si number density = 20.404684 Si / 1000 Ang^3
#
#
#
# Elastic Constant Matrix: (Units=GPa)
#
#
# Indices 1 2 3 4 5 6 
#
# 1 189.4827 55.3712 69.6952 0.0000 -36.7746 0.0000
# 2 55.3712 189.9283 57.9319 0.0000 -19.9339 0.0000
# 3 69.6952 57.9319 77.1955 0.0000 -13.2086 0.0000
# 4 0.0000 0.0000 0.0000 23.7711 0.0000 -0.6038
# 5 -36.7746 -19.9339 -13.2086 0.0000 19.2894 0.0000
# 6 0.0000 0.0000 0.0000 -0.6038 0.0000 49.0575
#
#
#
# Elastic Compliance Matrix: (Units=1/GPa)
#
#
# Indices 1 2 3 4 5 6 
#
# 1 0.011192 0.000920 -0.007908 0.000000 0.016873 0.000000
# 2 0.000920 0.007190 -0.005273 0.000000 0.005574 0.000000
# 3 -0.007908 -0.005273 0.023265 0.000000 -0.004595 0.000000
# 4 0.000000 0.000000 0.000000 0.042081 0.000000 0.000518
# 5 0.016873 0.005574 -0.004595 0.000000 0.086624 0.000000
# 6 0.000000 0.000000 0.000000 0.000518 0.000000 0.020391
#
#
# Mechanical properties :
#
#
# Convention : Reuss Voigt Hill
#
# Bulk Modulus (GPa) = 58.39330 91.40034 74.89682
# Shear Modulus (GPa) = 22.62720 36.66415 29.64567
#
# Velocity S-wave (km/s) = 3.33366 4.24353 3.81581
# Velocity P-wave (km/s) = 6.59526 8.30067 7.49662
#
# Compressibility (1/GPa) = 0.01712525
#
# Stress axis : x y z
#
# Youngs Moduli (GPa) = 89.34865 139.07683 42.98335
#
# Poissons Ratio (x) = -0.12797 0.33992
# Poissons Ratio (y) = -0.08221 0.22665
# Poissons Ratio (z) = 0.70658 0.73335
#
# Static dielectric constant tensor:
#      x y z
#    x 3.812880 0.000000 -0.044740 
#    y 0.000000 3.879590 0.000000 
#    z -0.044740 0.000000 3.299620 
# 
# 
# High freq. dielectric constant tensor:
#      x y z
#    x 1.814090 0.000000 -0.009240 
#    y 0.000000 1.813370 0.000000 
#    z -0.009240 0.000000 1.773390 
# 
# From -- ./inp_files/71587.got.cif
#   From: 2010.06.25/outbox.cif.g09.slc.cpg/sg13_36_cif.got.tgz:71587.got - 2010.06.28 04:50:58.
