data_PCOD8120995
_publ_section_title
;
Structure prediction by ZEFSAII (Michael W. Deem and Ramdas Pophale) SiO2 
 PCOD8120995
Probable space group: P 2/C
;
_chemical_formula_sum "Si O2"
_cell_formula_units_Z 22
_cell_length_a 6.068851
_cell_length_b 6.679915
_cell_length_c 25.547551
_cell_angle_alpha 90.000000
_cell_angle_beta 99.668935
_cell_angle_gamma 90.000000
_cell_volume 1020.970408
_symmetry_space_group_name_H-M "P 2/C"
_symmetry_group_IT_number 13
_symmetry_cell_setting 'monoclinic'
loop_
_space_group_symop_operation_xyz
x,y,z
-x,y,1/2-z
-x,-y,-z
x,-y,1/2+z
loop_
_atom_site_type_symbol
_atom_site_label
_atom_site_fract_x
_atom_site_fract_y
_atom_site_fract_z
Si Si1 0.000000 0.199156 0.750000
Si Si2 0.233096 0.090650 0.660815
Si Si3 0.494108 0.764600 0.615849
Si Si4 0.134431 0.697570 0.520272
Si Si5 0.414000 0.427512 0.803451
Si Si6 0.853286 0.019600 0.569935
O O1 0.860527 0.061407 0.784161
O O2 0.831510 0.335316 0.710144
O O3 0.409620 0.270590 0.665699
O O4 0.032373 0.135915 0.612876
O O5 0.337634 0.879083 0.650470
O O6 0.346142 0.651966 0.565932
O O7 0.622800 0.603252 0.655971
O O8 0.655188 0.929667 0.596800
O O9 0.235492 0.810346 0.473354
O O10 0.000000 0.500000 0.500000
O O11 0.958783 0.838343 0.542151
O O12 0.500000 0.502977 0.750000
#
# Coordination Sequence:
#
# PCOD8120995 Si02
#       6
#     2   4   4   4   4   4
#     4  10  22  42  64  86 124 164 200 250 304 360
#     4  10  22  41  62  88 122 159 202 249 301 360
#     4  11  23  39  64  93 122 159 205 253 304 362
#     4  10  22  40  61  88 124 162 200 249 306 364
#     4  10  23  40  59  88 122 158 200 248 303 363
#     4  10  22  38  61  92 120 156 205 251 302 363
#
# _framework density 21.548126
#
# number of rings (size 3 to 8) (size 9 to 14) (size 15 to 20)
#    0.000    1.818    0.000    2.727    0.000   13.091 
#    0.000    1.818    0.000    0.000    0.000    0.000 
#    0.000    0.000    0.000    0.000    0.000    0.000 
#
# Total GULP energy -272815.063597 kJ/mol
# GULP energy per Si atom -12400.684709 kJ/mol
# Density = 2.149908 g / cm^3
# Si number density = 21.548126 Si / 1000 Ang^3
#
#
#
# Elastic Constant Matrix: (Units=GPa)
#
#
# Indices 1 2 3 4 5 6 
#
# 1 113.4341 45.0337 60.2241 0.0000 9.2309 0.0000
# 2 45.0337 93.4081 77.9655 0.0000 8.0166 0.0000
# 3 60.2241 77.9655 144.0015 0.0000 15.7204 0.0000
# 4 0.0000 0.0000 0.0000 49.4840 0.0000 5.2351
# 5 9.2309 8.0166 15.7204 0.0000 37.8550 0.0000
# 6 0.0000 0.0000 0.0000 5.2351 0.0000 17.9639
#
#
#
# Elastic Compliance Matrix: (Units=1/GPa)
#
#
# Indices 1 2 3 4 5 6 
#
# 1 0.011762 -0.002864 -0.003270 0.000000 -0.000904 0.000000
# 2 -0.002864 0.020233 -0.009810 0.000000 0.000487 0.000000
# 3 -0.003270 -0.009810 0.013941 0.000000 -0.002915 0.000000
# 4 0.000000 0.000000 0.000000 0.020851 0.000000 -0.006077
# 5 -0.000904 0.000487 -0.002915 0.000000 0.027744 0.000000
# 6 0.000000 0.000000 0.000000 -0.006077 0.000000 0.057438
#
#
# Mechanical properties :
#
#
# Convention : Reuss Voigt Hill
#
# Bulk Modulus (GPa) = 71.17998 79.69892 75.43945
# Shear Modulus (GPa) = 26.51950 32.23527 29.37738
#
# Velocity S-wave (km/s) = 3.51195 3.87197 3.69635
# Velocity P-wave (km/s) = 7.03916 7.55356 7.30089
#
# Compressibility (1/GPa) = 0.01404889
#
# Stress axis : x y z
#
# Youngs Moduli (GPa) = 85.01743 49.42497 71.72862
#
# Poissons Ratio (x) = 0.14155 0.23455
# Poissons Ratio (y) = 0.24348 0.70365
# Poissons Ratio (z) = 0.27801 0.48485
#
# Static dielectric constant tensor:
#      x y z
#    x 3.879500 0.000000 0.050380 
#    y 0.000000 3.624680 0.000000 
#    z 0.050380 0.000000 4.242490 
# 
# 
# High freq. dielectric constant tensor:
#      x y z
#    x 1.848250 0.000000 0.002760 
#    y 0.000000 1.829200 0.000000 
#    z 0.002760 0.000000 1.868660 
# 
# From -- ./inp_files/94650.got.cif
#   From: 2010.06.25/outbox.cif.g09.slc.cpg/sg13_48_cif.got.tgz:94650.got - 2010.06.28 04:50:58.
