data_PCOD8121703
_publ_section_title
;
Structure prediction by ZEFSAII (Michael W. Deem and Ramdas Pophale) SiO2 
 PCOD8121703
Probable space group: P 2/C
;
_chemical_formula_sum "Si O2"
_cell_formula_units_Z 24
_cell_length_a 13.116725
_cell_length_b 18.238202
_cell_length_c 5.334803
_cell_angle_alpha 90.000000
_cell_angle_beta 117.202406
_cell_angle_gamma 90.000000
_cell_volume 1135.067186
_symmetry_space_group_name_H-M "P 2/C"
_symmetry_group_IT_number 13
_symmetry_cell_setting 'monoclinic'
loop_
_space_group_symop_operation_xyz
x,y,z
-x,y,1/2-z
-x,-y,-z
x,-y,1/2+z
loop_
_atom_site_type_symbol
_atom_site_label
_atom_site_fract_x
_atom_site_fract_y
_atom_site_fract_z
Si Si1 0.500000 0.144005 0.250000
Si Si2 0.436065 0.716044 0.433576
Si Si3 0.122336 0.827841 0.507941
Si Si4 0.135744 0.540084 0.416523
Si Si5 0.700603 0.953317 0.823615
Si Si6 0.000000 0.738553 0.750000
Si Si7 0.191552 0.309362 0.800004
O O1 0.565508 0.195440 0.527067
O O2 0.413956 0.094766 0.316993
O O3 0.500000 0.694302 0.250000
O O4 0.306537 0.685702 0.262965
O O5 0.500000 0.680499 0.750000
O O6 0.188459 0.903641 0.599685
O O7 0.198409 0.768594 0.446201
O O8 0.000000 0.843990 0.250000
O O9 0.097926 0.791617 0.748816
O O10 0.182413 0.499764 0.717384
O O11 0.186066 0.622623 0.484794
O O12 0.000000 0.540855 0.250000
O O13 0.702769 0.011775 0.602922
O O14 0.929570 0.685577 0.485936
#
# Coordination Sequence:
#
# PCOD8121703 Si02
#       7
#     2   4   4   4   4   2   4
#     4  10  24  44  68  92 124 164 216 284 322 396
#     4  10  24  40  71  97 126 168 225 275 325 378
#     4  10  23  42  62  92 126 172 224 269 322 401
#     4  10  23  39  63 100 143 175 213 262 328 393
#     4  12  28  42  65  92 127 169 211 276 342 392
#     4  10  24  36  70  96 128 172 226 280 320 392
#     4  11  23  42  69  98 134 175 225 270 332 387
#
# _framework density 21.144121999999999
#
# number of rings (size 3 to 8) (size 9 to 14) (size 15 to 20)
#    0.500    1.000    1.667    2.000   17.500    0.667 
#    0.000    0.000    0.000    3.000    0.000    0.000 
#    0.000    0.000    0.000    0.000    0.000    0.000 
#
# Total GULP energy -297507.495368 kJ/mol
# GULP energy per Si atom -12396.145640 kJ/mol
# Density = 2.109600 g / cm^3
# Si number density = 21.144122 Si / 1000 Ang^3
#
#
#
# Elastic Constant Matrix: (Units=GPa)
#
#
# Indices 1 2 3 4 5 6 
#
# 1 114.5002 24.3803 34.4625 0.0000 -11.0505 0.0000
# 2 24.3803 65.1705 27.9392 0.0000 9.8649 0.0000
# 3 34.4625 27.9392 80.4610 0.0000 -23.1977 0.0000
# 4 0.0000 0.0000 0.0000 -12.3184 0.0000 1.0447
# 5 -11.0505 9.8649 -23.1977 0.0000 29.6492 0.0000
# 6 0.0000 0.0000 0.0000 1.0447 0.0000 21.2645
#
#
#
# Elastic Compliance Matrix: (Units=1/GPa)
#
#
# Indices 1 2 3 4 5 6 
#
# 1 0.010479 -0.003355 -0.002421 0.000000 0.003127 0.000000
# 2 -0.003355 0.025181 -0.013019 0.000000 -0.019815 0.000000
# 3 -0.002421 -0.013019 0.024502 0.000000 0.022600 0.000000
# 4 0.000000 0.000000 0.000000 -0.080842 0.000000 0.003972
# 5 0.003127 -0.019815 0.022600 0.000000 0.059169 0.000000
# 6 0.000000 0.000000 0.000000 0.003972 0.000000 0.046832
#
#
# Mechanical properties :
#
#
# Convention : Reuss Voigt Hill
#
# Bulk Modulus (GPa) = 44.30856 48.18843 46.24850
# Shear Modulus (GPa) = 38.33327 19.27570 28.80448
#
# Velocity S-wave (km/s) = 4.26250 3.02260 3.69493
# Velocity P-wave (km/s) = 6.72504 5.91789 6.33433
#
# Compressibility (1/GPa) = 0.02256900
#
# Stress axis : x y z
#
# Youngs Moduli (GPa) = 95.43179 39.71300 40.81276
#
# Poissons Ratio (x) = 0.13325 0.09882
# Poissons Ratio (y) = 0.32021 0.53136
# Poissons Ratio (z) = 0.23107 0.51704
#
# Static dielectric constant tensor:
#      x y z
#    x 3.869230 0.000000 -0.167000 
#    y 0.000000 3.657940 0.000000 
#    z -0.167000 0.000000 3.703420 
# 
# 
# High freq. dielectric constant tensor:
#      x y z
#    x 1.835640 0.000000 -0.012570 
#    y 0.000000 1.815600 0.000000 
#    z -0.012570 0.000000 1.814270 
# 
# From -- ./inp_files/3700.got.cif
#   From: 2010.06.25/outbox.cif.g09.slc.cpg/sg13_2_cif.got.tgz:3700.got - 2010.06.28 04:50:58.
