data_PCOD8121340
_publ_section_title
;
Structure prediction by ZEFSAII (Michael W. Deem and Ramdas Pophale) SiO2 
 PCOD8121340
Probable space group: P 2/C
;
_chemical_formula_sum "Si O2"
_cell_formula_units_Z 18
_cell_length_a 9.653648
_cell_length_b 5.270007
_cell_length_c 18.252342
_cell_angle_alpha 90.000000
_cell_angle_beta 56.817306
_cell_angle_gamma 90.000000
_cell_volume 777.159590
_symmetry_space_group_name_H-M "P 2/C"
_symmetry_group_IT_number 13
_symmetry_cell_setting 'monoclinic'
loop_
_space_group_symop_operation_xyz
x,y,z
-x,y,1/2-z
-x,-y,-z
x,-y,1/2+z
loop_
_atom_site_type_symbol
_atom_site_label
_atom_site_fract_x
_atom_site_fract_y
_atom_site_fract_z
Si Si1 0.500000 0.069738 0.250000
Si Si2 0.139174 0.193114 0.609574
Si Si3 0.225528 0.765676 0.246024
Si Si4 0.136088 0.286654 0.022210
Si Si5 0.775690 0.405691 0.130722
O O1 0.613395 0.239724 0.163155
O O2 0.383344 0.909761 0.231183
O O3 0.243101 0.239791 0.653484
O O4 0.155280 0.455222 0.562400
O O5 0.950503 0.109202 0.681620
O O6 0.213249 0.957487 0.540940
O O7 0.223808 0.484834 0.283153
O O8 0.940105 0.244615 0.062228
O O9 0.230570 0.336895 0.917575
#
# Coordination Sequence:
#
# PCOD8121340 Si02
#       5
#     2   4   4   4   4
#     4  12  22  40  62  92 130 170 210 258 318 396
#     4  10  22  41  67  96 123 164 214 270 312 365
#     4  10  23  38  65  92 129 164 215 259 318 379
#     4  10  22  41  68  95 126 163 219 266 308 368
#     4  10  23  39  65  94 128 169 213 257 317 381
#
# _framework density 23.161265
#
# number of rings (size 3 to 8) (size 9 to 14) (size 15 to 20)
#    0.000    1.778    2.222    0.667    6.222    4.444 
#    0.000    2.222    0.000    0.000    0.000    0.000 
#    0.000    0.000    0.000    0.000    0.000    0.000 
#
# Total GULP energy -223129.608712 kJ/mol
# GULP energy per Si atom -12396.089373 kJ/mol
# Density = 2.310855 g / cm^3
# Si number density = 23.161265 Si / 1000 Ang^3
#
#
#
# Elastic Constant Matrix: (Units=GPa)
#
#
# Indices 1 2 3 4 5 6 
#
# 1 126.3719 20.6140 32.3865 0.0000 6.8102 0.0000
# 2 20.6140 69.3113 5.0385 0.0000 -4.2151 0.0000
# 3 32.3865 5.0385 48.5438 0.0000 8.5096 0.0000
# 4 0.0000 0.0000 0.0000 32.6930 0.0000 5.3564
# 5 6.8102 -4.2151 8.5096 0.0000 35.8709 0.0000
# 6 0.0000 0.0000 0.0000 5.3564 0.0000 21.6859
#
#
#
# Elastic Compliance Matrix: (Units=1/GPa)
#
#
# Indices 1 2 3 4 5 6 
#
# 1 0.009973 -0.002554 -0.006265 0.000000 -0.000707 0.000000
# 2 -0.002554 0.015353 -0.000304 0.000000 0.002361 0.000000
# 3 -0.006265 -0.000304 0.025677 0.000000 -0.004937 0.000000
# 4 0.000000 0.000000 0.000000 0.031878 0.000000 -0.007874
# 5 -0.000707 0.002361 -0.004937 0.000000 0.029461 0.000000
# 6 0.000000 0.000000 0.000000 -0.007874 0.000000 0.048058
#
#
# Mechanical properties :
#
#
# Convention : Reuss Voigt Hill
#
# Bulk Modulus (GPa) = 30.52644 40.03390 35.28017
# Shear Modulus (GPa) = 26.37648 30.46249 28.41948
#
# Velocity S-wave (km/s) = 3.37830 3.63055 3.50669
# Velocity P-wave (km/s) = 5.33158 5.90736 5.62684
#
# Compressibility (1/GPa) = 0.03275848
#
# Stress axis : x y z
#
# Youngs Moduli (GPa) = 100.26674 65.13453 38.94594
#
# Poissons Ratio (x) = 0.16634 0.24399
# Poissons Ratio (y) = 0.25606 0.01182
# Poissons Ratio (z) = 0.62815 0.01977
#
# Static dielectric constant tensor:
#      x y z
#    x 4.155710 0.000000 0.225670 
#    y 0.000000 3.993500 0.000000 
#    z 0.225670 0.000000 4.358720 
# 
# 
# High freq. dielectric constant tensor:
#      x y z
#    x 1.893170 0.000000 0.014410 
#    y 0.000000 1.914330 0.000000 
#    z 0.014410 0.000000 1.910770 
# 
# From -- ./inp_files/62164.got.cif
#   From: 2010.06.25/outbox.cif.g09.slc.cpg/sg13_32_cif.got.tgz:62164.got - 2010.06.28 04:50:58.
