data_PCOD8121632
_publ_section_title
;
Structure prediction by ZEFSAII (Michael W. Deem and Ramdas Pophale) SiO2 
 PCOD8121632
Probable space group: P 2/C
;
_chemical_formula_sum "Si O2"
_cell_formula_units_Z 28
_cell_length_a 18.685051
_cell_length_b 8.881874
_cell_length_c 14.379247
_cell_angle_alpha 90.000000
_cell_angle_beta 32.926419
_cell_angle_gamma 90.000000
_cell_volume 1297.130764
_symmetry_space_group_name_H-M "P 2/C"
_symmetry_group_IT_number 13
_symmetry_cell_setting 'monoclinic'
loop_
_space_group_symop_operation_xyz
x,y,z
-x,y,1/2-z
-x,-y,-z
x,-y,1/2+z
loop_
_atom_site_type_symbol
_atom_site_label
_atom_site_fract_x
_atom_site_fract_y
_atom_site_fract_z
Si Si1 0.140513 0.426389 0.852656
Si Si2 0.500000 0.105718 0.250000
Si Si3 0.721674 0.136600 0.522830
Si Si4 0.256243 0.719447 0.700055
Si Si5 0.343064 0.614596 0.263828
Si Si6 0.000000 0.003343 0.250000
Si Si7 0.483929 0.687927 0.591058
Si Si8 0.996586 0.849461 0.062445
O O1 0.242936 0.540745 0.687775
O O2 0.189788 0.422451 0.907562
O O3 0.129341 0.257102 0.823508
O O4 0.000000 0.500000 0.000000
O O5 0.480199 0.204607 0.363363
O O6 0.368744 0.010077 0.374754
O O7 0.730307 0.184836 0.407035
O O8 0.648559 0.265076 0.662810
O O9 0.868597 0.105996 0.401911
O O10 0.377074 0.755259 0.636012
O O11 0.129358 0.760855 0.898121
O O12 0.432711 0.470385 0.190921
O O13 0.387088 0.675631 0.113748
O O14 0.984684 0.890978 0.181951
O O15 0.000000 0.000000 0.000000
#
# Coordination Sequence:
#
# PCOD8121632 Si02
#       8
#     4   2   4   4   4   2   4   4
#     4   9  21  40  64  94 128 179 222 274 337 392
#     4  12  28  44  70 104 136 178 234 278 354 414
#     4  12  26  43  69 103 141 186 225 278 350 419
#     4  10  22  45  65  94 136 175 228 279 338 408
#     4  10  23  44  70  95 135 176 228 282 346 401
#     4  12  26  40  66 106 138 186 232 276 352 402
#     4  10  24  45  70  98 130 176 229 291 336 407
#     4  11  21  41  64  91 138 176 220 283 335 406
#
# _framework density 21.586105
#
# number of rings (size 3 to 8) (size 9 to 14) (size 15 to 20)
#    0.000    1.429    1.429    2.571    4.000    7.429 
#    7.714    0.000    0.000    0.000    0.000    0.000 
#    0.000    0.000    0.000    0.000    0.000    0.000 
#
# Total GULP energy -347016.635394 kJ/mol
# GULP energy per Si atom -12393.451264 kJ/mol
# Density = 2.153697 g / cm^3
# Si number density = 21.586105 Si / 1000 Ang^3
#
#
#
# Elastic Constant Matrix: (Units=GPa)
#
#
# Indices 1 2 3 4 5 6 
#
# 1 87.8992 30.4744 17.3906 0.0000 -6.5048 0.0000
# 2 30.4744 98.1761 19.9927 0.0000 1.5450 0.0000
# 3 17.3906 19.9927 64.6662 0.0000 -4.4541 0.0000
# 4 0.0000 0.0000 0.0000 29.2044 0.0000 6.8293
# 5 -6.5048 1.5450 -4.4541 0.0000 37.9134 0.0000
# 6 0.0000 0.0000 0.0000 6.8293 0.0000 51.2734
#
#
#
# Elastic Compliance Matrix: (Units=1/GPa)
#
#
# Indices 1 2 3 4 5 6 
#
# 1 0.013266 -0.003688 -0.002279 0.000000 0.002159 0.000000
# 2 -0.003688 0.011922 -0.002794 0.000000 -0.001447 0.000000
# 3 -0.002279 -0.002794 0.017060 0.000000 0.001727 0.000000
# 4 0.000000 0.000000 0.000000 0.035342 0.000000 -0.004707
# 5 0.002159 -0.001447 0.001727 0.000000 0.027008 0.000000
# 6 0.000000 0.000000 0.000000 -0.004707 0.000000 0.020130
#
#
# Mechanical properties :
#
#
# Convention : Reuss Voigt Hill
#
# Bulk Modulus (GPa) = 40.44181 42.93967 41.69074
# Shear Modulus (GPa) = 33.22455 35.87047 34.54751
#
# Velocity S-wave (km/s) = 3.92747 4.08087 4.00490
# Velocity P-wave (km/s) = 6.27236 6.49154 6.38289
#
# Compressibility (1/GPa) = 0.02472689
#
# Stress axis : x y z
#
# Youngs Moduli (GPa) = 75.38202 83.87731 58.61802
#
# Poissons Ratio (x) = 0.30931 0.13358
# Poissons Ratio (y) = 0.27799 0.16377
# Poissons Ratio (z) = 0.17178 0.23434
#
# Static dielectric constant tensor:
#      x y z
#    x 4.009460 0.000000 -0.379140 
#    y 0.000000 4.308680 0.000000 
#    z -0.379140 0.000000 3.941860 
# 
# 
# High freq. dielectric constant tensor:
#      x y z
#    x 1.859120 0.000000 -0.020300 
#    y 0.000000 1.859730 0.000000 
#    z -0.020300 0.000000 1.840570 
# 
# From -- ./inp_files/57221.got.cif
#   From: 2010.06.25/outbox.cif.g09.slc.cpg/sg13_29_cif.got.tgz:57221.got - 2010.06.28 04:50:58.
