data_PCOD8121425
_publ_section_title
;
Structure prediction by ZEFSAII (Michael W. Deem and Ramdas Pophale) SiO2 
 PCOD8121425
Probable space group: P 2/C
;
_chemical_formula_sum "Si O2"
_cell_formula_units_Z 22
_cell_length_a 10.927710
_cell_length_b 16.055748
_cell_length_c 11.382283
_cell_angle_alpha 90.000000
_cell_angle_beta 30.454716
_cell_angle_gamma 90.000000
_cell_volume 1012.219533
_symmetry_space_group_name_H-M "P 2/C"
_symmetry_group_IT_number 13
_symmetry_cell_setting 'monoclinic'
loop_
_space_group_symop_operation_xyz
x,y,z
-x,y,1/2-z
-x,-y,-z
x,-y,1/2+z
loop_
_atom_site_type_symbol
_atom_site_label
_atom_site_fract_x
_atom_site_fract_y
_atom_site_fract_z
Si Si1 0.674731 0.277208 0.371782
Si Si2 0.822604 0.717504 0.295967
Si Si3 0.987089 0.139743 0.014173
Si Si4 0.939315 0.408518 0.507757
Si Si5 0.500000 0.346031 0.750000
Si Si6 0.362508 0.007275 0.740742
O O1 0.465084 0.266252 0.443957
O O2 0.852370 0.196976 0.223216
O O3 0.816724 0.363015 0.233830
O O4 0.549767 0.281963 0.602216
O O5 0.000000 0.686231 0.250000
O O6 0.944447 0.801271 0.149566
O O7 0.816065 0.639927 0.215088
O O8 0.819914 0.068685 0.100710
O O9 0.228417 0.096284 0.863344
O O10 0.000000 0.500000 0.500000
O O11 0.734141 0.405610 0.575610
O O12 0.500000 0.999333 0.750000
O O13 0.500000 0.000000 0.500000
#
# Coordination Sequence:
#
# PCOD8121425 Si02
#       6
#     4   4   4   4   2   4
#     4  10  22  44  63 100 130 179 224 277 344 399
#     4  10  23  40  66  96 129 178 225 276 338 407
#     4  10  24  43  69  97 134 180 225 284 343 419
#     4  10  23  41  64  98 134 175 221 277 339 400
#     4  10  22  42  66  96 138 172 228 280 330 412
#     4  11  26  48  69 103 138 182 231 290 351 415
#
# _framework density 21.734418000000002
#
# number of rings (size 3 to 8) (size 9 to 14) (size 15 to 20)
#    0.000    1.818    0.000    1.636    5.091   10.182 
#   39.273    0.000    0.000    0.000    0.000    0.000 
#    0.000    0.000    0.000    0.000    0.000    0.000 
#
# Total GULP energy -272573.383044 kJ/mol
# GULP energy per Si atom -12389.699229 kJ/mol
# Density = 2.168495 g / cm^3
# Si number density = 21.734418 Si / 1000 Ang^3
#
#
#
# Elastic Constant Matrix: (Units=GPa)
#
#
# Indices 1 2 3 4 5 6 
#
# 1 138.0393 29.2137 49.7743 0.0000 -16.6304 0.0000
# 2 29.2137 121.5616 37.4823 0.0000 -5.8037 0.0000
# 3 49.7743 37.4823 115.5827 0.0000 -17.1079 0.0000
# 4 0.0000 0.0000 0.0000 2.1055 0.0000 -9.6661
# 5 -16.6304 -5.8037 -17.1079 0.0000 33.7485 0.0000
# 6 0.0000 0.0000 0.0000 -9.6661 0.0000 23.1893
#
#
#
# Elastic Compliance Matrix: (Units=1/GPa)
#
#
# Indices 1 2 3 4 5 6 
#
# 1 0.008904 -0.001058 -0.003102 0.000000 0.002633 0.000000
# 2 -0.001058 0.009266 -0.002585 0.000000 -0.000238 0.000000
# 3 -0.003102 -0.002585 0.011388 0.000000 0.003800 0.000000
# 4 0.000000 0.000000 0.000000 -0.519848 0.000000 -0.216691
# 5 0.002633 -0.000238 0.003800 0.000000 0.032814 0.000000
# 6 0.000000 0.000000 0.000000 -0.216691 0.000000 -0.047201
#
#
# Mechanical properties :
#
#
# Convention : Reuss Voigt Hill
#
# Bulk Modulus (GPa) = 62.22688 67.56935 64.89812
# Shear Modulus (GPa) = -10.29162 29.05620 9.38229
#
# Velocity S-wave (km/s) = -2.17841 3.66030 2.07994
# Velocity P-wave (km/s) = 4.72921 7.00142 5.97433
#
# Compressibility (1/GPa) = 0.01607023
#
# Stress axis : x y z
#
# Youngs Moduli (GPa) = 112.31198 107.92082 87.81115
#
# Poissons Ratio (x) = 0.11415 0.27235
# Poissons Ratio (y) = 0.11879 0.22696
# Poissons Ratio (z) = 0.34834 0.27893
#
# Static dielectric constant tensor:
#      x y z
#    x 3.169570 0.000000 0.541750 
#    y 0.000000 3.948710 0.000000 
#    z 0.541750 0.000000 3.330700 
# 
# 
# High freq. dielectric constant tensor:
#      x y z
#    x 1.854200 0.000000 -0.022820 
#    y 0.000000 1.855210 0.000000 
#    z -0.022820 0.000000 1.862040 
# 
# From -- ./inp_files/34532.got.cif
#   From: 2010.06.25/outbox.cif.g09.slc.cpg/sg13_18_cif.got.tgz:34532.got - 2010.06.28 04:50:58.
