data_PCOD8121895
_publ_section_title
;
Structure prediction by ZEFSAII (Michael W. Deem and Ramdas Pophale) SiO2 
 PCOD8121895
Probable space group: P 2/C
;
_chemical_formula_sum "Si O2"
_cell_formula_units_Z 22
_cell_length_a 23.012167
_cell_length_b 8.912189
_cell_length_c 13.385020
_cell_angle_alpha 90.000000
_cell_angle_beta 20.090051
_cell_angle_gamma 90.000000
_cell_volume 942.938570
_symmetry_space_group_name_H-M "P 2/C"
_symmetry_group_IT_number 13
_symmetry_cell_setting 'monoclinic'
loop_
_space_group_symop_operation_xyz
x,y,z
-x,y,1/2-z
-x,-y,-z
x,-y,1/2+z
loop_
_atom_site_type_symbol
_atom_site_label
_atom_site_fract_x
_atom_site_fract_y
_atom_site_fract_z
Si Si1 0.190484 0.893361 0.595690
Si Si2 0.865804 0.931081 0.578717
Si Si3 0.510232 0.390048 0.118668
Si Si4 0.764349 0.431738 0.551434
Si Si5 0.000000 0.664763 0.250000
Si Si6 0.483868 0.950347 0.891727
O O1 0.167206 0.918677 0.750726
O O2 0.162231 0.720920 0.612773
O O3 0.385072 0.945782 0.255217
O O4 0.048353 0.989218 0.765792
O O5 0.871089 0.765572 0.522476
O O6 0.715733 0.021600 0.762637
O O7 0.500000 0.428468 0.250000
O O8 0.391804 0.513799 0.261443
O O9 0.454625 0.219128 0.187268
O O10 0.700348 0.407708 0.768891
O O11 0.906080 0.559293 0.321626
O O12 0.500000 0.992836 0.750000
#
# Coordination Sequence:
#
# PCOD8121895 Si02
#       6
#     4   4   4   4   2   4
#     4  10  23  44  69 100 131 179 234 282 336 406
#     4  10  24  43  69  98 136 180 231 283 335 402
#     4  10  24  45  69  98 137 175 230 282 346 411
#     4  11  27  42  67 103 135 184 223 277 356 411
#     4  12  28  42  60 104 142 182 224 282 348 420
#     4   9  20  41  71  95 124 176 228 281 340 396
#
# _framework density 23.331318
#
# number of rings (size 3 to 8) (size 9 to 14) (size 15 to 20)
#    0.000    1.818    0.000    1.091   12.727    3.636 
#    0.000    0.000    0.000    0.000    0.000    0.000 
#    0.000    0.000    0.000    0.000    0.000    0.000 
#
# Total GULP energy -272836.327566 kJ/mol
# GULP energy per Si atom -12401.651253 kJ/mol
# Density = 2.327821 g / cm^3
# Si number density = 23.331318 Si / 1000 Ang^3
#
#
#
# Elastic Constant Matrix: (Units=GPa)
#
#
# Indices 1 2 3 4 5 6 
#
# 1 67.9289 35.1744 27.7143 0.0000 -14.5299 0.0000
# 2 35.1744 143.2611 47.2094 0.0000 -25.7881 0.0000
# 3 27.7143 47.2094 132.7417 0.0000 -26.0178 0.0000
# 4 0.0000 0.0000 0.0000 -874.7211 0.0000 849.4701
# 5 -14.5299 -25.7881 -26.0178 0.0000 18.5552 0.0000
# 6 0.0000 0.0000 0.0000 849.4701 0.0000 -751.5511
#
#
#
# Elastic Compliance Matrix: (Units=1/GPa)
#
#
# Indices 1 2 3 4 5 6 
#
# 1 0.018481 -0.002461 -0.001127 0.000000 0.009471 0.000000
# 2 -0.002461 0.009748 -0.000931 0.000000 0.010315 0.000000
# 3 -0.001127 -0.000931 0.010581 0.000000 0.012660 0.000000
# 4 0.000000 0.000000 0.000000 0.011706 0.000000 0.013231
# 5 0.009471 0.010315 0.012660 0.000000 0.093397 0.000000
# 6 0.000000 0.000000 0.000000 0.013231 0.000000 0.013625
#
#
# Mechanical properties :
#
#
# Convention : Reuss Voigt Hill
#
# Bulk Modulus (GPa) = 33.58871 62.68088 48.13480
# Shear Modulus (GPa) = 28.32823 -305.95449 -138.81313
#
# Velocity S-wave (km/s) = 3.48828 -11.46383 -7.72176
# Velocity P-wave (km/s) = 5.53640 12.17793 7.66975
#
# Compressibility (1/GPa) = 0.02977191
#
# Stress axis : x y z
#
# Youngs Moduli (GPa) = 54.10829 102.58232 94.50565
#
# Poissons Ratio (x) = 0.25250 0.10649
# Poissons Ratio (y) = 0.13319 0.08801
# Poissons Ratio (z) = 0.06097 0.09553
#
# Static dielectric constant tensor:
#      x y z
#    x 4.221550 0.000000 0.035490 
#    y 0.000000 4.053140 0.000000 
#    z 0.035490 0.000000 4.543550 
# 
# 
# High freq. dielectric constant tensor:
#      x y z
#    x 1.939030 0.000000 0.007120 
#    y 0.000000 1.922680 0.000000 
#    z 0.007120 0.000000 1.928480 
# 
# From -- ./inp_files/58642.got.cif
#   From: 2010.06.25/outbox.cif.g09.slc.cpg/sg13_30_cif.got.tgz:58642.got - 2010.06.28 04:50:58.
