data_PCOD8121184
_publ_section_title
;
Structure prediction by ZEFSAII (Michael W. Deem and Ramdas Pophale) SiO2 
 PCOD8121184
Probable space group: P 2/C
;
_chemical_formula_sum "Si O2"
_cell_formula_units_Z 32
_cell_length_a 17.124107
_cell_length_b 6.815212
_cell_length_c 26.687270
_cell_angle_alpha 90.000000
_cell_angle_beta 29.429357
_cell_angle_gamma 90.000000
_cell_volume 1530.320803
_symmetry_space_group_name_H-M "P 2/C"
_symmetry_group_IT_number 13
_symmetry_cell_setting 'monoclinic'
loop_
_space_group_symop_operation_xyz
x,y,z
-x,y,1/2-z
-x,-y,-z
x,-y,1/2+z
loop_
_atom_site_type_symbol
_atom_site_label
_atom_site_fract_x
_atom_site_fract_y
_atom_site_fract_z
Si Si1 0.319963 0.636753 0.847709
Si Si2 0.818682 0.086347 0.150402
Si Si3 0.247095 0.059354 0.472543
Si Si4 0.605849 0.908373 0.507644
Si Si5 0.309214 0.219619 0.116539
Si Si6 0.829935 0.632940 0.323599
Si Si7 0.844949 0.769043 0.053417
Si Si8 0.107103 0.048494 0.788382
O O1 0.500000 0.563350 0.750000
O O2 0.313180 0.777105 0.802359
O O3 0.261052 0.748932 0.930168
O O4 0.205882 0.450942 0.906264
O O5 0.844372 0.888668 0.105062
O O6 0.779099 0.006827 0.228023
O O7 0.975310 0.222696 0.067002
O O8 0.383378 0.060220 0.438523
O O9 0.076379 0.053006 0.594582
O O10 0.269356 0.867696 0.424846
O O11 0.438955 0.806810 0.588025
O O12 0.750569 0.771414 0.409271
O O13 0.620566 0.120606 0.472934
O O14 0.281773 0.446637 0.121852
O O15 0.143372 0.117445 0.226091
O O16 0.843319 0.741793 0.262476
O O17 0.000000 0.568139 0.250000
#
# Coordination Sequence:
#
# PCOD8121184 Si02
#       8
#     4   4   4   4   4   4   4   4
#     4  11  24  39  60  93 125 161 206 258 317 373
#     4   9  20  40  64  84 123 158 202 254 307 368
#     4  10  22  40  64  87 130 161 207 254 311 373
#     4  10  22  44  60  89 131 168 203 260 317 368
#     4  10  24  38  65  91 126 169 209 259 313 361
#     4  11  22  38  65  96 128 162 214 261 306 379
#     4   9  20  40  64  88 113 163 202 254 308 370
#     4  10  22  40  63  96 119 165 210 253 306 373
#
# _framework density 20.910648999999999
#
# number of rings (size 3 to 8) (size 9 to 14) (size 15 to 20)
#    0.000    2.000    1.250    1.500    3.500    6.000 
#    0.000    0.000    0.000    0.000    0.000    0.000 
#    0.000    0.000    0.000    0.000    0.000    0.000 
#
# Total GULP energy -396751.169715 kJ/mol
# GULP energy per Si atom -12398.474054 kJ/mol
# Density = 2.086306 g / cm^3
# Si number density = 20.910649 Si / 1000 Ang^3
#
#
#
# Elastic Constant Matrix: (Units=GPa)
#
#
# Indices 1 2 3 4 5 6 
#
# 1 134.9612 45.8331 14.2241 0.0000 1.8139 0.0000
# 2 45.8331 95.8709 12.8374 0.0000 2.0439 0.0000
# 3 14.2241 12.8374 47.0367 0.0000 -2.9274 0.0000
# 4 0.0000 0.0000 0.0000 20.0299 0.0000 -8.6604
# 5 1.8139 2.0439 -2.9274 0.0000 28.7842 0.0000
# 6 0.0000 0.0000 0.0000 -8.6604 0.0000 22.7214
#
#
#
# Elastic Compliance Matrix: (Units=1/GPa)
#
#
# Indices 1 2 3 4 5 6 
#
# 1 0.008966 -0.004058 -0.001631 0.000000 -0.000443 0.000000
# 2 -0.004058 0.012697 -0.002293 0.000000 -0.000879 0.000000
# 3 -0.001631 -0.002293 0.022538 0.000000 0.002558 0.000000
# 4 0.000000 0.000000 0.000000 0.059777 0.000000 0.022784
# 5 -0.000443 -0.000879 0.002558 0.000000 0.035092 0.000000
# 6 0.000000 0.000000 0.000000 0.022784 0.000000 0.052696
#
#
# Mechanical properties :
#
#
# Convention : Reuss Voigt Hill
#
# Bulk Modulus (GPa) = 35.41569 47.07312 41.24440
# Shear Modulus (GPa) = 23.02653 27.97205 25.49929
#
# Velocity S-wave (km/s) = 3.32201 3.66142 3.49584
# Velocity P-wave (km/s) = 5.62919 6.35886 6.00512
#
# Compressibility (1/GPa) = 0.02823607
#
# Stress axis : x y z
#
# Youngs Moduli (GPa) = 111.53704 78.76120 44.36913
#
# Poissons Ratio (x) = 0.31964 0.07237
# Poissons Ratio (y) = 0.45266 0.10172
# Poissons Ratio (z) = 0.18194 0.18057
#
# Static dielectric constant tensor:
#      x y z
#    x 3.950780 0.000000 0.030400 
#    y 0.000000 3.595530 0.000000 
#    z 0.030400 0.000000 3.655570 
# 
# 
# High freq. dielectric constant tensor:
#      x y z
#    x 1.825920 0.000000 -0.000480 
#    y 0.000000 1.808910 0.000000 
#    z -0.000480 0.000000 1.813680 
# 
# From -- ./inp_files/97235.got.cif
#   From: 2010.06.25/outbox.cif.g09.slc.cpg/sg13_49_cif.got.tgz:97235.got - 2010.06.28 04:50:58.
