data_PCOD8121658
_publ_section_title
;
Structure prediction by ZEFSAII (Michael W. Deem and Ramdas Pophale) SiO2 
 PCOD8121658
Probable space group: P 2/C
;
_chemical_formula_sum "Si O2"
_cell_formula_units_Z 20
_cell_length_a 11.215859
_cell_length_b 6.571702
_cell_length_c 25.722405
_cell_angle_alpha 90.000000
_cell_angle_beta 152.286019
_cell_angle_gamma 90.000000
_cell_volume 881.716909
_symmetry_space_group_name_H-M "P 2/C"
_symmetry_group_IT_number 13
_symmetry_cell_setting 'monoclinic'
loop_
_space_group_symop_operation_xyz
x,y,z
-x,y,1/2-z
-x,-y,-z
x,-y,1/2+z
loop_
_atom_site_type_symbol
_atom_site_label
_atom_site_fract_x
_atom_site_fract_y
_atom_site_fract_z
Si Si1 0.000000 0.841183 0.250000
Si Si2 0.796819 0.668631 0.800355
Si Si3 0.925273 0.057236 0.913822
Si Si4 0.272924 0.772598 0.840418
Si Si5 0.824869 0.327961 0.574876
Si Si6 0.500000 0.374482 0.750000
O O1 0.973052 0.712738 0.186598
O O2 0.747029 0.987109 0.153132
O O3 0.809639 0.852864 0.845405
O O4 0.694259 0.761828 0.708034
O O5 0.572063 0.513682 0.728900
O O6 0.069705 0.548224 0.902744
O O7 0.733349 0.234352 0.854585
O O8 0.127327 0.150867 0.950025
O O9 0.000000 0.000000 0.000000
O O10 0.000000 0.662659 0.750000
O O11 0.514738 0.665811 0.962551
#
# Coordination Sequence:
#
# PCOD8121658 Si02
#       6
#     2   4   4   4   4   2
#     4  10  22  46  68 102 142 186 238 288 358 416
#     4  11  25  45  68 108 138 185 243 286 360 432
#     4  11  25  44  71 102 141 188 232 298 358 421
#     4  10  24  45  69 100 144 186 235 294 352 422
#     4  11  25  44  71 102 142 190 237 298 355 423
#     4  10  26  42  70 102 142 184 228 296 352 428
#
# _framework density 22.683015000000001
#
# number of rings (size 3 to 8) (size 9 to 14) (size 15 to 20)
#    0.600    0.800    2.000    1.200    9.800    2.400 
#    0.000    0.000    0.000    0.000    0.000    0.000 
#    0.000    0.000    0.000    0.000    0.000    0.000 
#
# Total GULP energy -247782.327672 kJ/mol
# GULP energy per Si atom -12389.116384 kJ/mol
# Density = 2.263139 g / cm^3
# Si number density = 22.683015 Si / 1000 Ang^3
#
#
#
# Elastic Constant Matrix: (Units=GPa)
#
#
# Indices 1 2 3 4 5 6 
#
# 1 119.1268 36.8789 43.3169 0.0000 -17.8471 0.0000
# 2 36.8789 105.2397 11.0501 0.0000 -3.3852 0.0000
# 3 43.3169 11.0501 80.0540 0.0000 1.4133 0.0000
# 4 0.0000 0.0000 0.0000 13.5001 0.0000 17.8340
# 5 -17.8471 -3.3852 1.4133 0.0000 55.4379 0.0000
# 6 0.0000 0.0000 0.0000 17.8340 0.0000 282.2920
#
#
#
# Elastic Compliance Matrix: (Units=1/GPa)
#
#
# Indices 1 2 3 4 5 6 
#
# 1 0.012359 -0.003547 -0.006267 0.000000 0.003922 0.000000
# 2 -0.003547 0.010681 0.000454 0.000000 -0.000501 0.000000
# 3 -0.006267 0.000454 0.015862 0.000000 -0.002394 0.000000
# 4 0.000000 0.000000 0.000000 0.080819 0.000000 -0.005106
# 5 0.003922 -0.000501 -0.002394 0.000000 0.019331 0.000000
# 6 0.000000 0.000000 0.000000 -0.005106 0.000000 0.003865
#
#
# Mechanical properties :
#
#
# Convention : Reuss Voigt Hill
#
# Bulk Modulus (GPa) = 49.54877 54.10135 51.82506
# Shear Modulus (GPa) = 29.69748 84.45763 57.07755
#
# Velocity S-wave (km/s) = 3.62227 6.10858 5.02173
# Velocity P-wave (km/s) = 6.27581 8.58229 7.51803
#
# Compressibility (1/GPa) = 0.02018214
#
# Stress axis : x y z
#
# Youngs Moduli (GPa) = 80.91451 93.62227 63.04276
#
# Poissons Ratio (x) = 0.33205 0.39509
# Poissons Ratio (y) = 0.28698 -0.02859
# Poissons Ratio (z) = 0.50709 -0.04246
#
# Static dielectric constant tensor:
#      x y z
#    x 3.509340 0.000000 0.466920 
#    y 0.000000 4.630590 0.000000 
#    z 0.466920 0.000000 3.743340 
# 
# 
# High freq. dielectric constant tensor:
#      x y z
#    x 1.911750 0.000000 -0.004350 
#    y 0.000000 1.906230 0.000000 
#    z -0.004350 0.000000 1.871670 
# 
# From -- ./inp_files/91970.got.cif
#   From: 2010.06.25/outbox.cif.g09.slc.cpg/sg13_46_cif.got.tgz:91970.got - 2010.06.28 04:50:58.
