data_PCOD8121546
_publ_section_title
;
Structure prediction by ZEFSAII (Michael W. Deem and Ramdas Pophale) SiO2 
 PCOD8121546
Probable space group: P 2/C
;
_chemical_formula_sum "Si O2"
_cell_formula_units_Z 24
_cell_length_a 17.462221
_cell_length_b 14.210733
_cell_length_c 8.256208
_cell_angle_alpha 90.000000
_cell_angle_beta 148.199607
_cell_angle_gamma 90.000000
_cell_volume 1079.631570
_symmetry_space_group_name_H-M "P 2/C"
_symmetry_group_IT_number 13
_symmetry_cell_setting 'monoclinic'
loop_
_space_group_symop_operation_xyz
x,y,z
-x,y,1/2-z
-x,-y,-z
x,-y,1/2+z
loop_
_atom_site_type_symbol
_atom_site_label
_atom_site_fract_x
_atom_site_fract_y
_atom_site_fract_z
Si Si1 0.662733 0.468198 0.824069
Si Si2 0.758492 0.359826 0.676337
Si Si3 0.500000 0.652711 0.250000
Si Si4 0.739005 0.871393 0.402125
Si Si5 0.566283 0.215274 0.156385
Si Si6 0.000000 0.250766 0.250000
Si Si7 0.660118 0.058095 0.100702
O O1 0.500000 0.500000 0.500000
O O2 0.721801 0.405535 0.784377
O O3 0.642872 0.406047 0.950903
O O4 0.759522 0.559838 0.039405
O O5 0.647287 0.273038 0.443998
O O6 0.920083 0.317021 0.974441
O O7 0.563709 0.715301 0.503434
O O8 0.739972 0.890570 0.596078
O O9 0.882283 0.811400 0.630740
O O10 0.747911 0.965994 0.311916
O O11 0.596109 0.815222 0.084260
O O12 0.653394 0.123240 0.249857
O O13 0.500000 0.029845 0.750000
#
# Coordination Sequence:
#
# PCOD8121546 Si02
#       7
#     4   4   2   4   4   2   4
#     4  12  23  41  73 105 132 174 231 305 361 401
#     4  12  27  47  71 107 139 189 238 291 358 429
#     4  12  20  36  68 114 130 166 226 302 362 398
#     4  11  25  45  68 103 149 183 239 290 359 421
#     4  11  22  43  76 107 137 176 247 306 340 414
#     4  12  32  44  70 102 146 206 234 276 360 442
#     4  10  22  43  74 110 136 185 237 311 357 393
#
# _framework density 22.229807000000001
#
# number of rings (size 3 to 8) (size 9 to 14) (size 15 to 20)
#    0.000    0.667    5.833    3.000    7.000    1.333 
#    0.000    0.000    0.000    0.000    0.000    0.000 
#    0.000    0.000    0.000    0.000    0.000    0.000 
#
# Total GULP energy -297513.303637 kJ/mol
# GULP energy per Si atom -12396.387652 kJ/mol
# Density = 2.217921 g / cm^3
# Si number density = 22.229807 Si / 1000 Ang^3
#
#
#
# Elastic Constant Matrix: (Units=GPa)
#
#
# Indices 1 2 3 4 5 6 
#
# 1 94.2839 56.4418 57.0393 0.0000 -1.1446 0.0000
# 2 56.4418 157.9047 86.2934 0.0000 -2.1770 0.0000
# 3 57.0393 86.2934 123.0940 0.0000 12.8053 0.0000
# 4 0.0000 0.0000 0.0000 58.2532 0.0000 -6.9419
# 5 -1.1446 -2.1770 12.8053 0.0000 25.9861 0.0000
# 6 0.0000 0.0000 0.0000 -6.9419 0.0000 45.2407
#
#
#
# Elastic Compliance Matrix: (Units=1/GPa)
#
#
# Indices 1 2 3 4 5 6 
#
# 1 0.015645 -0.002245 -0.006037 0.000000 0.003476 0.000000
# 2 -0.002245 0.011149 -0.007233 0.000000 0.004399 0.000000
# 3 -0.006037 -0.007233 0.016952 0.000000 -0.009225 0.000000
# 4 0.000000 0.000000 0.000000 0.017486 0.000000 0.002683
# 5 0.003476 0.004399 -0.009225 0.000000 0.043550 0.000000
# 6 0.000000 0.000000 0.000000 0.002683 0.000000 0.022516
#
#
# Mechanical properties :
#
#
# Convention : Reuss Voigt Hill
#
# Bulk Modulus (GPa) = 78.64912 86.09240 82.37076
# Shear Modulus (GPa) = 30.75666 37.59656 34.17661
#
# Velocity S-wave (km/s) = 3.72368 4.11696 3.92525
# Velocity P-wave (km/s) = 7.34470 7.83656 7.59461
#
# Compressibility (1/GPa) = 0.01271470
#
# Stress axis : x y z
#
# Youngs Moduli (GPa) = 63.91922 89.69520 58.99014
#
# Poissons Ratio (x) = 0.20135 0.35615
# Poissons Ratio (y) = 0.14348 0.42669
# Poissons Ratio (z) = 0.38591 0.64879
#
# Static dielectric constant tensor:
#      x y z
#    x 3.106620 0.000000 -0.412850 
#    y 0.000000 4.990770 0.000000 
#    z -0.412850 0.000000 3.400690 
# 
# 
# High freq. dielectric constant tensor:
#      x y z
#    x 1.876800 0.000000 -0.028460 
#    y 0.000000 1.910070 0.000000 
#    z -0.028460 0.000000 1.837650 
# 
# From -- ./inp_files/22015.got.cif
#   From: 2010.06.25/outbox.cif.g09.slc.cpg/sg13_12_cif.got.tgz:22015.got - 2010.06.28 04:50:58.
