data_PCOD8121057
_publ_section_title
;
Structure prediction by ZEFSAII (Michael W. Deem and Ramdas Pophale) SiO2 
 PCOD8121057
Probable space group: P 2/C
;
_chemical_formula_sum "Si O2"
_cell_formula_units_Z 20
_cell_length_a 12.165916
_cell_length_b 11.855657
_cell_length_c 9.088579
_cell_angle_alpha 90.000000
_cell_angle_beta 138.869329
_cell_angle_gamma 90.000000
_cell_volume 862.275661
_symmetry_space_group_name_H-M "P 2/C"
_symmetry_group_IT_number 13
_symmetry_cell_setting 'monoclinic'
loop_
_space_group_symop_operation_xyz
x,y,z
-x,y,1/2-z
-x,-y,-z
x,-y,1/2+z
loop_
_atom_site_type_symbol
_atom_site_label
_atom_site_fract_x
_atom_site_fract_y
_atom_site_fract_z
Si Si1 0.700369 0.381977 0.100054
Si Si2 0.691438 0.410045 0.767883
Si Si3 0.810664 0.980340 0.036549
Si Si4 0.331107 0.871171 0.878432
Si Si5 0.371992 0.208936 0.992824
O O1 0.774931 0.476153 0.285518
O O2 0.736936 0.257237 0.198270
O O3 0.777752 0.389838 0.013573
O O4 0.505445 0.412745 0.901179
O O5 0.724187 0.310199 0.684285
O O6 0.000000 0.019454 0.250000
O O7 0.688440 0.079599 0.975817
O O8 0.776655 0.956558 0.831054
O O9 0.774492 0.864704 0.086015
O O10 0.523732 0.868281 0.018596
O O11 0.500000 0.252241 0.250000
#
# Coordination Sequence:
#
# PCOD8121057 Si02
#       5
#     4   4   4   4   4
#     4   9  19  32  55  87 117 147 188 237 289 344
#     4   9  18  31  56  85 120 144 186 239 295 334
#     4  11  23  39  60  82 118 158 196 237 288 342
#     4  10  22  39  58  88 117 152 196 237 288 342
#     4   9  20  36  60  87 117 153 193 241 285 339
#
# _framework density 23.194438999999999
#
# number of rings (size 3 to 8) (size 9 to 14) (size 15 to 20)
#    0.000    2.400    0.000    1.200   14.000    0.000 
#    7.200    0.000    0.000    2.400    0.000    0.000 
#    0.000    0.000    0.000    0.000    0.000    0.000 
#
# Total GULP energy -247886.025545 kJ/mol
# GULP energy per Si atom -12394.301277 kJ/mol
# Density = 2.314165 g / cm^3
# Si number density = 23.194439 Si / 1000 Ang^3
#
#
#
# Elastic Constant Matrix: (Units=GPa)
#
#
# Indices 1 2 3 4 5 6 
#
# 1 66.8295 28.3547 29.5202 0.0000 -26.0421 0.0000
# 2 28.3547 95.4174 22.2452 0.0000 -25.2206 0.0000
# 3 29.5202 22.2452 47.2792 0.0000 -21.3280 0.0000
# 4 0.0000 0.0000 0.0000 29.1556 0.0000 -21.2697
# 5 -26.0421 -25.2206 -21.3280 0.0000 33.5122 0.0000
# 6 0.0000 0.0000 0.0000 -21.2697 0.0000 24.7213
#
#
#
# Elastic Compliance Matrix: (Units=1/GPa)
#
#
# Indices 1 2 3 4 5 6 
#
# 1 0.024343 -0.002062 -0.008971 0.000000 0.011656 0.000000
# 2 -0.002062 0.013455 -0.001681 0.000000 0.007454 0.000000
# 3 -0.008971 -0.001681 0.033424 0.000000 0.013035 0.000000
# 4 0.000000 0.000000 0.000000 0.092119 0.000000 0.079258
# 5 0.011656 0.007454 0.013035 0.000000 0.052803 0.000000
# 6 0.000000 0.000000 0.000000 0.079258 0.000000 0.108643
#
#
# Mechanical properties :
#
#
# Convention : Reuss Voigt Hill
#
# Bulk Modulus (GPa) = 21.83681 41.08515 31.46098
# Shear Modulus (GPa) = 13.68066 26.10486 19.89276
#
# Velocity S-wave (km/s) = 2.43127 3.35846 2.93175
# Velocity P-wave (km/s) = 4.16131 5.72632 5.00536
#
# Compressibility (1/GPa) = 0.04579424
#
# Stress axis : x y z
#
# Youngs Moduli (GPa) = 41.07955 74.32146 29.91900
#
# Poissons Ratio (x) = 0.15321 0.26841
# Poissons Ratio (y) = 0.08469 0.05029
# Poissons Ratio (z) = 0.36854 0.12492
#
# Static dielectric constant tensor:
#      x y z
#    x 4.185620 0.000000 -0.665080 
#    y 0.000000 4.181190 0.000000 
#    z -0.665080 0.000000 3.820640 
# 
# 
# High freq. dielectric constant tensor:
#      x y z
#    x 1.905370 0.000000 -0.050440 
#    y 0.000000 1.921590 0.000000 
#    z -0.050440 0.000000 1.872750 
# 
# From -- ./inp_files/15640.got.cif
#   From: 2010.06.25/outbox.cif.g09.slc.cpg/sg13_8_cif.got.tgz:15640.got - 2010.06.28 04:50:58.
