data_PCOD8121872
_publ_section_title
;
Structure prediction by ZEFSAII (Michael W. Deem and Ramdas Pophale) SiO2 
 PCOD8121872
Probable space group: P 2/C
;
_chemical_formula_sum "Si O2"
_cell_formula_units_Z 24
_cell_length_a 7.990438
_cell_length_b 11.403840
_cell_length_c 11.635577
_cell_angle_alpha 90.000000
_cell_angle_beta 93.861675
_cell_angle_gamma 90.000000
_cell_volume 1057.846032
_symmetry_space_group_name_H-M "P 2/C"
_symmetry_group_IT_number 13
_symmetry_cell_setting 'monoclinic'
loop_
_space_group_symop_operation_xyz
x,y,z
-x,y,1/2-z
-x,-y,-z
x,-y,1/2+z
loop_
_atom_site_type_symbol
_atom_site_label
_atom_site_fract_x
_atom_site_fract_y
_atom_site_fract_z
Si Si1 0.166037 0.620065 0.188941
Si Si2 0.687025 0.624117 0.763671
Si Si3 0.155914 0.252485 0.449536
Si Si4 0.686274 0.186631 0.674785
Si Si5 0.211714 0.814734 0.567932
Si Si6 0.676187 0.074028 0.890725
O O1 0.189145 0.480635 0.196385
O O2 0.321825 0.686325 0.260413
O O3 0.000000 0.656421 0.250000
O O4 0.147839 0.655808 0.054484
O O5 0.500000 0.572775 0.750000
O O6 0.747140 0.685126 0.649311
O O7 0.676219 0.716797 0.866827
O O8 0.250026 0.134031 0.492284
O O9 0.977086 0.204635 0.395254
O O10 0.801169 0.201315 0.569260
O O11 0.774670 0.105290 0.776841
O O12 0.510626 0.126904 0.631739
O O13 0.307184 0.935733 0.597291
#
# Coordination Sequence:
#
# PCOD8121872 Si02
#       6
#     4   4   4   4   4   4
#     4  11  24  47  75 102 143 187 236 295 348 423
#     4  12  30  44  71 104 141 187 241 296 355 417
#     4  11  25  47  70 106 141 181 241 286 357 419
#     4  10  23  43  71 103 139 188 233 281 353 414
#     4  12  24  44  71 102 143 188 228 293 349 417
#     4  10  24  41  72 101 146 182 233 288 342 425
#
# _framework density 22.687612999999999
#
# number of rings (size 3 to 8) (size 9 to 14) (size 15 to 20)
#    0.000    1.000    1.667    3.500   11.667    2.000 
#    3.000    0.000    0.000    0.000    0.000    0.000 
#    0.000    0.000    0.000    0.000    0.000    0.000 
#
# Total GULP energy -297415.584014 kJ/mol
# GULP energy per Si atom -12392.316001 kJ/mol
# Density = 2.263597 g / cm^3
# Si number density = 22.687613 Si / 1000 Ang^3
#
#
#
# Elastic Constant Matrix: (Units=GPa)
#
#
# Indices 1 2 3 4 5 6 
#
# 1 91.7470 24.4425 11.2024 0.0000 1.4691 0.0000
# 2 24.4425 155.0817 42.4571 0.0000 9.2549 0.0000
# 3 11.2024 42.4571 115.0595 0.0000 -15.3794 0.0000
# 4 0.0000 0.0000 0.0000 27.0221 0.0000 2.7148
# 5 1.4691 9.2549 -15.3794 0.0000 35.3406 0.0000
# 6 0.0000 0.0000 0.0000 2.7148 0.0000 21.9137
#
#
#
# Elastic Compliance Matrix: (Units=1/GPa)
#
#
# Indices 1 2 3 4 5 6 
#
# 1 0.011405 -0.001631 -0.000547 0.000000 -0.000285 0.000000
# 2 -0.001631 0.007768 -0.003154 0.000000 -0.003339 0.000000
# 3 -0.000547 -0.003154 0.010641 0.000000 0.005479 0.000000
# 4 0.000000 0.000000 0.000000 0.037473 0.000000 -0.004642
# 5 -0.000285 -0.003339 0.005479 0.000000 0.031567 0.000000
# 6 0.000000 0.000000 0.000000 -0.004642 0.000000 0.046209
#
#
# Mechanical properties :
#
#
# Convention : Reuss Voigt Hill
#
# Bulk Modulus (GPa) = 52.21717 57.56580 54.89148
# Shear Modulus (GPa) = 30.84341 35.77436 33.30888
#
# Velocity S-wave (km/s) = 3.69112 3.97523 3.83581
# Velocity P-wave (km/s) = 6.42117 6.81896 6.62306
#
# Compressibility (1/GPa) = 0.01915079
#
# Stress axis : x y z
#
# Youngs Moduli (GPa) = 87.67814 128.73362 93.98000
#
# Poissons Ratio (x) = 0.20995 0.05138
# Poissons Ratio (y) = 0.14300 0.29640
# Poissons Ratio (z) = 0.04794 0.40601
#
# Static dielectric constant tensor:
#      x y z
#    x 3.948500 0.000000 -0.048670 
#    y 0.000000 4.032590 0.000000 
#    z -0.048670 0.000000 4.553890 
# 
# 
# High freq. dielectric constant tensor:
#      x y z
#    x 1.890780 0.000000 0.002500 
#    y 0.000000 1.898120 0.000000 
#    z 0.002500 0.000000 1.912290 
# 
# From -- ./inp_files/29446.got.cif
#   From: 2010.06.25/outbox.cif.g09.slc.cpg/sg13_15_cif.got.tgz:29446.got - 2010.06.28 04:50:58.
