data_PCOD8121715
_publ_section_title
;
Structure prediction by ZEFSAII (Michael W. Deem and Ramdas Pophale) SiO2 
 PCOD8121715
Probable space group: P 2/C
;
_chemical_formula_sum "Si O2"
_cell_formula_units_Z 32
_cell_length_a 20.289045
_cell_length_b 13.449785
_cell_length_c 7.460526
_cell_angle_alpha 90.000000
_cell_angle_beta 39.011017
_cell_angle_gamma 90.000000
_cell_volume 1281.507943
_symmetry_space_group_name_H-M "P 2/C"
_symmetry_group_IT_number 13
_symmetry_cell_setting 'monoclinic'
loop_
_space_group_symop_operation_xyz
x,y,z
-x,y,1/2-z
-x,-y,-z
x,-y,1/2+z
loop_
_atom_site_type_symbol
_atom_site_label
_atom_site_fract_x
_atom_site_fract_y
_atom_site_fract_z
Si Si1 0.412005 0.764924 0.236803
Si Si2 0.684714 0.133730 0.888995
Si Si3 0.773466 0.571341 0.223027
Si Si4 0.550067 0.602759 0.831720
Si Si5 0.114597 0.183380 0.539142
Si Si6 0.778623 0.359332 0.324181
Si Si7 0.674077 0.909846 0.825715
Si Si8 0.887502 0.240647 0.553342
O O1 0.385363 0.791643 0.083823
O O2 0.323152 0.699683 0.528048
O O3 0.415674 0.863610 0.354389
O O4 0.517821 0.698260 0.023199
O O5 0.803585 0.174182 0.620377
O O6 0.666382 0.028062 0.834885
O O7 0.654763 0.131911 0.164089
O O8 0.675611 0.593735 0.561367
O O9 0.807417 0.455843 0.145223
O O10 0.871214 0.641050 0.065557
O O11 0.741661 0.599197 0.091444
O O12 0.500000 0.628069 0.750000
O O13 0.500000 0.500000 0.000000
O O14 0.126061 0.278895 0.379750
O O15 0.211367 0.107076 0.320821
O O16 0.124173 0.225443 0.714812
O O17 0.000000 0.133142 0.750000
O O18 0.000000 0.205528 0.250000
#
# Coordination Sequence:
#
# PCOD8121715 Si02
#       8
#     4   4   4   4   4   4   4   4
#     4  11  22  43  70 101 145 184 232 297 357 418
#     4  11  21  43  70 106 144 183 241 288 359 418
#     4  12  22  41  65  95 136 180 237 285 347 425
#     4  12  23  43  68 105 139 191 237 292 358 420
#     4  10  23  40  62  99 140 179 236 291 351 417
#     4  11  22  39  65  91 135 186 223 287 347 418
#     4  10  23  39  73 106 141 190 232 300 351 424
#     4  11  24  40  66  99 134 184 234 287 356 424
#
# _framework density 24.970583999999999
#
# number of rings (size 3 to 8) (size 9 to 14) (size 15 to 20)
#    0.000    1.000    5.000    1.500    1.750    1.000 
#    4.500    5.000    0.000    3.000    0.000    0.000 
#    0.000    0.000    0.000    0.000    0.000    0.000 
#
# Total GULP energy -396581.001318 kJ/mol
# GULP energy per Si atom -12393.156291 kJ/mol
# Density = 2.491375 g / cm^3
# Si number density = 24.970584 Si / 1000 Ang^3
#
#
#
# Elastic Constant Matrix: (Units=GPa)
#
#
# Indices 1 2 3 4 5 6 
#
# 1 69.1269 20.8024 18.4039 0.0000 -2.7579 0.0000
# 2 20.8024 130.8708 26.8687 0.0000 4.2062 0.0000
# 3 18.4039 26.8687 90.4151 0.0000 5.3763 0.0000
# 4 0.0000 0.0000 0.0000 27.6574 0.0000 0.4876
# 5 -2.7579 4.2062 5.3763 0.0000 24.4008 0.0000
# 6 0.0000 0.0000 0.0000 0.4876 0.0000 12.0566
#
#
#
# Elastic Compliance Matrix: (Units=1/GPa)
#
#
# Indices 1 2 3 4 5 6 
#
# 1 0.015938 -0.002048 -0.002801 0.000000 0.002771 0.000000
# 2 -0.002048 0.008419 -0.002012 0.000000 -0.001240 0.000000
# 3 -0.002801 -0.002012 0.012388 0.000000 -0.002699 0.000000
# 4 0.000000 0.000000 0.000000 0.036182 0.000000 -0.001463
# 5 0.002771 -0.001240 -0.002699 0.000000 0.042104 0.000000
# 6 0.000000 0.000000 0.000000 -0.001463 0.000000 0.083001
#
#
# Mechanical properties :
#
#
# Convention : Reuss Voigt Hill
#
# Bulk Modulus (GPa) = 43.42729 46.95142 45.18936
# Shear Modulus (GPa) = 22.78644 27.77883 25.28263
#
# Velocity S-wave (km/s) = 3.02409 3.33898 3.18543
# Velocity P-wave (km/s) = 5.44267 5.80591 5.62722
#
# Compressibility (1/GPa) = 0.02302700
#
# Stress axis : x y z
#
# Youngs Moduli (GPa) = 62.74117 118.77319 80.72044
#
# Poissons Ratio (x) = 0.24320 0.22606
# Poissons Ratio (y) = 0.12847 0.16237
# Poissons Ratio (z) = 0.17571 0.23891
#
# Static dielectric constant tensor:
#      x y z
#    x 4.921340 0.000000 -1.184470 
#    y 0.000000 6.602970 0.000000 
#    z -1.184470 0.000000 5.994450 
# 
# 
# High freq. dielectric constant tensor:
#      x y z
#    x 1.990940 0.000000 0.017080 
#    y 0.000000 2.000110 0.000000 
#    z 0.017080 0.000000 1.989630 
# 
# From -- ./inp_files/24247.got.cif
#   From: 2010.06.25/outbox.cif.g09.slc.cpg/sg13_13_cif.got.tgz:24247.got - 2010.06.28 04:50:58.
