data_PCOD8121147
_publ_section_title
;
Structure prediction by ZEFSAII (Michael W. Deem and Ramdas Pophale) SiO2 
 PCOD8121147
Probable space group: P 2/C
;
_chemical_formula_sum "Si O2"
_cell_formula_units_Z 26
_cell_length_a 8.297400
_cell_length_b 22.669692
_cell_length_c 8.086918
_cell_angle_alpha 90.000000
_cell_angle_beta 116.445567
_cell_angle_gamma 90.000000
_cell_volume 1361.969359
_symmetry_space_group_name_H-M "P 2/C"
_symmetry_group_IT_number 13
_symmetry_cell_setting 'monoclinic'
loop_
_space_group_symop_operation_xyz
x,y,z
-x,y,1/2-z
-x,-y,-z
x,-y,1/2+z
loop_
_atom_site_type_symbol
_atom_site_label
_atom_site_fract_x
_atom_site_fract_y
_atom_site_fract_z
Si Si1 0.102758 0.226027 0.617377
Si Si2 0.500000 0.819666 0.250000
Si Si3 0.694863 0.421799 0.295083
Si Si4 0.652640 0.083373 0.032304
Si Si5 0.500000 0.992955 0.750000
Si Si6 0.308568 0.547301 0.082009
Si Si7 0.000000 0.849247 0.750000
Si Si8 0.974593 0.641443 0.430206
O O1 0.319806 0.216302 0.722741
O O2 0.000000 0.214684 0.750000
O O3 0.013616 0.187732 0.427971
O O4 0.084617 0.293088 0.549213
O O5 0.542104 0.858644 0.429776
O O6 0.500000 0.395366 0.250000
O O7 0.751241 0.479373 0.425938
O O8 0.840284 0.370757 0.387667
O O9 0.681615 0.443110 0.104925
O O10 0.547612 0.049785 0.124976
O O11 0.839026 0.104758 0.190404
O O12 0.663616 0.037044 0.882366
O O13 0.500000 0.559408 0.250000
O O14 0.170645 0.592916 0.093785
O O15 0.000000 0.636512 0.250000
#
# Coordination Sequence:
#
# PCOD8121147 Si02
#       8
#     4   2   4   4   2   4   2   4
#     4  10  24  42  63  89 123 164 217 261 311 362
#     4   9  20  42  62  88 124 166 209 256 312 368
#     4  11  22  39  59  88 119 153 195 245 315 382
#     4   9  19  35  59  89 125 163 199 255 302 368
#     4   9  18  34  58  92 124 158 205 242 312 364
#     4  11  22  37  62  86 118 154 191 247 315 375
#     4  10  22  40  60  90 126 164 216 250 304 374
#     4  11  23  40  59  85 118 153 204 256 304 368
#
# _framework density 19.090002999999999
#
# number of rings (size 3 to 8) (size 9 to 14) (size 15 to 20)
#    0.000    1.846    0.000    4.615    5.385    0.615 
#    0.000    0.000    0.000    0.000    0.000    0.000 
#    0.000    0.000    0.000    0.000    0.000    0.000 
#
# Total GULP energy -322154.233342 kJ/mol
# GULP energy per Si atom -12390.547436 kJ/mol
# Density = 1.904655 g / cm^3
# Si number density = 19.090003 Si / 1000 Ang^3
#
#
#
# Elastic Constant Matrix: (Units=GPa)
#
#
# Indices 1 2 3 4 5 6 
#
# 1 97.2372 68.2813 36.3140 0.0000 26.9325 0.0000
# 2 68.2813 102.6335 40.2915 0.0000 24.6112 0.0000
# 3 36.3140 40.2915 105.4842 0.0000 18.4151 0.0000
# 4 0.0000 0.0000 0.0000 23.1364 0.0000 6.7710
# 5 26.9325 24.6112 18.4151 0.0000 28.9082 0.0000
# 6 0.0000 0.0000 0.0000 6.7710 0.0000 15.4383
#
#
#
# Elastic Compliance Matrix: (Units=1/GPa)
#
#
# Indices 1 2 3 4 5 6 
#
# 1 0.021452 -0.011500 -0.001364 0.000000 -0.009326 0.000000
# 2 -0.011500 0.019459 -0.002759 0.000000 -0.004095 0.000000
# 3 -0.001364 -0.002759 0.011669 0.000000 -0.003814 0.000000
# 4 0.000000 0.000000 0.000000 0.049586 0.000000 -0.021748
# 5 -0.009326 -0.004095 -0.003814 0.000000 0.049197 0.000000
# 6 0.000000 0.000000 0.000000 -0.021748 0.000000 0.074312
#
#
# Mechanical properties :
#
#
# Convention : Reuss Voigt Hill
#
# Bulk Modulus (GPa) = 46.87225 66.12537 56.49881
# Shear Modulus (GPa) = 18.93687 24.19446 21.56567
#
# Velocity S-wave (km/s) = 3.15299 3.56390 3.36472
# Velocity P-wave (km/s) = 6.15319 7.18673 6.68995
#
# Compressibility (1/GPa) = 0.02133458
#
# Stress axis : x y z
#
# Youngs Moduli (GPa) = 46.61489 51.38902 85.69433
#
# Poissons Ratio (x) = 0.59097 0.11692
# Poissons Ratio (y) = 0.53607 0.23642
# Poissons Ratio (z) = 0.06360 0.14178
#
# Static dielectric constant tensor:
#      x y z
#    x 3.570210 0.000000 0.014530 
#    y 0.000000 2.958020 0.000000 
#    z 0.014530 0.000000 3.891330 
# 
# 
# High freq. dielectric constant tensor:
#      x y z
#    x 1.736460 0.000000 -0.001350 
#    y 0.000000 1.747060 0.000000 
#    z -0.001350 0.000000 1.763430 
# 
# From -- ./inp_files/13355.got.cif
#   From: 2010.06.25/outbox.cif.g09.slc.cpg/sg13_7_cif.got.tgz:13355.got - 2010.06.28 04:50:58.
