data_PCOD8121547
_publ_section_title
;
Structure prediction by ZEFSAII (Michael W. Deem and Ramdas Pophale) SiO2 
 PCOD8121547
Probable space group: P 2/C
;
_chemical_formula_sum "Si O2"
_cell_formula_units_Z 24
_cell_length_a 8.673784
_cell_length_b 16.554358
_cell_length_c 13.804079
_cell_angle_alpha 90.000000
_cell_angle_beta 30.415201
_cell_angle_gamma 90.000000
_cell_volume 1003.469572
_symmetry_space_group_name_H-M "P 2/C"
_symmetry_group_IT_number 13
_symmetry_cell_setting 'monoclinic'
loop_
_space_group_symop_operation_xyz
x,y,z
-x,y,1/2-z
-x,-y,-z
x,-y,1/2+z
loop_
_atom_site_type_symbol
_atom_site_label
_atom_site_fract_x
_atom_site_fract_y
_atom_site_fract_z
Si Si1 0.651985 0.577419 0.461653
Si Si2 0.516919 0.107705 0.848479
Si Si3 0.111908 0.961345 0.085186
Si Si4 0.500000 0.397295 0.250000
Si Si5 0.999834 0.721507 0.524868
Si Si6 0.500000 0.148184 0.250000
Si Si7 0.510215 0.722130 0.402888
O O1 0.500000 0.500000 0.500000
O O2 0.636692 0.556181 0.584578
O O3 0.509885 0.662632 0.496811
O O4 0.000000 0.581313 0.250000
O O5 0.500000 0.149364 0.750000
O O6 0.545270 0.181648 0.910284
O O7 0.812070 0.049189 0.681362
O O8 0.219943 0.054368 0.031890
O O9 0.000000 0.931409 0.250000
O O10 0.394933 0.907357 0.896608
O O11 0.241636 0.348577 0.334600
O O12 0.800774 0.802861 0.619802
O O13 0.188107 0.717666 0.522137
O O14 0.205233 0.700995 0.320023
#
# Coordination Sequence:
#
# PCOD8121547 Si02
#       7
#     4   4   4   2   4   2   4
#     4  12  30  53  82 118 156 197 245 315 382 464
#     4  12  24  45  72 103 151 200 256 318 379 442
#     4  12  27  44  66 105 148 203 259 314 380 443
#     4  11  26  50  78 115 154 196 250 295 394 454
#     4  10  22  43  75 116 146 204 255 317 374 451
#     4  11  22  44  76 103 158 200 258 317 386 434
#     4  11  23  47  76 111 152 197 260 309 379 453
#
# _framework density 23.917016
#
# number of rings (size 3 to 8) (size 9 to 14) (size 15 to 20)
#    0.000    0.667    5.833    1.000    4.667    5.333 
#    3.000    0.000    0.000    0.000    0.000    0.000 
#    0.000    0.000    0.000    0.000    0.000    0.000 
#
# Total GULP energy -297380.171831 kJ/mol
# GULP energy per Si atom -12390.840493 kJ/mol
# Density = 2.386258 g / cm^3
# Si number density = 23.917016 Si / 1000 Ang^3
#
#
#
# Elastic Constant Matrix: (Units=GPa)
#
#
# Indices 1 2 3 4 5 6 
#
# 1 109.8415 48.0124 62.4472 0.0000 8.1082 0.0000
# 2 48.0124 135.5307 37.9639 0.0000 0.1893 0.0000
# 3 62.4472 37.9639 109.7460 0.0000 5.8139 0.0000
# 4 0.0000 0.0000 0.0000 11.1736 0.0000 4.4462
# 5 8.1082 0.1893 5.8139 0.0000 54.7344 0.0000
# 6 0.0000 0.0000 0.0000 4.4462 0.0000 40.6404
#
#
#
# Elastic Compliance Matrix: (Units=1/GPa)
#
#
# Indices 1 2 3 4 5 6 
#
# 1 0.014681 -0.003189 -0.007177 0.000000 -0.001402 0.000000
# 2 -0.003189 0.008867 -0.001283 0.000000 0.000578 0.000000
# 3 -0.007177 -0.001283 0.013660 0.000000 -0.000383 0.000000
# 4 0.000000 0.000000 0.000000 0.093570 0.000000 -0.010237
# 5 -0.001402 0.000578 -0.000383 0.000000 0.018516 0.000000
# 6 0.000000 0.000000 0.000000 -0.010237 0.000000 0.025726
#
#
# Mechanical properties :
#
#
# Convention : Reuss Voigt Hill
#
# Bulk Modulus (GPa) = 71.88861 72.44058 72.16460
# Shear Modulus (GPa) = 24.63606 35.08932 29.86269
#
# Velocity S-wave (km/s) = 3.21294 3.83447 3.53738
# Velocity P-wave (km/s) = 6.62471 7.06811 6.85000
#
# Compressibility (1/GPa) = 0.01391041
#
# Stress axis : x y z
#
# Youngs Moduli (GPa) = 68.11363 112.78139 73.20736
#
# Poissons Ratio (x) = 0.35963 0.52538
# Poissons Ratio (y) = 0.21720 0.09395
# Poissons Ratio (z) = 0.48883 0.14474
#
# Static dielectric constant tensor:
#      x y z
#    x 3.341900 0.000000 -0.370490 
#    y 0.000000 4.149160 0.000000 
#    z -0.370490 0.000000 4.486550 
# 
# 
# High freq. dielectric constant tensor:
#      x y z
#    x 1.944040 0.000000 -0.015190 
#    y 0.000000 1.938840 0.000000 
#    z -0.015190 0.000000 1.965920 
# 
# From -- ./inp_files/48053.got.cif
#   From: 2010.06.25/outbox.cif.g09.slc.cpg/sg13_25_cif.got.tgz:48053.got - 2010.06.28 04:50:58.
