data_PCOD8121706
_publ_section_title
;
Structure prediction by ZEFSAII (Michael W. Deem and Ramdas Pophale) SiO2 
 PCOD8121706
Probable space group: P 2/C
;
_chemical_formula_sum "Si O2"
_cell_formula_units_Z 32
_cell_length_a 18.306480
_cell_length_b 11.225993
_cell_length_c 15.217225
_cell_angle_alpha 90.000000
_cell_angle_beta 28.727722
_cell_angle_gamma 90.000000
_cell_volume 1503.114518
_symmetry_space_group_name_H-M "P 2/C"
_symmetry_group_IT_number 13
_symmetry_cell_setting 'monoclinic'
loop_
_space_group_symop_operation_xyz
x,y,z
-x,y,1/2-z
-x,-y,-z
x,-y,1/2+z
loop_
_atom_site_type_symbol
_atom_site_label
_atom_site_fract_x
_atom_site_fract_y
_atom_site_fract_z
Si Si1 0.060428 0.999555 0.534274
Si Si2 0.135707 0.806352 0.156775
Si Si3 0.779135 0.575298 0.168147
Si Si4 0.513516 0.530956 0.333174
Si Si5 0.256701 0.655496 0.702833
Si Si6 0.012473 0.260516 0.338278
Si Si7 0.319341 0.833770 0.791703
Si Si8 0.377863 0.287123 0.525388
O O1 0.063537 0.867169 0.568698
O O2 0.236669 0.044961 0.345934
O O3 0.000000 0.000000 0.500000
O O4 0.951429 0.076809 0.713118
O O5 0.000000 0.732413 0.250000
O O6 0.269794 0.825953 0.945497
O O7 0.214617 0.741404 0.154258
O O8 0.688151 0.525736 0.179475
O O9 0.826268 0.468564 0.184351
O O10 0.666050 0.671782 0.331296
O O11 0.930882 0.637981 0.979193
O O12 0.500000 0.584694 0.250000
O O13 0.423577 0.617216 0.494696
O O14 0.454820 0.395407 0.392015
O O15 0.260673 0.730994 0.788230
O O16 0.180723 0.730536 0.703097
O O17 0.000000 0.294757 0.250000
O O18 0.504692 0.826435 0.595126
#
# Coordination Sequence:
#
# PCOD8121706 Si02
#       8
#     4   4   4   4   4   4   4   4
#     4  11  23  44  68  90 129 174 221 273 325 380
#     4  10  23  39  64  99 124 163 215 271 318 383
#     4  11  23  41  63  96 131 172 218 263 327 399
#     4  11  21  39  62  93 131 176 214 263 327 393
#     4  11  22  41  64  94 131 170 211 270 328 388
#     4  12  25  44  64  92 131 176 222 268 324 395
#     4  11  20  40  66  94 128 165 211 271 324 379
#     4  11  21  40  66  97 131 170 213 269 332 388
#
# _framework density 21.289131999999999
#
# number of rings (size 3 to 8) (size 9 to 14) (size 15 to 20)
#    0.000    1.000    3.750    4.875    1.750    0.000 
#    0.000    3.750    0.000    1.500    0.000    0.000 
#    0.000    0.000    0.000    0.000    0.000    0.000 
#
# Total GULP energy -396496.650565 kJ/mol
# GULP energy per Si atom -12390.520330 kJ/mol
# Density = 2.124068 g / cm^3
# Si number density = 21.289132 Si / 1000 Ang^3
#
#
#
# Elastic Constant Matrix: (Units=GPa)
#
#
# Indices 1 2 3 4 5 6 
#
# 1 127.1785 29.4672 28.5962 0.0000 -8.4283 0.0000
# 2 29.4672 81.2774 27.6523 0.0000 -10.3457 0.0000
# 3 28.5962 27.6523 60.8595 0.0000 2.2369 0.0000
# 4 0.0000 0.0000 0.0000 21.7757 0.0000 -5.5156
# 5 -8.4283 -10.3457 2.2369 0.0000 47.8139 0.0000
# 6 0.0000 0.0000 0.0000 -5.5156 0.0000 32.1741
#
#
#
# Elastic Compliance Matrix: (Units=1/GPa)
#
#
# Indices 1 2 3 4 5 6 
#
# 1 0.009191 -0.001980 -0.003469 0.000000 0.001354 0.000000
# 2 -0.001980 0.015576 -0.006269 0.000000 0.003315 0.000000
# 3 -0.003469 -0.006269 0.021018 0.000000 -0.002951 0.000000
# 4 0.000000 0.000000 0.000000 0.048007 0.000000 0.008230
# 5 0.001354 0.003315 -0.002951 0.000000 0.022008 0.000000
# 6 0.000000 0.000000 0.000000 0.008230 0.000000 0.032492
#
#
# Mechanical properties :
#
#
# Convention : Reuss Voigt Hill
#
# Bulk Modulus (GPa) = 44.74197 48.97186 46.85691
# Shear Modulus (GPa) = 27.90522 32.59273 30.24898
#
# Velocity S-wave (km/s) = 3.62439 3.91699 3.77353
# Velocity P-wave (km/s) = 6.21103 6.59623 6.40652
#
# Compressibility (1/GPa) = 0.02235038
#
# Stress axis : x y z
#
# Youngs Moduli (GPa) = 108.79703 64.20155 47.57821
#
# Poissons Ratio (x) = 0.12710 0.16505
# Poissons Ratio (y) = 0.21539 0.29825
# Poissons Ratio (z) = 0.37742 0.40246
#
# Static dielectric constant tensor:
#      x y z
#    x 4.078040 0.000000 0.002070 
#    y 0.000000 3.750360 0.000000 
#    z 0.002070 0.000000 3.932280 
# 
# 
# High freq. dielectric constant tensor:
#      x y z
#    x 1.858420 0.000000 0.003180 
#    y 0.000000 1.808010 0.000000 
#    z 0.003180 0.000000 1.828540 
# 
# From -- ./inp_files/55802.got.cif
#   From: 2010.06.25/outbox.cif.g09.slc.cpg/sg13_28_cif.got.tgz:55802.got - 2010.06.28 04:50:58.
