data_PCOD8121543
_publ_section_title
;
Structure prediction by ZEFSAII (Michael W. Deem and Ramdas Pophale) SiO2 
 PCOD8121543
Probable space group: P 2/C
;
_chemical_formula_sum "Si O2"
_cell_formula_units_Z 20
_cell_length_a 22.517512
_cell_length_b 6.798457
_cell_length_c 15.417937
_cell_angle_alpha 90.000000
_cell_angle_beta 157.753641
_cell_angle_gamma 90.000000
_cell_volume 893.564558
_symmetry_space_group_name_H-M "P 2/C"
_symmetry_group_IT_number 13
_symmetry_cell_setting 'monoclinic'
loop_
_space_group_symop_operation_xyz
x,y,z
-x,y,1/2-z
-x,-y,-z
x,-y,1/2+z
loop_
_atom_site_type_symbol
_atom_site_label
_atom_site_fract_x
_atom_site_fract_y
_atom_site_fract_z
Si Si1 0.257693 0.946578 0.330369
Si Si2 0.578700 0.958012 0.696474
Si Si3 0.332136 0.712895 0.054262
Si Si4 0.876919 0.869709 0.018657
Si Si5 0.915517 0.604338 0.307303
O O1 0.167572 0.799655 0.270231
O O2 0.438727 0.868387 0.566415
O O3 0.258533 0.158229 0.377080
O O4 0.170090 0.974339 0.119752
O O5 0.646912 0.157546 0.830889
O O6 0.500000 0.000000 0.500000
O O7 0.724669 0.812625 0.872594
O O8 0.500000 0.627829 0.250000
O O9 0.213042 0.534775 0.911933
O O10 0.000000 0.975220 0.250000
O O11 0.953347 0.669066 0.085307
O O12 0.000000 0.500000 0.500000
#
# Coordination Sequence:
#
# PCOD8121543 Si02
#       5
#     4   4   4   4   4
#     4  10  22  45  69  91 135 189 228 275 336 419
#     4   9  21  43  70  94 130 185 227 276 342 406
#     4  10  22  43  73  98 132 183 236 276 340 416
#     4  11  23  41  66  97 137 178 224 282 352 398
#     4  12  25  41  68 104 138 176 231 286 342 414
#
# _framework density 22.382266000000001
#
# number of rings (size 3 to 8) (size 9 to 14) (size 15 to 20)
#    0.000    1.600    2.000    1.800    2.800    4.000 
#    7.200    1.000    0.000    0.000    0.000    0.000 
#    0.000    0.000    0.000    0.000    0.000    0.000 
#
# Total GULP energy -247865.536561 kJ/mol
# GULP energy per Si atom -12393.276828 kJ/mol
# Density = 2.233132 g / cm^3
# Si number density = 22.382266 Si / 1000 Ang^3
#
#
#
# Elastic Constant Matrix: (Units=GPa)
#
#
# Indices 1 2 3 4 5 6 
#
# 1 111.1968 43.7322 63.3984 0.0000 15.5965 0.0000
# 2 43.7322 80.8201 54.3518 0.0000 19.8599 0.0000
# 3 63.3984 54.3518 151.3070 0.0000 8.7559 0.0000
# 4 0.0000 0.0000 0.0000 43.6223 0.0000 10.5186
# 5 15.5965 19.8599 8.7559 0.0000 61.5051 0.0000
# 6 0.0000 0.0000 0.0000 10.5186 0.0000 34.4020
#
#
#
# Elastic Compliance Matrix: (Units=1/GPa)
#
#
# Indices 1 2 3 4 5 6 
#
# 1 0.013024 -0.004062 -0.003915 0.000000 -0.001434 0.000000
# 2 -0.004062 0.018899 -0.004833 0.000000 -0.004384 0.000000
# 3 -0.003915 -0.004833 0.009919 0.000000 0.001141 0.000000
# 4 0.000000 0.000000 0.000000 0.024749 0.000000 -0.007567
# 5 -0.001434 -0.004384 0.001141 0.000000 0.017876 0.000000
# 6 0.000000 0.000000 0.000000 -0.007567 0.000000 0.031382
#
#
# Mechanical properties :
#
#
# Convention : Reuss Voigt Hill
#
# Bulk Modulus (GPa) = 61.64472 74.03208 67.83840
# Shear Modulus (GPa) = 34.04248 40.02865 37.03557
#
# Velocity S-wave (km/s) = 3.90418 4.23355 4.07219
# Velocity P-wave (km/s) = 6.92279 7.55283 7.24466
#
# Compressibility (1/GPa) = 0.01622199
#
# Stress axis : x y z
#
# Youngs Moduli (GPa) = 76.78244 52.91353 100.81200
#
# Poissons Ratio (x) = 0.21495 0.39467
# Poissons Ratio (y) = 0.31191 0.48722
# Poissons Ratio (z) = 0.30059 0.25573
#
# Static dielectric constant tensor:
#      x y z
#    x 6.052890 0.000000 2.629300 
#    y 0.000000 3.228270 0.000000 
#    z 2.629300 0.000000 8.213900 
# 
# 
# High freq. dielectric constant tensor:
#      x y z
#    x 1.896810 0.000000 0.003000 
#    y 0.000000 1.828370 0.000000 
#    z 0.003000 0.000000 1.918520 
# 
# From -- ./inp_files/71745.got.cif
#   From: 2010.06.25/outbox.cif.g09.slc.cpg/sg13_36_cif.got.tgz:71745.got - 2010.06.28 04:50:58.
