data_PCOD8121498
_publ_section_title
;
Structure prediction by ZEFSAII (Michael W. Deem and Ramdas Pophale) SiO2 
 PCOD8121498
Probable space group: P 2/C
;
_chemical_formula_sum "Si O2"
_cell_formula_units_Z 30
_cell_length_a 10.944436
_cell_length_b 8.387129
_cell_length_c 15.275587
_cell_angle_alpha 90.000000
_cell_angle_beta 93.914887
_cell_angle_gamma 90.000000
_cell_volume 1398.910849
_symmetry_space_group_name_H-M "P 2/C"
_symmetry_group_IT_number 13
_symmetry_cell_setting 'monoclinic'
loop_
_space_group_symop_operation_xyz
x,y,z
-x,y,1/2-z
-x,-y,-z
x,-y,1/2+z
loop_
_atom_site_type_symbol
_atom_site_label
_atom_site_fract_x
_atom_site_fract_y
_atom_site_fract_z
Si Si1 0.917126 0.925539 0.570668
Si Si2 0.953670 0.332895 0.345764
Si Si3 0.000000 0.891957 0.250000
Si Si4 0.373664 0.419058 0.277256
Si Si5 0.516184 0.333036 0.043739
Si Si6 0.176107 0.641553 0.178757
Si Si7 0.695480 0.139634 0.947534
Si Si8 0.305661 0.816031 0.638035
O O1 0.777743 0.936489 0.529820
O O2 0.942772 0.735608 0.583903
O O3 0.000000 0.000000 0.500000
O O4 0.947118 0.006395 0.666061
O O5 0.928706 0.519713 0.360325
O O6 0.837199 0.225480 0.368282
O O7 0.000000 0.302025 0.250000
O O8 0.884955 0.785658 0.272515
O O9 0.500000 0.500466 0.250000
O O10 0.380877 0.370591 0.378233
O O11 0.263783 0.540411 0.248583
O O12 0.358596 0.245361 0.232307
O O13 0.382137 0.277601 0.067580
O O14 0.500000 0.500000 0.000000
O O15 0.567252 0.197573 0.981159
O O16 0.244652 0.707842 0.097109
O O17 0.672963 0.004475 0.873018
#
# Coordination Sequence:
#
# PCOD8121498 Si02
#       8
#     4   4   2   4   4   4   4   4
#     4  12  25  44  66  98 137 179 225 277 340 405
#     4  11  22  41  70  93 133 181 218 275 339 405
#     4  12  24  44  64 100 140 176 224 286 328 410
#     4   9  21  43  67  91 127 175 216 271 338 402
#     4  11  24  44  69  98 133 172 225 283 343 405
#     4  11  24  42  65  98 134 171 226 277 338 406
#     4  12  25  42  69  98 133 176 225 282 339 408
#     4  10  22  43  65  94 133 172 221 271 336 406
#
# _framework density 21.445256000000001
#
# number of rings (size 3 to 8) (size 9 to 14) (size 15 to 20)
#    0.000    1.067    4.000    2.800    3.733    1.600 
#    2.400    7.333    0.000    0.000    0.000    0.000 
#    0.000    0.000    0.000    0.000    0.000    0.000 
#
# Total GULP energy -371779.616043 kJ/mol
# GULP energy per Si atom -12392.653868 kJ/mol
# Density = 2.139645 g / cm^3
# Si number density = 21.445256 Si / 1000 Ang^3
#
#
#
# Elastic Constant Matrix: (Units=GPa)
#
#
# Indices 1 2 3 4 5 6 
#
# 1 85.0835 36.6860 30.6922 0.0000 -10.3910 0.0000
# 2 36.6860 127.7537 55.9354 0.0000 0.0590 0.0000
# 3 30.6922 55.9354 109.4727 0.0000 -5.5954 0.0000
# 4 0.0000 0.0000 0.0000 33.3155 0.0000 -6.5810
# 5 -10.3910 0.0590 -5.5954 0.0000 35.9212 0.0000
# 6 0.0000 0.0000 0.0000 -6.5810 0.0000 42.9688
#
#
#
# Elastic Compliance Matrix: (Units=1/GPa)
#
#
# Indices 1 2 3 4 5 6 
#
# 1 0.014384 -0.003159 -0.002223 0.000000 0.003820 0.000000
# 2 -0.003159 0.010801 -0.004719 0.000000 -0.001666 0.000000
# 3 -0.002223 -0.004719 0.012234 0.000000 0.001270 0.000000
# 4 0.000000 0.000000 0.000000 0.030953 0.000000 0.004741
# 5 0.003820 -0.001666 0.001270 0.000000 0.029144 0.000000
# 6 0.000000 0.000000 0.000000 0.004741 0.000000 0.023999
#
#
# Mechanical properties :
#
#
# Convention : Reuss Voigt Hill
#
# Bulk Modulus (GPa) = 58.08045 63.21523 60.64784
# Shear Modulus (GPa) = 33.90859 35.70750 34.80804
#
# Velocity S-wave (km/s) = 3.98071 4.08493 4.03316
# Velocity P-wave (km/s) = 6.94766 7.19655 7.07320
#
# Compressibility (1/GPa) = 0.01721750
#
# Stress axis : x y z
#
# Youngs Moduli (GPa) = 69.52328 92.58090 81.73954
#
# Poissons Ratio (x) = 0.29243 0.18175
# Poissons Ratio (y) = 0.21960 0.38570
# Poissons Ratio (z) = 0.15458 0.43685
#
# Static dielectric constant tensor:
#      x y z
#    x 4.224500 0.000000 -0.028590 
#    y 0.000000 4.030170 0.000000 
#    z -0.028590 0.000000 3.940020 
# 
# 
# High freq. dielectric constant tensor:
#      x y z
#    x 1.845680 0.000000 -0.014960 
#    y 0.000000 1.847430 0.000000 
#    z -0.014960 0.000000 1.837890 
# 
# From -- ./inp_files/50053.got.cif
#   From: 2010.06.25/outbox.cif.g09.slc.cpg/sg13_26_cif.got.tgz:50053.got - 2010.06.28 04:50:58.
