data_PCOD8121104
_publ_section_title
;
Structure prediction by ZEFSAII (Michael W. Deem and Ramdas Pophale) SiO2 
 PCOD8121104
Probable space group: P 2/C
;
_chemical_formula_sum "Si O2"
_cell_formula_units_Z 24
_cell_length_a 13.548091
_cell_length_b 10.043369
_cell_length_c 21.592041
_cell_angle_alpha 90.000000
_cell_angle_beta 155.488088
_cell_angle_gamma 90.000000
_cell_volume 1218.922941
_symmetry_space_group_name_H-M "P 2/C"
_symmetry_group_IT_number 13
_symmetry_cell_setting 'monoclinic'
loop_
_space_group_symop_operation_xyz
x,y,z
-x,y,1/2-z
-x,-y,-z
x,-y,1/2+z
loop_
_atom_site_type_symbol
_atom_site_label
_atom_site_fract_x
_atom_site_fract_y
_atom_site_fract_z
Si Si1 0.829609 0.863383 0.331083
Si Si2 0.287848 0.118448 0.174831
Si Si3 0.590054 0.647443 0.674816
Si Si4 0.053136 0.714394 0.347801
Si Si5 0.010755 0.410278 0.183799
Si Si6 0.480933 0.629747 0.165545
O O1 0.619518 0.762452 0.227084
O O2 0.033960 0.865212 0.498466
O O3 0.945294 0.825396 0.331673
O O4 0.718865 0.012436 0.271835
O O5 0.500000 0.074178 0.250000
O O6 0.325335 0.266545 0.219564
O O7 0.333772 0.701334 0.511677
O O8 0.605592 0.495384 0.704917
O O9 0.758803 0.664243 0.711546
O O10 0.943688 0.568443 0.297014
O O11 0.000000 0.770388 0.250000
O O12 0.000000 0.370304 0.250000
O O13 0.786245 0.361579 0.014675
O O14 0.500000 0.610422 0.250000
#
# Coordination Sequence:
#
# PCOD8121104 Si02
#       6
#     4   4   4   4   4   4
#     4  11  23  41  63  89 124 163 204 254 310 371
#     4  11  23  40  63  90 125 162 202 253 318 362
#     4  11  22  39  64  91 125 158 207 255 305 369
#     4  10  22  39  64  91 123 166 205 249 311 368
#     4  10  23  39  63  96 129 164 201 256 316 366
#     4  11  23  37  64  95 124 159 210 262 303 363
#
# _framework density 19.689512000000001
#
# number of rings (size 3 to 8) (size 9 to 14) (size 15 to 20)
#    0.000    1.333    3.333    2.000    4.667    4.667 
#    0.000    1.667    0.000    0.000    0.000    0.000 
#    0.000    0.000    0.000    0.000    0.000    0.000 
#
# Total GULP energy -297510.405353 kJ/mol
# GULP energy per Si atom -12396.266890 kJ/mol
# Density = 1.964470 g / cm^3
# Si number density = 19.689512 Si / 1000 Ang^3
#
#
#
# Elastic Constant Matrix: (Units=GPa)
#
#
# Indices 1 2 3 4 5 6 
#
# 1 147.2861 45.3121 62.7744 0.0000 -0.6167 0.0000
# 2 45.3121 220.0795 171.7496 0.0000 -14.8203 0.0000
# 3 62.7744 171.7496 210.5898 0.0000 -34.2498 0.0000
# 4 0.0000 0.0000 0.0000 34.5876 0.0000 5.4964
# 5 -0.6167 -14.8203 -34.2498 0.0000 35.4221 0.0000
# 6 0.0000 0.0000 0.0000 5.4964 0.0000 35.4363
#
#
#
# Elastic Compliance Matrix: (Units=1/GPa)
#
#
# Indices 1 2 3 4 5 6 
#
# 1 0.008057 0.001096 -0.003795 0.000000 -0.003070 0.000000
# 2 0.001096 0.013618 -0.012463 0.000000 -0.006334 0.000000
# 3 -0.003795 -0.012463 0.018019 0.000000 0.012142 0.000000
# 4 0.000000 0.000000 0.000000 0.029643 0.000000 -0.004598
# 5 -0.003070 -0.006334 0.012142 0.000000 0.037268 0.000000
# 6 0.000000 0.000000 0.000000 -0.004598 0.000000 0.028933
#
#
# Mechanical properties :
#
#
# Convention : Reuss Voigt Hill
#
# Bulk Modulus (GPa) = 106.72656 126.40307 116.56481
# Shear Modulus (GPa) = 29.58876 40.96382 35.27629
#
# Velocity S-wave (km/s) = 3.88076 4.56619 4.23736
# Velocity P-wave (km/s) = 8.62571 9.59883 9.12525
#
# Compressibility (1/GPa) = 0.00936974
#
# Stress axis : x y z
#
# Youngs Moduli (GPa) = 124.11776 73.43420 55.49789
#
# Poissons Ratio (x) = -0.08047 0.21060
# Poissons Ratio (y) = -0.13601 0.69166
# Poissons Ratio (z) = 0.47099 0.91520
#
# Static dielectric constant tensor:
#      x y z
#    x 3.672140 0.000000 -0.087990 
#    y 0.000000 3.854220 0.000000 
#    z -0.087990 0.000000 3.100290 
# 
# 
# High freq. dielectric constant tensor:
#      x y z
#    x 1.776720 0.000000 0.010290 
#    y 0.000000 1.757820 0.000000 
#    z 0.010290 0.000000 1.772960 
# 
# From -- ./inp_files/66713.got.cif
#   From: 2010.06.25/outbox.cif.g09.slc.cpg/sg13_34_cif.got.tgz:66713.got - 2010.06.28 04:50:58.
