data_PCOD8121503
_publ_section_title
;
Structure prediction by ZEFSAII (Michael W. Deem and Ramdas Pophale) SiO2 
 PCOD8121503
Probable space group: P 2/C
;
_chemical_formula_sum "Si O2"
_cell_formula_units_Z 24
_cell_length_a 13.761333
_cell_length_b 6.341236
_cell_length_c 26.154804
_cell_angle_alpha 90.000000
_cell_angle_beta 151.880450
_cell_angle_gamma 90.000000
_cell_volume 1075.709905
_symmetry_space_group_name_H-M "P 2/C"
_symmetry_group_IT_number 13
_symmetry_cell_setting 'monoclinic'
loop_
_space_group_symop_operation_xyz
x,y,z
-x,y,1/2-z
-x,-y,-z
x,-y,1/2+z
loop_
_atom_site_type_symbol
_atom_site_label
_atom_site_fract_x
_atom_site_fract_y
_atom_site_fract_z
Si Si1 0.918011 0.620754 0.847540
Si Si2 0.801484 0.060329 0.965166
Si Si3 0.373288 0.021349 0.306972
Si Si4 0.838498 0.473819 0.134307
Si Si5 0.565126 0.198384 0.561567
Si Si6 0.842049 0.235750 0.880382
O O1 0.030461 0.479754 0.856456
O O2 0.849099 0.476621 0.863668
O O3 0.073997 0.800622 0.937025
O O4 0.720889 0.742412 0.731235
O O5 0.614431 0.956224 0.908749
O O6 0.733747 0.210960 0.885821
O O7 0.928101 0.856187 0.004849
O O8 0.337658 0.874952 0.339694
O O9 0.277659 0.907131 0.214493
O O10 0.750413 0.687865 0.117618
O O11 0.000000 0.369127 0.250000
O O12 0.641945 0.333762 0.028130
O O13 0.500000 0.000000 0.500000
#
# Coordination Sequence:
#
# PCOD8121503 Si02
#       6
#     4   4   4   4   4   4
#     4  11  23  41  70  99 134 180 226 281 340 405
#     4  10  22  43  65  98 139 175 227 280 341 408
#     4  11  23  42  66 101 135 177 228 279 344 405
#     4  11  24  43  65 100 136 172 231 280 332 416
#     4  11  25  42  68  96 135 184 223 279 347 399
#     4  10  23  41  67  97 135 180 223 279 341 405
#
# _framework density 22.310849999999999
#
# number of rings (size 3 to 8) (size 9 to 14) (size 15 to 20)
#    0.000    1.333    1.667    3.000    2.333    4.667 
#    0.000    5.000    0.000    0.000    0.000    0.000 
#    0.000    0.000    0.000    0.000    0.000    0.000 
#
# Total GULP energy -297561.630793 kJ/mol
# GULP energy per Si atom -12398.401283 kJ/mol
# Density = 2.226007 g / cm^3
# Si number density = 22.310850 Si / 1000 Ang^3
#
#
#
# Elastic Constant Matrix: (Units=GPa)
#
#
# Indices 1 2 3 4 5 6 
#
# 1 109.5968 33.5020 11.3360 0.0000 0.7532 0.0000
# 2 33.5020 92.9747 20.6733 0.0000 10.7348 0.0000
# 3 11.3360 20.6733 62.0426 0.0000 -3.3619 0.0000
# 4 0.0000 0.0000 0.0000 37.5353 0.0000 -11.5360
# 5 0.7532 10.7348 -3.3619 0.0000 35.8192 0.0000
# 6 0.0000 0.0000 0.0000 -11.5360 0.0000 34.1209
#
#
#
# Elastic Compliance Matrix: (Units=1/GPa)
#
#
# Indices 1 2 3 4 5 6 
#
# 1 0.010305 -0.003672 -0.000615 0.000000 0.000826 0.000000
# 2 -0.003672 0.013482 -0.004057 0.000000 -0.004344 0.000000
# 3 -0.000615 -0.004057 0.017739 0.000000 0.002894 0.000000
# 4 0.000000 0.000000 0.000000 0.029731 0.000000 0.010052
# 5 0.000826 -0.004344 0.002894 0.000000 0.029474 0.000000
# 6 0.000000 0.000000 0.000000 0.010052 0.000000 0.032706
#
#
# Mechanical properties :
#
#
# Convention : Reuss Voigt Hill
#
# Bulk Modulus (GPa) = 40.25897 43.95962 42.10930
# Shear Modulus (GPa) = 31.56498 34.76859 33.16679
#
# Velocity S-wave (km/s) = 3.76544 3.95190 3.85980
# Velocity P-wave (km/s) = 6.08181 6.36941 6.22727
#
# Compressibility (1/GPa) = 0.02483918
#
# Stress axis : x y z
#
# Youngs Moduli (GPa) = 97.04334 74.17090 56.37333
#
# Poissons Ratio (x) = 0.27235 0.03464
# Poissons Ratio (y) = 0.35633 0.22871
# Poissons Ratio (z) = 0.05964 0.30091
#
# Static dielectric constant tensor:
#      x y z
#    x 4.137910 0.000000 0.101100 
#    y 0.000000 3.943860 0.000000 
#    z 0.101100 0.000000 4.239830 
# 
# 
# High freq. dielectric constant tensor:
#      x y z
#    x 1.888090 0.000000 -0.006080 
#    y 0.000000 1.862660 0.000000 
#    z -0.006080 0.000000 1.890260 
# 
# From -- ./inp_files/96886.got.cif
#   From: 2010.06.25/outbox.cif.g09.slc.cpg/sg13_49_cif.got.tgz:96886.got - 2010.06.28 04:50:58.
