data_PCOD8122311
_publ_section_title
;
Structure prediction by ZEFSAII (Michael W. Deem and Ramdas Pophale) SiO2 
 PCOD8122311
Probable space group: P 2/C
;
_chemical_formula_sum "Si O2"
_cell_formula_units_Z 22
_cell_length_a 19.762500
_cell_length_b 6.346231
_cell_length_c 9.249324
_cell_angle_alpha 90.000000
_cell_angle_beta 63.720169
_cell_angle_gamma 90.000000
_cell_volume 1040.128499
_symmetry_space_group_name_H-M "P 2/C"
_symmetry_group_IT_number 13
_symmetry_cell_setting 'monoclinic'
loop_
_space_group_symop_operation_xyz
x,y,z
-x,y,1/2-z
-x,-y,-z
x,-y,1/2+z
loop_
_atom_site_type_symbol
_atom_site_label
_atom_site_fract_x
_atom_site_fract_y
_atom_site_fract_z
Si Si1 0.445090 0.706561 0.051866
Si Si2 0.726375 0.682988 0.334015
Si Si3 0.500000 0.001137 0.750000
Si Si4 0.804599 0.596557 0.535546
Si Si5 0.846966 0.993282 0.658909
Si Si6 0.086434 0.248785 0.140937
O O1 0.358568 0.640778 0.135145
O O2 0.452862 0.845180 0.189901
O O3 0.500000 0.500000 0.000000
O O4 0.452970 0.848482 0.900119
O O5 0.733737 0.640599 0.497516
O O6 0.762171 0.912682 0.264060
O O7 0.775561 0.511049 0.206442
O O8 0.843761 0.810375 0.544889
O O9 0.866416 0.463576 0.387743
O O10 0.882890 0.923176 0.775273
O O11 0.902161 0.165346 0.533586
O O12 0.000000 0.302915 0.250000
#
# Coordination Sequence:
#
# PCOD8122311 Si02
#       6
#     4   4   2   4   4   4
#     4  11  26  45  70 100 137 176 224 275 343 396
#     4  11  26  42  71  93 132 172 218 274 321 402
#     4  10  26  46  64 104 134 170 228 268 334 414
#     4  11  24  43  65  99 129 170 223 264 332 386
#     4  11  23  44  63  98 127 170 222 266 330 388
#     4  11  24  42  66  95 132 174 220 273 325 394
#
# _framework density 21.151230999999999
#
# number of rings (size 3 to 8) (size 9 to 14) (size 15 to 20)
#    0.000    1.091    3.636    1.091    7.636    2.909 
#    0.000    0.000    0.000    0.000    0.000    0.000 
#    0.000    0.000    0.000    0.000    0.000    0.000 
#
# Total GULP energy -272700.049773 kJ/mol
# GULP energy per Si atom -12395.456808 kJ/mol
# Density = 2.110309 g / cm^3
# Si number density = 21.151231 Si / 1000 Ang^3
#
#
#
# Elastic Constant Matrix: (Units=GPa)
#
#
# Indices 1 2 3 4 5 6 
#
# 1 107.7446 31.1580 31.3601 0.0000 -12.2322 0.0000
# 2 31.1580 93.7064 31.3640 0.0000 2.6762 0.0000
# 3 31.3601 31.3640 93.2052 0.0000 15.7237 0.0000
# 4 0.0000 0.0000 0.0000 31.7429 0.0000 8.6041
# 5 -12.2322 2.6762 15.7237 0.0000 36.9376 0.0000
# 6 0.0000 0.0000 0.0000 8.6041 0.0000 28.5715
#
#
#
# Elastic Compliance Matrix: (Units=1/GPa)
#
#
# Indices 1 2 3 4 5 6 
#
# 1 0.011939 -0.002773 -0.004077 0.000000 0.005890 0.000000
# 2 -0.002773 0.012699 -0.003265 0.000000 -0.000449 0.000000
# 3 -0.004077 -0.003265 0.014423 0.000000 -0.007253 0.000000
# 4 0.000000 0.000000 0.000000 0.034303 0.000000 -0.010330
# 5 0.005890 -0.000449 -0.007253 0.000000 0.032143 0.000000
# 6 0.000000 0.000000 0.000000 -0.010330 0.000000 0.038111
#
#
# Mechanical properties :
#
#
# Convention : Reuss Voigt Hill
#
# Bulk Modulus (GPa) = 53.10483 53.60226 53.35355
# Shear Modulus (GPa) = 29.39007 32.83535 31.11271
#
# Velocity S-wave (km/s) = 3.73167 3.94434 3.83948
# Velocity P-wave (km/s) = 6.61278 6.79273 6.70336
#
# Compressibility (1/GPa) = 0.01883068
#
# Stress axis : x y z
#
# Youngs Moduli (GPa) = 83.76162 78.74501 69.33315
#
# Poissons Ratio (x) = 0.21837 0.28270
# Poissons Ratio (y) = 0.23229 0.22634
# Poissons Ratio (z) = 0.34153 0.25707
#
# Static dielectric constant tensor:
#      x y z
#    x 3.618450 0.000000 0.132440 
#    y 0.000000 3.984760 0.000000 
#    z 0.132440 0.000000 3.994770 
# 
# 
# High freq. dielectric constant tensor:
#      x y z
#    x 1.815830 0.000000 0.014990 
#    y 0.000000 1.839960 0.000000 
#    z 0.014990 0.000000 1.846400 
# 
# From -- ./inp_files/22216.got.cif
#   From: 2010.06.25/outbox.cif.g09.slc.cpg/sg13_12_cif.got.tgz:22216.got - 2010.06.28 04:50:58.
