data_PCOD8122434
_publ_section_title
;
Structure prediction by ZEFSAII (Michael W. Deem and Ramdas Pophale) SiO2 
 PCOD8122434
Probable space group: P 2/C
;
_chemical_formula_sum "Si O2"
_cell_formula_units_Z 32
_cell_length_a 18.037653
_cell_length_b 15.064451
_cell_length_c 11.937283
_cell_angle_alpha 90.000000
_cell_angle_beta 27.007894
_cell_angle_gamma 90.000000
_cell_volume 1473.000877
_symmetry_space_group_name_H-M "P 2/C"
_symmetry_group_IT_number 13
_symmetry_cell_setting 'monoclinic'
loop_
_space_group_symop_operation_xyz
x,y,z
-x,y,1/2-z
-x,-y,-z
x,-y,1/2+z
loop_
_atom_site_type_symbol
_atom_site_label
_atom_site_fract_x
_atom_site_fract_y
_atom_site_fract_z
Si Si1 0.283693 0.254010 0.808627
Si Si2 0.834215 0.898402 0.403491
Si Si3 0.166881 0.096567 0.092150
Si Si4 0.762784 0.587778 0.500054
Si Si5 0.420620 0.760206 0.747764
Si Si6 0.022336 0.799103 0.484444
Si Si7 0.096111 0.373760 0.454049
Si Si8 0.675519 0.600756 0.060294
O O1 0.451538 0.269321 0.518179
O O2 0.126090 0.254176 0.939091
O O3 0.260851 0.332079 0.930139
O O4 0.295463 0.158384 0.853695
O O5 0.704560 0.832047 0.636243
O O6 0.861031 0.865478 0.240273
O O7 0.000000 0.896117 0.250000
O O8 0.760268 0.997791 0.493386
O O9 0.000000 0.089510 0.250000
O O10 0.125743 0.143034 0.265645
O O11 0.664990 0.672305 0.585190
O O12 0.789453 0.611227 0.593899
O O13 0.657672 0.497770 0.635684
O O14 0.927015 0.574108 0.205479
O O15 0.500000 0.806519 0.750000
O O16 0.943284 0.730364 0.503893
O O17 0.188696 0.406086 0.219040
O O18 0.500000 0.632474 0.250000
#
# Coordination Sequence:
#
# PCOD8122434 Si02
#       8
#     4   4   4   4   4   4   4   4
#     4  11  24  43  67  96 133 176 221 278 339 399
#     4  11  22  40  69  99 131 177 225 276 332 403
#     4   9  21  40  66  99 130 172 222 274 333 402
#     4  11  25  43  68  98 135 171 228 272 328 396
#     4  12  23  41  66  94 136 178 220 275 342 394
#     4  11  20  41  71  94 136 172 220 274 340 395
#     4  11  23  43  69  99 130 173 223 272 330 390
#     4  12  27  45  67  96 136 179 221 274 339 395
#
# _framework density 21.724360000000001
#
# number of rings (size 3 to 8) (size 9 to 14) (size 15 to 20)
#    0.000    1.000    3.750    2.625    0.000    6.500 
#    0.000    0.625    0.000    0.000    0.000    0.000 
#    0.000    0.000    0.000    0.000    0.000    0.000 
#
# Total GULP energy -396833.607299 kJ/mol
# GULP energy per Si atom -12401.050228 kJ/mol
# Density = 2.167491 g / cm^3
# Si number density = 21.724360 Si / 1000 Ang^3
#
#
#
# Elastic Constant Matrix: (Units=GPa)
#
#
# Indices 1 2 3 4 5 6 
#
# 1 89.1454 42.5357 35.2179 0.0000 11.2691 0.0000
# 2 42.5357 148.1102 27.5341 0.0000 -1.6289 0.0000
# 3 35.2179 27.5341 102.0374 0.0000 14.3166 0.0000
# 4 0.0000 0.0000 0.0000 18.5189 0.0000 3.3849
# 5 11.2691 -1.6289 14.3166 0.0000 32.1838 0.0000
# 6 0.0000 0.0000 0.0000 3.3849 0.0000 33.2040
#
#
#
# Elastic Compliance Matrix: (Units=1/GPa)
#
#
# Indices 1 2 3 4 5 6 
#
# 1 0.014859 -0.003637 -0.003617 0.000000 -0.003778 0.000000
# 2 -0.003637 0.008049 -0.001229 0.000000 0.002228 0.000000
# 3 -0.003617 -0.001229 0.011958 0.000000 -0.004115 0.000000
# 4 0.000000 0.000000 0.000000 0.055024 0.000000 -0.005609
# 5 -0.003778 0.002228 -0.004115 0.000000 0.034338 0.000000
# 6 0.000000 0.000000 0.000000 -0.005609 0.000000 0.030689
#
#
# Mechanical properties :
#
#
# Convention : Reuss Voigt Hill
#
# Bulk Modulus (GPa) = 55.86601 61.09648 58.48124
# Shear Modulus (GPa) = 28.11356 32.38171 30.24763
#
# Velocity S-wave (km/s) = 3.60127 3.86498 3.73545
# Velocity P-wave (km/s) = 6.56230 6.93556 6.75151
#
# Compressibility (1/GPa) = 0.01789997
#
# Stress axis : x y z
#
# Youngs Moduli (GPa) = 67.29719 124.23652 83.62630
#
# Poissons Ratio (x) = 0.45179 0.30250
# Poissons Ratio (y) = 0.24473 0.10281
# Poissons Ratio (z) = 0.24344 0.15274
#
# Static dielectric constant tensor:
#      x y z
#    x 3.804870 0.000000 0.102690 
#    y 0.000000 4.064260 0.000000 
#    z 0.102690 0.000000 3.883060 
# 
# 
# High freq. dielectric constant tensor:
#      x y z
#    x 1.846800 0.000000 0.011710 
#    y 0.000000 1.857470 0.000000 
#    z 0.011710 0.000000 1.850560 
# 
# From -- ./inp_files/39452.got.cif
#   From: 2010.06.25/outbox.cif.g09.slc.cpg/sg13_20_cif.got.tgz:39452.got - 2010.06.28 04:50:58.
