data_PCOD8122268
_publ_section_title
;
Structure prediction by ZEFSAII (Michael W. Deem and Ramdas Pophale) SiO2 
 PCOD8122268
Probable space group: P 2/C
;
_chemical_formula_sum "Si O2"
_cell_formula_units_Z 20
_cell_length_a 5.007588
_cell_length_b 13.067068
_cell_length_c 16.883515
_cell_angle_alpha 90.000000
_cell_angle_beta 49.039477
_cell_angle_gamma 90.000000
_cell_volume 834.275343
_symmetry_space_group_name_H-M "P 2/C"
_symmetry_group_IT_number 13
_symmetry_cell_setting 'monoclinic'
loop_
_space_group_symop_operation_xyz
x,y,z
-x,y,1/2-z
-x,-y,-z
x,-y,1/2+z
loop_
_atom_site_type_symbol
_atom_site_label
_atom_site_fract_x
_atom_site_fract_y
_atom_site_fract_z
Si Si1 0.400089 0.159431 0.953212
Si Si2 0.117725 0.252879 0.857929
Si Si3 0.348681 0.764188 0.634740
Si Si4 0.232295 0.571900 0.007964
Si Si5 0.583551 0.971853 0.821291
O O1 0.136080 0.220117 0.946416
O O2 0.812419 0.195555 0.867912
O O3 0.398306 0.041125 0.925210
O O4 0.251806 0.181134 0.069589
O O5 0.500000 0.229063 0.750000
O O6 0.018591 0.373403 0.877910
O O7 0.572174 0.660941 0.580039
O O8 0.558444 0.854734 0.641336
O O9 0.000000 0.730930 0.750000
O O10 0.500000 0.500000 0.000000
O O11 0.000000 0.500000 0.000000
O O12 0.500000 0.015513 0.750000
O O13 0.000000 0.969045 0.750000
#
# Coordination Sequence:
#
# PCOD8122268 Si02
#       5
#     4   4   4   4   4
#     4  11  22  41  67 100 140 177 216 267 322 395
#     4  11  23  41  68  98 129 169 221 277 334 394
#     4  10  25  45  68  99 138 180 225 275 331 398
#     4  11  25  45  67  94 127 170 225 283 342 397
#     4  11  23  40  67 103 139 180 220 262 326 398
#
# _framework density 23.972899999999999
#
# number of rings (size 3 to 8) (size 9 to 14) (size 15 to 20)
#    0.000    1.200    0.000    6.600    0.000   11.200 
#    0.000   10.000    0.000    0.000    0.000    0.000 
#    0.000    0.000    0.000    0.000    0.000    0.000 
#
# Total GULP energy -247882.368204 kJ/mol
# GULP energy per Si atom -12394.118410 kJ/mol
# Density = 2.391834 g / cm^3
# Si number density = 23.972900 Si / 1000 Ang^3
#
#
#
# Elastic Constant Matrix: (Units=GPa)
#
#
# Indices 1 2 3 4 5 6 
#
# 1 119.3326 64.4525 1.0462 0.0000 8.1539 0.0000
# 2 64.4525 183.6004 53.8835 0.0000 -4.3431 0.0000
# 3 1.0462 53.8835 104.6324 0.0000 4.2796 0.0000
# 4 0.0000 0.0000 0.0000 -13.1069 0.0000 25.7134
# 5 8.1539 -4.3431 4.2796 0.0000 32.0145 0.0000
# 6 0.0000 0.0000 0.0000 25.7134 0.0000 24.4311
#
#
#
# Elastic Compliance Matrix: (Units=1/GPa)
#
#
# Indices 1 2 3 4 5 6 
#
# 1 0.011183 -0.004747 0.002489 0.000000 -0.003825 0.000000
# 2 -0.004747 0.008487 -0.004444 0.000000 0.002954 0.000000
# 3 0.002489 -0.004444 0.011937 0.000000 -0.002833 0.000000
# 4 0.000000 0.000000 0.000000 -0.024894 0.000000 0.026201
# 5 -0.003825 0.002954 -0.002833 0.000000 0.032989 0.000000
# 6 0.000000 0.000000 0.000000 0.026201 0.000000 0.013355
#
#
# Mechanical properties :
#
#
# Convention : Reuss Voigt Hill
#
# Bulk Modulus (GPa) = 54.93383 71.81442 63.37413
# Shear Modulus (GPa) = 68.93755 27.87994 48.40875
#
# Velocity S-wave (km/s) = 5.36832 3.41395 4.49855
# Velocity P-wave (km/s) = 7.83517 6.74993 7.31271
#
# Compressibility (1/GPa) = 0.01820372
#
# Stress axis : x y z
#
# Youngs Moduli (GPa) = 89.41896 117.82525 83.77419
#
# Poissons Ratio (x) = 0.55930 -0.20853
# Poissons Ratio (y) = 0.42446 0.37230
# Poissons Ratio (z) = -0.22258 0.52363
#
# Static dielectric constant tensor:
#      x y z
#    x 4.185240 0.000000 -0.365310 
#    y 0.000000 4.742870 0.000000 
#    z -0.365310 0.000000 3.416490 
# 
# 
# High freq. dielectric constant tensor:
#      x y z
#    x 1.964350 0.000000 -0.007130 
#    y 0.000000 1.957310 0.000000 
#    z -0.007130 0.000000 1.950410 
# 
# From -- ./inp_files/60996.got.cif
#   From: 2010.06.25/outbox.cif.g09.slc.cpg/sg13_31_cif.got.tgz:60996.got - 2010.06.28 04:50:58.
