data_PCOD8122172
_publ_section_title
;
Structure prediction by ZEFSAII (Michael W. Deem and Ramdas Pophale) SiO2 
 PCOD8122172
Probable space group: P 2/C
;
_chemical_formula_sum "Si O2"
_cell_formula_units_Z 26
_cell_length_a 16.288324
_cell_length_b 13.158637
_cell_length_c 9.841710
_cell_angle_alpha 90.000000
_cell_angle_beta 146.163993
_cell_angle_gamma 90.000000
_cell_volume 1174.548421
_symmetry_space_group_name_H-M "P 2/C"
_symmetry_group_IT_number 13
_symmetry_cell_setting 'monoclinic'
loop_
_space_group_symop_operation_xyz
x,y,z
-x,y,1/2-z
-x,-y,-z
x,-y,1/2+z
loop_
_atom_site_type_symbol
_atom_site_label
_atom_site_fract_x
_atom_site_fract_y
_atom_site_fract_z
Si Si1 0.156442 0.404544 0.529340
Si Si2 0.810751 0.979740 0.348398
Si Si3 0.354570 0.065540 0.619592
Si Si4 0.043564 0.220376 0.539061
Si Si5 0.596404 0.529657 0.506626
Si Si6 0.283630 0.287185 0.464446
Si Si7 0.000000 0.854956 0.250000
O O1 0.135817 0.307057 0.594802
O O2 0.237760 0.485304 0.739282
O O3 0.265793 0.371071 0.558850
O O4 0.000000 0.444290 0.250000
O O5 0.670822 0.959645 0.255928
O O6 0.919731 0.883129 0.493368
O O7 0.889572 0.078669 0.511344
O O8 0.772775 0.010166 0.141982
O O9 0.500000 0.018397 0.750000
O O10 0.369063 0.187174 0.628519
O O11 0.872619 0.247442 0.301101
O O12 0.087852 0.213172 0.759546
O O13 0.500000 0.500000 0.500000
O O14 0.622451 0.651591 0.521208
O O15 0.500000 0.483133 0.250000
#
# Coordination Sequence:
#
# PCOD8122172 Si02
#       7
#     4   4   4   4   4   4   2
#     4  10  24  45  72 103 135 184 236 295 360 425
#     4  12  23  42  67  99 137 185 231 284 347 410
#     4  12  25  42  67  97 141 189 235 282 343 432
#     4  11  23  40  69 101 137 181 234 294 354 417
#     4  12  26  49  74 103 141 189 234 292 366 438
#     4  11  23  44  70  99 135 181 234 285 358 418
#     4  12  22  38  64 100 138 170 226 292 340 402
#
# _framework density 22.136168999999999
#
# number of rings (size 3 to 8) (size 9 to 14) (size 15 to 20)
#    0.000    0.615    6.154    2.308    1.077    3.692 
#    1.385    0.769    0.000    0.000    0.000    0.000 
#    0.000    0.000    0.000    0.000    0.000    0.000 
#
# Total GULP energy -322192.689300 kJ/mol
# GULP energy per Si atom -12392.026512 kJ/mol
# Density = 2.208579 g / cm^3
# Si number density = 22.136169 Si / 1000 Ang^3
#
#
#
# Elastic Constant Matrix: (Units=GPa)
#
#
# Indices 1 2 3 4 5 6 
#
# 1 126.3308 15.4233 14.3706 0.0000 -10.8595 0.0000
# 2 15.4233 79.4753 27.4462 0.0000 -6.5314 0.0000
# 3 14.3706 27.4462 98.5692 0.0000 -9.7434 0.0000
# 4 0.0000 0.0000 0.0000 22.7113 0.0000 0.2512
# 5 -10.8595 -6.5314 -9.7434 0.0000 35.5092 0.0000
# 6 0.0000 0.0000 0.0000 0.2512 0.0000 35.3801
#
#
#
# Elastic Compliance Matrix: (Units=1/GPa)
#
#
# Indices 1 2 3 4 5 6 
#
# 1 0.008323 -0.001210 -0.000665 0.000000 0.002140 0.000000
# 2 -0.001210 0.014179 -0.003650 0.000000 0.001237 0.000000
# 3 -0.000665 -0.003650 0.011483 0.000000 0.002276 0.000000
# 4 0.000000 0.000000 0.000000 0.044034 0.000000 -0.000313
# 5 0.002140 0.001237 0.002276 0.000000 0.029668 0.000000
# 6 0.000000 0.000000 0.000000 -0.000313 0.000000 0.028267
#
#
# Mechanical properties :
#
#
# Convention : Reuss Voigt Hill
#
# Bulk Modulus (GPa) = 43.59738 46.53950 45.06844
# Shear Modulus (GPa) = 32.33124 35.19581 33.76352
#
# Velocity S-wave (km/s) = 3.82588 3.99177 3.90970
# Velocity P-wave (km/s) = 6.26532 6.50503 6.38630
#
# Compressibility (1/GPa) = 0.02293716
#
# Stress axis : x y z
#
# Youngs Moduli (GPa) = 120.14832 70.52554 87.08281
#
# Poissons Ratio (x) = 0.08531 0.05791
# Poissons Ratio (y) = 0.14534 0.31781
# Poissons Ratio (z) = 0.07990 0.25739
#
# Static dielectric constant tensor:
#      x y z
#    x 4.404430 0.000000 -0.177910 
#    y 0.000000 4.119970 0.000000 
#    z -0.177910 0.000000 3.846880 
# 
# 
# High freq. dielectric constant tensor:
#      x y z
#    x 1.892050 0.000000 0.000400 
#    y 0.000000 1.861200 0.000000 
#    z 0.000400 0.000000 1.861370 
# 
# From -- ./inp_files/16596.got.cif
#   From: 2010.06.25/outbox.cif.g09.slc.cpg/sg13_9_cif.got.tgz:16596.got - 2010.06.28 04:50:58.
