data_PCOD8122510
_publ_section_title
;
Structure prediction by ZEFSAII (Michael W. Deem and Ramdas Pophale) SiO2 
 PCOD8122510
Probable space group: P 2/C
;
_chemical_formula_sum "Si O2"
_cell_formula_units_Z 30
_cell_length_a 13.784181
_cell_length_b 11.092094
_cell_length_c 16.487315
_cell_angle_alpha 90.000000
_cell_angle_beta 147.792739
_cell_angle_gamma 90.000000
_cell_volume 1343.563557
_symmetry_space_group_name_H-M "P 2/C"
_symmetry_group_IT_number 13
_symmetry_cell_setting 'monoclinic'
loop_
_space_group_symop_operation_xyz
x,y,z
-x,y,1/2-z
-x,-y,-z
x,-y,1/2+z
loop_
_atom_site_type_symbol
_atom_site_label
_atom_site_fract_x
_atom_site_fract_y
_atom_site_fract_z
Si Si1 0.000000 0.037543 0.750000
Si Si2 0.218298 0.254174 0.214507
Si Si3 0.969563 0.210545 0.576610
Si Si4 0.160104 0.442031 0.927329
Si Si5 0.697206 0.844529 0.567229
Si Si6 0.536922 0.480528 0.119052
Si Si7 0.846664 0.700379 0.533945
Si Si8 0.654558 0.251963 0.743368
O O1 0.957604 0.113383 0.639356
O O2 0.815738 0.963812 0.636277
O O3 0.345117 0.178453 0.366396
O O4 0.301313 0.384437 0.250604
O O5 0.157085 0.178260 0.091436
O O6 0.049648 0.264952 0.155989
O O7 0.885082 0.333292 0.547050
O O8 0.176420 0.233530 0.697419
O O9 0.000000 0.461614 0.750000
O O10 0.355747 0.418963 0.026002
O O11 0.175664 0.558378 0.995056
O O12 0.801858 0.735463 0.594849
O O13 0.495707 0.848673 0.385434
O O14 0.580446 0.610920 0.186957
O O15 0.500000 0.500000 0.000000
O O16 0.711964 0.770093 0.376965
#
# Coordination Sequence:
#
# PCOD8122510 Si02
#       8
#     2   4   4   4   4   4   4   4
#     4  12  28  50  74  94 136 194 254 298 352 408
#     4  11  23  41  69 104 138 180 231 286 357 428
#     4  11  27  47  68  99 146 190 231 294 361 421
#     4  12  23  39  69 102 152 188 223 279 363 431
#     4  12  23  44  74  98 132 184 244 295 349 408
#     4  12  22  37  69 111 150 180 225 282 356 443
#     4  11  21  41  69 107 139 176 226 292 360 424
#     4  11  24  42  70 107 142 179 234 292 359 435
#
# _framework density 22.328681
#
# number of rings (size 3 to 8) (size 9 to 14) (size 15 to 20)
#    0.000    0.533    4.667    4.400    0.000    4.800 
#    0.000    0.000    5.867    0.000    0.000    0.000 
#    0.000    0.000    0.000    0.000    0.000    0.000 
#
# Total GULP energy -371837.678716 kJ/mol
# GULP energy per Si atom -12394.589291 kJ/mol
# Density = 2.227786 g / cm^3
# Si number density = 22.328681 Si / 1000 Ang^3
#
#
#
# Elastic Constant Matrix: (Units=GPa)
#
#
# Indices 1 2 3 4 5 6 
#
# 1 90.9337 32.7886 45.2196 0.0000 -24.1725 0.0000
# 2 32.7886 85.1796 31.2050 0.0000 -20.9136 0.0000
# 3 45.2196 31.2050 132.4846 0.0000 -16.7580 0.0000
# 4 0.0000 0.0000 0.0000 -41.1236 0.0000 -32.4656
# 5 -24.1725 -20.9136 -16.7580 0.0000 33.0542 0.0000
# 6 0.0000 0.0000 0.0000 -32.4656 0.0000 12.8437
#
#
#
# Elastic Compliance Matrix: (Units=1/GPa)
#
#
# Indices 1 2 3 4 5 6 
#
# 1 0.016030 -0.002811 -0.003795 0.000000 0.008020 0.000000
# 2 -0.002811 0.015086 -0.001759 0.000000 0.006598 0.000000
# 3 -0.003795 -0.001759 0.009366 0.000000 0.000860 0.000000
# 4 0.000000 0.000000 0.000000 -0.008118 0.000000 -0.020519
# 5 0.008020 0.006598 0.000860 0.000000 0.040729 0.000000
# 6 0.000000 0.000000 0.000000 -0.020519 0.000000 0.025991
#
#
# Mechanical properties :
#
#
# Convention : Reuss Voigt Hill
#
# Bulk Modulus (GPa) = 42.10146 58.55824 50.32985
# Shear Modulus (GPa) = 40.40969 14.24719 27.32844
#
# Velocity S-wave (km/s) = 4.25875 2.52874 3.50225
# Velocity P-wave (km/s) = 6.56345 5.89988 6.24049
#
# Compressibility (1/GPa) = 0.02375215
#
# Stress axis : x y z
#
# Youngs Moduli (GPa) = 62.38481 66.28492 106.76377
#
# Poissons Ratio (x) = 0.18633 0.40513
# Poissons Ratio (y) = 0.17537 0.18784
# Poissons Ratio (z) = 0.23673 0.11662
#
# Static dielectric constant tensor:
#      x y z
#    x 4.243890 0.000000 -0.099560 
#    y 0.000000 3.816210 0.000000 
#    z -0.099560 0.000000 4.575430 
# 
# 
# High freq. dielectric constant tensor:
#      x y z
#    x 1.893550 0.000000 -0.005550 
#    y 0.000000 1.845680 0.000000 
#    z -0.005550 0.000000 1.903380 
# 
# From -- ./inp_files/68560.got.cif
#   From: 2010.06.25/outbox.cif.g09.slc.cpg/sg13_35_cif.got.tgz:68560.got - 2010.06.28 04:50:58.
