data_PCOD8122916
_publ_section_title
;
Structure prediction by ZEFSAII (Michael W. Deem and Ramdas Pophale) SiO2 
 PCOD8122916
Probable space group: P 2/C
;
_chemical_formula_sum "Si O2"
_cell_formula_units_Z 24
_cell_length_a 23.790563
_cell_length_b 7.473620
_cell_length_c 9.653429
_cell_angle_alpha 90.000000
_cell_angle_beta 43.599004
_cell_angle_gamma 90.000000
_cell_volume 1183.638196
_symmetry_space_group_name_H-M "P 2/C"
_symmetry_group_IT_number 13
_symmetry_cell_setting 'monoclinic'
loop_
_space_group_symop_operation_xyz
x,y,z
-x,y,1/2-z
-x,-y,-z
x,-y,1/2+z
loop_
_atom_site_type_symbol
_atom_site_label
_atom_site_fract_x
_atom_site_fract_y
_atom_site_fract_z
Si Si1 0.443962 0.962811 0.229420
Si Si2 0.821466 0.148515 0.705453
Si Si3 0.004113 0.829422 0.586295
Si Si4 0.663560 0.643111 0.177431
Si Si5 0.170308 0.801203 0.625451
Si Si6 0.347304 0.686939 0.983173
O O1 0.500000 0.879403 0.250000
O O2 0.373232 0.825599 0.316942
O O3 0.405454 0.146230 0.353254
O O4 0.500000 0.000000 0.000000
O O5 0.905652 0.257787 0.595267
O O6 0.815502 0.112874 0.551579
O O7 0.819559 0.955104 0.779226
O O8 0.745526 0.265542 0.890578
O O9 0.000000 0.899535 0.750000
O O10 0.921851 0.713161 0.700495
O O11 0.000000 0.000000 0.500000
O O12 0.643552 0.622733 0.375042
O O13 0.625539 0.474012 0.165850
O O14 0.761099 0.650041 0.974129
#
# Coordination Sequence:
#
# PCOD8122916 Si02
#       6
#     4   4   4   4   4   4
#     4  12  26  46  68  92 121 157 200 250 314 371
#     4   9  17  32  56  85 120 158 200 244 294 350
#     4   8  14  26  49  82 116 154 198 242 286 343
#     4  11  25  42  64  93 126 162 201 250 302 364
#     4   9  17  32  56  85 119 159 200 244 295 347
#     4  11  25  42  64  94 125 162 203 246 305 362
#
# _framework density 20.276467
#
# number of rings (size 3 to 8) (size 9 to 14) (size 15 to 20)
#    0.000    2.000    3.333    0.000    2.333    2.667 
#    0.000    0.833    0.000    0.000    0.000    0.000 
#    0.000    0.000    0.000    0.000    0.000    0.000 
#
# Total GULP energy -297357.627336 kJ/mol
# GULP energy per Si atom -12389.901139 kJ/mol
# Density = 2.023032 g / cm^3
# Si number density = 20.276467 Si / 1000 Ang^3
#
#
#
# Elastic Constant Matrix: (Units=GPa)
#
#
# Indices 1 2 3 4 5 6 
#
# 1 107.2704 27.2986 35.8628 0.0000 -3.6451 0.0000
# 2 27.2986 58.4795 14.2268 0.0000 3.1161 0.0000
# 3 35.8628 14.2268 83.5128 0.0000 -9.8509 0.0000
# 4 0.0000 0.0000 0.0000 18.8460 0.0000 9.1466
# 5 -3.6451 3.1161 -9.8509 0.0000 33.4064 0.0000
# 6 0.0000 0.0000 0.0000 9.1466 0.0000 18.5641
#
#
#
# Elastic Compliance Matrix: (Units=1/GPa)
#
#
# Indices 1 2 3 4 5 6 
#
# 1 0.011931 -0.004549 -0.004294 0.000000 0.000460 0.000000
# 2 -0.004549 0.019804 -0.001758 0.000000 -0.002862 0.000000
# 3 -0.004294 -0.001758 0.014589 0.000000 0.003997 0.000000
# 4 0.000000 0.000000 0.000000 0.069738 0.000000 -0.034360
# 5 0.000460 -0.002862 0.003997 0.000000 0.031430 0.000000
# 6 0.000000 0.000000 0.000000 -0.034360 0.000000 0.070797
#
#
# Mechanical properties :
#
#
# Convention : Reuss Voigt Hill
#
# Bulk Modulus (GPa) = 39.80638 44.89323 42.34981
# Shear Modulus (GPa) = 20.17224 25.62160 22.89692
#
# Velocity S-wave (km/s) = 3.15756 3.55859 3.36406
# Velocity P-wave (km/s) = 5.74178 6.25087 6.00172
#
# Compressibility (1/GPa) = 0.02512160
#
# Stress axis : x y z
#
# Youngs Moduli (GPa) = 83.81303 50.49545 68.54339
#
# Poissons Ratio (x) = 0.22972 0.29435
# Poissons Ratio (y) = 0.38130 0.12047
# Poissons Ratio (z) = 0.35993 0.08875
#
# Static dielectric constant tensor:
#      x y z
#    x 4.138110 0.000000 -0.346380 
#    y 0.000000 3.186270 0.000000 
#    z -0.346380 0.000000 3.963810 
# 
# 
# High freq. dielectric constant tensor:
#      x y z
#    x 1.818750 0.000000 -0.010250 
#    y 0.000000 1.738530 0.000000 
#    z -0.010250 0.000000 1.809690 
# 
# From -- ./inp_files/22697.got.cif
#   From: 2010.06.25/outbox.cif.g09.slc.cpg/sg13_12_cif.got.tgz:22697.got - 2010.06.28 04:50:58.
