data_PCOD8122316
_publ_section_title
;
Structure prediction by ZEFSAII (Michael W. Deem and Ramdas Pophale) SiO2 
 PCOD8122316
Probable space group: P 2/C
;
_chemical_formula_sum "Si O2"
_cell_formula_units_Z 20
_cell_length_a 7.334083
_cell_length_b 4.849760
_cell_length_c 20.728985
_cell_angle_alpha 90.000000
_cell_angle_beta 102.580981
_cell_angle_gamma 90.000000
_cell_volume 719.596564
_symmetry_space_group_name_H-M "P 2/C"
_symmetry_group_IT_number 13
_symmetry_cell_setting 'monoclinic'
loop_
_space_group_symop_operation_xyz
x,y,z
-x,y,1/2-z
-x,-y,-z
x,-y,1/2+z
loop_
_atom_site_type_symbol
_atom_site_label
_atom_site_fract_x
_atom_site_fract_y
_atom_site_fract_z
Si Si1 0.845196 0.828841 0.342507
Si Si2 0.135773 0.946790 0.951563
Si Si3 0.721447 0.670983 0.758905
Si Si4 0.298302 0.515413 0.883938
Si Si5 0.449834 0.991595 0.072890
O O1 0.819255 0.515372 0.320566
O O2 0.705493 0.900586 0.388990
O O3 0.800302 0.022115 0.277193
O O4 0.059021 0.861380 0.385775
O O5 0.146015 0.631821 0.925164
O O6 0.348936 0.001280 0.993866
O O7 0.000000 0.000000 0.000000
O O8 0.500000 0.662151 0.750000
O O9 0.784505 0.554506 0.694276
O O10 0.366604 0.207158 0.905735
O O11 0.484836 0.704313 0.902524
#
# Coordination Sequence:
#
# PCOD8122316 Si02
#       5
#     4   4   4   4   4
#     4  11  23  43  68 102 137 184 224 302 360 422
#     4  10  26  46  68 101 145 185 235 290 360 417
#     4  12  22  41  72 100 138 177 243 290 358 430
#     4  12  24  42  71 102 134 186 237 292 350 425
#     4  11  22  43  71 100 136 180 239 289 348 428
#
# _framework density 27.79335
#
# number of rings (size 3 to 8) (size 9 to 14) (size 15 to 20)
#    0.000    0.800    4.000    3.000    0.000    4.000 
#    0.000   11.000    0.000    0.000    0.000    0.000 
#    0.000    0.000    0.000    0.000    0.000    0.000 
#
# Total GULP energy -248013.313336 kJ/mol
# GULP energy per Si atom -12400.665667 kJ/mol
# Density = 2.773009 g / cm^3
# Si number density = 27.793350 Si / 1000 Ang^3
#
#
#
# Elastic Constant Matrix: (Units=GPa)
#
#
# Indices 1 2 3 4 5 6 
#
# 1 163.1863 8.2789 53.1091 0.0000 20.8570 0.0000
# 2 8.2789 69.7127 21.3048 0.0000 14.0203 0.0000
# 3 53.1091 21.3048 166.1497 0.0000 12.3571 0.0000
# 4 0.0000 0.0000 0.0000 51.1689 0.0000 -7.6498
# 5 20.8570 14.0203 12.3571 0.0000 54.7375 0.0000
# 6 0.0000 0.0000 0.0000 -7.6498 0.0000 26.2851
#
#
#
# Elastic Compliance Matrix: (Units=1/GPa)
#
#
# Indices 1 2 3 4 5 6 
#
# 1 0.007102 0.000270 -0.002134 0.000000 -0.002293 0.000000
# 2 0.000270 0.015609 -0.001813 0.000000 -0.003692 0.000000
# 3 -0.002134 -0.001813 0.006955 0.000000 -0.000292 0.000000
# 4 0.000000 0.000000 0.000000 0.020432 0.000000 0.005946
# 5 -0.002293 -0.003692 -0.000292 0.000000 0.020155 0.000000
# 6 0.000000 0.000000 0.000000 0.005946 0.000000 0.039775
#
#
# Mechanical properties :
#
#
# Convention : Reuss Voigt Hill
#
# Bulk Modulus (GPa) = 44.82005 62.71491 53.76748
# Shear Modulus (GPa) = 40.05781 47.52870 43.79326
#
# Velocity S-wave (km/s) = 3.80053 4.13979 3.97378
# Velocity P-wave (km/s) = 5.95146 6.74271 6.35941
#
# Compressibility (1/GPa) = 0.02231144
#
# Stress axis : x y z
#
# Youngs Moduli (GPa) = 140.80613 64.06516 143.77922
#
# Poissons Ratio (x) = -0.01730 0.30685
# Poissons Ratio (y) = -0.03803 0.26071
# Poissons Ratio (z) = 0.30050 0.11617
#
# Static dielectric constant tensor:
#      x y z
#    x 5.599380 0.000000 0.338460 
#    y 0.000000 4.802300 0.000000 
#    z 0.338460 0.000000 5.729420 
# 
# 
# High freq. dielectric constant tensor:
#      x y z
#    x 2.165960 0.000000 0.004300 
#    y 0.000000 2.115240 0.000000 
#    z 0.004300 0.000000 2.155340 
# 
# From -- ./inp_files/84176.got.cif
#   From: 2010.06.25/outbox.cif.g09.slc.cpg/sg13_43_cif.got.tgz:84176.got - 2010.06.28 04:50:58.
