data_PCOD8122881
_publ_section_title
;
Structure prediction by ZEFSAII (Michael W. Deem and Ramdas Pophale) SiO2 
 PCOD8122881
Probable space group: P 2/C
;
_chemical_formula_sum "Si O2"
_cell_formula_units_Z 18
_cell_length_a 6.626540
_cell_length_b 7.362667
_cell_length_c 20.321562
_cell_angle_alpha 90.000000
_cell_angle_beta 55.108798
_cell_angle_gamma 90.000000
_cell_volume 813.242124
_symmetry_space_group_name_H-M "P 2/C"
_symmetry_group_IT_number 13
_symmetry_cell_setting 'monoclinic'
loop_
_space_group_symop_operation_xyz
x,y,z
-x,y,1/2-z
-x,-y,-z
x,-y,1/2+z
loop_
_atom_site_type_symbol
_atom_site_label
_atom_site_fract_x
_atom_site_fract_y
_atom_site_fract_z
Si Si1 0.284882 0.679129 0.407805
Si Si2 0.565032 0.977156 0.413748
Si Si3 0.079001 0.130680 0.302243
Si Si4 0.200451 0.267058 0.421006
Si Si5 0.500000 0.876764 0.250000
O O1 0.321768 0.464406 0.405509
O O2 0.318518 0.752321 0.327286
O O3 0.026194 0.748437 0.486085
O O4 0.504940 0.768817 0.407764
O O5 0.400300 0.114262 0.399707
O O6 0.854954 0.995022 0.354799
O O7 0.500000 0.000000 0.500000
O O8 0.115885 0.252908 0.360224
O O9 0.000000 0.243281 0.250000
O O10 0.321153 0.008802 0.240696
#
# Coordination Sequence:
#
# PCOD8122881 Si02
#       5
#     4   4   4   4   2
#     4  11  24  45  72 102 142 181 227 292 353 416
#     4  12  23  43  74  99 137 188 233 287 347 428
#     4  12  23  42  73 100 135 191 238 285 354 417
#     4  11  25  47  70 103 144 182 232 292 355 416
#     4  12  24  44  70 102 142 182 232 292 354 412
#
# _framework density 22.133631999999999
#
# number of rings (size 3 to 8) (size 9 to 14) (size 15 to 20)
#    0.000    0.444    6.667    2.000    0.000    3.556 
#    4.000    1.111    4.889    0.000    0.000    0.000 
#    0.000    0.000    0.000    0.000    0.000    0.000 
#
# Total GULP energy -223071.836860 kJ/mol
# GULP energy per Si atom -12392.879826 kJ/mol
# Density = 2.208325 g / cm^3
# Si number density = 22.133632 Si / 1000 Ang^3
#
#
#
# Elastic Constant Matrix: (Units=GPa)
#
#
# Indices 1 2 3 4 5 6 
#
# 1 127.2921 56.7396 49.6810 0.0000 6.2547 0.0000
# 2 56.7396 120.1409 45.4857 0.0000 -4.0976 0.0000
# 3 49.6810 45.4857 146.8264 0.0000 6.8218 0.0000
# 4 0.0000 0.0000 0.0000 25.9692 0.0000 5.8672
# 5 6.2547 -4.0976 6.8218 0.0000 55.2994 0.0000
# 6 0.0000 0.0000 0.0000 5.8672 0.0000 29.7711
#
#
#
# Elastic Compliance Matrix: (Units=1/GPa)
#
#
# Indices 1 2 3 4 5 6 
#
# 1 0.010682 -0.004238 -0.002244 0.000000 -0.001245 0.000000
# 2 -0.004238 0.011174 -0.002100 0.000000 0.001566 0.000000
# 3 -0.002244 -0.002100 0.008263 0.000000 -0.000921 0.000000
# 4 0.000000 0.000000 0.000000 0.040302 0.000000 -0.007942
# 5 -0.001245 0.001566 -0.000921 0.000000 0.018454 0.000000
# 6 0.000000 0.000000 0.000000 -0.007942 0.000000 0.035155
#
#
# Mechanical properties :
#
#
# Convention : Reuss Voigt Hill
#
# Bulk Modulus (GPa) = 77.18891 77.56355 77.37623
# Shear Modulus (GPa) = 34.36163 38.36481 36.36322
#
# Velocity S-wave (km/s) = 3.94440 4.16784 4.05766
# Velocity P-wave (km/s) = 7.46285 7.63417 7.54900
#
# Compressibility (1/GPa) = 0.01295523
#
# Stress axis : x y z
#
# Youngs Moduli (GPa) = 93.61743 89.49693 121.01532
#
# Poissons Ratio (x) = 0.37927 0.27152
# Poissons Ratio (y) = 0.39673 0.25417
# Poissons Ratio (z) = 0.21005 0.18798
#
# Static dielectric constant tensor:
#      x y z
#    x 4.221580 0.000000 0.039590 
#    y 0.000000 3.755030 0.000000 
#    z 0.039590 0.000000 4.446530 
# 
# 
# High freq. dielectric constant tensor:
#      x y z
#    x 1.874250 0.000000 0.003030 
#    y 0.000000 1.841390 0.000000 
#    z 0.003030 0.000000 1.914090 
# 
# From -- ./inp_files/72925.got.cif
#   From: 2010.06.25/outbox.cif.g09.slc.cpg/sg13_37_cif.got.tgz:72925.got - 2010.06.28 04:50:58.
