data_PCOD8122999
_publ_section_title
;
Structure prediction by ZEFSAII (Michael W. Deem and Ramdas Pophale) SiO2 
 PCOD8122999
Probable space group: P 2/C
;
_chemical_formula_sum "Si O2"
_cell_formula_units_Z 20
_cell_length_a 11.707958
_cell_length_b 5.005411
_cell_length_c 22.166956
_cell_angle_alpha 90.000000
_cell_angle_beta 36.314515
_cell_angle_gamma 90.000000
_cell_volume 769.321855
_symmetry_space_group_name_H-M "P 2/C"
_symmetry_group_IT_number 13
_symmetry_cell_setting 'monoclinic'
loop_
_space_group_symop_operation_xyz
x,y,z
-x,y,1/2-z
-x,-y,-z
x,-y,1/2+z
loop_
_atom_site_type_symbol
_atom_site_label
_atom_site_fract_x
_atom_site_fract_y
_atom_site_fract_z
Si Si1 0.679647 0.632186 0.213773
Si Si2 0.354443 0.899141 0.958351
Si Si3 0.171218 0.594142 0.596623
Si Si4 0.736685 0.376422 0.308487
Si Si5 0.195208 0.866738 0.897918
O O1 0.500000 0.541202 0.250000
O O2 0.648222 0.591366 0.298800
O O3 0.839199 0.425941 0.117243
O O4 0.724653 0.943457 0.189230
O O5 0.201684 0.676239 0.046180
O O6 0.297953 0.179654 0.011452
O O7 0.579435 0.859858 0.879545
O O8 0.342545 0.892090 0.890976
O O9 0.244804 0.512211 0.631923
O O10 0.950169 0.699409 0.693062
O O11 0.000000 0.000000 0.000000
#
# Coordination Sequence:
#
# PCOD8122999 Si02
#       5
#     4   4   4   4   4
#     4  12  25  44  68 101 136 181 233 281 355 416
#     4  12  25  47  72 106 145 186 237 294 355 420
#     4  11  27  46  72 110 138 190 240 290 353 425
#     4  11  26  47  75 102 149 186 237 296 353 421
#     4  12  25  44  70 101 139 182 234 292 348 421
#
# _framework density 25.996922000000001
#
# number of rings (size 3 to 8) (size 9 to 14) (size 15 to 20)
#    0.000    0.400    2.000    6.000    0.000    6.400 
#    0.000    0.000    0.000    0.000    0.000    0.000 
#    0.000    0.000    0.000    0.000    0.000    0.000 
#
# Total GULP energy -247916.983936 kJ/mol
# GULP energy per Si atom -12395.849197 kJ/mol
# Density = 2.593775 g / cm^3
# Si number density = 25.996922 Si / 1000 Ang^3
#
#
#
# Elastic Constant Matrix: (Units=GPa)
#
#
# Indices 1 2 3 4 5 6 
#
# 1 121.4352 16.5733 10.8490 0.0000 11.3969 0.0000
# 2 16.5733 93.7138 23.4741 0.0000 20.0045 0.0000
# 3 10.8490 23.4741 86.4349 0.0000 0.9999 0.0000
# 4 0.0000 0.0000 0.0000 21.9630 0.0000 2.9578
# 5 11.3969 20.0045 0.9999 0.0000 48.1380 0.0000
# 6 0.0000 0.0000 0.0000 2.9578 0.0000 20.2896
#
#
#
# Elastic Compliance Matrix: (Units=1/GPa)
#
#
# Indices 1 2 3 4 5 6 
#
# 1 0.008590 -0.000976 -0.000794 0.000000 -0.001612 0.000000
# 2 -0.000976 0.012730 -0.003277 0.000000 -0.004991 0.000000
# 3 -0.000794 -0.003277 0.012544 0.000000 0.001289 0.000000
# 4 0.000000 0.000000 0.000000 0.046443 0.000000 -0.006770
# 5 -0.001612 -0.004991 0.001289 0.000000 0.023202 0.000000
# 6 0.000000 0.000000 0.000000 -0.006770 0.000000 0.050273
#
#
# Mechanical properties :
#
#
# Convention : Reuss Voigt Hill
#
# Bulk Modulus (GPa) = 42.07155 44.81964 43.44559
# Shear Modulus (GPa) = 29.10349 34.79061 31.94705
#
# Velocity S-wave (km/s) = 3.34952 3.66219 3.50934
# Velocity P-wave (km/s) = 5.58368 5.92958 5.75923
#
# Compressibility (1/GPa) = 0.02376903
#
# Stress axis : x y z
#
# Youngs Moduli (GPa) = 116.41030 78.55719 79.71852
#
# Poissons Ratio (x) = 0.07669 0.06333
# Poissons Ratio (y) = 0.11364 0.26123
# Poissons Ratio (z) = 0.09248 0.25742
#
# Static dielectric constant tensor:
#      x y z
#    x 3.985280 0.000000 -1.653240 
#    y 0.000000 2.650370 0.000000 
#    z -1.653240 0.000000 2.465980 
# 
# 
# High freq. dielectric constant tensor:
#      x y z
#    x 2.057410 0.000000 0.005760 
#    y 0.000000 2.027450 0.000000 
#    z 0.005760 0.000000 2.058780 
# 
# From -- ./inp_files/77356.got.cif
#   From: 2010.06.25/outbox.cif.g09.slc.cpg/sg13_39_cif.got.tgz:77356.got - 2010.06.28 04:50:58.
