data_PCOD8122551
_publ_section_title
;
Structure prediction by ZEFSAII (Michael W. Deem and Ramdas Pophale) SiO2 
 PCOD8122551
Probable space group: P 2/C
;
_chemical_formula_sum "Si O2"
_cell_formula_units_Z 16
_cell_length_a 8.405643
_cell_length_b 18.015340
_cell_length_c 9.424983
_cell_angle_alpha 90.000000
_cell_angle_beta 147.167527
_cell_angle_gamma 90.000000
_cell_volume 773.822041
_symmetry_space_group_name_H-M "P 2/C"
_symmetry_group_IT_number 13
_symmetry_cell_setting 'monoclinic'
loop_
_space_group_symop_operation_xyz
x,y,z
-x,y,1/2-z
-x,-y,-z
x,-y,1/2+z
loop_
_atom_site_type_symbol
_atom_site_label
_atom_site_fract_x
_atom_site_fract_y
_atom_site_fract_z
Si Si1 0.192006 0.290148 0.251572
Si Si2 0.822959 0.946428 0.469069
Si Si3 0.311955 0.214636 0.741210
Si Si4 0.195696 0.541551 0.758577
O O1 0.480592 0.236536 0.470418
O O2 0.277980 0.374255 0.278925
O O3 0.000000 0.283066 0.250000
O O4 0.991205 0.259757 0.972741
O O5 0.500000 0.982250 0.250000
O O6 0.764613 0.871635 0.336115
O O7 0.000000 0.000000 0.500000
O O8 0.000000 0.932102 0.750000
O O9 0.500000 0.244805 0.750000
O O10 0.000000 0.541728 0.750000
O O11 0.000000 0.500000 0.500000
O O12 0.500000 0.500000 0.000000
#
# Coordination Sequence:
#
# PCOD8122551 Si02
#       4
#     4   4   4   4
#     4   9  17  30  52  79 104 137 187 236 269 314
#     4  11  22  37  59  87 117 151 189 238 291 344
#     4   9  16  30  52  79 105 137 187 236 270 314
#     4  11  22  37  58  85 115 149 187 234 286 340
#
# _framework density 20.676587000000001
#
# number of rings (size 3 to 8) (size 9 to 14) (size 15 to 20)
#    0.000    2.000    0.000    6.750    0.000    4.000 
#    0.000    0.000    0.000   15.000    0.000    0.000 
#    0.000    0.000    0.000    0.000    0.000    0.000 
#
# Total GULP energy -198226.343196 kJ/mol
# GULP energy per Si atom -12389.146450 kJ/mol
# Density = 2.062953 g / cm^3
# Si number density = 20.676587 Si / 1000 Ang^3
#
#
#
# Elastic Constant Matrix: (Units=GPa)
#
#
# Indices 1 2 3 4 5 6 
#
# 1 49.3204 51.8556 34.3887 0.0000 18.9720 0.0000
# 2 51.8556 163.3089 97.1287 0.0000 21.4628 0.0000
# 3 34.3887 97.1287 195.4846 0.0000 35.8045 0.0000
# 4 0.0000 0.0000 0.0000 43.6331 0.0000 10.9093
# 5 18.9720 21.4628 35.8045 0.0000 32.4086 0.0000
# 6 0.0000 0.0000 0.0000 10.9093 0.0000 29.3827
#
#
#
# Elastic Compliance Matrix: (Units=1/GPa)
#
#
# Indices 1 2 3 4 5 6 
#
# 1 0.036275 -0.010442 0.001793 0.000000 -0.016300 0.000000
# 2 -0.010442 0.011738 -0.004627 0.000000 0.003452 0.000000
# 3 0.001793 -0.004627 0.008437 0.000000 -0.007307 0.000000
# 4 0.000000 0.000000 0.000000 0.025264 0.000000 -0.009380
# 5 -0.016300 0.003452 -0.007307 0.000000 0.046185 0.000000
# 6 0.000000 0.000000 0.000000 -0.009380 0.000000 0.037516
#
#
# Mechanical properties :
#
#
# Convention : Reuss Voigt Hill
#
# Bulk Modulus (GPa) = 33.44904 86.09553 59.77228
# Shear Modulus (GPa) = 24.76061 36.06760 30.41410
#
# Velocity S-wave (km/s) = 3.46427 4.18110 3.83945
# Velocity P-wave (km/s) = 5.67573 8.06463 6.97324
#
# Compressibility (1/GPa) = 0.02989622
#
# Stress axis : x y z
#
# Youngs Moduli (GPa) = 27.56716 85.19689 118.51901
#
# Poissons Ratio (x) = 0.88966 -0.21246
# Poissons Ratio (y) = 0.28787 0.54841
# Poissons Ratio (z) = -0.04942 0.39422
#
# Static dielectric constant tensor:
#      x y z
#    x 3.302800 0.000000 0.320810 
#    y 0.000000 3.789800 0.000000 
#    z 0.320810 0.000000 4.371210 
# 
# 
# High freq. dielectric constant tensor:
#      x y z
#    x 1.754640 0.000000 0.028620 
#    y 0.000000 1.815830 0.000000 
#    z 0.028620 0.000000 1.838320 
# 
# From -- ./inp_files/9103.got.cif
#   From: 2010.06.25/outbox.cif.g09.slc.cpg/sg13_5_cif.got.tgz:9103.got - 2010.06.28 04:50:58.
