data_PCOD8122149
_publ_section_title
;
Structure prediction by ZEFSAII (Michael W. Deem and Ramdas Pophale) SiO2 
 PCOD8122149
Probable space group: P 2/C
;
_chemical_formula_sum "Si O2"
_cell_formula_units_Z 16
_cell_length_a 9.640615
_cell_length_b 12.148332
_cell_length_c 12.273304
_cell_angle_alpha 90.000000
_cell_angle_beta 26.258754
_cell_angle_gamma 90.000000
_cell_volume 635.950399
_symmetry_space_group_name_H-M "P 2/C"
_symmetry_group_IT_number 13
_symmetry_cell_setting 'monoclinic'
loop_
_space_group_symop_operation_xyz
x,y,z
-x,y,1/2-z
-x,-y,-z
x,-y,1/2+z
loop_
_atom_site_type_symbol
_atom_site_label
_atom_site_fract_x
_atom_site_fract_y
_atom_site_fract_z
Si Si1 0.401941 0.815197 0.693849
Si Si2 0.279248 0.246377 0.809269
Si Si3 0.368721 0.046757 0.968243
Si Si4 0.280572 0.399666 0.625919
O O1 0.500000 0.830733 0.750000
O O2 0.557309 0.701834 0.548364
O O3 0.506775 0.932811 0.565290
O O4 0.032597 0.813805 0.928967
O O5 0.500000 0.291713 0.750000
O O6 0.479602 0.161313 0.590687
O O7 0.158016 0.351391 0.826584
O O8 0.500000 0.057982 0.750000
O O9 0.000000 0.050052 0.250000
O O10 0.500000 0.500000 0.500000
O O11 0.000000 0.446181 0.750000
#
# Coordination Sequence:
#
# PCOD8122149 Si02
#       4
#     4   4   4   4
#     4  11  24  48  75 109 153 201 252 312 388 458
#     4  11  27  47  74 114 151 199 249 317 385 461
#     4  10  24  44  77 117 159 202 251 312 386 466
#     4  12  29  49  77 106 147 202 262 320 382 452
#
# _framework density 25.159196999999999
#
# number of rings (size 3 to 8) (size 9 to 14) (size 15 to 20)
#    0.000    1.000    2.500    1.500   14.000    3.000 
#    0.000    0.000    0.000    0.000    0.000    0.000 
#    0.000    0.000    0.000    0.000    0.000    0.000 
#
# Total GULP energy -198313.484780 kJ/mol
# GULP energy per Si atom -12394.592799 kJ/mol
# Density = 2.510193 g / cm^3
# Si number density = 25.159197 Si / 1000 Ang^3
#
#
#
# Elastic Constant Matrix: (Units=GPa)
#
#
# Indices 1 2 3 4 5 6 
#
# 1 147.3404 56.8342 33.8968 0.0000 -33.9207 0.0000
# 2 56.8342 173.5013 39.5045 0.0000 -12.8907 0.0000
# 3 33.8968 39.5045 151.4653 0.0000 -38.2572 0.0000
# 4 0.0000 0.0000 0.0000 19.3121 0.0000 -42.1165
# 5 -33.9207 -12.8907 -38.2572 0.0000 47.8121 0.0000
# 6 0.0000 0.0000 0.0000 -42.1165 0.0000 -10.9545
#
#
#
# Elastic Compliance Matrix: (Units=1/GPa)
#
#
# Indices 1 2 3 4 5 6 
#
# 1 0.009101 -0.002572 0.000113 0.000000 0.005853 0.000000
# 2 -0.002572 0.006863 -0.001514 0.000000 -0.001186 0.000000
# 3 0.000113 -0.001514 0.008634 0.000000 0.006580 0.000000
# 4 0.000000 0.000000 0.000000 0.005518 0.000000 -0.021214
# 5 0.005853 -0.001186 0.006580 0.000000 0.030013 0.000000
# 6 0.000000 0.000000 0.000000 -0.021214 0.000000 -0.009727
#
#
# Mechanical properties :
#
#
# Convention : Reuss Voigt Hill
#
# Bulk Modulus (GPa) = 60.05677 81.41977 70.73827
# Shear Modulus (GPa) = 78.25027 34.03871 56.14449
#
# Velocity S-wave (km/s) = 5.58297 3.68221 4.72907
# Velocity P-wave (km/s) = 8.09209 7.10706 7.61552
#
# Compressibility (1/GPa) = 0.01665091
#
# Stress axis : x y z
#
# Youngs Moduli (GPa) = 109.88164 145.71512 115.82346
#
# Poissons Ratio (x) = 0.37476 -0.01303
# Poissons Ratio (y) = 0.28260 0.17533
# Poissons Ratio (z) = -0.01236 0.22058
#
# Static dielectric constant tensor:
#      x y z
#    x -1.611620 0.000000 1.253200 
#    y 0.000000 4.794650 0.000000 
#    z 1.253200 0.000000 4.362900 
# 
# 
# High freq. dielectric constant tensor:
#      x y z
#    x 2.047440 0.000000 0.013300 
#    y 0.000000 2.018140 0.000000 
#    z 0.013300 0.000000 2.001440 
# 
# From -- ./inp_files/51043.got.cif
#   From: 2010.06.25/outbox.cif.g09.slc.cpg/sg13_26_cif.got.tgz:51043.got - 2010.06.28 04:50:58.
