data_PCOD8122708
_publ_section_title
;
Structure prediction by ZEFSAII (Michael W. Deem and Ramdas Pophale) SiO2 
 PCOD8122708
Probable space group: P 2/C
;
_chemical_formula_sum "Si O2"
_cell_formula_units_Z 28
_cell_length_a 29.832939
_cell_length_b 8.880453
_cell_length_c 29.403616
_cell_angle_alpha 90.000000
_cell_angle_beta 9.837217
_cell_angle_gamma 90.000000
_cell_volume 1330.900924
_symmetry_space_group_name_H-M "P 2/C"
_symmetry_group_IT_number 13
_symmetry_cell_setting 'monoclinic'
loop_
_space_group_symop_operation_xyz
x,y,z
-x,y,1/2-z
-x,-y,-z
x,-y,1/2+z
loop_
_atom_site_type_symbol
_atom_site_label
_atom_site_fract_x
_atom_site_fract_y
_atom_site_fract_z
Si Si1 0.000000 0.702245 0.250000
Si Si2 0.672943 0.931058 0.619764
Si Si3 0.500000 0.502208 0.750000
Si Si4 0.030827 0.199955 0.079553
Si Si5 0.493361 0.838672 0.984023
Si Si6 0.469501 0.994088 0.917283
Si Si7 0.830746 0.724011 0.962805
Si Si8 0.007335 0.328790 0.478691
O O1 0.917919 0.813946 0.374046
O O2 0.750129 0.601907 0.484540
O O3 0.500000 0.881630 0.750000
O O4 0.511456 0.911562 0.827384
O O5 0.756567 0.102980 0.530486
O O6 0.582133 0.390418 0.709910
O O7 0.024456 0.294287 0.133264
O O8 0.978791 0.312878 0.089870
O O9 0.815014 0.069574 0.296949
O O10 0.313239 0.122068 0.790762
O O11 0.244520 0.750539 0.249823
O O12 0.483185 0.860530 0.940121
O O13 0.746041 0.745766 0.744391
O O14 0.500000 0.000000 0.000000
O O15 0.000000 0.673898 0.750000
O O16 0.000000 0.500000 0.500000
#
# Coordination Sequence:
#
# PCOD8122708 Si02
#       8
#     2   4   2   4   4   4   4   4
#     4  12  26  44  64  96 142 174 208 290 344 388
#     4  11  23  43  71  99 136 175 231 281 335 392
#     4  12  26  44  64  98 138 182 222 270 344 398
#     4  11  23  41  69 104 133 173 231 286 330 396
#     4  12  22  45  72  96 133 177 230 280 331 403
#     4  11  24  39  73 106 127 174 239 285 331 397
#     4  11  23  42  73  97 132 183 240 267 322 415
#     4  12  25  45  68 102 143 178 218 284 352 403
#
# _framework density 21.03838
#
# number of rings (size 3 to 8) (size 9 to 14) (size 15 to 20)
#    0.000    0.571    5.714    2.571    4.000    0.000 
#    2.571    1.429    0.000    0.000    0.000    0.000 
#    0.000    0.000    0.000    0.000    0.000    0.000 
#
# Total GULP energy -347161.733654 kJ/mol
# GULP energy per Si atom -12398.633345 kJ/mol
# Density = 2.099050 g / cm^3
# Si number density = 21.038380 Si / 1000 Ang^3
#
#
#
# Elastic Constant Matrix: (Units=GPa)
#
#
# Indices 1 2 3 4 5 6 
#
# 1 196.2060 65.2712 54.4209 0.0000 7.5819 0.0000
# 2 65.2712 157.5431 67.6351 0.0000 -2.7538 0.0000
# 3 54.4209 67.6351 131.4548 0.0000 -4.1102 0.0000
# 4 0.0000 0.0000 0.0000 38.3260 0.0000 0.2541
# 5 7.5819 -2.7538 -4.1102 0.0000 34.8039 0.0000
# 6 0.0000 0.0000 0.0000 0.2541 0.0000 15.6226
#
#
#
# Elastic Compliance Matrix: (Units=1/GPa)
#
#
# Indices 1 2 3 4 5 6 
#
# 1 0.006259 -0.001909 -0.001662 0.000000 -0.001711 0.000000
# 2 -0.001909 0.008730 -0.003680 0.000000 0.000672 0.000000
# 3 -0.001662 -0.003680 0.010229 0.000000 0.001279 0.000000
# 4 0.000000 0.000000 0.000000 0.026095 0.000000 -0.000424
# 5 -0.001711 0.000672 0.001279 0.000000 0.029309 0.000000
# 6 0.000000 0.000000 0.000000 -0.000424 0.000000 0.064017
#
#
# Mechanical properties :
#
#
# Convention : Reuss Voigt Hill
#
# Bulk Modulus (GPa) = 93.33414 95.53981 94.43698
# Shear Modulus (GPa) = 30.72867 37.60895 34.16881
#
# Velocity S-wave (km/s) = 3.82593 4.23263 4.03441
# Velocity P-wave (km/s) = 7.99856 8.33052 8.16623
#
# Compressibility (1/GPa) = 0.01071419
#
# Stress axis : x y z
#
# Youngs Moduli (GPa) = 159.76841 114.54299 97.76219
#
# Poissons Ratio (x) = 0.21872 0.16250
# Poissons Ratio (y) = 0.30507 0.35980
# Poissons Ratio (z) = 0.26557 0.42156
#
# Static dielectric constant tensor:
#      x y z
#    x 4.111210 0.000000 -0.008560 
#    y 0.000000 3.578780 0.000000 
#    z -0.008560 0.000000 4.063190 
# 
# 
# High freq. dielectric constant tensor:
#      x y z
#    x 1.822610 0.000000 -0.002980 
#    y 0.000000 1.820660 0.000000 
#    z -0.002980 0.000000 1.844020 
# 
# From -- ./inp_files/98074.got.cif
#   From: 2010.06.25/outbox.cif.g09.slc.cpg/sg13_50_cif.got.tgz:98074.got - 2010.06.28 04:50:58.
