data_PCOD8122818
_publ_section_title
;
Structure prediction by ZEFSAII (Michael W. Deem and Ramdas Pophale) SiO2 
 PCOD8122818
Probable space group: P 2/C
;
_chemical_formula_sum "Si O2"
_cell_formula_units_Z 18
_cell_length_a 7.407296
_cell_length_b 6.821086
_cell_length_c 17.524544
_cell_angle_alpha 90.000000
_cell_angle_beta 62.259631
_cell_angle_gamma 90.000000
_cell_volume 783.674211
_symmetry_space_group_name_H-M "P 2/C"
_symmetry_group_IT_number 13
_symmetry_cell_setting 'monoclinic'
loop_
_space_group_symop_operation_xyz
x,y,z
-x,y,1/2-z
-x,-y,-z
x,-y,1/2+z
loop_
_atom_site_type_symbol
_atom_site_label
_atom_site_fract_x
_atom_site_fract_y
_atom_site_fract_z
Si Si1 0.712346 0.252015 0.420238
Si Si2 0.677731 0.560767 0.554563
Si Si3 0.928937 0.105028 0.939042
Si Si4 0.000000 0.444402 0.250000
Si Si5 0.730182 0.666186 0.194884
O O1 0.655521 0.361744 0.510251
O O2 0.520620 0.295992 0.402808
O O3 0.918993 0.320192 0.337612
O O4 0.753580 0.021876 0.430419
O O5 0.852769 0.680578 0.477169
O O6 0.738336 0.500969 0.627871
O O7 0.128728 0.144025 0.848503
O O8 0.000000 0.000000 0.000000
O O9 0.190118 0.574536 0.241611
O O10 0.500000 0.742974 0.250000
#
# Coordination Sequence:
#
# PCOD8122818 Si02
#       5
#     4   4   4   2   4
#     4  11  24  44  73 105 137 190 242 296 362 436
#     4  11  23  47  75  98 143 190 241 291 367 443
#     4  12  24  44  72 104 141 189 246 297 358 435
#     4  12  24  46  72 100 144 188 238 304 366 434
#     4  12  25  47  74 104 148 195 238 304 373 432
#
# _framework density 22.968730999999998
#
# number of rings (size 3 to 8) (size 9 to 14) (size 15 to 20)
#    0.000    0.444    6.667    2.667    0.000    0.889 
#    8.000    0.000    0.000    0.000    0.000    0.000 
#    0.000    0.000    0.000    0.000    0.000    0.000 
#
# Total GULP energy -223194.259977 kJ/mol
# GULP energy per Si atom -12399.681110 kJ/mol
# Density = 2.291645 g / cm^3
# Si number density = 22.968731 Si / 1000 Ang^3
#
#
#
# Elastic Constant Matrix: (Units=GPa)
#
#
# Indices 1 2 3 4 5 6 
#
# 1 118.5884 35.2828 24.6545 0.0000 -4.9739 0.0000
# 2 35.2828 102.7938 28.0404 0.0000 -2.2573 0.0000
# 3 24.6545 28.0404 83.5352 0.0000 -9.2503 0.0000
# 4 0.0000 0.0000 0.0000 30.0662 0.0000 -7.3662
# 5 -4.9739 -2.2573 -9.2503 0.0000 46.7867 0.0000
# 6 0.0000 0.0000 0.0000 -7.3662 0.0000 44.0958
#
#
#
# Elastic Compliance Matrix: (Units=1/GPa)
#
#
# Indices 1 2 3 4 5 6 
#
# 1 0.009674 -0.002803 -0.001856 0.000000 0.000526 0.000000
# 2 -0.002803 0.011523 -0.003079 0.000000 -0.000351 0.000000
# 3 -0.001856 -0.003079 0.013817 0.000000 0.002386 0.000000
# 4 0.000000 0.000000 0.000000 0.034679 0.000000 0.005793
# 5 0.000526 -0.000351 0.002386 0.000000 0.021884 0.000000
# 6 0.000000 0.000000 0.000000 0.005793 0.000000 0.023646
#
#
# Mechanical properties :
#
#
# Convention : Reuss Voigt Hill
#
# Bulk Modulus (GPa) = 51.18530 53.43031 52.30781
# Shear Modulus (GPa) = 36.43997 38.65239 37.54618
#
# Velocity S-wave (km/s) = 3.98741 4.10668 4.04749
# Velocity P-wave (km/s) = 6.59791 6.76750 6.68325
#
# Compressibility (1/GPa) = 0.01953686
#
# Stress axis : x y z
#
# Youngs Moduli (GPa) = 103.36582 86.78651 72.37603
#
# Poissons Ratio (x) = 0.24324 0.13435
# Poissons Ratio (y) = 0.28971 0.22288
# Poissons Ratio (z) = 0.19187 0.26725
#
# Static dielectric constant tensor:
#      x y z
#    x 4.223150 0.000000 -0.072680 
#    y 0.000000 4.198820 0.000000 
#    z -0.072680 0.000000 4.016330 
# 
# 
# High freq. dielectric constant tensor:
#      x y z
#    x 1.921170 0.000000 -0.007280 
#    y 0.000000 1.887730 0.000000 
#    z -0.007280 0.000000 1.907190 
# 
# From -- ./inp_files/62259.got.cif
#   From: 2010.06.25/outbox.cif.g09.slc.cpg/sg13_32_cif.got.tgz:62259.got - 2010.06.28 04:50:58.
