data_PCOD8122609
_publ_section_title
;
Structure prediction by ZEFSAII (Michael W. Deem and Ramdas Pophale) SiO2 
 PCOD8122609
Probable space group: P 2/C
;
_chemical_formula_sum "Si O2"
_cell_formula_units_Z 22
_cell_length_a 11.265465
_cell_length_b 6.496884
_cell_length_c 14.096940
_cell_angle_alpha 90.000000
_cell_angle_beta 88.667100
_cell_angle_gamma 90.000000
_cell_volume 1031.481773
_symmetry_space_group_name_H-M "P 2/C"
_symmetry_group_IT_number 13
_symmetry_cell_setting 'monoclinic'
loop_
_space_group_symop_operation_xyz
x,y,z
-x,y,1/2-z
-x,-y,-z
x,-y,1/2+z
loop_
_atom_site_type_symbol
_atom_site_label
_atom_site_fract_x
_atom_site_fract_y
_atom_site_fract_z
Si Si1 0.360390 0.646706 0.251331
Si Si2 0.000000 0.516374 0.750000
Si Si3 0.989214 0.302005 0.566717
Si Si4 0.776311 0.244478 0.263175
Si Si5 0.233746 0.058701 0.901270
Si Si6 0.754041 0.894059 0.408763
O O1 0.500000 0.671066 0.250000
O O2 0.325534 0.407804 0.262355
O O3 0.311973 0.776967 0.342000
O O4 0.312518 0.716426 0.148804
O O5 0.056530 0.374863 0.829475
O O6 0.895562 0.648446 0.798463
O O7 0.110974 0.177993 0.575530
O O8 0.000000 0.500000 0.500000
O O9 0.880141 0.154354 0.540420
O O10 0.810914 0.117194 0.168908
O O11 0.735109 0.098982 0.347888
O O12 0.304519 0.946829 0.987116
#
# Coordination Sequence:
#
# PCOD8122609 Si02
#       6
#     4   2   4   4   4   4
#     4  11  26  46  67  92 126 179 235 275 321 383
#     4  12  18  36  64  90 130 182 196 260 332 386
#     4  12  22  38  68 104 139 166 208 260 337 413
#     4  11  22  41  66  92 138 171 220 265 332 388
#     4  11  24  42  67 101 135 170 215 272 335 400
#     4  11  24  42  67 101 135 170 215 272 335 400
#
# _framework density 21.328538000000002
#
# number of rings (size 3 to 8) (size 9 to 14) (size 15 to 20)
#    0.000    0.727    3.636    4.909    0.000    3.636 
#    0.000    1.818    0.000    0.000    0.000    0.000 
#    0.000    0.000    0.000    0.000    0.000    0.000 
#
# Total GULP energy -272728.315430 kJ/mol
# GULP energy per Si atom -12396.741610 kJ/mol
# Density = 2.127999 g / cm^3
# Si number density = 21.328538 Si / 1000 Ang^3
#
#
#
# Elastic Constant Matrix: (Units=GPa)
#
#
# Indices 1 2 3 4 5 6 
#
# 1 116.4522 36.4216 19.8706 0.0000 -11.3024 0.0000
# 2 36.4216 115.8051 42.0802 0.0000 -4.1317 0.0000
# 3 19.8706 42.0802 125.2926 0.0000 9.2014 0.0000
# 4 0.0000 0.0000 0.0000 33.0736 0.0000 2.3608
# 5 -11.3024 -4.1317 9.2014 0.0000 15.6361 0.0000
# 6 0.0000 0.0000 0.0000 2.3608 0.0000 14.0762
#
#
#
# Elastic Compliance Matrix: (Units=1/GPa)
#
#
# Indices 1 2 3 4 5 6 
#
# 1 0.010336 -0.002483 -0.001365 0.000000 0.007618 0.000000
# 2 -0.002483 0.010781 -0.003454 0.000000 0.003087 0.000000
# 3 -0.001365 -0.003454 0.009926 0.000000 -0.007740 0.000000
# 4 0.000000 0.000000 0.000000 0.030602 0.000000 -0.005132
# 5 0.007618 0.003087 -0.007740 0.000000 0.074832 0.000000
# 6 0.000000 0.000000 0.000000 -0.005132 0.000000 0.071903
#
#
# Mechanical properties :
#
#
# Convention : Reuss Voigt Hill
#
# Bulk Modulus (GPa) = 60.82625 61.58829 61.20727
# Shear Modulus (GPa) = 21.88535 29.83568 25.86052
#
# Velocity S-wave (km/s) = 3.20677 3.74419 3.48585
# Velocity P-wave (km/s) = 6.50321 6.90150 6.70531
#
# Compressibility (1/GPa) = 0.01644027
#
# Stress axis : x y z
#
# Youngs Moduli (GPa) = 96.74833 92.75334 100.74353
#
# Poissons Ratio (x) = 0.23031 0.13749
# Poissons Ratio (y) = 0.24023 0.34795
# Poissons Ratio (z) = 0.13204 0.32035
#
# Static dielectric constant tensor:
#      x y z
#    x 3.536060 0.000000 0.262690 
#    y 0.000000 4.129520 0.000000 
#    z 0.262690 0.000000 4.244360 
# 
# 
# High freq. dielectric constant tensor:
#      x y z
#    x 1.804230 0.000000 0.010290 
#    y 0.000000 1.857540 0.000000 
#    z 0.010290 0.000000 1.849630 
# 
# From -- ./inp_files/48834.got.cif
#   From: 2010.06.25/outbox.cif.g09.slc.cpg/sg13_25_cif.got.tgz:48834.got - 2010.06.28 04:50:58.
