data_PCOD8122372
_publ_section_title
;
Structure prediction by ZEFSAII (Michael W. Deem and Ramdas Pophale) SiO2 
 PCOD8122372
Probable space group: P 2/C
;
_chemical_formula_sum "Si O2"
_cell_formula_units_Z 32
_cell_length_a 19.808558
_cell_length_b 11.862584
_cell_length_c 18.792172
_cell_angle_alpha 90.000000
_cell_angle_beta 157.800400
_cell_angle_gamma 90.000000
_cell_volume 1668.439827
_symmetry_space_group_name_H-M "P 2/C"
_symmetry_group_IT_number 13
_symmetry_cell_setting 'monoclinic'
loop_
_space_group_symop_operation_xyz
x,y,z
-x,y,1/2-z
-x,-y,-z
x,-y,1/2+z
loop_
_atom_site_type_symbol
_atom_site_label
_atom_site_fract_x
_atom_site_fract_y
_atom_site_fract_z
Si Si1 0.307497 0.830737 0.818708
Si Si2 0.806465 0.405121 0.243678
Si Si3 0.276064 0.190404 0.792289
Si Si4 0.181521 0.018275 0.803765
Si Si5 0.207130 0.417470 0.653891
Si Si6 0.461703 0.895360 0.136447
Si Si7 0.793192 0.996485 0.386435
Si Si8 0.520063 0.643895 0.355634
O O1 0.193523 0.723252 0.729678
O O2 0.296382 0.932046 0.864842
O O3 0.223921 0.879386 0.664060
O O4 0.512751 0.801004 0.007035
O O5 0.729272 0.479953 0.233640
O O6 0.011747 0.440120 0.428948
O O7 0.689062 0.422126 0.056377
O O8 0.193818 0.310571 0.693660
O O9 0.219856 0.146820 0.816659
O O10 0.184471 0.097796 0.652140
O O11 0.287318 0.977962 0.977238
O O12 0.973611 0.992079 0.609086
O O13 0.339847 0.400690 0.717060
O O14 0.500000 0.845068 0.250000
O O15 0.447088 0.772895 0.082988
O O16 0.623903 0.971742 0.268930
O O17 0.500000 0.625459 0.250000
#
# Coordination Sequence:
#
# PCOD8122372 Si02
#       8
#     4   4   4   4   4   4   4   4
#     4  11  18  32  55  80 108 138 173 223 278 321
#     4  11  22  37  59  86 114 144 189 242 282 328
#     4  11  18  32  55  80 108 138 173 223 278 321
#     4  11  19  32  53  76 108 142 174 218 269 324
#     4  11  22  37  59  86 114 144 189 242 282 328
#     4  11  22  35  50  78 113 148 183 218 267 331
#     4  11  19  32  53  76 108 142 174 218 269 324
#     4  11  23  38  57  81 117 153 183 226 282 345
#
# _framework density 19.179594999999999
#
# number of rings (size 3 to 8) (size 9 to 14) (size 15 to 20)
#    0.000    1.000    6.250    4.125    0.000    1.000 
#    0.000    2.500    0.000    3.000    0.000    3.500 
#    0.000    0.000    0.000    0.000    0.000    0.000 
#
# Total GULP energy -396481.552964 kJ/mol
# GULP energy per Si atom -12390.048530 kJ/mol
# Density = 1.913594 g / cm^3
# Si number density = 19.179595 Si / 1000 Ang^3
#
#
#
# Elastic Constant Matrix: (Units=GPa)
#
#
# Indices 1 2 3 4 5 6 
#
# 1 61.4258 33.5963 33.2305 0.0000 -9.2916 0.0000
# 2 33.5963 58.2801 11.9642 0.0000 -6.5301 0.0000
# 3 33.2305 11.9642 134.8366 0.0000 -1.9328 0.0000
# 4 0.0000 0.0000 0.0000 22.8681 0.0000 -1.2866
# 5 -9.2916 -6.5301 -1.9328 0.0000 18.2635 0.0000
# 6 0.0000 0.0000 0.0000 -1.2866 0.0000 20.7442
#
#
#
# Elastic Compliance Matrix: (Units=1/GPa)
#
#
# Indices 1 2 3 4 5 6 
#
# 1 0.028449 -0.014262 -0.005620 0.000000 0.008779 0.000000
# 2 -0.014262 0.025331 0.001295 0.000000 0.001938 0.000000
# 3 -0.005620 0.001295 0.008665 0.000000 -0.001479 0.000000
# 4 0.000000 0.000000 0.000000 0.043882 0.000000 0.002722
# 5 0.008779 0.001938 -0.001479 0.000000 0.059757 0.000000
# 6 0.000000 0.000000 0.000000 0.002722 0.000000 0.048375
#
#
# Mechanical properties :
#
#
# Convention : Reuss Voigt Hill
#
# Bulk Modulus (GPa) = 39.57051 45.79161 42.68106
# Shear Modulus (GPa) = 19.22653 24.09193 21.65923
#
# Velocity S-wave (km/s) = 3.16958 3.54803 3.36413
# Velocity P-wave (km/s) = 5.83707 6.38057 6.11486
#
# Compressibility (1/GPa) = 0.02527135
#
# Stress axis : x y z
#
# Youngs Moduli (GPa) = 35.15110 39.47657 115.40312
#
# Poissons Ratio (x) = 0.56302 0.64854
# Poissons Ratio (y) = 0.50133 -0.14945
# Poissons Ratio (z) = 0.19754 -0.05112
#
# Static dielectric constant tensor:
#      x y z
#    x 3.414610 0.000000 -0.244910 
#    y 0.000000 3.528940 0.000000 
#    z -0.244910 0.000000 3.764000 
# 
# 
# High freq. dielectric constant tensor:
#      x y z
#    x 1.709950 0.000000 -0.000320 
#    y 0.000000 1.730340 0.000000 
#    z -0.000320 0.000000 1.770140 
# 
# From -- ./inp_files/81817.got.cif
#   From: 2010.06.25/outbox.cif.g09.slc.cpg/sg13_41_cif.got.tgz:81817.got - 2010.06.28 04:50:58.
