data_PCOD8122614
_publ_section_title
;
Structure prediction by ZEFSAII (Michael W. Deem and Ramdas Pophale) SiO2 
 PCOD8122614
Probable space group: P 2/C
;
_chemical_formula_sum "Si O2"
_cell_formula_units_Z 24
_cell_length_a 10.631295
_cell_length_b 12.001545
_cell_length_c 8.771840
_cell_angle_alpha 90.000000
_cell_angle_beta 85.544936
_cell_angle_gamma 90.000000
_cell_volume 1115.834662
_symmetry_space_group_name_H-M "P 2/C"
_symmetry_group_IT_number 13
_symmetry_cell_setting 'monoclinic'
loop_
_space_group_symop_operation_xyz
x,y,z
-x,y,1/2-z
-x,-y,-z
x,-y,1/2+z
loop_
_atom_site_type_symbol
_atom_site_label
_atom_site_fract_x
_atom_site_fract_y
_atom_site_fract_z
Si Si1 0.258949 0.145118 0.516427
Si Si2 0.359701 0.942905 0.317469
Si Si3 0.004080 0.123827 0.067202
Si Si4 0.406966 0.447050 0.883924
Si Si5 0.263936 0.760140 0.524186
Si Si6 0.641425 0.681670 0.683733
O O1 0.274974 0.100982 0.685601
O O2 0.116112 0.183714 0.496929
O O3 0.342121 0.256735 0.480946
O O4 0.297105 0.053427 0.387813
O O5 0.500000 0.970103 0.250000
O O6 0.363528 0.851008 0.451436
O O7 0.000000 0.119521 0.250000
O O8 0.124480 0.195042 0.996567
O O9 0.000000 0.000000 0.000000
O O10 0.500000 0.392123 0.750000
O O11 0.303716 0.358773 0.949504
O O12 0.325013 0.550732 0.826599
O O13 0.500000 0.500000 0.000000
O O14 0.269464 0.746564 0.705370
O O15 0.500000 0.696264 0.750000
#
# Coordination Sequence:
#
# PCOD8122614 Si02
#       6
#     4   4   4   4   4   4
#     4  12  24  42  65  98 139 188 229 289 353 427
#     4  12  25  40  67 103 144 172 233 294 366 431
#     4  12  25  46  70  95 140 191 240 286 345 421
#     4  11  23  43  71 103 143 181 228 294 365 423
#     4  12  24  42  69 102 136 187 235 286 351 429
#     4  11  22  41  68  99 140 177 226 287 362 416
#
# _framework density 21.508562999999999
#
# number of rings (size 3 to 8) (size 9 to 14) (size 15 to 20)
#    0.000    0.333    6.667    4.500    2.333    0.000 
#    0.000    0.833    0.000    0.000    0.000    0.000 
#    0.000    0.000    0.000    0.000    0.000    0.000 
#
# Total GULP energy -297527.947511 kJ/mol
# GULP energy per Si atom -12396.997813 kJ/mol
# Density = 2.145961 g / cm^3
# Si number density = 21.508563 Si / 1000 Ang^3
#
#
#
# Elastic Constant Matrix: (Units=GPa)
#
#
# Indices 1 2 3 4 5 6 
#
# 1 105.1651 51.6578 23.1998 0.0000 1.5804 0.0000
# 2 51.6578 122.2745 24.1087 0.0000 -13.5179 0.0000
# 3 23.1998 24.1087 84.0693 0.0000 -1.6562 0.0000
# 4 0.0000 0.0000 0.0000 36.4641 0.0000 -4.7038
# 5 1.5804 -13.5179 -1.6562 0.0000 32.4204 0.0000
# 6 0.0000 0.0000 0.0000 -4.7038 0.0000 38.8870
#
#
#
# Elastic Compliance Matrix: (Units=1/GPa)
#
#
# Indices 1 2 3 4 5 6 
#
# 1 0.012569 -0.005231 -0.002025 0.000000 -0.002897 0.000000
# 2 -0.005231 0.011259 -0.001689 0.000000 0.004863 0.000000
# 3 -0.002025 -0.001689 0.012939 0.000000 0.000055 0.000000
# 4 0.000000 0.000000 0.000000 0.027859 0.000000 0.003370
# 5 -0.002897 0.004863 0.000055 0.000000 0.033017 0.000000
# 6 0.000000 0.000000 0.000000 0.003370 0.000000 0.026123
#
#
# Mechanical properties :
#
#
# Convention : Reuss Voigt Hill
#
# Bulk Modulus (GPa) = 52.97855 56.60462 54.79158
# Shear Modulus (GPa) = 33.79539 35.72380 34.75959
#
# Velocity S-wave (km/s) = 3.96820 4.07985 4.02441
# Velocity P-wave (km/s) = 6.75873 6.96907 6.86470
#
# Compressibility (1/GPa) = 0.01887556
#
# Stress axis : x y z
#
# Youngs Moduli (GPa) = 79.56298 88.81797 77.28296
#
# Poissons Ratio (x) = 0.46460 0.15653
# Poissons Ratio (y) = 0.41618 0.13057
# Poissons Ratio (z) = 0.16115 0.15005
#
# Static dielectric constant tensor:
#      x y z
#    x 4.082080 0.000000 0.089790 
#    y 0.000000 4.279290 0.000000 
#    z 0.089790 0.000000 4.539050 
# 
# 
# High freq. dielectric constant tensor:
#      x y z
#    x 1.830090 0.000000 -0.007240 
#    y 0.000000 1.845740 0.000000 
#    z -0.007240 0.000000 1.861470 
# 
# From -- ./inp_files/15878.got.cif
#   From: 2010.06.25/outbox.cif.g09.slc.cpg/sg13_8_cif.got.tgz:15878.got - 2010.06.28 04:50:58.
