data_PCOD8122829
_publ_section_title
;
Structure prediction by ZEFSAII (Michael W. Deem and Ramdas Pophale) SiO2 
 PCOD8122829
Probable space group: P 2/C
;
_chemical_formula_sum "Si O2"
_cell_formula_units_Z 18
_cell_length_a 24.249132
_cell_length_b 5.416156
_cell_length_c 12.570101
_cell_angle_alpha 90.000000
_cell_angle_beta 150.558410
_cell_angle_gamma 90.000000
_cell_volume 811.486839
_symmetry_space_group_name_H-M "P 2/C"
_symmetry_group_IT_number 13
_symmetry_cell_setting 'monoclinic'
loop_
_space_group_symop_operation_xyz
x,y,z
-x,y,1/2-z
-x,-y,-z
x,-y,1/2+z
loop_
_atom_site_type_symbol
_atom_site_label
_atom_site_fract_x
_atom_site_fract_y
_atom_site_fract_z
Si Si1 0.787230 0.768489 0.862409
Si Si2 0.000000 0.533185 0.750000
Si Si3 0.087880 0.858369 0.075997
Si Si4 0.300289 0.816593 0.561483
Si Si5 0.622139 0.666210 0.408060
O O1 0.708951 0.858706 0.827557
O O2 0.710941 0.614732 0.651964
O O3 0.845332 0.992912 0.900875
O O4 0.886456 0.612641 0.080774
O O5 0.986942 0.668307 0.615447
O O6 0.179799 0.744762 0.309160
O O7 0.000000 0.000000 0.000000
O O8 0.377494 0.575461 0.667665
O O9 0.349359 0.074870 0.601369
O O10 0.500000 0.698291 0.250000
#
# Coordination Sequence:
#
# PCOD8122829 Si02
#       5
#     4   2   4   4   4
#     4  11  26  41  66 104 134 181 230 276 344 412
#     4  12  22  40  68  96 140 180 222 276 344 410
#     4  11  24  41  64 101 142 183 224 278 336 412
#     4  11  25  44  71 100 138 178 226 288 338 404
#     4  11  26  48  71 100 136 179 233 286 341 401
#
# _framework density 22.181505999999999
#
# number of rings (size 3 to 8) (size 9 to 14) (size 15 to 20)
#    0.000    0.889    2.222    4.000    9.333    3.556 
#    0.000    0.000    0.000    0.000    0.000    0.000 
#    0.000    0.000    0.000    0.000    0.000    0.000 
#
# Total GULP energy -223128.311116 kJ/mol
# GULP energy per Si atom -12396.017284 kJ/mol
# Density = 2.213102 g / cm^3
# Si number density = 22.181506 Si / 1000 Ang^3
#
#
#
# Elastic Constant Matrix: (Units=GPa)
#
#
# Indices 1 2 3 4 5 6 
#
# 1 169.2838 56.3384 28.3358 0.0000 -1.2128 0.0000
# 2 56.3384 117.6658 17.1705 0.0000 1.3643 0.0000
# 3 28.3358 17.1705 46.4039 0.0000 13.3891 0.0000
# 4 0.0000 0.0000 0.0000 29.8133 0.0000 0.8606
# 5 -1.2128 1.3643 13.3891 0.0000 34.0325 0.0000
# 6 0.0000 0.0000 0.0000 0.8606 0.0000 38.3131
#
#
#
# Elastic Compliance Matrix: (Units=1/GPa)
#
#
# Indices 1 2 3 4 5 6 
#
# 1 0.007633 -0.003080 -0.004101 0.000000 0.002009 0.000000
# 2 -0.003080 0.010261 -0.001992 0.000000 0.000263 0.000000
# 3 -0.004101 -0.001992 0.027987 0.000000 -0.011077 0.000000
# 4 0.000000 0.000000 0.000000 0.033564 0.000000 -0.000754
# 5 0.002009 0.000263 -0.011077 0.000000 0.033803 0.000000
# 6 0.000000 0.000000 0.000000 -0.000754 0.000000 0.026118
#
#
# Mechanical properties :
#
#
# Convention : Reuss Voigt Hill
#
# Bulk Modulus (GPa) = 36.31627 59.67142 47.99384
# Shear Modulus (GPa) = 29.95995 35.86569 32.91282
#
# Velocity S-wave (km/s) = 3.67914 4.02545 3.85619
# Velocity P-wave (km/s) = 5.86992 6.96890 6.44288
#
# Compressibility (1/GPa) = 0.02753587
#
# Stress axis : x y z
#
# Youngs Moduli (GPa) = 131.01053 97.45866 35.73028
#
# Poissons Ratio (x) = 0.30012 0.14653
# Poissons Ratio (y) = 0.40345 0.07118
# Poissons Ratio (z) = 0.53729 0.19414
#
# Static dielectric constant tensor:
#      x y z
#    x 3.852480 0.000000 0.185940 
#    y 0.000000 3.974210 0.000000 
#    z 0.185940 0.000000 3.806390 
# 
# 
# High freq. dielectric constant tensor:
#      x y z
#    x 1.891680 0.000000 -0.003920 
#    y 0.000000 1.869000 0.000000 
#    z -0.003920 0.000000 1.876460 
# 
# From -- ./inp_files/31075.got.cif
#   From: 2010.06.25/outbox.cif.g09.slc.cpg/sg13_16_cif.got.tgz:31075.got - 2010.06.28 04:50:58.
