data_PCOD8122455
_publ_section_title
;
Structure prediction by ZEFSAII (Michael W. Deem and Ramdas Pophale) SiO2 
 PCOD8122455
Probable space group: P 2/C
;
_chemical_formula_sum "Si O2"
_cell_formula_units_Z 22
_cell_length_a 20.257908
_cell_length_b 10.300329
_cell_length_c 20.347124
_cell_angle_alpha 90.000000
_cell_angle_beta 13.945687
_cell_angle_gamma 90.000000
_cell_volume 1023.220841
_symmetry_space_group_name_H-M "P 2/C"
_symmetry_group_IT_number 13
_symmetry_cell_setting 'monoclinic'
loop_
_space_group_symop_operation_xyz
x,y,z
-x,y,1/2-z
-x,-y,-z
x,-y,1/2+z
loop_
_atom_site_type_symbol
_atom_site_label
_atom_site_fract_x
_atom_site_fract_y
_atom_site_fract_z
Si Si1 0.000000 0.493356 0.250000
Si Si2 0.500000 0.090314 0.250000
Si Si3 0.484663 0.663672 0.452952
Si Si4 0.254798 0.320849 0.412904
Si Si5 0.304236 0.381177 0.616609
Si Si6 0.000000 0.078240 0.250000
Si Si7 0.023186 0.285017 0.120322
O O1 0.758588 0.589699 0.508170
O O2 0.910492 0.404880 0.274735
O O3 0.339607 0.175689 0.350867
O O4 0.266042 0.006146 0.512475
O O5 0.303913 0.531817 0.637889
O O6 0.619646 0.703426 0.392049
O O7 0.237379 0.761070 0.671807
O O8 0.717315 0.665976 0.171975
O O9 0.969065 0.321936 0.649909
O O10 0.469991 0.380140 0.156671
O O11 0.896376 0.164816 0.411459
#
# Coordination Sequence:
#
# PCOD8122455 Si02
#       7
#     2   2   4   4   4   2   4
#     4  11  21  36  58 100 125 153 206 248 344 367
#     4  12  26  44  66  88 126 172 222 264 324 362
#     4  11  21  39  60  97 132 171 198 250 317 397
#     4  12  23  39  63  93 128 165 203 271 308 394
#     4  11  22  37  62  94 137 164 202 245 323 394
#     4  11  25  46  64  92 121 177 222 266 316 369
#     4  11  23  38  67  90 132 162 209 269 309 389
#
# _framework density 21.500734000000001
#
# number of rings (size 3 to 8) (size 9 to 14) (size 15 to 20)
#    0.000    0.727    3.636    4.909    0.000    6.545 
#    0.000    0.000    0.000   21.818    0.000    0.000 
#    0.000    0.000    0.000    0.000    0.000    0.000 
#
# Total GULP energy -272675.553941 kJ/mol
# GULP energy per Si atom -12394.343361 kJ/mol
# Density = 2.145180 g / cm^3
# Si number density = 21.500734 Si / 1000 Ang^3
#
#
#
# Elastic Constant Matrix: (Units=GPa)
#
#
# Indices 1 2 3 4 5 6 
#
# 1 114.6419 32.1602 46.8657 0.0000 -13.1273 0.0000
# 2 32.1602 84.8801 35.4473 0.0000 -2.8772 0.0000
# 3 46.8657 35.4473 142.6211 0.0000 -12.9191 0.0000
# 4 0.0000 0.0000 0.0000 35.2053 0.0000 -7.1268
# 5 -13.1273 -2.8772 -12.9191 0.0000 45.6780 0.0000
# 6 0.0000 0.0000 0.0000 -7.1268 0.0000 14.5365
#
#
#
# Elastic Compliance Matrix: (Units=1/GPa)
#
#
# Indices 1 2 3 4 5 6 
#
# 1 0.010881 -0.002944 -0.002645 0.000000 0.002194 0.000000
# 2 -0.002944 0.013943 -0.002561 0.000000 -0.000692 0.000000
# 3 -0.002645 -0.002561 0.008656 0.000000 0.001527 0.000000
# 4 0.000000 0.000000 0.000000 0.031535 0.000000 0.015460
# 5 0.002194 -0.000692 0.001527 0.000000 0.022911 0.000000
# 6 0.000000 0.000000 0.000000 0.015460 0.000000 0.076372
#
#
# Mechanical properties :
#
#
# Convention : Reuss Voigt Hill
#
# Bulk Modulus (GPa) = 58.20719 63.45438 60.83079
# Shear Modulus (GPa) = 26.83513 34.26195 30.54854
#
# Velocity S-wave (km/s) = 3.53668 3.99623 3.77346
# Velocity P-wave (km/s) = 6.61880 7.13231 6.88035
#
# Compressibility (1/GPa) = 0.01718001
#
# Stress axis : x y z
#
# Youngs Moduli (GPa) = 91.90201 71.72270 115.53294
#
# Poissons Ratio (x) = 0.21113 0.30561
# Poissons Ratio (y) = 0.27053 0.29584
# Poissons Ratio (z) = 0.24310 0.18366
#
# Static dielectric constant tensor:
#      x y z
#    x 4.234390 0.000000 -0.060310 
#    y 0.000000 3.643910 0.000000 
#    z -0.060310 0.000000 3.787570 
# 
# 
# High freq. dielectric constant tensor:
#      x y z
#    x 1.855080 0.000000 -0.006810 
#    y 0.000000 1.803580 0.000000 
#    z -0.006810 0.000000 1.863070 
# 
# From -- ./inp_files/89015.got.cif
#   From: 2010.06.25/outbox.cif.g09.slc.cpg/sg13_45_cif.got.tgz:89015.got - 2010.06.28 04:50:58.
