data_PCOD8122400
_publ_section_title
;
Structure prediction by ZEFSAII (Michael W. Deem and Ramdas Pophale) SiO2 
 PCOD8122400
Probable space group: P 2/C
;
_chemical_formula_sum "Si O2"
_cell_formula_units_Z 30
_cell_length_a 13.965520
_cell_length_b 13.698302
_cell_length_c 13.623074
_cell_angle_alpha 90.000000
_cell_angle_beta 32.291127
_cell_angle_gamma 90.000000
_cell_volume 1392.259788
_symmetry_space_group_name_H-M "P 2/C"
_symmetry_group_IT_number 13
_symmetry_cell_setting 'monoclinic'
loop_
_space_group_symop_operation_xyz
x,y,z
-x,y,1/2-z
-x,-y,-z
x,-y,1/2+z
loop_
_atom_site_type_symbol
_atom_site_label
_atom_site_fract_x
_atom_site_fract_y
_atom_site_fract_z
Si Si1 0.824622 0.484178 0.754711
Si Si2 0.295828 0.767023 0.441146
Si Si3 0.682918 0.655915 0.534396
Si Si4 0.831973 0.848032 0.325713
Si Si5 0.000000 0.383438 0.250000
Si Si6 0.130490 0.635599 0.926248
Si Si7 0.824925 0.061951 0.336730
Si Si8 0.979872 0.824257 0.984625
O O1 0.979287 0.547820 0.673719
O O2 0.738973 0.559407 0.747283
O O3 0.924524 0.401068 0.606050
O O4 0.691552 0.434045 0.949020
O O5 0.500000 0.730048 0.250000
O O6 0.313086 0.858034 0.501886
O O7 0.192628 0.798512 0.432086
O O8 0.180373 0.680618 0.589314
O O9 0.500000 0.650235 0.750000
O O10 0.696249 0.758898 0.464573
O O11 0.829715 0.648643 0.492639
O O12 0.901851 0.853165 0.155676
O O13 0.000000 0.834600 0.250000
O O14 0.736542 0.953951 0.422000
O O15 0.122296 0.735862 0.873343
O O16 0.000000 0.067621 0.250000
O O17 0.894878 0.089239 0.166862
#
# Coordination Sequence:
#
# PCOD8122400 Si02
#       8
#     4   4   4   4   2   4   4   4
#     4  11  22  40  66  88 118 170 219 261 321 387
#     4  11  23  42  66  97 131 167 214 276 333 392
#     4  12  25  42  61  96 137 168 216 274 325 393
#     4  11  21  40  67  92 124 174 221 259 323 401
#     4  12  20  42  64  86 132 164 212 264 320 384
#     4  11  21  40  70  87 119 174 217 263 328 384
#     4   9  20  39  66  95 125 165 219 271 326 395
#     4  11  19  40  67  95 123 170 221 270 325 396
#
# _framework density 21.547702999999998
#
# number of rings (size 3 to 8) (size 9 to 14) (size 15 to 20)
#    0.000    1.067    7.333    0.400    0.000    1.600 
#    4.800    0.667    0.000    0.000    0.000    0.000 
#    0.000    0.000    0.000    0.000    0.000    0.000 
#
# Total GULP energy -371685.280684 kJ/mol
# GULP energy per Si atom -12389.509356 kJ/mol
# Density = 2.149866 g / cm^3
# Si number density = 21.547703 Si / 1000 Ang^3
#
#
#
# Elastic Constant Matrix: (Units=GPa)
#
#
# Indices 1 2 3 4 5 6 
#
# 1 63.5614 14.9833 20.4923 0.0000 26.9288 0.0000
# 2 14.9833 134.6840 53.5865 0.0000 14.9437 0.0000
# 3 20.4923 53.5865 110.7258 0.0000 18.6078 0.0000
# 4 0.0000 0.0000 0.0000 17.0843 0.0000 15.6216
# 5 26.9288 14.9437 18.6078 0.0000 36.4901 0.0000
# 6 0.0000 0.0000 0.0000 15.6216 0.0000 31.0039
#
#
#
# Elastic Compliance Matrix: (Units=1/GPa)
#
#
# Indices 1 2 3 4 5 6 
#
# 1 0.023132 -0.000190 -0.001458 0.000000 -0.016249 0.000000
# 2 -0.000190 0.009287 -0.004204 0.000000 -0.001519 0.000000
# 3 -0.001458 -0.004204 0.011884 0.000000 -0.003262 0.000000
# 4 0.000000 0.000000 0.000000 0.108539 0.000000 -0.054688
# 5 -0.016249 -0.001519 -0.003262 0.000000 0.041682 0.000000
# 6 0.000000 0.000000 0.000000 -0.054688 0.000000 0.059809
#
#
# Mechanical properties :
#
#
# Convention : Reuss Voigt Hill
#
# Bulk Modulus (GPa) = 30.67672 54.12174 42.39923
# Shear Modulus (GPa) = 18.05674 31.57627 24.81651
#
# Velocity S-wave (km/s) = 2.89794 3.83222 3.39735
# Velocity P-wave (km/s) = 5.04629 6.68976 5.92528
#
# Compressibility (1/GPa) = 0.03259801
#
# Stress axis : x y z
#
# Youngs Moduli (GPa) = 43.22996 107.67532 84.14638
#
# Poissons Ratio (x) = 0.02049 0.12271
# Poissons Ratio (y) = 0.00823 0.35376
# Poissons Ratio (z) = 0.06304 0.45268
#
# Static dielectric constant tensor:
#      x y z
#    x 4.340330 0.000000 0.373890 
#    y 0.000000 4.506780 0.000000 
#    z 0.373890 0.000000 3.527480 
# 
# 
# High freq. dielectric constant tensor:
#      x y z
#    x 1.836920 0.000000 0.043320 
#    y 0.000000 1.865150 0.000000 
#    z 0.043320 0.000000 1.816250 
# 
# From -- ./inp_files/53858.got.cif
#   From: 2010.06.25/outbox.cif.g09.slc.cpg/sg13_27_cif.got.tgz:53858.got - 2010.06.28 04:50:58.
