data_PCOD8122098
_publ_section_title
;
Structure prediction by ZEFSAII (Michael W. Deem and Ramdas Pophale) SiO2 
 PCOD8122098
Probable space group: P 2/C
;
_chemical_formula_sum "Si O2"
_cell_formula_units_Z 16
_cell_length_a 7.535823
_cell_length_b 17.962226
_cell_length_c 5.440265
_cell_angle_alpha 90.000000
_cell_angle_beta 114.262745
_cell_angle_gamma 90.000000
_cell_volume 671.349823
_symmetry_space_group_name_H-M "P 2/C"
_symmetry_group_IT_number 13
_symmetry_cell_setting 'monoclinic'
loop_
_space_group_symop_operation_xyz
x,y,z
-x,y,1/2-z
-x,-y,-z
x,-y,1/2+z
loop_
_atom_site_type_symbol
_atom_site_label
_atom_site_fract_x
_atom_site_fract_y
_atom_site_fract_z
Si Si1 0.000000 0.046979 0.750000
Si Si2 0.292630 0.161925 0.062683
Si Si3 0.000000 0.239511 0.250000
Si Si4 0.775892 0.534212 0.099293
Si Si5 0.697351 0.309312 0.727541
O O1 0.810925 0.099594 0.660933
O O2 0.000000 0.000000 0.500000
O O3 0.500000 0.126285 0.250000
O O4 0.151845 0.184071 0.206341
O O5 0.345803 0.235291 0.944822
O O6 0.116099 0.295066 0.494018
O O7 0.679842 0.499318 0.294387
O O8 0.749597 0.623292 0.075353
O O9 0.000000 0.510974 0.250000
O O10 0.500000 0.331971 0.750000
#
# Coordination Sequence:
#
# PCOD8122098 Si02
#       5
#     2   4   2   4   4
#     4  12  29  52  80 115 158 200 240 306 385 458
#     4  12  26  47  79 112 150 198 257 308 373 451
#     4  12  23  46  74 107 150 192 250 324 371 434
#     4  10  24  43  68 101 151 203 251 313 386 444
#     4  12  26  43  76 109 145 201 261 319 376 447
#
# _framework density 23.832581000000001
#
# number of rings (size 3 to 8) (size 9 to 14) (size 15 to 20)
#    0.000    0.500    5.000    2.250    8.750    2.000 
#    0.000    0.000    0.000    0.000    0.000    0.000 
#    0.000    0.000    0.000    0.000    0.000    0.000 
#
# Total GULP energy -198423.206099 kJ/mol
# GULP energy per Si atom -12401.450381 kJ/mol
# Density = 2.377834 g / cm^3
# Si number density = 23.832581 Si / 1000 Ang^3
#
#
#
# Elastic Constant Matrix: (Units=GPa)
#
#
# Indices 1 2 3 4 5 6 
#
# 1 122.7361 22.4993 37.8253 0.0000 12.0892 0.0000
# 2 22.4993 138.4817 59.4050 0.0000 0.9152 0.0000
# 3 37.8253 59.4050 135.9222 0.0000 -8.8466 0.0000
# 4 0.0000 0.0000 0.0000 43.5603 0.0000 -24.8690
# 5 12.0892 0.9152 -8.8466 0.0000 43.7363 0.0000
# 6 0.0000 0.0000 0.0000 -24.8690 0.0000 -11.6344
#
#
#
# Elastic Compliance Matrix: (Units=1/GPa)
#
#
# Indices 1 2 3 4 5 6 
#
# 1 0.009334 -0.000363 -0.002641 0.000000 -0.003107 0.000000
# 2 -0.000363 0.008944 -0.003864 0.000000 -0.000868 0.000000
# 3 -0.002641 -0.003864 0.009965 0.000000 0.002827 0.000000
# 4 0.000000 0.000000 0.000000 0.010339 0.000000 -0.022101
# 5 -0.003107 -0.000868 0.002827 0.000000 0.024313 0.000000
# 6 0.000000 0.000000 0.000000 -0.022101 0.000000 -0.038711
#
#
# Mechanical properties :
#
#
# Convention : Reuss Voigt Hill
#
# Bulk Modulus (GPa) = 68.93793 70.73324 69.83558
# Shear Modulus (GPa) = 116.94354 33.62648 75.28501
#
# Velocity S-wave (km/s) = 7.01251 3.76033 5.62652
# Velocity P-wave (km/s) = 9.72398 6.97116 8.46029
#
# Compressibility (1/GPa) = 0.01450580
#
# Stress axis : x y z
#
# Youngs Moduli (GPa) = 107.13470 111.81215 100.35137
#
# Poissons Ratio (x) = 0.04059 0.26504
# Poissons Ratio (y) = 0.03889 0.38779
# Poissons Ratio (z) = 0.28295 0.43208
#
# Static dielectric constant tensor:
#      x y z
#    x 4.413500 0.000000 -0.128780 
#    y 0.000000 4.215060 0.000000 
#    z -0.128780 0.000000 4.473570 
# 
# 
# High freq. dielectric constant tensor:
#      x y z
#    x 1.959720 0.000000 0.005080 
#    y 0.000000 1.942260 0.000000 
#    z 0.005080 0.000000 1.948770 
# 
# From -- ./inp_files/1155.got.cif
#   From: 2010.06.25/outbox.cif.g09.slc.cpg/sg13_1_cif.got.tgz:1155.got - 2010.06.28 04:50:58.
