data_PCOD8122029
_publ_section_title
;
Structure prediction by ZEFSAII (Michael W. Deem and Ramdas Pophale) SiO2 
 PCOD8122029
Probable space group: P 2/C
;
_chemical_formula_sum "Si O2"
_cell_formula_units_Z 28
_cell_length_a 20.298699
_cell_length_b 9.689629
_cell_length_c 14.183708
_cell_angle_alpha 90.000000
_cell_angle_beta 28.264937
_cell_angle_gamma 90.000000
_cell_volume 1321.083696
_symmetry_space_group_name_H-M "P 2/C"
_symmetry_group_IT_number 13
_symmetry_cell_setting 'monoclinic'
loop_
_space_group_symop_operation_xyz
x,y,z
-x,y,1/2-z
-x,-y,-z
x,-y,1/2+z
loop_
_atom_site_type_symbol
_atom_site_label
_atom_site_fract_x
_atom_site_fract_y
_atom_site_fract_z
Si Si1 0.849747 0.172750 0.971249
Si Si2 0.541146 0.140444 0.895872
Si Si3 0.155001 0.537365 0.776536
Si Si4 0.752203 0.833266 0.797623
Si Si5 0.360331 0.586903 0.167212
Si Si6 0.344852 0.990171 0.913963
Si Si7 0.847341 0.514921 0.429843
O O1 0.848876 0.337948 0.981248
O O2 0.000000 0.116215 0.750000
O O3 0.818770 0.112066 0.114961
O O4 0.735371 0.134088 0.036630
O O5 0.607916 0.249466 0.884764
O O6 0.642644 0.111272 0.679821
O O7 0.404541 0.214649 0.026535
O O8 0.500000 0.000000 0.000000
O O9 0.165327 0.703206 0.764559
O O10 0.267961 0.464346 0.698463
O O11 0.189072 0.472344 0.633099
O O12 0.000000 0.500000 0.000000
O O13 0.746600 0.956278 0.882054
O O14 0.271937 0.577431 0.374336
O O15 0.500000 0.500000 0.000000
O O16 0.500000 0.941408 0.750000
O O17 0.000000 0.446022 0.250000
#
# Coordination Sequence:
#
# PCOD8122029 Si02
#       7
#     4   4   4   4   4   4   4
#     4  11  22  44  66  94 139 186 225 292 348 406
#     4  11  22  43  70  98 142 181 221 294 354 411
#     4  12  23  43  71 101 137 187 234 294 360 423
#     4  11  22  45  68  93 144 179 227 289 353 415
#     4  12  24  43  72 106 135 185 237 289 356 419
#     4  10  24  41  68  97 131 187 228 275 357 412
#     4  11  23  44  69  99 145 185 234 298 358 416
#
# _framework density 21.19472
#
# number of rings (size 3 to 8) (size 9 to 14) (size 15 to 20)
#    0.000    0.857    5.714    1.714    0.000    3.429 
#    2.571    0.000    0.000    0.000    0.000    0.000 
#    0.000    0.000    0.000    0.000    0.000    0.000 
#
# Total GULP energy -347189.521491 kJ/mol
# GULP energy per Si atom -12399.625768 kJ/mol
# Density = 2.114648 g / cm^3
# Si number density = 21.194720 Si / 1000 Ang^3
#
#
#
# Elastic Constant Matrix: (Units=GPa)
#
#
# Indices 1 2 3 4 5 6 
#
# 1 118.4542 31.7658 51.7293 0.0000 7.1367 0.0000
# 2 31.7658 85.9939 44.4468 0.0000 -5.5816 0.0000
# 3 51.7293 44.4468 132.7566 0.0000 9.5868 0.0000
# 4 0.0000 0.0000 0.0000 27.1779 0.0000 -1.5997
# 5 7.1367 -5.5816 9.5868 0.0000 52.7798 0.0000
# 6 0.0000 0.0000 0.0000 -1.5997 0.0000 39.8118
#
#
#
# Elastic Compliance Matrix: (Units=1/GPa)
#
#
# Indices 1 2 3 4 5 6 
#
# 1 0.010545 -0.002275 -0.003270 0.000000 -0.001072 0.000000
# 2 -0.002275 0.014852 -0.004278 0.000000 0.002655 0.000000
# 3 -0.003270 -0.004278 0.010376 0.000000 -0.001895 0.000000
# 4 0.000000 0.000000 0.000000 0.036882 0.000000 0.001482
# 5 -0.001072 0.002655 -0.001895 0.000000 0.019717 0.000000
# 6 0.000000 0.000000 0.000000 0.001482 0.000000 0.025178
#
#
# Mechanical properties :
#
#
# Convention : Reuss Voigt Hill
#
# Bulk Modulus (GPa) = 62.00429 65.89872 63.95151
# Shear Modulus (GPa) = 35.07051 37.90476 36.48763
#
# Velocity S-wave (km/s) = 4.07219 4.23354 4.15365
# Velocity P-wave (km/s) = 7.17136 7.42002 7.29675
#
# Compressibility (1/GPa) = 0.01612792
#
# Stress axis : x y z
#
# Youngs Moduli (GPa) = 94.83513 67.32878 96.37855
#
# Poissons Ratio (x) = 0.15316 0.31513
# Poissons Ratio (y) = 0.21573 0.41231
# Poissons Ratio (z) = 0.31009 0.28803
#
# Static dielectric constant tensor:
#      x y z
#    x 3.917370 0.000000 0.091520 
#    y 0.000000 3.575690 0.000000 
#    z 0.091520 0.000000 4.104260 
# 
# 
# High freq. dielectric constant tensor:
#      x y z
#    x 1.838010 0.000000 0.007100 
#    y 0.000000 1.809790 0.000000 
#    z 0.007100 0.000000 1.845750 
# 
# From -- ./inp_files/57435.got.cif
#   From: 2010.06.25/outbox.cif.g09.slc.cpg/sg13_29_cif.got.tgz:57435.got - 2010.06.28 04:50:58.
