data_PCOD8122150
_publ_section_title
;
Structure prediction by ZEFSAII (Michael W. Deem and Ramdas Pophale) SiO2 
 PCOD8122150
Probable space group: P 2/C
;
_chemical_formula_sum "Si O2"
_cell_formula_units_Z 18
_cell_length_a 9.043536
_cell_length_b 12.144822
_cell_length_c 9.048858
_cell_angle_alpha 90.000000
_cell_angle_beta 52.955338
_cell_angle_gamma 90.000000
_cell_volume 793.261736
_symmetry_space_group_name_H-M "P 2/C"
_symmetry_group_IT_number 13
_symmetry_cell_setting 'monoclinic'
loop_
_space_group_symop_operation_xyz
x,y,z
-x,y,1/2-z
-x,-y,-z
x,-y,1/2+z
loop_
_atom_site_type_symbol
_atom_site_label
_atom_site_fract_x
_atom_site_fract_y
_atom_site_fract_z
Si Si1 0.500000 0.522770 0.750000
Si Si2 0.573109 0.646546 0.976094
Si Si3 0.181982 0.252604 0.718587
Si Si4 0.629288 0.050500 0.044595
Si Si5 0.821326 0.170546 0.457303
O O1 0.372976 0.600178 0.719347
O O2 0.374577 0.444380 0.931157
O O3 0.350338 0.661609 0.109770
O O4 0.668285 0.762161 0.955089
O O5 0.233189 0.141051 0.601638
O O6 0.000000 0.303599 0.750000
O O7 0.131793 0.230565 0.918965
O O8 0.500000 0.103202 0.250000
O O9 0.500000 0.000000 0.000000
O O10 0.748075 0.950431 0.041486
O O11 0.000000 0.161277 0.250000
#
# Coordination Sequence:
#
# PCOD8122150 Si02
#       5
#     2   4   4   4   4
#     4  10  24  44  78  94 128 182 224 290 340 396
#     4  11  23  49  70  98 136 175 229 279 346 393
#     4  12  27  43  69 104 140 176 226 275 335 406
#     4  12  24  43  71  99 138 183 221 270 331 400
#     4  12  26  45  68 101 141 181 222 276 332 406
#
# _framework density 22.691122
#
# number of rings (size 3 to 8) (size 9 to 14) (size 15 to 20)
#    0.000    0.444    6.667    0.667    7.778    1.778 
#    0.000    6.667    0.000    0.000    0.000    0.000 
#    0.000    0.000    0.000    0.000    0.000    0.000 
#
# Total GULP energy -223212.686737 kJ/mol
# GULP energy per Si atom -12400.704819 kJ/mol
# Density = 2.263948 g / cm^3
# Si number density = 22.691122 Si / 1000 Ang^3
#
#
#
# Elastic Constant Matrix: (Units=GPa)
#
#
# Indices 1 2 3 4 5 6 
#
# 1 106.4560 12.1606 42.5285 0.0000 -2.1754 0.0000
# 2 12.1606 87.6914 22.3696 0.0000 2.7307 0.0000
# 3 42.5285 22.3696 123.7880 0.0000 10.9930 0.0000
# 4 0.0000 0.0000 0.0000 27.4067 0.0000 9.9739
# 5 -2.1754 2.7307 10.9930 0.0000 44.2031 0.0000
# 6 0.0000 0.0000 0.0000 9.9739 0.0000 20.5130
#
#
#
# Elastic Compliance Matrix: (Units=1/GPa)
#
#
# Indices 1 2 3 4 5 6 
#
# 1 0.011016 -0.000603 -0.003811 0.000000 0.001527 0.000000
# 2 -0.000603 0.011990 -0.001934 0.000000 -0.000289 0.000000
# 3 -0.003811 -0.001934 0.009963 0.000000 -0.002546 0.000000
# 4 0.000000 0.000000 0.000000 0.044332 0.000000 -0.021555
# 5 0.001527 -0.000289 -0.002546 0.000000 0.023349 0.000000
# 6 0.000000 0.000000 0.000000 -0.021555 0.000000 0.059230
#
#
# Mechanical properties :
#
#
# Convention : Reuss Voigt Hill
#
# Bulk Modulus (GPa) = 49.32704 52.45030 50.88867
# Shear Modulus (GPa) = 27.88095 34.48300 31.18197
#
# Velocity S-wave (km/s) = 3.50911 3.90252 3.71103
# Velocity P-wave (km/s) = 6.18095 6.59328 6.39044
#
# Compressibility (1/GPa) = 0.02027286
#
# Stress axis : x y z
#
# Youngs Moduli (GPa) = 90.77487 83.40597 100.36825
#
# Poissons Ratio (x) = 0.05029 0.38254
# Poissons Ratio (y) = 0.05473 0.19409
# Poissons Ratio (z) = 0.34598 0.16129
#
# Static dielectric constant tensor:
#      x y z
#    x 4.105810 0.000000 0.353220 
#    y 0.000000 4.476730 0.000000 
#    z 0.353220 0.000000 3.513160 
# 
# 
# High freq. dielectric constant tensor:
#      x y z
#    x 1.882880 0.000000 0.028530 
#    y 0.000000 1.897990 0.000000 
#    z 0.028530 0.000000 1.901240 
# 
# From -- ./inp_files/11590.got.cif
#   From: 2010.06.25/outbox.cif.g09.slc.cpg/sg13_6_cif.got.tgz:11590.got - 2010.06.28 04:50:58.
