data_PCOD8122321
_publ_section_title
;
Structure prediction by ZEFSAII (Michael W. Deem and Ramdas Pophale) SiO2 
 PCOD8122321
Probable space group: P 2/C
;
_chemical_formula_sum "Si O2"
_cell_formula_units_Z 22
_cell_length_a 15.789337
_cell_length_b 5.395568
_cell_length_c 21.565124
_cell_angle_alpha 90.000000
_cell_angle_beta 145.843576
_cell_angle_gamma 90.000000
_cell_volume 1031.495521
_symmetry_space_group_name_H-M "P 2/C"
_symmetry_group_IT_number 13
_symmetry_cell_setting 'monoclinic'
loop_
_space_group_symop_operation_xyz
x,y,z
-x,y,1/2-z
-x,-y,-z
x,-y,1/2+z
loop_
_atom_site_type_symbol
_atom_site_label
_atom_site_fract_x
_atom_site_fract_y
_atom_site_fract_z
Si Si1 0.014885 0.169399 0.684930
Si Si2 0.684363 0.904718 0.956497
Si Si3 0.500000 0.213646 0.750000
Si Si4 0.575706 0.479915 0.183520
Si Si5 0.422084 0.194767 0.497035
Si Si6 0.191301 0.663035 0.763048
O O1 0.856201 0.177285 0.552192
O O2 0.000000 0.180457 0.750000
O O3 0.089641 0.420036 0.705063
O O4 0.102686 0.920539 0.718082
O O5 0.577004 0.673705 0.903652
O O6 0.624165 0.048151 0.859722
O O7 0.687941 0.073468 0.019451
O O8 0.401362 0.379223 0.737625
O O9 0.724074 0.323415 0.253420
O O10 0.555520 0.668272 0.114082
O O11 0.317371 0.373209 0.392868
O O12 0.500000 0.000000 0.500000
#
# Coordination Sequence:
#
# PCOD8122321 Si02
#       6
#     4   4   2   4   4   4
#     4  12  26  42  67 107 153 184 218 283 372 434
#     4  11  24  44  71  98 140 189 241 289 349 425
#     4  10  26  46  74  96 128 190 262 292 342 400
#     4  11  24  43  73  96 137 186 244 295 338 421
#     4  11  21  39  67 108 137 180 232 292 353 423
#     4  12  25  42  67 109 145 180 226 286 362 424
#
# _framework density 21.328257000000001
#
# number of rings (size 3 to 8) (size 9 to 14) (size 15 to 20)
#    0.000    0.727    3.636    3.818    7.636    0.000 
#    0.000    1.818    0.000    0.000    0.000    0.000 
#    0.000    0.000    0.000    0.000    0.000    0.000 
#
# Total GULP energy -272761.296623 kJ/mol
# GULP energy per Si atom -12398.240756 kJ/mol
# Density = 2.127971 g / cm^3
# Si number density = 21.328257 Si / 1000 Ang^3
#
#
#
# Elastic Constant Matrix: (Units=GPa)
#
#
# Indices 1 2 3 4 5 6 
#
# 1 120.9902 62.3029 76.5330 0.0000 1.9400 0.0000
# 2 62.3029 122.0020 36.9450 0.0000 2.0958 0.0000
# 3 76.5330 36.9450 106.4022 0.0000 -1.6109 0.0000
# 4 0.0000 0.0000 0.0000 13.1843 0.0000 -14.6146
# 5 1.9400 2.0958 -1.6109 0.0000 33.8961 0.0000
# 6 0.0000 0.0000 0.0000 -14.6146 0.0000 37.7911
#
#
#
# Elastic Compliance Matrix: (Units=1/GPa)
#
#
# Indices 1 2 3 4 5 6 
#
# 1 0.018484 -0.006019 -0.011223 0.000000 -0.001219 0.000000
# 2 -0.006019 0.011138 0.000458 0.000000 -0.000322 0.000000
# 3 -0.011223 0.000458 0.017334 0.000000 0.001438 0.000000
# 4 0.000000 0.000000 0.000000 0.132757 0.000000 0.051340
# 5 -0.001219 -0.000322 0.001438 0.000000 0.029660 0.000000
# 6 0.000000 0.000000 0.000000 0.051340 0.000000 0.046315
#
#
# Mechanical properties :
#
#
# Convention : Reuss Voigt Hill
#
# Bulk Modulus (GPa) = 74.71179 77.88401 76.29790
# Shear Modulus (GPa) = 17.02305 28.54853 22.78579
#
# Velocity S-wave (km/s) = 2.82821 3.66256 3.27209
# Velocity P-wave (km/s) = 6.76540 7.38119 7.07999
#
# Compressibility (1/GPa) = 0.01338477
#
# Stress axis : x y z
#
# Youngs Moduli (GPa) = 54.10145 89.78659 57.69033
#
# Poissons Ratio (x) = 0.54047 0.64748
# Poissons Ratio (y) = 0.32566 -0.02640
# Poissons Ratio (z) = 0.60720 -0.04109
#
# Static dielectric constant tensor:
#      x y z
#    x 4.139330 0.000000 0.124930 
#    y 0.000000 3.956340 0.000000 
#    z 0.124930 0.000000 4.025960 
# 
# 
# High freq. dielectric constant tensor:
#      x y z
#    x 1.843850 0.000000 0.003100 
#    y 0.000000 1.853220 0.000000 
#    z 0.003100 0.000000 1.821140 
# 
# From -- ./inp_files/72071.got.cif
#   From: 2010.06.25/outbox.cif.g09.slc.cpg/sg13_37_cif.got.tgz:72071.got - 2010.06.28 04:50:58.
