data_PCOD8122752
_publ_section_title
;
Structure prediction by ZEFSAII (Michael W. Deem and Ramdas Pophale) SiO2 
 PCOD8122752
Probable space group: P 2/C
;
_chemical_formula_sum "Si O2"
_cell_formula_units_Z 18
_cell_length_a 8.347996
_cell_length_b 5.002970
_cell_length_c 23.651540
_cell_angle_alpha 90.000000
_cell_angle_beta 135.926879
_cell_angle_gamma 90.000000
_cell_volume 687.090646
_symmetry_space_group_name_H-M "P 2/C"
_symmetry_group_IT_number 13
_symmetry_cell_setting 'monoclinic'
loop_
_space_group_symop_operation_xyz
x,y,z
-x,y,1/2-z
-x,-y,-z
x,-y,1/2+z
loop_
_atom_site_type_symbol
_atom_site_label
_atom_site_fract_x
_atom_site_fract_y
_atom_site_fract_z
Si Si1 0.433530 0.873960 0.922762
Si Si2 0.000000 0.001531 0.250000
Si Si3 0.659381 0.630319 0.438653
Si Si4 0.752607 0.116364 0.793918
Si Si5 0.866178 0.591757 0.886000
O O1 0.160201 0.842662 0.837267
O O2 0.529305 0.573805 0.947220
O O3 0.540842 0.079049 0.903847
O O4 0.500000 0.000000 0.000000
O O5 0.815649 0.844599 0.243104
O O6 0.665186 0.481587 0.379860
O O7 0.912573 0.699193 0.525406
O O8 0.500000 0.215595 0.750000
O O9 0.930122 0.317305 0.869822
O O10 0.777949 0.811420 0.819794
#
# Coordination Sequence:
#
# PCOD8122752 Si02
#       5
#     4   2   4   4   4
#     4  12  26  45  68 103 144 184 236 292 348 418
#     4  12  28  46  76 106 140 190 236 286 356 418
#     4  11  23  43  70 100 139 187 236 289 352 418
#     4  12  26  45  68 103 144 184 236 292 348 418
#     4  11  23  43  70 100 139 187 236 289 352 418
#
# _framework density 26.197413999999998
#
# number of rings (size 3 to 8) (size 9 to 14) (size 15 to 20)
#    0.000    0.444    0.000    9.333    0.000    8.889 
#    0.000    0.000    0.000    0.000    0.000    0.000 
#    0.000    0.000    0.000    0.000    0.000    0.000 
#
# Total GULP energy -223022.181660 kJ/mol
# GULP energy per Si atom -12390.121203 kJ/mol
# Density = 2.613779 g / cm^3
# Si number density = 26.197414 Si / 1000 Ang^3
#
#
#
# Elastic Constant Matrix: (Units=GPa)
#
#
# Indices 1 2 3 4 5 6 
#
# 1 131.9399 8.6825 29.9684 0.0000 -13.3078 0.0000
# 2 8.6825 103.7426 -1.3816 0.0000 -2.5202 0.0000
# 3 29.9684 -1.3816 115.3365 0.0000 -6.0487 0.0000
# 4 0.0000 0.0000 0.0000 30.5901 0.0000 1.3002
# 5 -13.3078 -2.5202 -6.0487 0.0000 40.5887 0.0000
# 6 0.0000 0.0000 0.0000 1.3002 0.0000 31.6441
#
#
#
# Elastic Compliance Matrix: (Units=1/GPa)
#
#
# Indices 1 2 3 4 5 6 
#
# 1 0.008328 -0.000666 -0.002047 0.000000 0.002384 0.000000
# 2 -0.000666 0.009710 0.000312 0.000000 0.000431 0.000000
# 3 -0.002047 0.000312 0.009244 0.000000 0.000726 0.000000
# 4 0.000000 0.000000 0.000000 0.032747 0.000000 -0.001346
# 5 0.002384 0.000431 0.000726 0.000000 0.025554 0.000000
# 6 0.000000 0.000000 0.000000 -0.001346 0.000000 0.031657
#
#
# Mechanical properties :
#
#
# Convention : Reuss Voigt Hill
#
# Bulk Modulus (GPa) = 44.48498 47.28418 45.88458
# Shear Modulus (GPa) = 38.59928 41.48123 40.04025
#
# Velocity S-wave (km/s) = 3.84265 3.98352 3.91372
# Velocity P-wave (km/s) = 6.05851 6.26469 6.16246
#
# Compressibility (1/GPa) = 0.02247950
#
# Stress axis : x y z
#
# Youngs Moduli (GPa) = 120.06982 102.99050 108.17871
#
# Poissons Ratio (x) = 0.06863 0.22144
# Poissons Ratio (y) = 0.08001 -0.03376
# Poissons Ratio (z) = 0.24578 -0.03214
#
# Static dielectric constant tensor:
#      x y z
#    x 5.039600 0.000000 -0.072740 
#    y 0.000000 4.539950 0.000000 
#    z -0.072740 0.000000 4.805650 
# 
# 
# High freq. dielectric constant tensor:
#      x y z
#    x 2.054850 0.000000 -0.004150 
#    y 0.000000 2.034070 0.000000 
#    z -0.004150 0.000000 2.064790 
# 
# From -- ./inp_files/61951.got.cif
#   From: 2010.06.25/outbox.cif.g09.slc.cpg/sg13_31_cif.got.tgz:61951.got - 2010.06.28 04:50:58.
