data_PCOD8122768
_publ_section_title
;
Structure prediction by ZEFSAII (Michael W. Deem and Ramdas Pophale) SiO2 
 PCOD8122768
Probable space group: P 2/C
;
_chemical_formula_sum "Si O2"
_cell_formula_units_Z 20
_cell_length_a 11.180861
_cell_length_b 7.757311
_cell_length_c 17.337116
_cell_angle_alpha 90.000000
_cell_angle_beta 143.802850
_cell_angle_gamma 90.000000
_cell_volume 888.037691
_symmetry_space_group_name_H-M "P 2/C"
_symmetry_group_IT_number 13
_symmetry_cell_setting 'monoclinic'
loop_
_space_group_symop_operation_xyz
x,y,z
-x,y,1/2-z
-x,-y,-z
x,-y,1/2+z
loop_
_atom_site_type_symbol
_atom_site_label
_atom_site_fract_x
_atom_site_fract_y
_atom_site_fract_z
Si Si1 0.201797 0.264844 0.395046
Si Si2 0.508495 0.406253 0.664069
Si Si3 0.424803 0.233830 0.359618
Si Si4 0.192726 0.956109 0.495830
Si Si5 0.758771 0.082662 0.817562
O O1 0.290341 0.391796 0.507375
O O2 0.382886 0.227728 0.428933
O O3 0.000000 0.345443 0.250000
O O4 0.134909 0.083652 0.396830
O O5 0.500000 0.436853 0.750000
O O6 0.626525 0.572156 0.693293
O O7 0.628351 0.229815 0.708102
O O8 0.656450 0.188815 0.458525
O O9 0.276055 0.102300 0.239389
O O10 0.993759 0.865664 0.427479
O O11 0.296103 0.067020 0.619580
#
# Coordination Sequence:
#
# PCOD8122768 Si02
#       5
#     4   4   4   4   4
#     4  12  25  46  69 105 145 182 228 296 351 410
#     4  12  25  46  74 104 144 186 234 290 345 419
#     4  12  25  44  72 106 139 186 239 287 354 417
#     4  11  23  44  71 103 141 188 230 288 352 417
#     4  11  23  45  73 103 139 183 240 286 346 415
#
# _framework density 22.521567000000001
#
# number of rings (size 3 to 8) (size 9 to 14) (size 15 to 20)
#    0.000    0.400    6.000    3.000    0.000    1.600 
#    0.000    5.000    0.000    0.000    0.000    0.000 
#    0.000    0.000    0.000    0.000    0.000    0.000 
#
# Total GULP energy -248041.773566 kJ/mol
# GULP energy per Si atom -12402.088678 kJ/mol
# Density = 2.247031 g / cm^3
# Si number density = 22.521567 Si / 1000 Ang^3
#
#
#
# Elastic Constant Matrix: (Units=GPa)
#
#
# Indices 1 2 3 4 5 6 
#
# 1 124.4098 31.6943 38.8953 0.0000 -13.2193 0.0000
# 2 31.6943 121.8561 42.5687 0.0000 -2.2593 0.0000
# 3 38.8953 42.5687 137.6560 0.0000 -8.3489 0.0000
# 4 0.0000 0.0000 0.0000 13.4882 0.0000 -1.6357
# 5 -13.2193 -2.2593 -8.3489 0.0000 41.0496 0.0000
# 6 0.0000 0.0000 0.0000 -1.6357 0.0000 15.6522
#
#
#
# Elastic Compliance Matrix: (Units=1/GPa)
#
#
# Indices 1 2 3 4 5 6 
#
# 1 0.009353 -0.001700 -0.001964 0.000000 0.002519 0.000000
# 2 -0.001700 0.009509 -0.002493 0.000000 -0.000531 0.000000
# 3 -0.001964 -0.002493 0.008650 0.000000 0.000990 0.000000
# 4 0.000000 0.000000 0.000000 0.075090 0.000000 0.007847
# 5 0.002519 -0.000531 0.000990 0.000000 0.025344 0.000000
# 6 0.000000 0.000000 0.000000 0.007847 0.000000 0.064709
#
#
# Mechanical properties :
#
#
# Convention : Reuss Voigt Hill
#
# Bulk Modulus (GPa) = 65.79270 67.80425 66.79848
# Shear Modulus (GPa) = 23.80556 32.08893 27.94724
#
# Velocity S-wave (km/s) = 3.25470 3.77876 3.52648
# Velocity P-wave (km/s) = 6.58792 7.01501 6.80482
#
# Compressibility (1/GPa) = 0.01519925
#
# Stress axis : x y z
#
# Youngs Moduli (GPa) = 106.92086 105.15901 115.60250
#
# Poissons Ratio (x) = 0.17874 0.22707
# Poissons Ratio (y) = 0.18173 0.28815
# Poissons Ratio (z) = 0.21002 0.26212
#
# Static dielectric constant tensor:
#      x y z
#    x 4.127260 0.000000 -0.083390 
#    y 0.000000 3.878280 0.000000 
#    z -0.083390 0.000000 4.027030 
# 
# 
# High freq. dielectric constant tensor:
#      x y z
#    x 1.898760 0.000000 -0.007660 
#    y 0.000000 1.869100 0.000000 
#    z -0.007660 0.000000 1.893230 
# 
# From -- ./inp_files/66146.got.cif
#   From: 2010.06.25/outbox.cif.g09.slc.cpg/sg13_34_cif.got.tgz:66146.got - 2010.06.28 04:50:58.
