data_PCOD8123519
_publ_section_title
;
Structure prediction by ZEFSAII (Michael W. Deem and Ramdas Pophale) SiO2 
 PCOD8123519
Probable space group: P 21/C
;
_chemical_formula_sum "Si O2"
_cell_formula_units_Z 28
_cell_length_a 19.360306
_cell_length_b 14.269498
_cell_length_c 8.511880
_cell_angle_alpha 90.000000
_cell_angle_beta 142.794431
_cell_angle_gamma 90.000000
_cell_volume 1421.901520
_symmetry_space_group_name_H-M "P 21/C"
_symmetry_group_IT_number 14
_symmetry_cell_setting 'monoclinic'
loop_
_space_group_symop_operation_xyz
x,y,z
-x,1/2+y,1/2-z
-x,-y,-z
x,1/2-y,1/2+z
loop_
_atom_site_type_symbol
_atom_site_label
_atom_site_fract_x
_atom_site_fract_y
_atom_site_fract_z
Si Si1 0.105952 0.282522 0.488211
Si Si2 0.658611 0.005872 0.245308
Si Si3 0.732549 0.691741 0.948477
Si Si4 0.453740 0.991649 0.660511
Si Si5 0.821469 0.492128 0.777700
Si Si6 0.001345 0.636159 0.006289
Si Si7 0.378705 0.106518 0.245001
O O1 0.177484 0.202163 0.529573
O O2 0.005782 0.233668 0.410895
O O3 0.054176 0.354695 0.268755
O O4 0.195727 0.334629 0.765043
O O5 0.649844 0.892753 0.252239
O O6 0.642216 0.049596 0.391210
O O7 0.778555 0.031958 0.378039
O O8 0.554317 0.038018 0.946694
O O9 0.659263 0.786485 0.838241
O O10 0.504056 0.909158 0.641207
O O11 0.400876 0.077174 0.464734
O O12 0.930347 0.560537 0.978488
O O13 0.718066 0.536889 0.494588
O O14 0.867064 0.396338 0.777080
#
# Coordination Sequence:
#
# PCOD8123519 Si02
#       7
#     4   4   4   4   4   4   4
#     4  10  18  32  52  81 109 133 180 225 269 308
#     4  10  19  34  53  81 113 136 180 225 268 313
#     4  11  18  31  57  83 103 135 171 240 272 300
#     4   9  20  32  52  78 111 143 170 223 267 322
#     4  10  19  34  54  77 110 144 172 215 274 325
#     4  10  20  34  53  79 109 142 173 218 273 323
#     4  10  18  35  56  81 109 139 181 222 278 313
#
# _framework density 19.691939999999999
#
# number of rings (size 3 to 8) (size 9 to 14) (size 15 to 20)
#    0.000    2.000    4.286    1.714    0.000    0.000 
#    0.000    3.571    0.000   25.714    0.000    0.000 
#    0.000    0.000    0.000    0.000    0.000    0.000 
#
# Total GULP energy -346932.025261 kJ/mol
# GULP energy per Si atom -12390.429474 kJ/mol
# Density = 1.964712 g / cm^3
# Si number density = 19.691940 Si / 1000 Ang^3
#
#
#
# Elastic Constant Matrix: (Units=GPa)
#
#
# Indices 1 2 3 4 5 6 
#
# 1 161.7062 29.8960 30.7929 0.0000 1.3658 0.0000
# 2 29.8960 50.1060 13.7944 0.0000 13.0902 0.0000
# 3 30.7929 13.7944 48.2059 0.0000 -4.8672 0.0000
# 4 0.0000 0.0000 0.0000 22.1580 0.0000 1.3365
# 5 1.3658 13.0902 -4.8672 0.0000 28.7196 0.0000
# 6 0.0000 0.0000 0.0000 1.3365 0.0000 23.3947
#
#
#
# Elastic Compliance Matrix: (Units=1/GPa)
#
#
# Indices 1 2 3 4 5 6 
#
# 1 0.007564 -0.003669 -0.003712 0.000000 0.000684 0.000000
# 2 -0.003669 0.027601 -0.006925 0.000000 -0.013580 0.000000
# 3 -0.003712 -0.006925 0.025877 0.000000 0.007719 0.000000
# 4 0.000000 0.000000 0.000000 0.045286 0.000000 -0.002587
# 5 0.000684 -0.013580 0.007719 0.000000 0.042285 0.000000
# 6 0.000000 0.000000 0.000000 -0.002587 0.000000 0.042892
#
#
# Mechanical properties :
#
#
# Convention : Reuss Voigt Hill
#
# Bulk Modulus (GPa) = 30.83830 45.44278 38.14054
# Shear Modulus (GPa) = 21.65167 27.22345 24.43756
#
# Velocity S-wave (km/s) = 3.31950 3.72219 3.52659
# Velocity P-wave (km/s) = 5.51239 6.44979 5.99943
#
# Compressibility (1/GPa) = 0.03242721
#
# Stress axis : x y z
#
# Youngs Moduli (GPa) = 132.21184 36.23006 38.64457
#
# Poissons Ratio (x) = 0.13294 0.14347
# Poissons Ratio (y) = 0.48514 0.26763
# Poissons Ratio (z) = 0.49083 0.25091
#
# Static dielectric constant tensor:
#      x y z
#    x 4.326780 0.000000 -0.160280 
#    y 0.000000 3.223550 0.000000 
#    z -0.160280 0.000000 3.466660 
# 
# 
# High freq. dielectric constant tensor:
#      x y z
#    x 1.797290 0.000000 -0.016000 
#    y 0.000000 1.721570 0.000000 
#    z -0.016000 0.000000 1.744180 
# 
# From -- ./inp_files/19015.got.cif
#   From: 2010.03.12/outbox.cif.g09.slc.cpg/sg14_10_cif.got.tgz:19015.got - 2010.03.31 13:35:05.
