data_PCOD8123845
_publ_section_title
;
Structure prediction by ZEFSAII (Michael W. Deem and Ramdas Pophale) SiO2 
 PCOD8123845
Probable space group: P 21/C
;
_chemical_formula_sum "Si O2"
_cell_formula_units_Z 28
_cell_length_a 6.867616
_cell_length_b 15.511057
_cell_length_c 14.319554
_cell_angle_alpha 90.000000
_cell_angle_beta 120.118282
_cell_angle_gamma 90.000000
_cell_volume 1319.436991
_symmetry_space_group_name_H-M "P 21/C"
_symmetry_group_IT_number 14
_symmetry_cell_setting 'monoclinic'
loop_
_space_group_symop_operation_xyz
x,y,z
-x,1/2+y,1/2-z
-x,-y,-z
x,1/2-y,1/2+z
loop_
_atom_site_type_symbol
_atom_site_label
_atom_site_fract_x
_atom_site_fract_y
_atom_site_fract_z
Si Si1 0.255857 0.996016 0.666569
Si Si2 0.041504 0.245833 0.328317
Si Si3 0.421486 0.837709 0.794845
Si Si4 0.282409 0.597245 0.462265
Si Si5 0.874463 0.874416 0.497385
Si Si6 0.093339 0.274541 0.623752
Si Si7 0.243218 0.075647 0.858771
O O1 0.448201 0.926027 0.739240
O O2 0.046618 0.941472 0.581095
O O3 0.320117 0.066681 0.601134
O O4 0.171609 0.046624 0.738356
O O5 0.203355 0.188123 0.435964
O O6 0.100460 0.224689 0.236581
O O7 0.088788 0.346104 0.357720
O O8 0.781703 0.223472 0.291138
O O9 0.365878 0.861715 0.886445
O O10 0.653296 0.787454 0.850336
O O11 0.491961 0.601218 0.583869
O O12 0.204912 0.499009 0.426232
O O13 0.073097 0.650747 0.453339
O O14 0.986097 0.815086 0.442328
#
# Coordination Sequence:
#
# PCOD8123845 Si02
#       7
#     4   4   4   4   4   4   4
#     4   9  19  38  62  87 124 164 199 256 321 361
#     4  10  21  37  63  91 124 164 207 259 308 374
#     4   9  20  39  60  93 127 161 211 260 303 376
#     4   9  21  37  62  89 124 165 208 260 310 370
#     4  10  20  38  63  88 121 163 205 255 311 373
#     4  11  21  40  63  92 124 165 210 258 313 373
#     4  10  18  39  62  91 126 165 208 260 313 371
#
# _framework density 21.221171999999999
#
# number of rings (size 3 to 8) (size 9 to 14) (size 15 to 20)
#    0.000    2.286    1.429    1.714    0.000    2.286 
#    2.571   10.714    0.000    0.000    0.000    0.000 
#    0.000    0.000    0.000    0.000    0.000    0.000 
#
# Total GULP energy -346902.755034 kJ/mol
# GULP energy per Si atom -12389.384108 kJ/mol
# Density = 2.117287 g / cm^3
# Si number density = 21.221172 Si / 1000 Ang^3
#
#
#
# Elastic Constant Matrix: (Units=GPa)
#
#
# Indices 1 2 3 4 5 6 
#
# 1 72.2866 44.6531 28.8044 0.0000 13.2800 0.0000
# 2 44.6531 144.5651 67.7946 0.0000 11.4913 0.0000
# 3 28.8044 67.7946 102.4321 0.0000 -7.7017 0.0000
# 4 0.0000 0.0000 0.0000 48.1591 0.0000 -3.6576
# 5 13.2800 11.4913 -7.7017 0.0000 22.4416 0.0000
# 6 0.0000 0.0000 0.0000 -3.6576 0.0000 21.0847
#
#
#
# Elastic Compliance Matrix: (Units=1/GPa)
#
#
# Indices 1 2 3 4 5 6 
#
# 1 0.019582 -0.003118 -0.004305 0.000000 -0.011469 0.000000
# 2 -0.003118 0.011976 -0.007567 0.000000 -0.006885 0.000000
# 3 -0.004305 -0.007567 0.016901 0.000000 0.012223 0.000000
# 4 0.000000 0.000000 0.000000 0.021042 0.000000 0.003650
# 5 -0.011469 -0.006885 0.012223 0.000000 0.059067 0.000000
# 6 0.000000 0.000000 0.000000 0.003650 0.000000 0.048061
#
#
# Mechanical properties :
#
#
# Convention : Reuss Voigt Hill
#
# Bulk Modulus (GPa) = 54.11817 66.86536 60.49176
# Shear Modulus (GPa) = 23.49948 30.20583 26.85265
#
# Velocity S-wave (km/s) = 3.33131 3.77687 3.56106
# Velocity P-wave (km/s) = 6.35249 7.11314 6.74355
#
# Compressibility (1/GPa) = 0.01847808
#
# Stress axis : x y z
#
# Youngs Moduli (GPa) = 51.06609 83.49755 59.16869
#
# Poissons Ratio (x) = 0.26033 0.25475
# Poissons Ratio (y) = 0.15922 0.44776
# Poissons Ratio (z) = 0.21986 0.63186
#
# Static dielectric constant tensor:
#      x y z
#    x 3.245980 0.000000 0.097700 
#    y 0.000000 4.466450 0.000000 
#    z 0.097700 0.000000 4.411520 
# 
# 
# High freq. dielectric constant tensor:
#      x y z
#    x 1.761070 0.000000 0.001500 
#    y 0.000000 1.855880 0.000000 
#    z 0.001500 0.000000 1.860000 
# 
# From -- ./inp_files/41024.got.cif
#   From: 2010.03.12/outbox.cif.g09.slc.cpg/sg14_21_cif.got.tgz:41024.got - 2010.03.31 13:35:05.
