data_PCOD8123493
_publ_section_title
;
Structure prediction by ZEFSAII (Michael W. Deem and Ramdas Pophale) SiO2 
 PCOD8123493
Probable space group: P 21/C
;
_chemical_formula_sum "Si O2"
_cell_formula_units_Z 32
_cell_length_a 14.173200
_cell_length_b 9.255705
_cell_length_c 23.814350
_cell_angle_alpha 90.000000
_cell_angle_beta 33.028094
_cell_angle_gamma 90.000000
_cell_volume 1702.756917
_symmetry_space_group_name_H-M "P 21/C"
_symmetry_group_IT_number 14
_symmetry_cell_setting 'monoclinic'
loop_
_space_group_symop_operation_xyz
x,y,z
-x,1/2+y,1/2-z
-x,-y,-z
x,1/2-y,1/2+z
loop_
_atom_site_type_symbol
_atom_site_label
_atom_site_fract_x
_atom_site_fract_y
_atom_site_fract_z
Si Si1 0.708809 0.834236 0.006948
Si Si2 0.201699 0.803033 0.146945
Si Si3 0.986288 0.311268 0.447138
Si Si4 0.144671 0.366474 0.681490
Si Si5 0.338961 0.826772 0.961190
Si Si6 0.965582 0.350981 0.586133
Si Si7 0.668546 0.306337 0.296141
Si Si8 0.278167 0.139536 0.238182
O O1 0.742487 0.795628 0.924895
O O2 0.870089 0.780797 0.963966
O O3 0.530503 0.763311 0.118253
O O4 0.683126 0.003243 0.026364
O O5 0.319027 0.788830 0.143160
O O6 0.048153 0.690196 0.225975
O O7 0.124991 0.963412 0.181112
O O8 0.315908 0.764577 0.035419
O O9 0.806313 0.261309 0.507946
O O10 0.966853 0.289032 0.522973
O O11 0.030443 0.476658 0.411825
O O12 0.140340 0.210664 0.348419
O O13 0.232148 0.326228 0.696646
O O14 0.533108 0.790612 0.843237
O O15 0.788846 0.305334 0.703914
O O16 0.719917 0.468060 0.251789
#
# Coordination Sequence:
#
# PCOD8123493 Si02
#       8
#     4   4   4   4   4   4   4   4
#     4   9  18  34  54  76 106 139 169 207 257 311
#     4  10  18  31  54  79 104 135 169 207 257 310
#     4  10  21  37  55  75 103 140 176 211 258 308
#     4  10  18  31  54  79 104 135 169 207 257 310
#     4   9  18  34  54  76 106 139 169 207 257 311
#     4  10  21  37  55  75 103 140 176 211 258 308
#     4  10  20  34  55  80 103 134 176 214 253 305
#     4  10  20  34  55  80 103 134 176 214 253 305
#
# _framework density 18.793053
#
# number of rings (size 3 to 8) (size 9 to 14) (size 15 to 20)
#    0.000    2.250    2.500    0.750    0.000    4.500 
#    0.000    2.500    0.000    3.000    0.000    0.000 
#    0.000    0.000    0.000    0.000    0.000    0.000 
#
# Total GULP energy -396755.148188 kJ/mol
# GULP energy per Si atom -12398.598381 kJ/mol
# Density = 1.875028 g / cm^3
# Si number density = 18.793053 Si / 1000 Ang^3
#
#
#
# Elastic Constant Matrix: (Units=GPa)
#
#
# Indices 1 2 3 4 5 6 
#
# 1 66.8693 8.4681 32.5572 0.0000 10.0352 0.0000
# 2 8.4681 14.5338 1.1660 0.0000 3.4270 0.0000
# 3 32.5572 1.1660 58.7710 0.0000 -10.1832 0.0000
# 4 0.0000 0.0000 0.0000 27.7155 0.0000 -3.9683
# 5 10.0352 3.4270 -10.1832 0.0000 34.9137 0.0000
# 6 0.0000 0.0000 0.0000 -3.9683 0.0000 14.4746
#
#
#
# Elastic Compliance Matrix: (Units=1/GPa)
#
#
# Indices 1 2 3 4 5 6 
#
# 1 0.025787 -0.011157 -0.015965 0.000000 -0.010974 0.000000
# 2 -0.011157 0.075682 0.004157 0.000000 -0.003009 0.000000
# 3 -0.015965 0.004157 0.027912 0.000000 0.012322 0.000000
# 4 0.000000 0.000000 0.000000 0.037555 0.000000 0.010296
# 5 -0.010974 -0.003009 0.012322 0.000000 0.035685 0.000000
# 6 0.000000 0.000000 0.000000 0.010296 0.000000 0.071909
#
#
# Mechanical properties :
#
#
# Convention : Reuss Voigt Hill
#
# Bulk Modulus (GPa) = 11.98292 24.95074 18.46683
# Shear Modulus (GPa) = 14.35637 21.95294 18.15466
#
# Velocity S-wave (km/s) = 2.76691 3.42152 3.11147
# Velocity P-wave (km/s) = 4.07404 5.37721 4.77034
#
# Compressibility (1/GPa) = 0.08345212
#
# Stress axis : x y z
#
# Youngs Moduli (GPa) = 38.77862 13.21322 35.82688
#
# Poissons Ratio (x) = 0.14741 0.57199
# Poissons Ratio (y) = 0.43264 -0.14895
# Poissons Ratio (z) = 0.61912 -0.05493
#
# Static dielectric constant tensor:
#      x y z
#    x 3.774270 0.000000 -0.116490 
#    y 0.000000 3.132250 0.000000 
#    z -0.116490 0.000000 3.563470 
# 
# 
# High freq. dielectric constant tensor:
#      x y z
#    x 1.736850 0.000000 -0.005280 
#    y 0.000000 1.693040 0.000000 
#    z -0.005280 0.000000 1.738040 
# 
# From -- ./inp_files/29373.got.cif
#   From: 2010.03.12/outbox.cif.g09.slc.cpg/sg14_15_cif.got.tgz:29373.got - 2010.03.31 13:35:05.
