data_PCOD8123415
_publ_section_title
;
Structure prediction by ZEFSAII (Michael W. Deem and Ramdas Pophale) SiO2 
 PCOD8123415
Probable space group: P 21/C
;
_chemical_formula_sum "Si O2"
_cell_formula_units_Z 24
_cell_length_a 7.662255
_cell_length_b 16.976560
_cell_length_c 9.723735
_cell_angle_alpha 90.000000
_cell_angle_beta 105.812334
_cell_angle_gamma 90.000000
_cell_volume 1216.988338
_symmetry_space_group_name_H-M "P 21/C"
_symmetry_group_IT_number 14
_symmetry_cell_setting 'monoclinic'
loop_
_space_group_symop_operation_xyz
x,y,z
-x,1/2+y,1/2-z
-x,-y,-z
x,1/2-y,1/2+z
loop_
_atom_site_type_symbol
_atom_site_label
_atom_site_fract_x
_atom_site_fract_y
_atom_site_fract_z
Si Si1 0.576499 0.347965 0.857756
Si Si2 0.357666 0.941255 0.900826
Si Si3 0.320401 0.446995 0.952282
Si Si4 0.211760 0.415408 0.234638
Si Si5 0.814013 0.401345 0.149052
Si Si6 0.587965 0.162606 0.848104
O O1 0.565031 0.389077 0.707101
O O2 0.381658 0.367427 0.887302
O O3 0.601350 0.255424 0.853397
O O4 0.749406 0.379020 0.981220
O O5 0.203236 0.999410 0.808829
O O6 0.294431 0.878904 0.004625
O O7 0.500000 0.000000 0.000000
O O8 0.181522 0.502721 0.837519
O O9 0.500000 0.500000 0.000000
O O10 0.231205 0.426235 0.076745
O O11 0.377720 0.361860 0.322814
O O12 0.019414 0.371752 0.221527
O O13 0.667961 0.364846 0.220738
#
# Coordination Sequence:
#
# PCOD8123415 Si02
#       6
#     4   4   4   4   4   4
#     4  11  21  40  65  87 124 169 201 256 317 368
#     4  10  21  37  61  90 120 160 206 254 303 361
#     4  10  17  36  64  88 110 160 211 246 290 363
#     4  11  21  40  65  92 119 162 214 254 302 369
#     4  11  22  40  66  90 119 161 218 253 296 377
#     4  11  23  41  60  89 133 161 198 257 322 372
#
# _framework density 19.720813
#
# number of rings (size 3 to 8) (size 9 to 14) (size 15 to 20)
#    0.000    1.333    6.667    2.500    0.000    0.667 
#    3.000    1.667    0.000    0.000    0.000    0.000 
#    0.000    0.000    0.000    0.000    0.000    0.000 
#
# Total GULP energy -297353.894063 kJ/mol
# GULP energy per Si atom -12389.745586 kJ/mol
# Density = 1.967593 g / cm^3
# Si number density = 19.720813 Si / 1000 Ang^3
#
#
#
# Elastic Constant Matrix: (Units=GPa)
#
#
# Indices 1 2 3 4 5 6 
#
# 1 84.9606 14.0721 20.9710 0.0000 11.2306 0.0000
# 2 14.0721 117.4340 48.3847 0.0000 4.8495 0.0000
# 3 20.9710 48.3847 101.2041 0.0000 -6.6817 0.0000
# 4 0.0000 0.0000 0.0000 20.0406 0.0000 0.4147
# 5 11.2306 4.8495 -6.6817 0.0000 10.2443 0.0000
# 6 0.0000 0.0000 0.0000 0.4147 0.0000 13.3219
#
#
#
# Elastic Compliance Matrix: (Units=1/GPa)
#
#
# Indices 1 2 3 4 5 6 
#
# 1 0.015643 0.001125 -0.005169 0.000000 -0.021052 0.000000
# 2 0.001125 0.011483 -0.006441 0.000000 -0.010870 0.000000
# 3 -0.005169 -0.006441 0.015264 0.000000 0.018671 0.000000
# 4 0.000000 0.000000 0.000000 0.049931 0.000000 -0.001554
# 5 -0.021052 -0.010870 0.018671 0.000000 0.138017 0.000000
# 6 0.000000 0.000000 0.000000 -0.001554 0.000000 0.075113
#
#
# Mechanical properties :
#
#
# Convention : Reuss Voigt Hill
#
# Bulk Modulus (GPa) = 46.68585 52.27268 49.47926
# Shear Modulus (GPa) = 14.98981 23.39943 19.19462
#
# Velocity S-wave (km/s) = 2.75998 3.44835 3.12319
# Velocity P-wave (km/s) = 5.82078 6.51296 6.17658
#
# Compressibility (1/GPa) = 0.02141977
#
# Stress axis : x y z
#
# Youngs Moduli (GPa) = 63.92821 87.08385 65.51354
#
# Poissons Ratio (x) = -0.09793 0.33863
# Poissons Ratio (y) = -0.07189 0.42195
# Poissons Ratio (z) = 0.33044 0.56088
#
# Static dielectric constant tensor:
#      x y z
#    x 3.625270 0.000000 0.022720 
#    y 0.000000 3.852600 0.000000 
#    z 0.022720 0.000000 3.830110 
# 
# 
# High freq. dielectric constant tensor:
#      x y z
#    x 1.741090 0.000000 -0.003300 
#    y 0.000000 1.765890 0.000000 
#    z -0.003300 0.000000 1.777220 
# 
# From -- ./inp_files/9117.got.cif
#   From: 2010.03.12/outbox.cif.g09.slc.cpg/sg14_5_cif.got.tgz:9117.got - 2010.03.31 13:35:05.
