data_PCOD8123669
_publ_section_title
;
Structure prediction by ZEFSAII (Michael W. Deem and Ramdas Pophale) SiO2 
 PCOD8123669
Probable space group: P 21/C
;
_chemical_formula_sum "Si O2"
_cell_formula_units_Z 24
_cell_length_a 20.749921
_cell_length_b 4.931234
_cell_length_c 17.477174
_cell_angle_alpha 90.000000
_cell_angle_beta 148.165806
_cell_angle_gamma 90.000000
_cell_volume 943.268215
_symmetry_space_group_name_H-M "P 21/C"
_symmetry_group_IT_number 14
_symmetry_cell_setting 'monoclinic'
loop_
_space_group_symop_operation_xyz
x,y,z
-x,1/2+y,1/2-z
-x,-y,-z
x,1/2-y,1/2+z
loop_
_atom_site_type_symbol
_atom_site_label
_atom_site_fract_x
_atom_site_fract_y
_atom_site_fract_z
Si Si1 0.162570 0.499039 0.229642
Si Si2 0.976747 0.496660 0.387841
Si Si3 0.200359 0.812815 0.606172
Si Si4 0.510967 0.916167 0.359942
Si Si5 0.400801 0.779146 0.922851
Si Si6 0.631110 0.915229 0.329933
O O1 0.074877 0.705571 0.189054
O O2 0.135007 0.512359 0.108732
O O3 0.305836 0.571315 0.385595
O O4 0.134391 0.209300 0.237915
O O5 0.000000 0.500000 0.500000
O O6 0.104785 0.587746 0.477468
O O7 0.323789 0.679790 0.769456
O O8 0.236535 0.003185 0.570765
O O9 0.547913 0.005848 0.483828
O O10 0.622697 0.965971 0.412711
O O11 0.470994 0.601807 0.316453
O O12 0.396906 0.103207 0.217747
O O13 0.500000 0.000000 0.000000
#
# Coordination Sequence:
#
# PCOD8123669 Si02
#       6
#     4   4   4   4   4   4
#     4   9  21  32  53  77 109 139 173 232 267 316
#     4  10  18  35  50  79 104 142 181 218 271 313
#     4   9  19  33  56  82 103 142 180 231 254 329
#     4  10  21  38  51  78 113 147 172 220 273 333
#     4  10  20  35  55  86 114 136 179 228 280 316
#     4  10  21  36  56  74 110 148 183 210 270 330
#
# _framework density 25.443449999999999
#
# number of rings (size 3 to 8) (size 9 to 14) (size 15 to 20)
#    1.000    1.333    1.667    2.000    0.000    8.667 
#    0.000    0.000    0.000    2.000    0.000    0.000 
#    0.000    0.000    0.000    0.000    0.000    0.000 
#
# Total GULP energy -297346.906107 kJ/mol
# GULP energy per Si atom -12389.454421 kJ/mol
# Density = 2.538554 g / cm^3
# Si number density = 25.443450 Si / 1000 Ang^3
#
#
#
# Elastic Constant Matrix: (Units=GPa)
#
#
# Indices 1 2 3 4 5 6 
#
# 1 100.0639 -6.2379 10.0138 0.0000 7.5413 0.0000
# 2 -6.2379 70.1484 3.4582 0.0000 4.7792 0.0000
# 3 10.0138 3.4582 56.3854 0.0000 22.2213 0.0000
# 4 0.0000 0.0000 0.0000 11.7566 0.0000 -2.8393
# 5 7.5413 4.7792 22.2213 0.0000 41.2058 0.0000
# 6 0.0000 0.0000 0.0000 -2.8393 0.0000 25.4452
#
#
#
# Elastic Compliance Matrix: (Units=1/GPa)
#
#
# Indices 1 2 3 4 5 6 
#
# 1 0.010295 0.001070 -0.001400 0.000000 -0.001253 0.000000
# 2 0.001070 0.014484 -0.000431 0.000000 -0.001643 0.000000
# 3 -0.001400 -0.000431 0.022718 0.000000 -0.011945 0.000000
# 4 0.000000 0.000000 0.000000 0.087414 0.000000 0.009754
# 5 -0.001253 -0.001643 -0.011945 0.000000 0.031130 0.000000
# 6 0.000000 0.000000 0.000000 0.009754 0.000000 0.040388
#
#
# Mechanical properties :
#
#
# Convention : Reuss Voigt Hill
#
# Bulk Modulus (GPa) = 21.75113 26.78511 24.26812
# Shear Modulus (GPa) = 22.39383 30.30575 26.34979
#
# Velocity S-wave (km/s) = 2.96994 3.45498 3.22160
# Velocity P-wave (km/s) = 4.50867 5.14451 4.83705
#
# Compressibility (1/GPa) = 0.04597461
#
# Stress axis : x y z
#
# Youngs Moduli (GPa) = 97.13581 69.04254 44.01876
#
# Poissons Ratio (x) = -0.07387 0.06163
# Poissons Ratio (y) = -0.10392 0.01896
# Poissons Ratio (z) = 0.13600 0.02973
#
# Static dielectric constant tensor:
#      x y z
#    x 4.927420 0.000000 0.644240 
#    y 0.000000 4.733070 0.000000 
#    z 0.644240 0.000000 4.517040 
# 
# 
# High freq. dielectric constant tensor:
#      x y z
#    x 2.006870 0.000000 0.043670 
#    y 0.000000 2.016750 0.000000 
#    z 0.043670 0.000000 1.967980 
# 
# From -- ./inp_files/70035.got.cif
#   From: 2010.03.12/outbox.cif.g09.slc.cpg/sg14_36_cif.got.tgz:70035.got - 2010.03.31 13:35:05.
