data_PCOD8123274
_publ_section_title
;
Structure prediction by ZEFSAII (Michael W. Deem and Ramdas Pophale) SiO2 
 PCOD8123274
Probable space group: P 21/C
;
_chemical_formula_sum "Si O2"
_cell_formula_units_Z 32
_cell_length_a 8.761368
_cell_length_b 15.490897
_cell_length_c 24.284499
_cell_angle_alpha 90.000000
_cell_angle_beta 150.747072
_cell_angle_gamma 90.000000
_cell_volume 1610.607092
_symmetry_space_group_name_H-M "P 21/C"
_symmetry_group_IT_number 14
_symmetry_cell_setting 'monoclinic'
loop_
_space_group_symop_operation_xyz
x,y,z
-x,1/2+y,1/2-z
-x,-y,-z
x,1/2-y,1/2+z
loop_
_atom_site_type_symbol
_atom_site_label
_atom_site_fract_x
_atom_site_fract_y
_atom_site_fract_z
Si Si1 0.482392 0.044990 0.116051
Si Si2 0.123328 0.278502 0.700339
Si Si3 0.779497 0.694574 0.391107
Si Si4 0.044626 0.134119 0.901707
Si Si5 0.620922 0.142573 0.870899
Si Si6 0.075274 0.356240 0.794333
Si Si7 0.535524 0.705465 0.987639
Si Si8 0.674356 0.312688 0.191223
O O1 0.345250 0.107588 0.119714
O O2 0.854694 0.059692 0.228755
O O3 0.415495 0.947681 0.109838
O O4 0.308991 0.065145 0.002875
O O5 0.259605 0.316226 0.686550
O O6 0.284785 0.186966 0.764114
O O7 0.213369 0.348673 0.775905
O O8 0.753034 0.260638 0.579290
O O9 0.605092 0.780690 0.357063
O O10 0.144847 0.703491 0.520690
O O11 0.755245 0.129789 0.852250
O O12 0.894027 0.118651 0.793313
O O13 0.195421 0.229521 0.948806
O O14 0.868487 0.271036 0.735420
O O15 0.338643 0.358382 0.924915
O O16 0.446727 0.648345 0.905209
#
# Coordination Sequence:
#
# PCOD8123274 Si02
#       8
#     4   4   4   4   4   4   4   4
#     4  10  20  37  57  85 118 153 186 229 306 344
#     4  11  20  34  55  89 114 145 200 240 280 332
#     4  10  18  32  54  85 112 147 186 236 282 336
#     4  10  16  32  55  82 112 147 181 232 281 349
#     4  11  21  33  59  89 118 144 187 249 290 335
#     4   9  19  35  56  78 114 155 190 231 282 353
#     4  10  18  34  57  81 109 150 198 235 277 338
#     4   9  16  29  55  83 106 144 198 228 274 333
#
# _framework density 19.868283999999999
#
# number of rings (size 3 to 8) (size 9 to 14) (size 15 to 20)
#    0.000    2.000    6.250    2.250    0.000    0.000 
#    0.000    1.250    8.250    0.750    0.000    0.000 
#    0.000    0.000    0.000    0.000    0.000    0.000 
#
# Total GULP energy -396575.821204 kJ/mol
# GULP energy per Si atom -12392.994413 kJ/mol
# Density = 1.982306 g / cm^3
# Si number density = 19.868284 Si / 1000 Ang^3
#
#
#
# Elastic Constant Matrix: (Units=GPa)
#
#
# Indices 1 2 3 4 5 6 
#
# 1 80.5890 1.0948 36.5812 0.0000 -26.2613 0.0000
# 2 1.0948 25.0353 15.9658 0.0000 1.9375 0.0000
# 3 36.5812 15.9658 121.5347 0.0000 -31.9114 0.0000
# 4 0.0000 0.0000 0.0000 12.0701 0.0000 2.7500
# 5 -26.2613 1.9375 -31.9114 0.0000 34.2013 0.0000
# 6 0.0000 0.0000 0.0000 2.7500 0.0000 13.7025
#
#
#
# Elastic Compliance Matrix: (Units=1/GPa)
#
#
# Indices 1 2 3 4 5 6 
#
# 1 0.016998 -0.000192 -0.002200 0.000000 0.011010 0.000000
# 2 -0.000192 0.046551 -0.008991 0.000000 -0.011174 0.000000
# 3 -0.002200 -0.008991 0.012929 0.000000 0.010884 0.000000
# 4 0.000000 0.000000 0.000000 0.086819 0.000000 -0.017424
# 5 0.011010 -0.011174 0.010884 0.000000 0.048480 0.000000
# 6 0.000000 0.000000 0.000000 -0.017424 0.000000 0.076476
#
#
# Mechanical properties :
#
#
# Convention : Reuss Voigt Hill
#
# Bulk Modulus (GPa) = 18.61851 37.16029 27.88940
# Shear Modulus (GPa) = 15.20106 23.56260 19.38183
#
# Velocity S-wave (km/s) = 2.76903 3.44748 3.12671
# Velocity P-wave (km/s) = 4.42885 5.88139 5.20603
#
# Compressibility (1/GPa) = 0.05370999
#
# Stress axis : x y z
#
# Youngs Moduli (GPa) = 58.83188 21.48187 77.34424
#
# Poissons Ratio (x) = 0.00413 0.17017
# Poissons Ratio (y) = 0.01131 0.69544
# Poissons Ratio (z) = 0.12944 0.19315
#
# Static dielectric constant tensor:
#      x y z
#    x 3.852450 0.000000 -0.174290 
#    y 0.000000 2.987600 0.000000 
#    z -0.174290 0.000000 4.101620 
# 
# 
# High freq. dielectric constant tensor:
#      x y z
#    x 1.784920 0.000000 -0.008460 
#    y 0.000000 1.706740 0.000000 
#    z -0.008460 0.000000 1.787320 
# 
# From -- ./inp_files/72484.got.cif
#   From: 2010.03.12/outbox.cif.g09.slc.cpg/sg14_37_cif.got.tgz:72484.got - 2010.03.31 13:35:05.
