data_PCOD8123201
_publ_section_title
;
Structure prediction by ZEFSAII (Michael W. Deem and Ramdas Pophale) SiO2 
 PCOD8123201
Probable space group: P 2/C
;
_chemical_formula_sum "Si O2"
_cell_formula_units_Z 14
_cell_length_a 5.107716
_cell_length_b 25.619445
_cell_length_c 5.108218
_cell_angle_alpha 90.000000
_cell_angle_beta 123.741220
_cell_angle_gamma 90.000000
_cell_volume 555.848866
_symmetry_space_group_name_H-M "P 2/C"
_symmetry_group_IT_number 13
_symmetry_cell_setting 'monoclinic'
loop_
_space_group_symop_operation_xyz
x,y,z
-x,y,1/2-z
-x,-y,-z
x,-y,1/2+z
loop_
_atom_site_type_symbol
_atom_site_label
_atom_site_fract_x
_atom_site_fract_y
_atom_site_fract_z
Si Si1 0.000000 0.751238 0.250000
Si Si2 0.500000 0.891452 0.750000
Si Si3 0.500000 0.678659 0.750000
Si Si4 0.500000 0.536161 0.250000
Si Si5 0.000000 0.178712 0.250000
Si Si6 0.000000 0.606190 0.750000
Si Si7 0.000000 0.036358 0.750000
O O1 0.309146 0.715752 0.448556
O O2 0.916991 0.785784 0.455683
O O3 0.293179 0.856868 0.830960
O O4 0.302831 0.926647 0.438330
O O5 0.259457 0.642076 0.764789
O O6 0.500000 0.500000 0.500000
O O7 0.817809 0.571060 0.433637
O O8 0.000000 0.000000 0.500000
#
# Coordination Sequence:
#
# PCOD8123201 Si02
#       7
#     2   2   2   2   2   2   2
#     4  12  29  52  79 115 154 203 257 316 383 454
#     4  12  29  52  80 115 156 203 256 316 383 454
#     4  12  28  50  78 112 154 202 254 316 380 454
#     4  12  27  50  78 113 154 201 254 316 381 454
#     4  12  30  52  80 115 156 203 256 318 382 456
#     4  12  27  50  77 113 154 201 255 314 381 454
#     4  12  28  50  78 113 154 201 254 314 380 454
#
# _framework density 25.186703000000001
#
# number of rings (size 3 to 8) (size 9 to 14) (size 15 to 20)
#    0.000    0.000    0.000    7.714    0.000   21.714 
#    0.000    0.000    0.000    0.000    0.000    0.000 
#    0.000    0.000    0.000    0.000    0.000    0.000 
#
# Total GULP energy -173661.585918 kJ/mol
# GULP energy per Si atom -12404.398994 kJ/mol
# Density = 2.512938 g / cm^3
# Si number density = 25.186703 Si / 1000 Ang^3
#
#
#
# Elastic Constant Matrix: (Units=GPa)
#
#
# Indices 1 2 3 4 5 6 
#
# 1 209.4911 124.1287 99.0300 0.0000 0.8616 0.0000
# 2 124.1287 217.3595 130.3626 0.0000 3.3738 0.0000
# 3 99.0300 130.3626 222.7588 0.0000 6.2732 0.0000
# 4 0.0000 0.0000 0.0000 -12.6564 0.0000 2.5407
# 5 0.8616 3.3738 6.2732 0.0000 59.5697 0.0000
# 6 0.0000 0.0000 0.0000 2.5407 0.0000 -8.3982
#
#
#
# Elastic Compliance Matrix: (Units=1/GPa)
#
#
# Indices 1 2 3 4 5 6 
#
# 1 0.007442 -0.003491 -0.001272 0.000000 0.000224 0.000000
# 2 -0.003491 0.008726 -0.003553 0.000000 -0.000070 0.000000
# 3 -0.001272 -0.003553 0.007149 0.000000 -0.000533 0.000000
# 4 0.000000 0.000000 0.000000 -0.084120 0.000000 -0.025449
# 5 0.000224 -0.000070 -0.000533 0.000000 0.016844 0.000000
# 6 0.000000 0.000000 0.000000 -0.025449 0.000000 -0.126772
#
#
# Mechanical properties :
#
#
# Convention : Reuss Voigt Hill
#
# Bulk Modulus (GPa) = 149.56598 150.73912 150.15255
# Shear Modulus (GPa) = -32.92261 27.44222 -2.74019
#
# Velocity S-wave (km/s) = -3.61936 3.30442 -1.04418
# Velocity P-wave (km/s) = 6.48424 8.63351 7.63489
#
# Compressibility (1/GPa) = 0.00668601
#
# Stress axis : x y z
#
# Youngs Moduli (GPa) = 134.37027 114.60006 139.88195
#
# Poissons Ratio (x) = 0.40002 0.17793
# Poissons Ratio (y) = 0.46903 0.49698
# Poissons Ratio (z) = 0.17092 0.40716
#
# Static dielectric constant tensor:
#      x y z
#    x 16.631400 0.000000 -1.601130 
#    y 0.000000 5.424190 0.000000 
#    z -1.601130 0.000000 5.001710 
# 
# 
# High freq. dielectric constant tensor:
#      x y z
#    x 2.008700 0.000000 0.011630 
#    y 0.000000 2.039750 0.000000 
#    z 0.011630 0.000000 2.028440 
# 
# From -- ./inp_files/321.got.cif
#   From: 2010.06.25/outbox.cif.g09.slc.cpg/sg13_1_cif.got.tgz:321.got - 2010.06.28 04:50:58.
