data_PCOD8123681
_publ_section_title
;
Structure prediction by ZEFSAII (Michael W. Deem and Ramdas Pophale) SiO2 
 PCOD8123681
Probable space group: P 21/C
;
_chemical_formula_sum "Si O2"
_cell_formula_units_Z 28
_cell_length_a 10.405598
_cell_length_b 14.650385
_cell_length_c 11.444886
_cell_angle_alpha 90.000000
_cell_angle_beta 126.473983
_cell_angle_gamma 90.000000
_cell_volume 1402.982101
_symmetry_space_group_name_H-M "P 21/C"
_symmetry_group_IT_number 14
_symmetry_cell_setting 'monoclinic'
loop_
_space_group_symop_operation_xyz
x,y,z
-x,1/2+y,1/2-z
-x,-y,-z
x,1/2-y,1/2+z
loop_
_atom_site_type_symbol
_atom_site_label
_atom_site_fract_x
_atom_site_fract_y
_atom_site_fract_z
Si Si1 0.003429 0.102901 0.635951
Si Si2 0.816435 0.529801 0.383016
Si Si3 0.443393 0.532780 0.595213
Si Si4 0.243478 0.542051 0.177554
Si Si5 0.012709 0.301381 0.583277
Si Si6 0.824068 0.359931 0.258486
Si Si7 0.736574 0.317361 0.608814
O O1 0.073001 0.197202 0.620886
O O2 0.834893 0.075488 0.484663
O O3 0.972095 0.112384 0.756147
O O4 0.130788 0.024796 0.688733
O O5 0.710236 0.525693 0.443291
O O6 0.830069 0.632789 0.339850
O O7 0.737204 0.454429 0.251752
O O8 0.000000 0.500000 0.500000
O O9 0.500000 0.500000 0.500000
O O10 0.591962 0.513053 0.762543
O O11 0.392878 0.640057 0.553203
O O12 0.273422 0.628497 0.275771
O O13 0.897834 0.308802 0.409529
O O14 0.912145 0.325395 0.645628
O O15 0.705725 0.289697 0.125017
#
# Coordination Sequence:
#
# PCOD8123681 Si02
#       7
#     4   4   4   4   4   4   4
#     4  10  21  36  56  86 115 160 190 242 298 348
#     4  10  19  36  61  86 112 153 202 242 285 352
#     4  10  21  35  59  87 116 153 196 245 292 347
#     4  10  21  37  55  82 122 153 192 239 298 354
#     4  10  19  34  58  87 111 151 207 239 282 352
#     4  10  19  32  61  83 114 147 203 235 286 350
#     4  10  18  35  57  85 112 152 196 238 289 345
#
# _framework density 19.95749
#
# number of rings (size 3 to 8) (size 9 to 14) (size 15 to 20)
#    0.000    2.000    4.286    0.857    6.000    0.000 
#    0.000    6.429    0.000    0.000    0.000    0.000 
#    0.000    0.000    0.000    0.000    0.000    0.000 
#
# Total GULP energy -346867.038692 kJ/mol
# GULP energy per Si atom -12388.108525 kJ/mol
# Density = 1.991207 g / cm^3
# Si number density = 19.957490 Si / 1000 Ang^3
#
#
#
# Elastic Constant Matrix: (Units=GPa)
#
#
# Indices 1 2 3 4 5 6 
#
# 1 93.5554 27.4792 25.0844 0.0000 -2.3095 0.0000
# 2 27.4792 121.3367 17.2850 0.0000 3.7558 0.0000
# 3 25.0844 17.2850 32.1533 0.0000 8.0751 0.0000
# 4 0.0000 0.0000 0.0000 33.3703 0.0000 -1.8877
# 5 -2.3095 3.7558 8.0751 0.0000 27.6795 0.0000
# 6 0.0000 0.0000 0.0000 -1.8877 0.0000 22.3546
#
#
#
# Elastic Compliance Matrix: (Units=1/GPa)
#
#
# Indices 1 2 3 4 5 6 
#
# 1 0.014410 -0.001775 -0.011492 0.000000 0.004796 0.000000
# 2 -0.001775 0.009145 -0.003434 0.000000 -0.000387 0.000000
# 3 -0.011492 -0.003434 0.045360 0.000000 -0.013726 0.000000
# 4 0.000000 0.000000 0.000000 0.030111 0.000000 0.002543
# 5 0.004796 -0.000387 -0.013726 0.000000 0.040585 0.000000
# 6 0.000000 0.000000 0.000000 0.002543 0.000000 0.044948
#
#
# Mechanical properties :
#
#
# Convention : Reuss Voigt Hill
#
# Bulk Modulus (GPa) = 28.15940 42.97141 35.56540
# Shear Modulus (GPa) = 21.75825 28.49400 25.12613
#
# Velocity S-wave (km/s) = 3.30544 3.78264 3.55206
# Velocity P-wave (km/s) = 5.35801 6.37621 5.88915
#
# Compressibility (1/GPa) = 0.03551212
#
# Stress axis : x y z
#
# Youngs Moduli (GPa) = 69.39693 109.35354 22.04587
#
# Poissons Ratio (x) = 0.19407 0.25336
# Poissons Ratio (y) = 0.12316 0.07571
# Poissons Ratio (z) = 0.79753 0.37554
#
# Static dielectric constant tensor:
#      x y z
#    x 3.645860 0.000000 0.013360 
#    y 0.000000 4.266190 0.000000 
#    z 0.013360 0.000000 3.711410 
# 
# 
# High freq. dielectric constant tensor:
#      x y z
#    x 1.765980 0.000000 -0.028130 
#    y 0.000000 1.790080 0.000000 
#    z -0.028130 0.000000 1.743440 
# 
# From -- ./inp_files/25599.got.cif
#   From: 2010.03.12/outbox.cif.g09.slc.cpg/sg14_13_cif.got.tgz:25599.got - 2010.03.31 13:35:05.
