data_PCOD8123122
_publ_section_title
;
Structure prediction by ZEFSAII (Michael W. Deem and Ramdas Pophale) SiO2 
 PCOD8123122
Probable space group: P 2/C
;
_chemical_formula_sum "Si O2"
_cell_formula_units_Z 28
_cell_length_a 11.079532
_cell_length_b 8.759575
_cell_length_c 14.165581
_cell_angle_alpha 90.000000
_cell_angle_beta 57.836330
_cell_angle_gamma 90.000000
_cell_volume 1163.808833
_symmetry_space_group_name_H-M "P 2/C"
_symmetry_group_IT_number 13
_symmetry_cell_setting 'monoclinic'
loop_
_space_group_symop_operation_xyz
x,y,z
-x,y,1/2-z
-x,-y,-z
x,-y,1/2+z
loop_
_atom_site_type_symbol
_atom_site_label
_atom_site_fract_x
_atom_site_fract_y
_atom_site_fract_z
Si Si1 0.580142 0.646412 0.427413
Si Si2 0.754609 0.818866 0.486795
Si Si3 0.282956 0.692156 0.325474
Si Si4 0.674426 0.365003 0.190443
Si Si5 0.949828 0.062766 0.621711
Si Si6 0.150950 0.224252 0.218362
Si Si7 0.354504 0.864264 0.477685
O O1 0.500000 0.500000 0.500000
O O2 0.717872 0.677004 0.434120
O O3 0.615447 0.634347 0.302580
O O4 0.486712 0.798900 0.480848
O O5 0.749943 0.765049 0.596852
O O6 0.906916 0.879259 0.387700
O O7 0.637907 0.953947 0.529894
O O8 0.255703 0.523074 0.379070
O O9 0.147942 0.786718 0.345801
O O10 0.361765 0.796579 0.368782
O O11 0.500000 0.358113 0.250000
O O12 0.737709 0.333156 0.270384
O O13 0.872029 0.933688 0.715006
O O14 0.000000 0.000000 0.500000
O O15 0.000000 0.302140 0.250000
O O16 0.211875 0.187827 0.089931
#
# Coordination Sequence:
#
# PCOD8123122 Si02
#       7
#     4   4   4   4   4   4   4
#     4  12  27  49  72 110 154 200 257 317 388 472
#     4  12  25  45  75 105 151 197 258 324 380 466
#     4  12  26  47  77 105 153 203 249 320 391 468
#     4  12  27  48  74 111 155 202 253 320 391 467
#     4  12  24  51  73 111 148 200 263 318 386 467
#     4  12  24  47  78 107 155 199 254 328 385 461
#     4  12  24  44  75 108 146 198 257 317 393 461
#
# _framework density 24.058935000000002
#
# number of rings (size 3 to 8) (size 9 to 14) (size 15 to 20)
#    0.000    0.000    4.286    6.000    0.000    2.857 
#    5.143    0.714    0.000    0.000    0.000    0.000 
#    0.000    0.000    0.000    0.000    0.000    0.000 
#
# Total GULP energy -346970.920580 kJ/mol
# GULP energy per Si atom -12391.818592 kJ/mol
# Density = 2.400418 g / cm^3
# Si number density = 24.058935 Si / 1000 Ang^3
#
#
#
# Elastic Constant Matrix: (Units=GPa)
#
#
# Indices 1 2 3 4 5 6 
#
# 1 141.5291 48.3460 18.7638 0.0000 6.7434 0.0000
# 2 48.3460 119.2345 18.2558 0.0000 -4.0743 0.0000
# 3 18.7638 18.2558 112.2805 0.0000 9.7417 0.0000
# 4 0.0000 0.0000 0.0000 38.1664 0.0000 1.0472
# 5 6.7434 -4.0743 9.7417 0.0000 36.1010 0.0000
# 6 0.0000 0.0000 0.0000 1.0472 0.0000 48.5979
#
#
#
# Elastic Compliance Matrix: (Units=1/GPa)
#
#
# Indices 1 2 3 4 5 6 
#
# 1 0.008388 -0.003353 -0.000704 0.000000 -0.001755 0.000000
# 2 -0.003353 0.010009 -0.001249 0.000000 0.002093 0.000000
# 3 -0.000704 -0.001249 0.009449 0.000000 -0.002559 0.000000
# 4 0.000000 0.000000 0.000000 0.026217 0.000000 -0.000565
# 5 -0.001755 0.002093 -0.002559 0.000000 0.028955 0.000000
# 6 0.000000 0.000000 0.000000 -0.000565 0.000000 0.020589
#
#
# Mechanical properties :
#
#
# Convention : Reuss Voigt Hill
#
# Bulk Modulus (GPa) = 58.02483 60.41945 59.22214
# Shear Modulus (GPa) = 41.67923 43.75164 42.71544
#
# Velocity S-wave (km/s) = 4.16670 4.26904 4.21818
# Velocity P-wave (km/s) = 6.87886 7.03329 6.95650
#
# Compressibility (1/GPa) = 0.01723400
#
# Stress axis : x y z
#
# Youngs Moduli (GPa) = 119.21559 99.90825 105.83118
#
# Poissons Ratio (x) = 0.33502 0.07454
# Poissons Ratio (y) = 0.39976 0.13214
# Poissons Ratio (z) = 0.08396 0.12475
#
# Static dielectric constant tensor:
#      x y z
#    x 4.545540 0.000000 0.019010 
#    y 0.000000 4.535980 0.000000 
#    z 0.019010 0.000000 4.361760 
# 
# 
# High freq. dielectric constant tensor:
#      x y z
#    x 1.963970 0.000000 0.013040 
#    y 0.000000 1.962610 0.000000 
#    z 0.013040 0.000000 1.955330 
# 
# From -- ./inp_files/50235.got.cif
#   From: 2010.06.25/outbox.cif.g09.slc.cpg/sg13_26_cif.got.tgz:50235.got - 2010.06.28 04:50:58.
