data_PCOD8123593
_publ_section_title
;
Structure prediction by ZEFSAII (Michael W. Deem and Ramdas Pophale) SiO2 
 PCOD8123593
Probable space group: P 21/C
;
_chemical_formula_sum "Si O2"
_cell_formula_units_Z 32
_cell_length_a 8.823549
_cell_length_b 29.432476
_cell_length_c 5.607230
_cell_angle_alpha 90.000000
_cell_angle_beta 80.609778
_cell_angle_gamma 90.000000
_cell_volume 1436.678495
_symmetry_space_group_name_H-M "P 21/C"
_symmetry_group_IT_number 14
_symmetry_cell_setting 'monoclinic'
loop_
_space_group_symop_operation_xyz
x,y,z
-x,1/2+y,1/2-z
-x,-y,-z
x,1/2-y,1/2+z
loop_
_atom_site_type_symbol
_atom_site_label
_atom_site_fract_x
_atom_site_fract_y
_atom_site_fract_z
Si Si1 0.029126 0.563159 0.725367
Si Si2 0.208189 0.507438 0.320367
Si Si3 0.493640 0.229257 0.230146
Si Si4 0.335043 0.566463 0.916093
Si Si5 0.790478 0.637028 0.717731
Si Si6 0.847801 0.763162 0.129756
Si Si7 0.529828 0.631353 0.128661
Si Si8 0.403038 0.064232 0.002322
O O1 0.108028 0.548176 0.456852
O O2 0.155228 0.568911 0.897508
O O3 0.898479 0.525431 0.816786
O O4 0.951173 0.612175 0.722767
O O5 0.285930 0.478136 0.515557
O O6 0.342026 0.528607 0.123119
O O7 0.563264 0.249241 0.464856
O O8 0.312708 0.238146 0.278437
O O9 0.529514 0.174931 0.206983
O O10 0.439547 0.549621 0.669766
O O11 0.396548 0.616555 0.976225
O O12 0.827260 0.683866 0.577929
O O13 0.676648 0.608119 0.587660
O O14 0.693489 0.647093 0.981371
O O15 0.933757 0.756718 0.368445
O O16 0.555575 0.582294 0.248049
#
# Coordination Sequence:
#
# PCOD8123593 Si02
#       8
#     4   4   4   4   4   4   4   4
#     4  10  23  40  60  83 123 161 212 249 311 375
#     4  10  22  42  61  86 112 170 211 259 306 372
#     4  10  19  34  61  93 128 161 202 259 317 383
#     4  11  23  38  58  86 122 163 198 261 311 379
#     4  10  21  36  59  92 117 159 200 259 309 368
#     4  10  18  33  59  93 124 157 203 262 316 370
#     4  11  22  36  60  94 122 156 201 255 324 367
#     4  10  22  37  60  87 124 152 211 256 309 375
#
# _framework density 22.273599999999998
#
# number of rings (size 3 to 8) (size 9 to 14) (size 15 to 20)
#    0.000    1.750    2.500    3.000    1.750    8.000 
#    0.000    0.000    0.000    1.500    0.000    0.000 
#    0.000    0.000    0.000    0.000    0.000    0.000 
#
# Total GULP energy -396469.478727 kJ/mol
# GULP energy per Si atom -12389.671210 kJ/mol
# Density = 2.222290 g / cm^3
# Si number density = 22.273600 Si / 1000 Ang^3
#
#
#
# Elastic Constant Matrix: (Units=GPa)
#
#
# Indices 1 2 3 4 5 6 
#
# 1 74.8441 46.6135 9.0828 0.0000 10.7811 0.0000
# 2 46.6135 107.5318 22.1169 0.0000 7.3228 0.0000
# 3 9.0828 22.1169 91.5977 0.0000 7.6724 0.0000
# 4 0.0000 0.0000 0.0000 32.6276 0.0000 2.4473
# 5 10.7811 7.3228 7.6724 0.0000 23.3412 0.0000
# 6 0.0000 0.0000 0.0000 2.4473 0.0000 17.7642
#
#
#
# Elastic Compliance Matrix: (Units=1/GPa)
#
#
# Indices 1 2 3 4 5 6 
#
# 1 0.019220 -0.008004 0.000576 0.000000 -0.006556 0.000000
# 2 -0.008004 0.013246 -0.002433 0.000000 0.000341 0.000000
# 3 0.000576 -0.002433 0.011729 0.000000 -0.003358 0.000000
# 4 0.000000 0.000000 0.000000 0.030969 0.000000 -0.004266
# 5 -0.006556 0.000341 -0.003358 0.000000 0.046868 0.000000
# 6 0.000000 0.000000 0.000000 -0.004266 0.000000 0.056881
#
#
# Mechanical properties :
#
#
# Convention : Reuss Voigt Hill
#
# Bulk Modulus (GPa) = 40.86093 47.73331 44.29712
# Shear Modulus (GPa) = 24.17874 27.82397 26.00135
#
# Velocity S-wave (km/s) = 3.29832 3.53822 3.42037
# Velocity P-wave (km/s) = 5.73498 6.17811 5.96066
#
# Compressibility (1/GPa) = 0.02447325
#
# Stress axis : x y z
#
# Youngs Moduli (GPa) = 52.02806 75.49256 85.25864
#
# Poissons Ratio (x) = 0.60422 -0.04909
# Poissons Ratio (y) = 0.41642 0.20746
# Poissons Ratio (z) = -0.02996 0.18370
#
# Static dielectric constant tensor:
#      x y z
#    x 3.701040 0.000000 0.163820 
#    y 0.000000 4.013240 0.000000 
#    z 0.163820 0.000000 4.434410 
# 
# 
# High freq. dielectric constant tensor:
#      x y z
#    x 1.836360 0.000000 0.015870 
#    y 0.000000 1.882750 0.000000 
#    z 0.015870 0.000000 1.875520 
# 
# From -- ./inp_files/2122.got.cif
#   From: 2010.03.12/outbox.cif.g09.slc.cpg/sg14_2_cif.got.tgz:2122.got - 2010.03.31 13:35:05.
