data_PCOD8123897
_publ_section_title
;
Structure prediction by ZEFSAII (Michael W. Deem and Ramdas Pophale) SiO2 
 PCOD8123897
Probable space group: P 21/C
;
_chemical_formula_sum "Si O2"
_cell_formula_units_Z 24
_cell_length_a 17.563442
_cell_length_b 18.449788
_cell_length_c 11.667304
_cell_angle_alpha 90.000000
_cell_angle_beta 19.150684
_cell_angle_gamma 90.000000
_cell_volume 1240.270553
_symmetry_space_group_name_H-M "P 21/C"
_symmetry_group_IT_number 14
_symmetry_cell_setting 'monoclinic'
loop_
_space_group_symop_operation_xyz
x,y,z
-x,1/2+y,1/2-z
-x,-y,-z
x,1/2-y,1/2+z
loop_
_atom_site_type_symbol
_atom_site_label
_atom_site_fract_x
_atom_site_fract_y
_atom_site_fract_z
Si Si1 0.518577 0.344250 0.762053
Si Si2 0.377222 0.898427 0.245571
Si Si3 0.280109 0.447438 0.939748
Si Si4 0.144704 0.704226 0.911384
Si Si5 0.920133 0.155749 0.860472
Si Si6 0.256880 0.295771 0.687022
O O1 0.377625 0.414471 0.919717
O O2 0.645751 0.305139 0.475457
O O3 0.701693 0.370936 0.596588
O O4 0.340059 0.287076 0.069466
O O5 0.175373 0.849840 0.475277
O O6 0.259773 0.965475 0.480448
O O7 0.544818 0.928877 0.910420
O O8 0.523263 0.849826 0.127436
O O9 0.027590 0.414462 0.269810
O O10 0.159154 0.787065 0.931350
O O11 0.898323 0.686393 0.203361
O O12 0.111838 0.194851 0.509355
#
# Coordination Sequence:
#
# PCOD8123897 Si02
#       6
#     4   4   4   4   4   4
#     4  10  19  31  51  76  99 129 166 203 244 292
#     4   9  18  32  49  73 104 131 160 204 251 291
#     4   9  18  32  49  73 104 131 160 204 251 291
#     4  10  19  31  51  76  99 129 166 203 244 292
#     4  10  19  31  51  76  99 129 166 203 244 292
#     4  10  19  31  51  76  99 129 166 203 244 292
#
# _framework density 19.350617
#
# number of rings (size 3 to 8) (size 9 to 14) (size 15 to 20)
#    0.000    2.333    3.333    0.000    0.000    1.333 
#    0.000    6.667    0.000    4.000    0.000    4.667 
#    0.000    0.000    0.000    0.000    0.000    0.000 
#
# Total GULP energy -297619.298090 kJ/mol
# GULP energy per Si atom -12400.804087 kJ/mol
# Density = 1.930657 g / cm^3
# Si number density = 19.350617 Si / 1000 Ang^3
#
#
#
# Elastic Constant Matrix: (Units=GPa)
#
#
# Indices 1 2 3 4 5 6 
#
# 1 96.5722 5.7684 20.1121 0.0000 -35.0094 0.0000
# 2 5.7684 35.8987 -3.2451 0.0000 -7.9105 0.0000
# 3 20.1121 -3.2451 32.4776 0.0000 -21.3434 0.0000
# 4 0.0000 0.0000 0.0000 24.8590 0.0000 -4.7785
# 5 -35.0094 -7.9105 -21.3434 0.0000 30.3199 0.0000
# 6 0.0000 0.0000 0.0000 -4.7785 0.0000 30.2951
#
#
#
# Elastic Compliance Matrix: (Units=1/GPa)
#
#
# Indices 1 2 3 4 5 6 
#
# 1 0.018559 0.003571 0.006623 0.000000 0.027023 0.000000
# 2 0.003571 0.034719 0.018460 0.000000 0.026177 0.000000
# 3 0.006623 0.018460 0.068338 0.000000 0.060569 0.000000
# 4 0.000000 0.000000 0.000000 0.041485 0.000000 0.006543
# 5 0.027023 0.026177 0.060569 0.000000 0.113651 0.000000
# 6 0.000000 0.000000 0.000000 0.006543 0.000000 0.034041
#
#
# Mechanical properties :
#
#
# Convention : Reuss Voigt Hill
#
# Bulk Modulus (GPa) = 5.58895 23.35768 14.47332
# Shear Modulus (GPa) = 15.96807 26.58236 21.27521
#
# Velocity S-wave (km/s) = 2.87574 3.71040 3.31941
# Velocity P-wave (km/s) = 3.73109 5.51843 4.71031
#
# Compressibility (1/GPa) = 0.17892447
#
# Stress axis : x y z
#
# Youngs Moduli (GPa) = 53.88292 28.80248 14.63315
#
# Poissons Ratio (x) = -0.10286 -0.09691
# Poissons Ratio (y) = -0.19243 -0.27013
# Poissons Ratio (z) = -0.35686 -0.53170
#
# Static dielectric constant tensor:
#      x y z
#    x 3.666840 0.000000 -0.306470 
#    y 0.000000 3.605370 0.000000 
#    z -0.306470 0.000000 3.318070 
# 
# 
# High freq. dielectric constant tensor:
#      x y z
#    x 1.757720 0.000000 -0.025840 
#    y 0.000000 1.740750 0.000000 
#    z -0.025840 0.000000 1.728280 
# 
# From -- ./inp_files/26146.got.cif
#   From: 2010.03.12/outbox.cif.g09.slc.cpg/sg14_14_cif.got.tgz:26146.got - 2010.03.31 13:35:05.
