data_PCOD8123403
_publ_section_title
;
Structure prediction by ZEFSAII (Michael W. Deem and Ramdas Pophale) SiO2 
 PCOD8123403
Probable space group: P 21/C
;
_chemical_formula_sum "Si O2"
_cell_formula_units_Z 28
_cell_length_a 9.290519
_cell_length_b 15.894826
_cell_length_c 15.672458
_cell_angle_alpha 90.000000
_cell_angle_beta 37.675517
_cell_angle_gamma 90.000000
_cell_volume 1414.517478
_symmetry_space_group_name_H-M "P 21/C"
_symmetry_group_IT_number 14
_symmetry_cell_setting 'monoclinic'
loop_
_space_group_symop_operation_xyz
x,y,z
-x,1/2+y,1/2-z
-x,-y,-z
x,1/2-y,1/2+z
loop_
_atom_site_type_symbol
_atom_site_label
_atom_site_fract_x
_atom_site_fract_y
_atom_site_fract_z
Si Si1 0.407604 0.914570 0.710593
Si Si2 0.992945 0.482649 0.330327
Si Si3 0.250892 0.963585 0.362126
Si Si4 0.766790 0.569487 0.286058
Si Si5 0.779912 0.167515 0.496665
Si Si6 0.592382 0.905640 0.451373
Si Si7 0.314389 0.645961 0.434546
O O1 0.549488 0.867272 0.566829
O O2 0.382364 0.851951 0.802450
O O3 0.554759 0.995962 0.667869
O O4 0.154114 0.946788 0.798300
O O5 0.800539 0.533183 0.364715
O O6 0.862665 0.430843 0.465218
O O7 0.134416 0.415222 0.204288
O O8 0.253518 0.865420 0.389308
O O9 0.298174 0.987254 0.241700
O O10 0.000000 0.000000 0.500000
O O11 0.548637 0.634241 0.382541
O O12 0.999404 0.620166 0.148957
O O13 0.545975 0.149839 0.552011
O O14 0.815875 0.267326 0.481591
O O15 0.500000 0.000000 0.500000
#
# Coordination Sequence:
#
# PCOD8123403 Si02
#       7
#     4   4   4   4   4   4   4
#     4  10  19  39  63  88 114 166 208 239 290 384
#     4  11  20  40  66  88 119 164 213 239 300 379
#     4   9  17  33  60  85 112 153 207 243 279 352
#     4  10  21  39  62  87 122 162 206 251 296 368
#     4  11  20  38  60  88 124 158 202 256 303 357
#     4  10  17  35  69  86 105 162 219 235 278 376
#     4  11  26  36  60  94 131 151 194 265 329 332
#
# _framework density 19.794737000000001
#
# number of rings (size 3 to 8) (size 9 to 14) (size 15 to 20)
#    0.000    1.714    5.714    1.714    2.000    0.000 
#    2.571    0.000    9.429    0.000    0.000    0.000 
#    0.000    0.000    0.000    0.000    0.000    0.000 
#
# Total GULP energy -346977.679031 kJ/mol
# GULP energy per Si atom -12392.059965 kJ/mol
# Density = 1.974968 g / cm^3
# Si number density = 19.794737 Si / 1000 Ang^3
#
#
#
# Elastic Constant Matrix: (Units=GPa)
#
#
# Indices 1 2 3 4 5 6 
#
# 1 103.5969 23.6314 13.1355 0.0000 -1.1226 0.0000
# 2 23.6314 72.7050 8.4735 0.0000 6.5265 0.0000
# 3 13.1355 8.4735 57.6864 0.0000 5.2059 0.0000
# 4 0.0000 0.0000 0.0000 19.0856 0.0000 -2.4965
# 5 -1.1226 6.5265 5.2059 0.0000 28.7520 0.0000
# 6 0.0000 0.0000 0.0000 -2.4965 0.0000 18.9344
#
#
#
# Elastic Compliance Matrix: (Units=1/GPa)
#
#
# Indices 1 2 3 4 5 6 
#
# 1 0.010704 -0.003377 -0.002082 0.000000 0.001561 0.000000
# 2 -0.003377 0.015293 -0.001171 0.000000 -0.003391 0.000000
# 3 -0.002082 -0.001171 0.018263 0.000000 -0.003122 0.000000
# 4 0.000000 0.000000 0.000000 0.053315 0.000000 0.007030
# 5 0.001561 -0.003391 -0.003122 0.000000 0.036176 0.000000
# 6 0.000000 0.000000 0.000000 0.007030 0.000000 0.053741
#
#
# Mechanical properties :
#
#
# Convention : Reuss Voigt Hill
#
# Bulk Modulus (GPa) = 32.25902 36.05213 34.15558
# Shear Modulus (GPa) = 23.68709 25.93759 24.81234
#
# Velocity S-wave (km/s) = 3.46300 3.62377 3.54430
# Velocity P-wave (km/s) = 5.68524 5.98009 5.83453
#
# Compressibility (1/GPa) = 0.03099908
#
# Stress axis : x y z
#
# Youngs Moduli (GPa) = 93.42327 65.39096 54.75524
#
# Poissons Ratio (x) = 0.22080 0.11402
# Poissons Ratio (y) = 0.31545 0.06414
# Poissons Ratio (z) = 0.19453 0.07660
#
# Static dielectric constant tensor:
#      x y z
#    x 3.895820 0.000000 0.154680 
#    y 0.000000 3.319350 0.000000 
#    z 0.154680 0.000000 3.943810 
# 
# 
# High freq. dielectric constant tensor:
#      x y z
#    x 1.782840 0.000000 -0.004500 
#    y 0.000000 1.727460 0.000000 
#    z -0.004500 0.000000 1.770880 
# 
# From -- ./inp_files/55910.got.cif
#   From: 2010.03.12/outbox.cif.g09.slc.cpg/sg14_28_cif.got.tgz:55910.got - 2010.03.31 13:35:05.
