data_PCOD8123803
_publ_section_title
;
Structure prediction by ZEFSAII (Michael W. Deem and Ramdas Pophale) SiO2 
 PCOD8123803
Probable space group: P 21/C
;
_chemical_formula_sum "Si O2"
_cell_formula_units_Z 24
_cell_length_a 7.316109
_cell_length_b 14.724690
_cell_length_c 15.756363
_cell_angle_alpha 90.000000
_cell_angle_beta 136.247313
_cell_angle_gamma 90.000000
_cell_volume 1173.826646
_symmetry_space_group_name_H-M "P 21/C"
_symmetry_group_IT_number 14
_symmetry_cell_setting 'monoclinic'
loop_
_space_group_symop_operation_xyz
x,y,z
-x,1/2+y,1/2-z
-x,-y,-z
x,1/2-y,1/2+z
loop_
_atom_site_type_symbol
_atom_site_label
_atom_site_fract_x
_atom_site_fract_y
_atom_site_fract_z
Si Si1 0.093844 0.322977 0.697968
Si Si2 0.468970 0.606129 0.484538
Si Si3 0.681014 0.430757 0.315524
Si Si4 0.733179 0.509477 0.146414
Si Si5 0.184434 0.376159 0.247288
Si Si6 0.782772 0.617589 0.434633
O O1 0.826732 0.374893 0.588276
O O2 0.229920 0.382435 0.819629
O O3 0.022176 0.217804 0.686951
O O4 0.258079 0.325674 0.665179
O O5 0.500000 0.500000 0.500000
O O6 0.658836 0.649641 0.616296
O O7 0.548649 0.647507 0.419963
O O8 0.672403 0.456558 0.213352
O O9 0.393975 0.388113 0.240694
O O10 0.726783 0.513327 0.394605
O O11 0.933946 0.366506 0.422185
O O12 0.994534 0.464100 0.191689
O O13 0.500000 0.500000 0.000000
#
# Coordination Sequence:
#
# PCOD8123803 Si02
#       6
#     4   4   4   4   4   4
#     4  11  25  40  63 100 130 165 216 273 319 379
#     4  12  19  41  72  94 119 167 226 268 316 381
#     4  10  19  38  66  92 117 162 214 261 321 375
#     4  11  25  43  62  93 139 174 208 265 331 384
#     4  12  24  40  66  96 132 171 214 270 325 381
#     4  10  18  37  67  93 116 155 219 272 305 370
#
# _framework density 20.44595
#
# number of rings (size 3 to 8) (size 9 to 14) (size 15 to 20)
#    0.000    1.000    6.667    1.000    2.333    2.000 
#    0.000    0.000    0.000    0.000    0.000    0.000 
#    0.000    0.000    0.000    0.000    0.000    0.000 
#
# Total GULP energy -297343.276400 kJ/mol
# GULP energy per Si atom -12389.303183 kJ/mol
# Density = 2.039941 g / cm^3
# Si number density = 20.445950 Si / 1000 Ang^3
#
#
#
# Elastic Constant Matrix: (Units=GPa)
#
#
# Indices 1 2 3 4 5 6 
#
# 1 101.1475 22.1979 18.9130 0.0000 -3.9598 0.0000
# 2 22.1979 66.5967 4.8796 0.0000 1.0971 0.0000
# 3 18.9130 4.8796 100.4123 0.0000 -1.7760 0.0000
# 4 0.0000 0.0000 0.0000 19.2242 0.0000 2.3998
# 5 -3.9598 1.0971 -1.7760 0.0000 29.6528 0.0000
# 6 0.0000 0.0000 0.0000 2.3998 0.0000 18.4535
#
#
#
# Elastic Compliance Matrix: (Units=1/GPa)
#
#
# Indices 1 2 3 4 5 6 
#
# 1 0.011084 -0.003581 -0.001887 0.000000 0.001500 0.000000
# 2 -0.003581 0.016237 -0.000134 0.000000 -0.001087 0.000000
# 3 -0.001887 -0.000134 0.010327 0.000000 0.000371 0.000000
# 4 0.000000 0.000000 0.000000 0.052876 0.000000 -0.006876
# 5 0.001500 -0.001087 0.000371 0.000000 0.033986 0.000000
# 6 0.000000 0.000000 0.000000 -0.006876 0.000000 0.055085
#
#
# Mechanical properties :
#
#
# Convention : Reuss Voigt Hill
#
# Bulk Modulus (GPa) = 37.81472 40.01530 38.91501
# Shear Modulus (GPa) = 25.04830 28.27716 26.66273
#
# Velocity S-wave (km/s) = 3.50394 3.72293 3.61509
# Velocity P-wave (km/s) = 5.90806 6.17204 6.04149
#
# Compressibility (1/GPa) = 0.02644473
#
# Stress axis : x y z
#
# Youngs Moduli (GPa) = 90.22009 61.58749 96.82918
#
# Poissons Ratio (x) = 0.22054 0.18273
# Poissons Ratio (y) = 0.32307 0.01296
# Poissons Ratio (z) = 0.17026 0.00824
#
# Static dielectric constant tensor:
#      x y z
#    x 4.109980 0.000000 -0.223560 
#    y 0.000000 3.623090 0.000000 
#    z -0.223560 0.000000 3.955630 
# 
# 
# High freq. dielectric constant tensor:
#      x y z
#    x 1.816900 0.000000 -0.005570 
#    y 0.000000 1.771320 0.000000 
#    z -0.005570 0.000000 1.789930 
# 
# From -- ./inp_files/55819.got.cif
#   From: 2010.03.12/outbox.cif.g09.slc.cpg/sg14_28_cif.got.tgz:55819.got - 2010.03.31 13:35:05.
