data_PCOD8123707
_publ_section_title
;
Structure prediction by ZEFSAII (Michael W. Deem and Ramdas Pophale) SiO2 
 PCOD8123707
Probable space group: P 21/C
;
_chemical_formula_sum "Si O2"
_cell_formula_units_Z 20
_cell_length_a 20.515985
_cell_length_b 7.735016
_cell_length_c 25.884637
_cell_angle_alpha 90.000000
_cell_angle_beta 166.548445
_cell_angle_gamma 90.000000
_cell_volume 955.539270
_symmetry_space_group_name_H-M "P 21/C"
_symmetry_group_IT_number 14
_symmetry_cell_setting 'monoclinic'
loop_
_space_group_symop_operation_xyz
x,y,z
-x,1/2+y,1/2-z
-x,-y,-z
x,1/2-y,1/2+z
loop_
_atom_site_type_symbol
_atom_site_label
_atom_site_fract_x
_atom_site_fract_y
_atom_site_fract_z
Si Si1 0.791634 0.204864 0.319582
Si Si2 0.772145 0.011470 0.000615
Si Si3 0.485701 0.669796 0.799676
Si Si4 0.393956 0.497453 0.006903
Si Si5 0.406041 0.348631 0.308984
O O1 0.760011 0.232042 0.357591
O O2 0.119797 0.210208 0.558660
O O3 0.656761 0.016523 0.203535
O O4 0.623763 0.360035 0.161043
O O5 0.720181 0.807097 0.963812
O O6 0.641835 0.076609 0.847365
O O7 0.642268 0.113698 0.948748
O O8 0.104048 0.041898 0.255179
O O9 0.634209 0.531187 0.952514
O O10 0.491895 0.695157 0.074398
#
# Coordination Sequence:
#
# PCOD8123707 Si02
#       5
#     4   4   4   4   4
#     4   8  20  37  57  84 113 150 184 226 290 333
#     4  11  20  36  58  84 113 149 190 235 279 329
#     4   9  21  35  54  84 113 146 187 233 280 332
#     4  10  20  36  60  82 111 146 193 227 278 334
#     4  10  18  35  62  80 115 151 181 233 284 329
#
# _framework density 20.930589000000001
#
# number of rings (size 3 to 8) (size 9 to 14) (size 15 to 20)
#    1.200    1.200    0.000    3.000    0.000    0.000 
#    3.600    1.000    4.400    3.600    0.000    0.000 
#    0.000    0.000    0.000    0.000    0.000    0.000 
#
# Total GULP energy -247853.370618 kJ/mol
# GULP energy per Si atom -12392.668531 kJ/mol
# Density = 2.088295 g / cm^3
# Si number density = 20.930589 Si / 1000 Ang^3
#
#
#
# Elastic Constant Matrix: (Units=GPa)
#
#
# Indices 1 2 3 4 5 6 
#
# 1 9.5043 1.8117 0.5781 0.0000 -4.9945 0.0000
# 2 1.8117 96.8413 12.4491 0.0000 1.9750 0.0000
# 3 0.5781 12.4491 87.4589 0.0000 3.5510 0.0000
# 4 0.0000 0.0000 0.0000 31.2750 0.0000 4.1879
# 5 -4.9945 1.9750 3.5510 0.0000 26.0142 0.0000
# 6 0.0000 0.0000 0.0000 4.1879 0.0000 13.6193
#
#
#
# Elastic Compliance Matrix: (Units=1/GPa)
#
#
# Indices 1 2 3 4 5 6 
#
# 1 0.117862 -0.002500 -0.001357 0.000000 0.023004 0.000000
# 2 -0.002500 0.010581 -0.001446 0.000000 -0.001086 0.000000
# 3 -0.001357 -0.001446 0.011720 0.000000 -0.001751 0.000000
# 4 0.000000 0.000000 0.000000 0.033348 0.000000 -0.010254
# 5 0.023004 -0.001086 -0.001751 0.000000 0.043178 0.000000
# 6 0.000000 0.000000 0.000000 -0.010254 0.000000 0.076579
#
#
# Mechanical properties :
#
#
# Convention : Reuss Voigt Hill
#
# Bulk Modulus (GPa) = 7.71852 24.83134 16.27493
# Shear Modulus (GPa) = 14.40679 26.11274 20.25976
#
# Velocity S-wave (km/s) = 2.62642 3.53595 3.11456
# Velocity P-wave (km/s) = 3.59070 5.34416 4.55264
#
# Compressibility (1/GPa) = 0.12955853
#
# Stress axis : x y z
#
# Youngs Moduli (GPa) = 8.48447 94.50987 85.32605
#
# Poissons Ratio (x) = 0.23623 0.11581
# Poissons Ratio (y) = 0.02121 0.12334
# Poissons Ratio (z) = 0.01152 0.13661
#
# Static dielectric constant tensor:
#      x y z
#    x 3.265500 0.000000 0.193430 
#    y 0.000000 4.049400 0.000000 
#    z 0.193430 0.000000 3.549040 
# 
# 
# High freq. dielectric constant tensor:
#      x y z
#    x 1.769040 0.000000 0.015180 
#    y 0.000000 1.839360 0.000000 
#    z 0.015180 0.000000 1.811400 
# 
# From -- ./inp_files/48257.got.cif
#   From: 2010.03.12/outbox.cif.g09.slc.cpg/sg14_25_cif.got.tgz:48257.got - 2010.03.31 13:35:05.
