data_PCOD8123911
_publ_section_title
;
Structure prediction by ZEFSAII (Michael W. Deem and Ramdas Pophale) SiO2 
 PCOD8123911
Probable space group: P 21/C
;
_chemical_formula_sum "Si O2"
_cell_formula_units_Z 32
_cell_length_a 12.099001
_cell_length_b 7.568726
_cell_length_c 23.276208
_cell_angle_alpha 90.000000
_cell_angle_beta 123.674529
_cell_angle_gamma 90.000000
_cell_volume 1773.832472
_symmetry_space_group_name_H-M "P 21/C"
_symmetry_group_IT_number 14
_symmetry_cell_setting 'monoclinic'
loop_
_space_group_symop_operation_xyz
x,y,z
-x,1/2+y,1/2-z
-x,-y,-z
x,1/2-y,1/2+z
loop_
_atom_site_type_symbol
_atom_site_label
_atom_site_fract_x
_atom_site_fract_y
_atom_site_fract_z
Si Si1 0.103697 0.300857 0.362860
Si Si2 0.808066 0.504898 0.899064
Si Si3 0.888355 0.502606 0.049053
Si Si4 0.175724 0.707358 0.767389
Si Si5 0.655820 0.803299 0.792751
Si Si6 0.180482 0.297299 0.767218
Si Si7 0.649588 0.286577 0.287413
Si Si8 0.098299 0.696936 0.363424
O O1 0.159244 0.171218 0.427638
O O2 0.197659 0.301997 0.333092
O O3 0.095541 0.497482 0.386820
O O4 0.959042 0.228386 0.302462
O O5 0.747978 0.691764 0.861942
O O6 0.719748 0.340025 0.853237
O O7 0.955811 0.483604 0.918303
O O8 0.804115 0.503261 0.966671
O O9 0.849394 0.323564 0.071313
O O10 0.165427 0.501601 0.777307
O O11 0.298270 0.757365 0.761665
O O12 0.192755 0.800198 0.834167
O O13 0.694477 0.757977 0.737867
O O14 0.505674 0.747493 0.758344
O O15 0.680868 0.010250 0.812798
O O16 0.047591 0.232737 0.696379
#
# Coordination Sequence:
#
# PCOD8123911 Si02
#       8
#     4   4   4   4   4   4   4   4
#     4  10  19  31  54  82 113 148 181 237 285 332
#     4  11  24  38  57  83 119 162 184 223 291 344
#     4  11  22  38  55  83 127 152 184 227 285 359
#     4   9  18  31  52  84 113 139 188 237 285 324
#     4  11  22  37  59  85 113 147 194 238 276 331
#     4   9  18  31  52  84 113 139 188 237 285 324
#     4  11  22  37  59  85 113 147 194 238 276 331
#     4  10  19  31  54  82 113 148 181 237 285 332
#
# _framework density 18.040036000000001
#
# number of rings (size 3 to 8) (size 9 to 14) (size 15 to 20)
#    0.000    1.750    5.000    0.000    3.500    1.000 
#    0.000    2.500    0.000    3.000    0.000    3.500 
#    0.000    0.000    0.000    0.000    0.000    0.000 
#
# Total GULP energy -396814.153077 kJ/mol
# GULP energy per Si atom -12400.442284 kJ/mol
# Density = 1.799898 g / cm^3
# Si number density = 18.040036 Si / 1000 Ang^3
#
#
#
# Elastic Constant Matrix: (Units=GPa)
#
#
# Indices 1 2 3 4 5 6 
#
# 1 88.2343 8.6959 21.6215 0.0000 -17.8237 0.0000
# 2 8.6959 94.6299 36.9895 0.0000 -18.5240 0.0000
# 3 21.6215 36.9895 75.8328 0.0000 -24.7727 0.0000
# 4 0.0000 0.0000 0.0000 25.2562 0.0000 -5.8290
# 5 -17.8237 -18.5240 -24.7727 0.0000 26.5694 0.0000
# 6 0.0000 0.0000 0.0000 -5.8290 0.0000 22.1111
#
#
#
# Elastic Compliance Matrix: (Units=1/GPa)
#
#
# Indices 1 2 3 4 5 6 
#
# 1 0.013266 0.001000 -0.001632 0.000000 0.008074 0.000000
# 2 0.001000 0.013527 -0.005153 0.000000 0.005297 0.000000
# 3 -0.001632 -0.005153 0.021044 0.000000 0.014934 0.000000
# 4 0.000000 0.000000 0.000000 0.042159 0.000000 0.011114
# 5 0.008074 0.005297 0.014934 0.000000 0.060670 0.000000
# 6 0.000000 0.000000 0.000000 0.011114 0.000000 0.048156
#
#
# Mechanical properties :
#
#
# Convention : Reuss Voigt Hill
#
# Bulk Modulus (GPa) = 27.57405 43.70119 35.63762
# Shear Modulus (GPa) = 22.47375 27.54668 25.01022
#
# Velocity S-wave (km/s) = 3.53338 3.91189 3.72744
# Velocity P-wave (km/s) = 5.65371 6.68439 6.19054
#
# Compressibility (1/GPa) = 0.03626598
#
# Stress axis : x y z
#
# Youngs Moduli (GPa) = 75.38082 73.92840 47.51943
#
# Poissons Ratio (x) = -0.07389 0.07757
# Poissons Ratio (y) = -0.07535 0.24485
# Poissons Ratio (z) = 0.12304 0.38092
#
# Static dielectric constant tensor:
#      x y z
#    x 3.366220 0.000000 -0.259390 
#    y 0.000000 3.485500 0.000000 
#    z -0.259390 0.000000 3.081830 
# 
# 
# High freq. dielectric constant tensor:
#      x y z
#    x 1.691640 0.000000 -0.030750 
#    y 0.000000 1.715410 0.000000 
#    z -0.030750 0.000000 1.660220 
# 
# From -- ./inp_files/66855.got.cif
#   From: 2010.03.12/outbox.cif.g09.slc.cpg/sg14_34_cif.got.tgz:66855.got - 2010.03.31 13:35:05.
