data_PCOD8123369
_publ_section_title
;
Structure prediction by ZEFSAII (Michael W. Deem and Ramdas Pophale) SiO2 
 PCOD8123369
Probable space group: P 21/C
;
_chemical_formula_sum "Si O2"
_cell_formula_units_Z 32
_cell_length_a 8.649878
_cell_length_b 14.905550
_cell_length_c 15.673452
_cell_angle_alpha 90.000000
_cell_angle_beta 50.611075
_cell_angle_gamma 90.000000
_cell_volume 1561.785438
_symmetry_space_group_name_H-M "P 21/C"
_symmetry_group_IT_number 14
_symmetry_cell_setting 'monoclinic'
loop_
_space_group_symop_operation_xyz
x,y,z
-x,1/2+y,1/2-z
-x,-y,-z
x,1/2-y,1/2+z
loop_
_atom_site_type_symbol
_atom_site_label
_atom_site_fract_x
_atom_site_fract_y
_atom_site_fract_z
Si Si1 0.566817 0.375183 0.050435
Si Si2 0.652233 0.435792 0.631518
Si Si3 0.936544 0.414433 0.380658
Si Si4 0.645426 0.624654 0.697247
Si Si5 0.921407 0.279506 0.847445
Si Si6 0.152910 0.919283 0.766766
Si Si7 0.395059 0.430324 0.947271
Si Si8 0.310501 0.181270 0.321378
O O1 0.454588 0.357090 0.176591
O O2 0.689966 0.469823 0.007717
O O3 0.731483 0.300047 0.973832
O O4 0.398727 0.374536 0.034018
O O5 0.738555 0.432044 0.505928
O O6 0.558303 0.536964 0.679387
O O7 0.828625 0.407764 0.637051
O O8 0.475280 0.363887 0.702784
O O9 0.910169 0.326559 0.330476
O O10 0.119986 0.396216 0.379957
O O11 0.991815 0.501467 0.303586
O O12 0.616533 0.722508 0.663979
O O13 0.916327 0.330295 0.758352
O O14 0.116283 0.306636 0.832022
O O15 0.375051 0.948390 0.661646
O O16 0.268196 0.380244 0.919085
#
# Coordination Sequence:
#
# PCOD8123369 Si02
#       8
#     4   4   4   4   4   4   4   4
#     4  10  17  34  57  79 101 143 185 220 258 327
#     4  10  19  37  61  78 103 150 190 219 261 326
#     4  10  19  36  58  81 106 147 184 229 261 321
#     4  10  18  33  58  80 107 141 183 224 270 317
#     4  10  22  33  55  84 115 139 175 226 287 315
#     4   9  17  36  58  79 106 145 189 222 255 330
#     4   9  18  33  58  78 103 141 189 218 263 319
#     4  10  20  36  50  84 117 138 174 233 275 320
#
# _framework density 20.489370999999998
#
# number of rings (size 3 to 8) (size 9 to 14) (size 15 to 20)
#    0.000    2.250    3.750    2.250    0.000    0.500 
#    0.000   11.875    0.000    0.000    0.000    0.000 
#    0.000    0.000    0.000    0.000    0.000    0.000 
#
# Total GULP energy -396478.125032 kJ/mol
# GULP energy per Si atom -12389.941407 kJ/mol
# Density = 2.044274 g / cm^3
# Si number density = 20.489371 Si / 1000 Ang^3
#
#
#
# Elastic Constant Matrix: (Units=GPa)
#
#
# Indices 1 2 3 4 5 6 
#
# 1 30.8133 -0.1373 -2.2790 0.0000 6.4063 0.0000
# 2 -0.1373 66.1825 9.9175 0.0000 6.3485 0.0000
# 3 -2.2790 9.9175 50.3007 0.0000 1.2559 0.0000
# 4 0.0000 0.0000 0.0000 28.2565 0.0000 -1.4056
# 5 6.4063 6.3485 1.2559 0.0000 22.9678 0.0000
# 6 0.0000 0.0000 0.0000 -1.4056 0.0000 23.6586
#
#
#
# Elastic Compliance Matrix: (Units=1/GPa)
#
#
# Indices 1 2 3 4 5 6 
#
# 1 0.034653 0.000779 0.001665 0.000000 -0.009972 0.000000
# 2 0.000779 0.015991 -0.003006 0.000000 -0.004473 0.000000
# 3 0.001665 -0.003006 0.020567 0.000000 -0.000758 0.000000
# 4 0.000000 0.000000 0.000000 0.035495 0.000000 0.002109
# 5 -0.009972 -0.004473 -0.000758 0.000000 0.047599 0.000000
# 6 0.000000 0.000000 0.000000 0.002109 0.000000 0.042393
#
#
# Mechanical properties :
#
#
# Convention : Reuss Voigt Hill
#
# Bulk Modulus (GPa) = 14.26762 18.03323 16.15043
# Shear Modulus (GPa) = 22.60556 24.29626 23.45091
#
# Velocity S-wave (km/s) = 3.32517 3.44728 3.38678
# Velocity P-wave (km/s) = 4.66057 4.96642 4.81592
#
# Compressibility (1/GPa) = 0.07008875
#
# Stress axis : x y z
#
# Youngs Moduli (GPa) = 28.85716 62.53584 48.62044
#
# Poissons Ratio (x) = -0.04871 -0.08098
# Poissons Ratio (y) = -0.02248 0.14615
# Poissons Ratio (z) = -0.04806 0.18797
#
# Static dielectric constant tensor:
#      x y z
#    x 3.347590 0.000000 0.052710 
#    y 0.000000 4.163290 0.000000 
#    z 0.052710 0.000000 3.705720 
# 
# 
# High freq. dielectric constant tensor:
#      x y z
#    x 1.748930 0.000000 -0.004240 
#    y 0.000000 1.817800 0.000000 
#    z -0.004240 0.000000 1.796630 
# 
# From -- ./inp_files/41202.got.cif
#   From: 2010.03.12/outbox.cif.g09.slc.cpg/sg14_21_cif.got.tgz:41202.got - 2010.03.31 13:35:05.
