data_PCOD8123012
_publ_section_title
;
Structure prediction by ZEFSAII (Michael W. Deem and Ramdas Pophale) SiO2 
 PCOD8123012
Probable space group: P 2/C
;
_chemical_formula_sum "Si O2"
_cell_formula_units_Z 28
_cell_length_a 19.432562
_cell_length_b 8.285841
_cell_length_c 13.158044
_cell_angle_alpha 90.000000
_cell_angle_beta 34.562918
_cell_angle_gamma 90.000000
_cell_volume 1201.929824
_symmetry_space_group_name_H-M "P 2/C"
_symmetry_group_IT_number 13
_symmetry_cell_setting 'monoclinic'
loop_
_space_group_symop_operation_xyz
x,y,z
-x,y,1/2-z
-x,-y,-z
x,-y,1/2+z
loop_
_atom_site_type_symbol
_atom_site_label
_atom_site_fract_x
_atom_site_fract_y
_atom_site_fract_z
Si Si1 0.445618 0.675642 0.559849
Si Si2 0.018953 0.259071 0.832099
Si Si3 0.689308 0.794387 0.189813
Si Si4 0.199704 0.256183 0.269700
Si Si5 0.216006 0.884005 0.213876
Si Si6 0.382565 0.891477 0.830827
Si Si7 0.881375 0.603894 0.836939
O O1 0.500000 0.500000 0.500000
O O2 0.544770 0.777808 0.377811
O O3 0.326859 0.656151 0.634872
O O4 0.416805 0.758348 0.704099
O O5 0.077937 0.151914 0.849045
O O6 0.101274 0.413402 0.701495
O O7 0.000000 0.158928 0.750000
O O8 0.884676 0.303469 0.032795
O O9 0.751580 0.788535 0.224059
O O10 0.697802 0.964669 0.120771
O O11 0.756507 0.649877 0.047602
O O12 0.126636 0.315424 0.262053
O O13 0.233415 0.069949 0.217517
O O14 0.296870 0.816532 0.022216
O O15 0.500000 0.954848 0.750000
O O16 0.000000 0.675484 0.750000
#
# Coordination Sequence:
#
# PCOD8123012 Si02
#       7
#     4   4   4   4   4   4   4
#     4  12  29  46  77 111 153 199 254 321 384 463
#     4  11  27  46  76 105 156 196 256 317 394 459
#     4  12  26  48  74 110 153 192 260 313 393 461
#     4  12  25  49  73 111 151 201 257 315 388 462
#     4  12  25  46  79 112 147 201 253 322 383 464
#     4  12  24  48  74 108 156 204 252 317 387 458
#     4  11  27  46  74 106 152 203 251 320 390 465
#
# _framework density 23.295869
#
# number of rings (size 3 to 8) (size 9 to 14) (size 15 to 20)
#    0.000    0.286    4.286    3.857    8.000    0.571 
#    0.000    0.000    0.000    0.000    0.000    0.000 
#    0.000    0.000    0.000    0.000    0.000    0.000 
#
# Total GULP energy -347134.469740 kJ/mol
# GULP energy per Si atom -12397.659634 kJ/mol
# Density = 2.324285 g / cm^3
# Si number density = 23.295869 Si / 1000 Ang^3
#
#
#
# Elastic Constant Matrix: (Units=GPa)
#
#
# Indices 1 2 3 4 5 6 
#
# 1 163.0075 24.1076 58.2952 0.0000 -8.3481 0.0000
# 2 24.1076 89.5466 30.2411 0.0000 0.3153 0.0000
# 3 58.2952 30.2411 120.5959 0.0000 5.5259 0.0000
# 4 0.0000 0.0000 0.0000 70.2209 0.0000 -20.8645
# 5 -8.3481 0.3153 5.5259 0.0000 49.2431 0.0000
# 6 0.0000 0.0000 0.0000 -20.8645 0.0000 46.0745
#
#
#
# Elastic Compliance Matrix: (Units=1/GPa)
#
#
# Indices 1 2 3 4 5 6 
#
# 1 0.007616 -0.000860 -0.003544 0.000000 0.001694 0.000000
# 2 -0.000860 0.012301 -0.002673 0.000000 0.000075 0.000000
# 3 -0.003544 -0.002673 0.010757 0.000000 -0.001791 0.000000
# 4 0.000000 0.000000 0.000000 0.016455 0.000000 0.007451
# 5 0.001694 0.000075 -0.001791 0.000000 0.020795 0.000000
# 6 0.000000 0.000000 0.000000 0.007451 0.000000 0.025078
#
#
# Mechanical properties :
#
#
# Convention : Reuss Voigt Hill
#
# Bulk Modulus (GPa) = 60.52240 66.49309 63.50774
# Shear Modulus (GPa) = 44.38074 50.47479 47.42776
#
# Velocity S-wave (km/s) = 4.36947 4.65982 4.51698
# Velocity P-wave (km/s) = 7.17584 7.58661 7.38408
#
# Compressibility (1/GPa) = 0.01652281
#
# Stress axis : x y z
#
# Youngs Moduli (GPa) = 131.30563 81.29354 92.95997
#
# Poissons Ratio (x) = 0.06988 0.32940
# Poissons Ratio (y) = 0.11287 0.24845
# Poissons Ratio (z) = 0.46528 0.21727
#
# Static dielectric constant tensor:
#      x y z
#    x 4.835210 0.000000 -0.226810 
#    y 0.000000 3.965370 0.000000 
#    z -0.226810 0.000000 4.767470 
# 
# 
# High freq. dielectric constant tensor:
#      x y z
#    x 1.945230 0.000000 0.001540 
#    y 0.000000 1.900890 0.000000 
#    z 0.001540 0.000000 1.938120 
# 
# From -- ./inp_files/57436.got.cif
#   From: 2010.06.25/outbox.cif.g09.slc.cpg/sg13_29_cif.got.tgz:57436.got - 2010.06.28 04:50:58.
