data_PCOD8123552
_publ_section_title
;
Structure prediction by ZEFSAII (Michael W. Deem and Ramdas Pophale) SiO2 
 PCOD8123552
Probable space group: P 21/C
;
_chemical_formula_sum "Si O2"
_cell_formula_units_Z 32
_cell_length_a 11.956260
_cell_length_b 8.466801
_cell_length_c 15.093781
_cell_angle_alpha 90.000000
_cell_angle_beta 88.715790
_cell_angle_gamma 90.000000
_cell_volume 1527.578894
_symmetry_space_group_name_H-M "P 21/C"
_symmetry_group_IT_number 14
_symmetry_cell_setting 'monoclinic'
loop_
_space_group_symop_operation_xyz
x,y,z
-x,1/2+y,1/2-z
-x,-y,-z
x,1/2-y,1/2+z
loop_
_atom_site_type_symbol
_atom_site_label
_atom_site_fract_x
_atom_site_fract_y
_atom_site_fract_z
Si Si1 0.245810 0.693617 0.563682
Si Si2 0.772890 0.742803 0.068550
Si Si3 0.985995 0.262393 0.870798
Si Si4 0.988790 0.408483 0.688760
Si Si5 0.606750 0.252003 0.277722
Si Si6 0.780618 0.834558 0.879661
Si Si7 0.365616 0.111426 0.279789
Si Si8 0.747578 0.098651 0.124914
O O1 0.334160 0.774323 0.628292
O O2 0.228873 0.514503 0.591949
O O3 0.289729 0.696817 0.461799
O O4 0.126265 0.782558 0.569252
O O5 0.905632 0.712602 0.070585
O O6 0.705505 0.614605 0.127619
O O7 0.739434 0.912444 0.108645
O O8 0.742672 0.728099 0.964589
O O9 0.982472 0.391973 0.794188
O O10 0.987621 0.091176 0.826519
O O11 0.874179 0.351050 0.645724
O O12 0.090156 0.302188 0.648268
O O13 0.479311 0.204759 0.292530
O O14 0.613962 0.431118 0.245326
O O15 0.663981 0.138495 0.205377
O O16 0.702020 0.798462 0.797036
#
# Coordination Sequence:
#
# PCOD8123552 Si02
#       8
#     4   4   4   4   4   4   4   4
#     4   9  19  36  58  83 113 149 184 222 274 333
#     4  10  20  36  60  86 111 145 187 228 272 329
#     4  10  18  32  57  86 115 145 180 222 273 332
#     4  10  18  32  57  86 115 145 180 222 273 332
#     4  11  23  40  59  80 111 147 188 234 278 327
#     4   9  19  36  58  83 113 149 184 222 274 333
#     4  11  23  40  59  80 111 147 188 234 278 327
#     4  10  20  36  60  86 111 145 187 228 272 329
#
# _framework density 20.948181999999999
#
# number of rings (size 3 to 8) (size 9 to 14) (size 15 to 20)
#    0.000    2.000    2.500    1.500    0.000    4.000 
#    0.000    8.750    0.000    3.000    0.000    0.000 
#    0.000    0.000    0.000    0.000    0.000    0.000 
#
# Total GULP energy -396798.450193 kJ/mol
# GULP energy per Si atom -12399.951569 kJ/mol
# Density = 2.090050 g / cm^3
# Si number density = 20.948182 Si / 1000 Ang^3
#
#
#
# Elastic Constant Matrix: (Units=GPa)
#
#
# Indices 1 2 3 4 5 6 
#
# 1 112.1013 11.9626 8.2772 0.0000 9.7378 0.0000
# 2 11.9626 14.9803 -8.6260 0.0000 0.4005 0.0000
# 3 8.2772 -8.6260 53.0601 0.0000 11.9555 0.0000
# 4 0.0000 0.0000 0.0000 24.8760 0.0000 -0.4519
# 5 9.7378 0.4005 11.9555 0.0000 15.4063 0.0000
# 6 0.0000 0.0000 0.0000 -0.4519 0.0000 25.4312
#
#
#
# Elastic Compliance Matrix: (Units=1/GPa)
#
#
# Indices 1 2 3 4 5 6 
#
# 1 0.010500 -0.009470 -0.002106 0.000000 -0.004756 0.000000
# 2 -0.009470 0.084612 0.017427 0.000000 -0.009737 0.000000
# 3 -0.002106 0.017427 0.026432 0.000000 -0.019634 0.000000
# 4 0.000000 0.000000 0.000000 0.040212 0.000000 0.000715
# 5 -0.004756 -0.009737 -0.019634 0.000000 0.083404 0.000000
# 6 0.000000 0.000000 0.000000 0.000715 0.000000 0.039335
#
#
# Mechanical properties :
#
#
# Convention : Reuss Voigt Hill
#
# Bulk Modulus (GPa) = 7.50497 22.59659 15.05078
# Shear Modulus (GPa) = 15.76256 24.37789 20.07023
#
# Velocity S-wave (km/s) = 2.74607 3.41504 3.09866
# Velocity P-wave (km/s) = 3.69390 5.13423 4.47243
#
# Compressibility (1/GPa) = 0.13324500
#
# Stress axis : x y z
#
# Youngs Moduli (GPa) = 95.24075 11.81872 37.83293
#
# Poissons Ratio (x) = 0.11192 0.07967
# Poissons Ratio (y) = 0.90193 -0.65930
# Poissons Ratio (z) = 0.20056 -0.20596
#
# Static dielectric constant tensor:
#      x y z
#    x 3.853370 0.000000 0.099540 
#    y 0.000000 3.455750 0.000000 
#    z 0.099540 0.000000 4.012540 
# 
# 
# High freq. dielectric constant tensor:
#      x y z
#    x 1.819300 0.000000 0.001110 
#    y 0.000000 1.790840 0.000000 
#    z 0.001110 0.000000 1.828600 
# 
# From -- ./inp_files/43430.got.cif
#   From: 2010.03.12/outbox.cif.g09.slc.cpg/sg14_22_cif.got.tgz:43430.got - 2010.03.31 13:35:05.
