data_PCOD8123281
_publ_section_title
;
Structure prediction by ZEFSAII (Michael W. Deem and Ramdas Pophale) SiO2 
 PCOD8123281
Probable space group: P 21/C
;
_chemical_formula_sum "Si O2"
_cell_formula_units_Z 32
_cell_length_a 10.625443
_cell_length_b 11.964524
_cell_length_c 15.037793
_cell_angle_alpha 90.000000
_cell_angle_beta 112.935672
_cell_angle_gamma 90.000000
_cell_volume 1760.594359
_symmetry_space_group_name_H-M "P 21/C"
_symmetry_group_IT_number 14
_symmetry_cell_setting 'monoclinic'
loop_
_space_group_symop_operation_xyz
x,y,z
-x,1/2+y,1/2-z
-x,-y,-z
x,1/2-y,1/2+z
loop_
_atom_site_type_symbol
_atom_site_label
_atom_site_fract_x
_atom_site_fract_y
_atom_site_fract_z
Si Si1 0.677125 0.535896 0.965722
Si Si2 0.111306 0.339600 0.360745
Si Si3 0.156576 0.269641 0.048954
Si Si4 0.081021 0.550378 0.257213
Si Si5 0.820602 0.842386 0.758293
Si Si6 0.931223 0.404869 0.069541
Si Si7 0.171736 0.789231 0.290388
Si Si8 0.622009 0.480601 0.152977
O O1 0.714576 0.662248 0.952136
O O2 0.539408 0.513178 0.871197
O O3 0.804503 0.455138 0.978085
O O4 0.650070 0.521242 0.061576
O O5 0.135640 0.330952 0.473127
O O6 0.166509 0.455849 0.334315
O O7 0.186423 0.238484 0.329702
O O8 0.947640 0.338583 0.303907
O O9 0.186768 0.228830 0.155284
O O10 0.024800 0.350801 0.018922
O O11 0.183669 0.656278 0.271377
O O12 0.959619 0.588400 0.288988
O O13 0.014643 0.500558 0.148082
O O14 0.694372 0.927012 0.733274
O O15 0.876694 0.308707 0.121001
O O16 0.313476 0.856528 0.312091
#
# Coordination Sequence:
#
# PCOD8123281 Si02
#       8
#     4   4   4   4   4   4   4   4
#     4  10  20  33  58  81 103 146 190 227 266 324
#     4  10  19  33  55  85 111 143 179 224 289 321
#     4  12  21  33  57  87 111 139 186 232 279 322
#     4  10  16  34  55  81 113 141 173 225 293 322
#     4  11  19  36  55  80 119 142 179 231 273 328
#     4  10  18  34  55  85 108 134 189 236 271 312
#     4   9  17  33  54  78 107 146 177 223 274 325
#     4  10  19  38  57  77 112 148 188 223 271 327
#
# _framework density 18.175681000000001
#
# number of rings (size 3 to 8) (size 9 to 14) (size 15 to 20)
#    0.000    1.750    8.750    1.125    0.000    0.500 
#    0.000    2.500    0.000    2.250    0.000    0.000 
#    0.000    0.000    0.000    0.000    0.000    0.000 
#
# Total GULP energy -396492.782250 kJ/mol
# GULP energy per Si atom -12390.399445 kJ/mol
# Density = 1.813431 g / cm^3
# Si number density = 18.175681 Si / 1000 Ang^3
#
#
#
# Elastic Constant Matrix: (Units=GPa)
#
#
# Indices 1 2 3 4 5 6 
#
# 1 61.6225 37.8034 28.4924 0.0000 22.8064 0.0000
# 2 37.8034 111.7522 22.7820 0.0000 11.6009 0.0000
# 3 28.4924 22.7820 53.5896 0.0000 4.3984 0.0000
# 4 0.0000 0.0000 0.0000 27.4269 0.0000 1.6266
# 5 22.8064 11.6009 4.3984 0.0000 20.9700 0.0000
# 6 0.0000 0.0000 0.0000 1.6266 0.0000 15.5819
#
#
#
# Elastic Compliance Matrix: (Units=1/GPa)
#
#
# Indices 1 2 3 4 5 6 
#
# 1 0.042533 -0.006993 -0.016445 0.000000 -0.038940 0.000000
# 2 -0.006993 0.011409 -0.001260 0.000000 0.001558 0.000000
# 3 -0.016445 -0.001260 0.026877 0.000000 0.012945 0.000000
# 4 0.000000 0.000000 0.000000 0.036688 0.000000 -0.003830
# 5 -0.038940 0.001558 0.012945 0.000000 0.086460 0.000000
# 6 0.000000 0.000000 0.000000 -0.003830 0.000000 0.064577
#
#
# Mechanical properties :
#
#
# Convention : Reuss Voigt Hill
#
# Bulk Modulus (GPa) = 31.82397 45.01332 38.41865
# Shear Modulus (GPa) = 15.22461 21.98818 18.60640
#
# Velocity S-wave (km/s) = 2.89733 3.48193 3.20300
# Velocity P-wave (km/s) = 5.36095 6.40192 5.90442
#
# Compressibility (1/GPa) = 0.03142286
#
# Stress axis : x y z
#
# Youngs Moduli (GPa) = 23.51089 87.64895 37.20649
#
# Poissons Ratio (x) = 0.61296 0.61187
# Poissons Ratio (y) = 0.16442 0.04688
# Poissons Ratio (z) = 0.38664 0.11043
#
# Static dielectric constant tensor:
#      x y z
#    x 3.335450 0.000000 0.156800 
#    y 0.000000 3.713120 0.000000 
#    z 0.156800 0.000000 3.236940 
# 
# 
# High freq. dielectric constant tensor:
#      x y z
#    x 1.670380 0.000000 -0.002920 
#    y 0.000000 1.709950 0.000000 
#    z -0.002920 0.000000 1.685570 
# 
# From -- ./inp_files/44402.got.cif
#   From: 2010.03.12/outbox.cif.g09.slc.cpg/sg14_23_cif.got.tgz:44402.got - 2010.03.31 13:35:05.
