data_PCOD8123222
_publ_section_title
;
Structure prediction by ZEFSAII (Michael W. Deem and Ramdas Pophale) SiO2 
 PCOD8123222
Probable space group: P 2/C
;
_chemical_formula_sum "Si O2"
_cell_formula_units_Z 32
_cell_length_a 25.262497
_cell_length_b 9.722175
_cell_length_c 20.118027
_cell_angle_alpha 90.000000
_cell_angle_beta 23.230391
_cell_angle_gamma 90.000000
_cell_volume 1948.921550
_symmetry_space_group_name_H-M "P 2/C"
_symmetry_group_IT_number 13
_symmetry_cell_setting 'monoclinic'
loop_
_space_group_symop_operation_xyz
x,y,z
-x,y,1/2-z
-x,-y,-z
x,-y,1/2+z
loop_
_atom_site_type_symbol
_atom_site_label
_atom_site_fract_x
_atom_site_fract_y
_atom_site_fract_z
Si Si1 0.857795 0.586559 0.438221
Si Si2 0.875129 0.092128 0.067175
Si Si3 0.142205 0.086556 0.561779
Si Si4 0.181389 0.908087 0.248680
Si Si5 0.875129 0.592129 0.567174
Si Si6 0.181389 0.408086 0.748679
Si Si7 0.350051 0.086347 0.429124
Si Si8 0.649949 0.586348 0.570876
O O1 0.864968 0.750001 0.424090
O O2 0.828442 0.543688 0.548054
O O3 0.739390 0.527260 0.528302
O O4 0.000000 0.524388 0.250000
O O5 0.836318 0.249999 0.125642
O O6 0.797713 0.998998 0.209790
O O7 0.828442 0.043686 0.048054
O O8 0.034569 0.071241 0.887239
O O9 0.260611 0.027259 0.471696
O O10 0.000000 0.024386 0.750000
O O11 0.206213 0.750000 0.239641
O O12 0.287632 0.959912 0.071418
O O13 0.797714 0.498998 0.709790
O O14 0.034570 0.571243 0.387239
O O15 0.287634 0.459911 0.571416
O O16 0.500000 0.025779 0.250000
O O17 0.351343 0.250000 0.423559
O O18 0.500000 0.525779 0.750000
#
# Coordination Sequence:
#
# PCOD8123222 Si02
#       8
#     4   4   4   4   4   4   4   4
#     4   9  14  24  42  63  84 108 144 182 210 244
#     4   9  16  26  44  66  86 111 143 178 213 253
#     4   9  14  24  42  63  84 108 144 182 210 244
#     4   9  16  27  43  64  89 113 139 176 218 255
#     4   9  16  26  44  66  86 111 143 178 213 253
#     4   9  16  27  43  64  89 113 139 176 218 255
#     4   9  16  26  42  64  87 111 142 180 217 250
#     4   9  16  26  42  64  87 111 142 180 217 250
#
# _framework density 16.419338
#
# number of rings (size 3 to 8) (size 9 to 14) (size 15 to 20)
#    0.000    3.000    2.500    0.000    0.000    0.000 
#    0.000    1.250    0.000    3.000    0.000    0.000 
#    0.000    0.000    0.000    0.000    0.000    0.000 
#
# Total GULP energy -396709.240270 kJ/mol
# GULP energy per Si atom -12397.163758 kJ/mol
# Density = 1.638197 g / cm^3
# Si number density = 16.419338 Si / 1000 Ang^3
#
#
#
# Elastic Constant Matrix: (Units=GPa)
#
#
# Indices 1 2 3 4 5 6 
#
# 1 150.9930 40.0554 86.2474 0.0000 16.2626 0.0000
# 2 40.0554 34.5029 31.4434 0.0000 14.1963 0.0000
# 3 86.2474 31.4434 120.8428 0.0000 16.4020 0.0000
# 4 0.0000 0.0000 0.0000 14.2364 0.0000 9.6018
# 5 16.2626 14.1963 16.4020 0.0000 29.1624 0.0000
# 6 0.0000 0.0000 0.0000 9.6018 0.0000 19.4719
#
#
#
# Elastic Compliance Matrix: (Units=1/GPa)
#
#
# Indices 1 2 3 4 5 6 
#
# 1 0.012910 -0.009077 -0.007010 0.000000 0.001162 0.000000
# 2 -0.009077 0.050510 -0.004346 0.000000 -0.017082 0.000000
# 3 -0.007010 -0.004346 0.014714 0.000000 -0.002251 0.000000
# 4 0.000000 0.000000 0.000000 0.105245 0.000000 -0.051898
# 5 0.001162 -0.017082 -0.002251 0.000000 0.043225 0.000000
# 6 0.000000 0.000000 0.000000 -0.051898 0.000000 0.076948
#
#
# Mechanical properties :
#
#
# Convention : Reuss Voigt Hill
#
# Bulk Modulus (GPa) = 26.83193 69.09234 47.96214
# Shear Modulus (GPa) = 14.01193 22.48032 18.24612
#
# Velocity S-wave (km/s) = 2.92444 3.70420 3.33717
# Velocity P-wave (km/s) = 5.27070 7.77599 6.64252
#
# Compressibility (1/GPa) = 0.03726902
#
# Stress axis : x y z
#
# Youngs Moduli (GPa) = 77.46213 19.79810 67.96068
#
# Poissons Ratio (x) = 0.17971 0.47638
# Poissons Ratio (y) = 0.70314 0.29533
# Poissons Ratio (z) = 0.54298 0.08603
#
# Static dielectric constant tensor:
#      x y z
#    x 3.275820 0.000000 0.035450 
#    y 0.000000 2.638500 0.000000 
#    z 0.035450 0.000000 3.125860 
# 
# 
# High freq. dielectric constant tensor:
#      x y z
#    x 1.639150 0.000000 0.014710 
#    y 0.000000 1.573360 0.000000 
#    z 0.014710 0.000000 1.621420 
# 
# From -- ./inp_files/82573.got.cif
#   From: 2010.06.25/outbox.cif.g09.slc.cpg/sg13_42_cif.got.tgz:82573.got - 2010.06.28 04:50:58.
