data_PCOD8123204
_publ_section_title
;
Structure prediction by ZEFSAII (Michael W. Deem and Ramdas Pophale) SiO2 
 PCOD8123204
Probable space group: P 2/C
;
_chemical_formula_sum "Si O2"
_cell_formula_units_Z 18
_cell_length_a 5.923216
_cell_length_b 8.273880
_cell_length_c 18.105632
_cell_angle_alpha 90.000000
_cell_angle_beta 54.738849
_cell_angle_gamma 90.000000
_cell_volume 724.523047
_symmetry_space_group_name_H-M "P 2/C"
_symmetry_group_IT_number 13
_symmetry_cell_setting 'monoclinic'
loop_
_space_group_symop_operation_xyz
x,y,z
-x,y,1/2-z
-x,-y,-z
x,-y,1/2+z
loop_
_atom_site_type_symbol
_atom_site_label
_atom_site_fract_x
_atom_site_fract_y
_atom_site_fract_z
Si Si1 0.433569 0.777471 0.677185
Si Si2 0.243123 0.587601 0.588111
Si Si3 0.023541 0.184808 0.013387
Si Si4 0.000000 0.942054 0.250000
Si Si5 0.185326 0.310773 0.832593
O O1 0.500000 0.746518 0.750000
O O2 0.270117 0.630060 0.669983
O O3 0.706594 0.764331 0.576445
O O4 0.275281 0.947935 0.696030
O O5 0.500000 0.500000 0.500000
O O6 0.177613 0.758951 0.559364
O O7 0.972217 0.479028 0.640565
O O8 0.194561 0.266985 0.916351
O O9 0.000000 0.000000 0.000000
O O10 0.976661 0.827849 0.182571
O O11 0.500000 0.334981 0.750000
#
# Coordination Sequence:
#
# PCOD8123204 Si02
#       5
#     4   4   4   2   4
#     4  12  27  51  79 117 163 213 273 335 405 490
#     4  12  29  52  79 120 161 217 276 335 417 485
#     4  12  27  50  82 114 162 211 273 335 408 491
#     4  12  28  50  80 124 160 220 276 326 420 484
#     4  12  29  50  80 120 165 208 270 342 407 482
#
# _framework density 24.843927999999998
#
# number of rings (size 3 to 8) (size 9 to 14) (size 15 to 20)
#    0.000    0.000    2.222    6.667    6.222    7.111 
#    0.000    0.000    0.000    0.000    0.000    0.000 
#    0.000    0.000    0.000    0.000    0.000    0.000 
#
# Total GULP energy -223110.834744 kJ/mol
# GULP energy per Si atom -12395.046375 kJ/mol
# Density = 2.478738 g / cm^3
# Si number density = 24.843928 Si / 1000 Ang^3
#
#
#
# Elastic Constant Matrix: (Units=GPa)
#
#
# Indices 1 2 3 4 5 6 
#
# 1 145.7938 73.7018 82.3564 0.0000 15.6328 0.0000
# 2 73.7018 155.4428 61.2040 0.0000 17.3588 0.0000
# 3 82.3564 61.2040 171.1264 0.0000 -3.5365 0.0000
# 4 0.0000 0.0000 0.0000 44.0992 0.0000 8.6947
# 5 15.6328 17.3588 -3.5365 0.0000 58.3399 0.0000
# 6 0.0000 0.0000 0.0000 8.6947 0.0000 -2.9121
#
#
#
# Elastic Compliance Matrix: (Units=1/GPa)
#
#
# Indices 1 2 3 4 5 6 
#
# 1 0.011203 -0.003398 -0.004223 0.000000 -0.002247 0.000000
# 2 -0.003398 0.008868 -0.001574 0.000000 -0.001823 0.000000
# 3 -0.004223 -0.001574 0.008482 0.000000 0.002114 0.000000
# 4 0.000000 0.000000 0.000000 0.014274 0.000000 0.042617
# 5 -0.002247 -0.001823 0.002114 0.000000 0.018414 0.000000
# 6 0.000000 0.000000 0.000000 0.042617 0.000000 -0.216152
#
#
# Mechanical properties :
#
#
# Convention : Reuss Voigt Hill
#
# Bulk Modulus (GPa) = 98.38849 100.76526 99.57687
# Shear Modulus (GPa) = -37.55629 36.91213 -0.32208
#
# Velocity S-wave (km/s) = -3.89226 3.85874 -0.36045
# Velocity P-wave (km/s) = 4.41463 7.77821 6.32414
#
# Compressibility (1/GPa) = 0.01016379
#
# Stress axis : x y z
#
# Youngs Moduli (GPa) = 89.26066 112.76730 117.89135
#
# Poissons Ratio (x) = 0.38322 0.49781
# Poissons Ratio (y) = 0.30334 0.18554
# Poissons Ratio (z) = 0.37692 0.17747
#
# Static dielectric constant tensor:
#      x y z
#    x 3.843100 0.000000 -0.172830 
#    y 0.000000 4.667330 0.000000 
#    z -0.172830 0.000000 4.300470 
# 
# 
# High freq. dielectric constant tensor:
#      x y z
#    x 2.004640 0.000000 -0.002970 
#    y 0.000000 1.999470 0.000000 
#    z -0.002970 0.000000 2.010190 
# 
# From -- ./inp_files/60551.got.cif
#   From: 2010.06.25/outbox.cif.g09.slc.cpg/sg13_31_cif.got.tgz:60551.got - 2010.06.28 04:50:58.
