data_PCOD8123952
_publ_section_title
;
Structure prediction by ZEFSAII (Michael W. Deem and Ramdas Pophale) SiO2 
 PCOD8123952
Probable space group: P 21/C
;
_chemical_formula_sum "Si O2"
_cell_formula_units_Z 32
_cell_length_a 18.514358
_cell_length_b 8.912169
_cell_length_c 18.199177
_cell_angle_alpha 90.000000
_cell_angle_beta 36.184474
_cell_angle_gamma 90.000000
_cell_volume 1772.885090
_symmetry_space_group_name_H-M "P 21/C"
_symmetry_group_IT_number 14
_symmetry_cell_setting 'monoclinic'
loop_
_space_group_symop_operation_xyz
x,y,z
-x,1/2+y,1/2-z
-x,-y,-z
x,1/2-y,1/2+z
loop_
_atom_site_type_symbol
_atom_site_label
_atom_site_fract_x
_atom_site_fract_y
_atom_site_fract_z
Si Si1 0.652555 0.580030 0.995167
Si Si2 0.533628 0.951886 0.825237
Si Si3 0.352728 0.743899 0.049171
Si Si4 0.280546 0.289514 0.914288
Si Si5 0.424804 0.722888 0.149375
Si Si6 0.335540 0.549682 0.362188
Si Si7 0.099321 0.055002 0.655651
Si Si8 0.852976 0.213655 0.887004
O O1 0.612551 0.405352 0.025745
O O2 0.800486 0.587901 0.860667
O O3 0.628236 0.655876 0.094939
O O4 0.565340 0.674977 0.012179
O O5 0.659191 0.860758 0.707842
O O6 0.451542 0.964534 0.819986
O O7 0.577864 0.111839 0.816498
O O8 0.457119 0.868131 0.951346
O O9 0.342272 0.710678 0.144364
O O10 0.220813 0.801593 0.129201
O O11 0.270717 0.111880 0.912108
O O12 0.144529 0.354534 0.045245
O O13 0.375124 0.602296 0.248829
O O14 0.237020 0.668700 0.473048
O O15 0.966371 0.100992 0.791009
O O16 0.097303 0.879473 0.638356
#
# Coordination Sequence:
#
# PCOD8123952 Si02
#       8
#     4   4   4   4   4   4   4   4
#     4   9  19  34  53  79 105 141 182 222 267 320
#     4  11  19  33  53  79 111 141 187 221 267 320
#     4  10  23  35  53  81 120 149 171 222 283 336
#     4  10  19  32  54  83 101 136 183 237 262 306
#     4  12  21  34  54  83 118 148 177 219 282 336
#     4  11  19  32  56  78 106 142 188 228 265 313
#     4   9  18  33  54  80 102 135 183 237 266 311
#     4  10  20  35  58  81 106 139 186 232 273 319
#
# _framework density 18.049675000000001
#
# number of rings (size 3 to 8) (size 9 to 14) (size 15 to 20)
#    0.750    1.000    2.500    3.000    1.750    0.000 
#    0.000    0.000    0.000   11.250    0.000    0.000 
#    0.000    0.000    0.000    0.000    0.000    0.000 
#
# Total GULP energy -396503.055188 kJ/mol
# GULP energy per Si atom -12390.720475 kJ/mol
# Density = 1.800859 g / cm^3
# Si number density = 18.049675 Si / 1000 Ang^3
#
#
#
# Elastic Constant Matrix: (Units=GPa)
#
#
# Indices 1 2 3 4 5 6 
#
# 1 64.4044 28.4611 37.0089 0.0000 -1.4647 0.0000
# 2 28.4611 108.0643 27.7923 0.0000 8.8356 0.0000
# 3 37.0089 27.7923 62.1707 0.0000 3.1436 0.0000
# 4 0.0000 0.0000 0.0000 30.1505 0.0000 -9.3895
# 5 -1.4647 8.8356 3.1436 0.0000 22.2236 0.0000
# 6 0.0000 0.0000 0.0000 -9.3895 0.0000 21.5412
#
#
#
# Elastic Compliance Matrix: (Units=1/GPa)
#
#
# Indices 1 2 3 4 5 6 
#
# 1 0.024973 -0.003496 -0.013553 0.000000 0.004953 0.000000
# 2 -0.003496 0.011226 -0.002719 0.000000 -0.004309 0.000000
# 3 -0.013553 -0.002719 0.025541 0.000000 -0.003425 0.000000
# 4 0.000000 0.000000 0.000000 0.038376 0.000000 0.016728
# 5 0.004953 -0.004309 -0.003425 0.000000 0.047521 0.000000
# 6 0.000000 0.000000 0.000000 0.016728 0.000000 0.053714
#
#
# Mechanical properties :
#
#
# Convention : Reuss Voigt Hill
#
# Bulk Modulus (GPa) = 45.03953 46.79600 45.91777
# Shear Modulus (GPa) = 20.13765 24.20818 22.17292
#
# Velocity S-wave (km/s) = 3.34380 3.66621 3.50871
# Velocity P-wave (km/s) = 6.31785 6.62601 6.47376
#
# Compressibility (1/GPa) = 0.02220272
#
# Stress axis : x y z
#
# Youngs Moduli (GPa) = 40.04359 89.07664 39.15200
#
# Poissons Ratio (x) = 0.31145 0.53064
# Poissons Ratio (y) = 0.14001 0.10646
# Poissons Ratio (z) = 0.54272 0.24222
#
# Static dielectric constant tensor:
#      x y z
#    x 3.106690 0.000000 -0.088760 
#    y 0.000000 3.415400 0.000000 
#    z -0.088760 0.000000 3.112570 
# 
# 
# High freq. dielectric constant tensor:
#      x y z
#    x 1.664160 0.000000 -0.013470 
#    y 0.000000 1.718690 0.000000 
#    z -0.013470 0.000000 1.678590 
# 
# From -- ./inp_files/50086.got.cif
#   From: 2010.03.12/outbox.cif.g09.slc.cpg/sg14_26_cif.got.tgz:50086.got - 2010.03.31 13:35:05.
