data_PCOD8123560
_publ_section_title
;
Structure prediction by ZEFSAII (Michael W. Deem and Ramdas Pophale) SiO2 
 PCOD8123560
Probable space group: P 21/C
;
_chemical_formula_sum "Si O2"
_cell_formula_units_Z 32
_cell_length_a 14.521388
_cell_length_b 20.898926
_cell_length_c 12.741912
_cell_angle_alpha 90.000000
_cell_angle_beta 151.854795
_cell_angle_gamma 90.000000
_cell_volume 1824.062334
_symmetry_space_group_name_H-M "P 21/C"
_symmetry_group_IT_number 14
_symmetry_cell_setting 'monoclinic'
loop_
_space_group_symop_operation_xyz
x,y,z
-x,1/2+y,1/2-z
-x,-y,-z
x,1/2-y,1/2+z
loop_
_atom_site_type_symbol
_atom_site_label
_atom_site_fract_x
_atom_site_fract_y
_atom_site_fract_z
Si Si1 0.350899 0.069096 0.756335
Si Si2 0.732112 0.288219 0.315202
Si Si3 0.528993 0.759859 0.637443
Si Si4 0.021789 0.287131 0.437284
Si Si5 0.392884 0.636779 0.624514
Si Si6 0.045239 0.640253 0.137574
Si Si7 0.309796 0.576588 0.239569
Si Si8 0.748769 0.324776 0.991714
O O1 0.474401 0.075001 0.770974
O O2 0.177330 0.119898 0.576065
O O3 0.266353 0.998123 0.679686
O O4 0.487173 0.086368 0.993769
O O5 0.926990 0.314515 0.450931
O O6 0.623679 0.346060 0.269359
O O7 0.792632 0.233881 0.458072
O O8 0.575671 0.257657 0.079730
O O9 0.503716 0.691351 0.666971
O O10 0.436148 0.812894 0.619535
O O11 0.747366 0.783247 0.833518
O O12 0.930851 0.216294 0.342483
O O13 0.942671 0.329359 0.259739
O O14 0.173391 0.620200 0.366673
O O15 0.128493 0.607580 0.117253
O O16 0.308114 0.610106 0.124425
#
# Coordination Sequence:
#
# PCOD8123560 Si02
#       8
#     4   4   4   4   4   4   4   4
#     4  10  21  34  56  78 106 146 179 212 258 321
#     4  10  18  33  49  74 106 136 163 218 266 302
#     4  10  20  32  49  77 104 136 175 212 262 324
#     4  11  20  31  50  76 106 138 170 210 273 312
#     4  10  19  33  51  75 108 133 175 219 256 312
#     4  11  18  32  50  78 108 134 171 217 258 319
#     4  10  21  37  52  78 110 144 177 213 264 313
#     4  10  20  34  49  75 109 138 166 221 262 309
#
# _framework density 17.54326
#
# number of rings (size 3 to 8) (size 9 to 14) (size 15 to 20)
#    0.000    1.750    6.250    1.125    0.000    4.000 
#    0.000    0.000    0.000    3.000    0.000    5.250 
#    0.000    0.000    0.000    0.000    0.000    0.000 
#
# Total GULP energy -396579.865415 kJ/mol
# GULP energy per Si atom -12393.120794 kJ/mol
# Density = 1.750333 g / cm^3
# Si number density = 17.543260 Si / 1000 Ang^3
#
#
#
# Elastic Constant Matrix: (Units=GPa)
#
#
# Indices 1 2 3 4 5 6 
#
# 1 95.1177 8.9428 48.1572 0.0000 -3.0063 0.0000
# 2 8.9428 41.5496 9.0425 0.0000 -6.7269 0.0000
# 3 48.1572 9.0425 74.6514 0.0000 14.0076 0.0000
# 4 0.0000 0.0000 0.0000 21.8867 0.0000 -4.5482
# 5 -3.0063 -6.7269 14.0076 0.0000 30.7457 0.0000
# 6 0.0000 0.0000 0.0000 -4.5482 0.0000 23.7445
#
#
#
# Elastic Compliance Matrix: (Units=1/GPa)
#
#
# Indices 1 2 3 4 5 6 
#
# 1 0.016982 0.000223 -0.012359 0.000000 0.007340 0.000000
# 2 0.000223 0.026367 -0.004838 0.000000 0.007995 0.000000
# 3 -0.012359 -0.004838 0.024472 0.000000 -0.013416 0.000000
# 4 0.000000 0.000000 0.000000 0.047584 0.000000 0.009115
# 5 0.007340 0.007995 -0.013416 0.000000 0.041104 0.000000
# 6 0.000000 0.000000 0.000000 0.009115 0.000000 0.043861
#
#
# Mechanical properties :
#
#
# Convention : Reuss Voigt Hill
#
# Bulk Modulus (GPa) = 29.52242 38.17818 33.85030
# Shear Modulus (GPa) = 20.35770 24.95380 22.65575
#
# Velocity S-wave (km/s) = 3.41020 3.77558 3.59753
# Velocity P-wave (km/s) = 5.68954 6.38876 6.04926
#
# Compressibility (1/GPa) = 0.03387257
#
# Stress axis : x y z
#
# Youngs Moduli (GPa) = 58.88749 37.92643 40.86350
#
# Poissons Ratio (x) = -0.00846 0.50503
# Poissons Ratio (y) = -0.01314 0.19769
# Poissons Ratio (z) = 0.72779 0.18348
#
# Static dielectric constant tensor:
#      x y z
#    x 3.492140 0.000000 -0.024510 
#    y 0.000000 3.082120 0.000000 
#    z -0.024510 0.000000 3.230040 
# 
# 
# High freq. dielectric constant tensor:
#      x y z
#    x 1.683390 0.000000 0.008770 
#    y 0.000000 1.642360 0.000000 
#    z 0.008770 0.000000 1.675400 
# 
# From -- ./inp_files/33165.got.cif
#   From: 2010.03.12/outbox.cif.g09.slc.cpg/sg14_17_cif.got.tgz:33165.got - 2010.03.31 13:35:05.
