data_PCOD8123747
_publ_section_title
;
Structure prediction by ZEFSAII (Michael W. Deem and Ramdas Pophale) SiO2 
 PCOD8123747
Probable space group: P 21/C
;
_chemical_formula_sum "Si O2"
_cell_formula_units_Z 20
_cell_length_a 9.380113
_cell_length_b 7.303209
_cell_length_c 27.122394
_cell_angle_alpha 90.000000
_cell_angle_beta 153.951677
_cell_angle_gamma 90.000000
_cell_volume 815.909459
_symmetry_space_group_name_H-M "P 21/C"
_symmetry_group_IT_number 14
_symmetry_cell_setting 'monoclinic'
loop_
_space_group_symop_operation_xyz
x,y,z
-x,1/2+y,1/2-z
-x,-y,-z
x,1/2-y,1/2+z
loop_
_atom_site_type_symbol
_atom_site_label
_atom_site_fract_x
_atom_site_fract_y
_atom_site_fract_z
Si Si1 0.733669 0.169199 0.518376
Si Si2 0.368645 0.908927 0.822285
Si Si3 0.779847 0.356010 0.829602
Si Si4 0.884156 0.975350 0.906277
Si Si5 0.782673 0.377341 0.145865
O O1 0.736324 0.207842 0.577500
O O2 0.787398 0.360072 0.504725
O O3 0.392680 0.073420 0.399817
O O4 0.025047 0.034592 0.592229
O O5 0.166216 0.827626 0.712603
O O6 0.742437 0.955788 0.919887
O O7 0.389768 0.763452 0.871627
O O8 0.165174 0.088868 0.776141
O O9 0.394157 0.392944 0.717161
O O10 0.918931 0.187893 0.903898
#
# Coordination Sequence:
#
# PCOD8123747 Si02
#       5
#     4   4   4   4   4
#     4  10  21  38  62  83 122 153 194 244 287 349
#     4   9  21  37  59  84 116 157 197 234 306 338
#     4   9  17  35  58  85 108 153 197 230 285 350
#     4  10  18  36  61  84 110 158 199 232 293 349
#     4  10  21  40  56  89 119 151 193 246 294 346
#
# _framework density 24.512521
#
# number of rings (size 3 to 8) (size 9 to 14) (size 15 to 20)
#    1.200    1.200    2.000    0.000    2.800    0.800 
#    7.200    4.000    0.000    0.000    0.000    0.000 
#    0.000    0.000    0.000    0.000    0.000    0.000 
#
# Total GULP energy -247930.246055 kJ/mol
# GULP energy per Si atom -12396.512303 kJ/mol
# Density = 2.445673 g / cm^3
# Si number density = 24.512521 Si / 1000 Ang^3
#
#
#
# Elastic Constant Matrix: (Units=GPa)
#
#
# Indices 1 2 3 4 5 6 
#
# 1 104.9823 41.9955 28.8392 0.0000 14.1392 0.0000
# 2 41.9955 81.4200 0.2247 0.0000 -0.6824 0.0000
# 3 28.8392 0.2247 77.5306 -0.0001 28.3712 0.0000
# 4 0.0000 0.0000 -0.0001 25.2150 0.0000 13.5690
# 5 14.1392 -0.6824 28.3712 0.0000 31.2291 0.0000
# 6 0.0000 0.0000 0.0000 13.5690 0.0000 54.0110
#
#
#
# Elastic Compliance Matrix: (Units=1/GPa)
#
#
# Indices 1 2 3 4 5 6 
#
# 1 0.013904 -0.007182 -0.004180 0.000000 -0.002655 0.000000
# 2 -0.007182 0.015996 0.001958 0.000000 0.001822 0.000000
# 3 -0.004180 0.001958 0.020581 0.000000 -0.016763 0.000000
# 4 0.000000 0.000000 0.000000 0.045859 0.000000 -0.011521
# 5 -0.002655 0.001822 -0.016763 0.000000 0.048492 0.000000
# 6 0.000000 0.000000 0.000000 -0.011521 0.000000 0.021409
#
#
# Mechanical properties :
#
#
# Convention : Reuss Voigt Hill
#
# Bulk Modulus (GPa) = 31.57070 45.11685 38.34378
# Shear Modulus (GPa) = 25.56148 34.94925 30.25537
#
# Velocity S-wave (km/s) = 3.23273 3.78004 3.51705
# Velocity P-wave (km/s) = 5.18088 6.12349 5.67180
#
# Compressibility (1/GPa) = 0.03167493
#
# Stress axis : x y z
#
# Youngs Moduli (GPa) = 71.92024 62.51385 48.58812
#
# Poissons Ratio (x) = 0.44900 0.20308
# Poissons Ratio (y) = 0.51656 -0.09516
# Poissons Ratio (z) = 0.30060 -0.12243
#
# Static dielectric constant tensor:
#      x y z
#    x 4.259780 0.000000 0.190900 
#    y 0.000000 3.927950 0.000000 
#    z 0.190900 0.000000 4.566630 
# 
# 
# High freq. dielectric constant tensor:
#      x y z
#    x 1.969230 0.000000 0.009300 
#    y 0.000000 1.956020 0.000000 
#    z 0.009300 0.000000 2.005890 
# 
# From -- ./inp_files/79381.got.cif
#   From: 2010.03.12/outbox.cif.g09.slc.cpg/sg14_40_cif.got.tgz:79381.got - 2010.03.31 13:35:05.
