data_PCOD8123387
_publ_section_title
;
Structure prediction by ZEFSAII (Michael W. Deem and Ramdas Pophale) SiO2 
 PCOD8123387
Probable space group: P 21/C
;
_chemical_formula_sum "Si O2"
_cell_formula_units_Z 28
_cell_length_a 9.679079
_cell_length_b 16.317629
_cell_length_c 8.800103
_cell_angle_alpha 90.000000
_cell_angle_beta 76.211905
_cell_angle_gamma 90.000000
_cell_volume 1349.833754
_symmetry_space_group_name_H-M "P 21/C"
_symmetry_group_IT_number 14
_symmetry_cell_setting 'monoclinic'
loop_
_space_group_symop_operation_xyz
x,y,z
-x,1/2+y,1/2-z
-x,-y,-z
x,1/2-y,1/2+z
loop_
_atom_site_type_symbol
_atom_site_label
_atom_site_fract_x
_atom_site_fract_y
_atom_site_fract_z
Si Si1 0.777489 0.041661 0.264525
Si Si2 0.774942 0.649225 0.079376
Si Si3 0.982521 0.099162 0.998764
Si Si4 0.987596 0.419881 0.168919
Si Si5 0.444177 0.445635 0.378816
Si Si6 0.254765 0.185848 0.062742
Si Si7 0.304711 0.530000 0.901511
O O1 0.849271 0.115832 0.148493
O O2 0.685618 0.072743 0.433513
O O3 0.900449 0.989473 0.314768
O O4 0.686786 0.987078 0.173324
O O5 0.772243 0.679305 0.252021
O O6 0.675534 0.568648 0.087449
O O7 0.938249 0.635746 0.979633
O O8 0.714019 0.720087 0.986766
O O9 0.118311 0.149281 0.014554
O O10 0.948084 0.128361 0.835499
O O11 0.000000 0.000000 0.000000
O O12 0.846102 0.459505 0.140808
O O13 0.500000 0.500000 0.500000
O O14 0.394024 0.361762 0.469074
O O15 0.571564 0.428494 0.228337
#
# Coordination Sequence:
#
# PCOD8123387 Si02
#       7
#     4   4   4   4   4   4   4
#     4  10  20  35  61  92 121 156 209 261 309 365
#     4  11  23  38  61  91 125 163 209 261 324 373
#     4  10  17  34  62  89 120 155 207 258 300 361
#     4  10  19  38  66  94 123 158 209 266 306 373
#     4  12  23  39  61  93 126 173 216 264 313 388
#     4  12  23  39  62  93 127 167 213 264 322 385
#     4  11  22  39  66  96 127 159 217 261 321 380
#
# _framework density 20.743295
#
# number of rings (size 3 to 8) (size 9 to 14) (size 15 to 20)
#    0.000    1.143    4.286    6.429    2.000    0.000 
#    0.000    0.000    3.143    1.714    3.714    0.000 
#    0.000    0.000    0.000    0.000    0.000    0.000 
#
# Total GULP energy -347003.647662 kJ/mol
# GULP energy per Si atom -12392.987416 kJ/mol
# Density = 2.069608 g / cm^3
# Si number density = 20.743295 Si / 1000 Ang^3
#
#
#
# Elastic Constant Matrix: (Units=GPa)
#
#
# Indices 1 2 3 4 5 6 
#
# 1 74.1696 28.2257 38.2973 0.0000 -16.4243 0.0000
# 2 28.2257 64.4802 42.9749 0.0000 -19.8240 0.0000
# 3 38.2973 42.9749 214.1452 0.0000 -24.9148 0.0000
# 4 0.0000 0.0000 0.0000 24.3876 0.0000 3.4196
# 5 -16.4243 -19.8240 -24.9148 0.0000 34.1909 0.0000
# 6 0.0000 0.0000 0.0000 3.4196 0.0000 19.3928
#
#
#
# Elastic Compliance Matrix: (Units=1/GPa)
#
#
# Indices 1 2 3 4 5 6 
#
# 1 0.017178 -0.005231 -0.001546 0.000000 0.004092 0.000000
# 2 -0.005231 0.022071 -0.002510 0.000000 0.008455 0.000000
# 3 -0.001546 -0.002510 0.005675 0.000000 0.001938 0.000000
# 4 0.000000 0.000000 0.000000 0.042044 0.000000 -0.007414
# 5 0.004092 0.008455 0.001938 0.000000 0.037527 0.000000
# 6 0.000000 0.000000 0.000000 -0.007414 0.000000 0.052873
#
#
# Mechanical properties :
#
#
# Convention : Reuss Voigt Hill
#
# Bulk Modulus (GPa) = 37.95107 63.53232 50.74169
# Shear Modulus (GPa) = 24.42296 31.81407 28.11851
#
# Velocity S-wave (km/s) = 3.43503 3.92050 3.68577
# Velocity P-wave (km/s) = 5.83677 7.15459 6.52901
#
# Compressibility (1/GPa) = 0.02634972
#
# Stress axis : x y z
#
# Youngs Moduli (GPa) = 58.21471 45.30907 176.19945
#
# Poissons Ratio (x) = 0.23700 0.27244
# Poissons Ratio (y) = 0.30451 0.44226
# Poissons Ratio (z) = 0.09001 0.11373
#
# Static dielectric constant tensor:
#      x y z
#    x 3.846280 0.000000 -0.045330 
#    y 0.000000 3.041740 0.000000 
#    z -0.045330 0.000000 6.498880 
# 
# 
# High freq. dielectric constant tensor:
#      x y z
#    x 1.795500 0.000000 -0.006610 
#    y 0.000000 1.757150 0.000000 
#    z -0.006610 0.000000 1.860960 
# 
# From -- ./inp_files/9405.got.cif
#   From: 2010.03.12/outbox.cif.g09.slc.cpg/sg14_5_cif.got.tgz:9405.got - 2010.03.31 13:35:05.
