data_PCOD8123910
_publ_section_title
;
Structure prediction by ZEFSAII (Michael W. Deem and Ramdas Pophale) SiO2 
 PCOD8123910
Probable space group: P 21/C
;
_chemical_formula_sum "Si O2"
_cell_formula_units_Z 32
_cell_length_a 13.715556
_cell_length_b 12.826767
_cell_length_c 12.889392
_cell_angle_alpha 90.000000
_cell_angle_beta 33.514228
_cell_angle_gamma 90.000000
_cell_volume 1252.032051
_symmetry_space_group_name_H-M "P 21/C"
_symmetry_group_IT_number 14
_symmetry_cell_setting 'monoclinic'
loop_
_space_group_symop_operation_xyz
x,y,z
-x,1/2+y,1/2-z
-x,-y,-z
x,1/2-y,1/2+z
loop_
_atom_site_type_symbol
_atom_site_label
_atom_site_fract_x
_atom_site_fract_y
_atom_site_fract_z
Si Si1 0.650849 0.086576 0.684605
Si Si2 0.023347 0.715294 0.070969
Si Si3 0.192589 0.899814 0.804393
Si Si4 0.692552 0.685663 0.469814
Si Si5 0.410466 0.785714 0.469774
Si Si6 0.705118 0.655740 0.124238
Si Si7 0.887139 0.968823 0.938537
Si Si8 0.078171 0.662203 0.730039
O O1 0.839763 0.119806 0.565376
O O2 0.491553 0.130237 0.898905
O O3 0.619292 0.143318 0.603683
O O4 0.637079 0.962607 0.688263
O O5 0.036548 0.756688 0.176788
O O6 0.816606 0.679360 0.255697
O O7 0.063223 0.808028 0.957430
O O8 0.384194 0.858602 0.595357
O O9 0.086154 0.946216 0.800757
O O10 0.226416 0.982085 0.865799
O O11 0.663643 0.802530 0.542985
O O12 0.780758 0.629488 0.492284
O O13 0.598234 0.727369 0.301734
O O14 0.261192 0.696618 0.617973
O O15 0.917516 0.663144 0.957901
O O16 0.905638 0.045341 0.825225
#
# Coordination Sequence:
#
# PCOD8123910 Si02
#       8
#     4   4   4   4   4   4   4   4
#     4  10  20  36  58  82 110 154 205 241 280 351
#     4   9  19  35  56  81 117 154 190 238 294 350
#     4  10  20  35  58  93 126 151 183 245 316 353
#     4  10  20  36  58  85 112 152 206 244 280 350
#     4  10  20  35  56  85 120 149 187 240 293 348
#     4  10  19  31  54  81 106 144 194 238 276 332
#     4  10  19  35  63  90 117 153 198 246 296 350
#     4   9  17  33  58  83 111 154 195 231 277 344
#
# _framework density 25.558451999999999
#
# number of rings (size 3 to 8) (size 9 to 14) (size 15 to 20)
#    0.000    2.250    0.000    4.500    0.000    2.000 
#    0.000    6.875    0.000   19.500    0.000    0.000 
#    0.000    0.000    0.000    0.000    0.000    0.000 
#
# Total GULP energy -396639.580328 kJ/mol
# GULP energy per Si atom -12394.986885 kJ/mol
# Density = 2.550028 g / cm^3
# Si number density = 25.558452 Si / 1000 Ang^3
#
#
#
# Elastic Constant Matrix: (Units=GPa)
#
#
# Indices 1 2 3 4 5 6 
#
# 1 18.7987 -3.8487 -2.1352 0.0000 -10.8905 0.0000
# 2 -3.8487 100.1424 8.4058 0.0000 -3.2655 0.0000
# 3 -2.1352 8.4058 136.7700 0.0000 -16.0895 0.0000
# 4 0.0000 0.0000 0.0000 35.0428 0.0000 -0.5477
# 5 -10.8905 -3.2655 -16.0895 0.0000 26.7086 0.0000
# 6 0.0000 0.0000 0.0000 -0.5477 0.0000 24.8977
#
#
#
# Elastic Compliance Matrix: (Units=1/GPa)
#
#
# Indices 1 2 3 4 5 6 
#
# 1 0.073871 0.003522 0.004876 0.000000 0.033489 0.000000
# 2 0.003522 0.010227 -0.000277 0.000000 0.002519 0.000000
# 3 0.004876 -0.000277 0.008217 0.000000 0.006904 0.000000
# 4 0.000000 0.000000 0.000000 0.028546 0.000000 0.000628
# 5 0.033489 0.002519 0.006904 0.000000 0.055564 0.000000
# 6 0.000000 0.000000 0.000000 0.000628 0.000000 0.040178
#
#
# Mechanical properties :
#
#
# Convention : Reuss Voigt Hill
#
# Bulk Modulus (GPa) = 9.21177 28.95055 19.08116
# Shear Modulus (GPa) = 21.13750 34.21576 27.67663
#
# Velocity S-wave (km/s) = 2.87893 3.66283 3.29428
# Velocity P-wave (km/s) = 3.82923 5.40742 4.68525
#
# Compressibility (1/GPa) = 0.10855677
#
# Stress axis : x y z
#
# Youngs Moduli (GPa) = 13.53707 97.78469 121.69989
#
# Poissons Ratio (x) = -0.34437 -0.59346
# Poissons Ratio (y) = -0.04767 0.03373
# Poissons Ratio (z) = -0.06601 0.02710
#
# Static dielectric constant tensor:
#      x y z
#    x 4.025240 0.000000 -0.141820 
#    y 0.000000 4.616680 0.000000 
#    z -0.141820 0.000000 5.331690 
# 
# 
# High freq. dielectric constant tensor:
#      x y z
#    x 1.980940 0.000000 -0.002060 
#    y 0.000000 2.021570 0.000000 
#    z -0.002060 0.000000 2.042080 
# 
# From -- ./inp_files/49007.got.cif
#   From: 2010.03.12/outbox.cif.g09.slc.cpg/sg14_25_cif.got.tgz:49007.got - 2010.03.31 13:35:05.
