data_PCOD8124289
_publ_section_title
;
Structure prediction by ZEFSAII (Michael W. Deem and Ramdas Pophale) SiO2 
 PCOD8124289
Probable space group: P 21/C
;
_chemical_formula_sum "Si O2"
_cell_formula_units_Z 20
_cell_length_a 11.397279
_cell_length_b 5.057044
_cell_length_c 17.415026
_cell_angle_alpha 90.000000
_cell_angle_beta 81.225357
_cell_angle_gamma 90.000000
_cell_volume 991.994062
_symmetry_space_group_name_H-M "P 21/C"
_symmetry_group_IT_number 14
_symmetry_cell_setting 'monoclinic'
loop_
_space_group_symop_operation_xyz
x,y,z
-x,1/2+y,1/2-z
-x,-y,-z
x,1/2-y,1/2+z
loop_
_atom_site_type_symbol
_atom_site_label
_atom_site_fract_x
_atom_site_fract_y
_atom_site_fract_z
Si Si1 0.328776 0.498802 0.556814
Si Si2 0.869737 0.336706 0.708060
Si Si3 0.546339 0.762979 0.585873
Si Si4 0.860289 0.658256 0.308880
Si Si5 0.317160 0.783555 0.901677
O O1 0.405037 0.699833 0.603652
O O2 0.415702 0.278705 0.508162
O O3 0.232087 0.326806 0.611999
O O4 0.269889 0.675003 0.494133
O O5 0.836623 0.624005 0.745279
O O6 0.796237 0.251488 0.640811
O O7 0.007467 0.313266 0.670237
O O8 0.841193 0.131651 0.777461
O O9 0.611832 0.544432 0.632468
O O10 0.587979 0.044697 0.613466
#
# Coordination Sequence:
#
# PCOD8124289 Si02
#       5
#     4   4   4   4   4
#     4   9  21  35  62  81 113 147 196 226 293 337
#     4  10  22  39  55  82 119 149 194 236 294 334
#     4   9  20  34  59  83 113 143 187 239 285 336
#     4  10  22  38  58  80 114 159 187 238 290 350
#     4  10  19  36  58  83 114 146 186 243 277 338
#
# _framework density 20.16141
#
# number of rings (size 3 to 8) (size 9 to 14) (size 15 to 20)
#    1.200    1.200    0.000    1.800    2.800    0.800 
#    0.000    5.000    0.000    0.000    0.000    0.000 
#    0.000    0.000    0.000    0.000    0.000    0.000 
#
# Total GULP energy -247787.329883 kJ/mol
# GULP energy per Si atom -12389.366494 kJ/mol
# Density = 2.011552 g / cm^3
# Si number density = 20.161410 Si / 1000 Ang^3
#
#
#
# Elastic Constant Matrix: (Units=GPa)
#
#
# Indices 1 2 3 4 5 6 
#
# 1 96.4801 14.8316 47.7193 0.0000 21.7123 0.0000
# 2 14.8316 84.0893 8.7217 0.0000 1.0810 0.0000
# 3 47.7193 8.7217 45.3567 0.0000 6.8059 0.0000
# 4 0.0000 0.0000 0.0000 13.6695 0.0000 1.2399
# 5 21.7123 1.0810 6.8059 0.0000 39.5226 0.0000
# 6 0.0000 0.0000 0.0000 1.2399 0.0000 29.3574
#
#
#
# Elastic Compliance Matrix: (Units=1/GPa)
#
#
# Indices 1 2 3 4 5 6 
#
# 1 0.024768 -0.001726 -0.024320 0.000000 -0.009371 0.000000
# 2 -0.001726 0.012255 -0.000650 0.000000 0.000725 0.000000
# 3 -0.024320 -0.000650 0.046965 0.000000 0.005291 0.000000
# 4 0.000000 0.000000 0.000000 0.073437 0.000000 -0.003102
# 5 -0.009371 0.000725 0.005291 0.000000 0.029519 0.000000
# 6 0.000000 0.000000 0.000000 -0.003102 0.000000 0.034194
#
#
# Mechanical properties :
#
#
# Convention : Reuss Voigt Hill
#
# Bulk Modulus (GPa) = 32.68279 40.94125 36.81202
# Shear Modulus (GPa) = 17.56069 26.82013 22.19041
#
# Velocity S-wave (km/s) = 2.95448 3.65124 3.32119
# Velocity P-wave (km/s) = 5.28057 6.17465 5.74503
#
# Compressibility (1/GPa) = 0.03059715
#
# Stress axis : x y z
#
# Youngs Moduli (GPa) = 40.37515 81.60229 21.29239
#
# Poissons Ratio (x) = 0.14081 0.51783
# Poissons Ratio (y) = 0.06967 0.01383
# Poissons Ratio (z) = 0.98192 0.05302
#
# Static dielectric constant tensor:
#      x y z
#    x 3.604610 0.000000 0.110100 
#    y 0.000000 3.637660 0.000000 
#    z 0.110100 0.000000 3.184070 
# 
# 
# High freq. dielectric constant tensor:
#      x y z
#    x 1.783620 0.000000 0.013260 
#    y 0.000000 1.797150 0.000000 
#    z 0.013260 0.000000 1.747070 
# 
# From -- ./inp_files/42555.got.cif
#   From: 2010.03.12/outbox.cif.g09.slc.cpg/sg14_22_cif.got.tgz:42555.got - 2010.03.31 13:35:05.
