data_PCOD8124821
_publ_section_title
;
Structure prediction by ZEFSAII (Michael W. Deem and Ramdas Pophale) SiO2 
 PCOD8124821
Probable space group: P 21/C
;
_chemical_formula_sum "Si O2"
_cell_formula_units_Z 28
_cell_length_a 20.026693
_cell_length_b 7.525817
_cell_length_c 19.379022
_cell_angle_alpha 90.000000
_cell_angle_beta 151.316103
_cell_angle_gamma 90.000000
_cell_volume 1401.893871
_symmetry_space_group_name_H-M "P 21/C"
_symmetry_group_IT_number 14
_symmetry_cell_setting 'monoclinic'
loop_
_space_group_symop_operation_xyz
x,y,z
-x,1/2+y,1/2-z
-x,-y,-z
x,1/2-y,1/2+z
loop_
_atom_site_type_symbol
_atom_site_label
_atom_site_fract_x
_atom_site_fract_y
_atom_site_fract_z
Si Si1 0.349439 0.005957 0.289428
Si Si2 0.333958 0.056553 0.428702
Si Si3 0.824426 0.405785 0.095966
Si Si4 0.782221 0.865160 0.351086
Si Si5 0.019004 0.328113 0.850947
Si Si6 0.125048 0.359427 0.217587
Si Si7 0.190374 0.731725 0.058727
O O1 0.295132 0.974179 0.318610
O O2 0.342676 0.218806 0.266866
O O3 0.500626 0.918157 0.418461
O O4 0.249015 0.907949 0.145660
O O5 0.247359 0.238394 0.360825
O O6 0.298188 0.927591 0.459745
O O7 0.960707 0.345476 0.261693
O O8 0.865900 0.587682 0.095578
O O9 0.777225 0.265234 0.994285
O O10 0.838162 0.912598 0.326565
O O11 0.906227 0.779330 0.509204
O O12 0.737402 0.054055 0.343498
O O13 0.891128 0.464306 0.750314
O O14 0.975644 0.262387 0.081547
#
# Coordination Sequence:
#
# PCOD8124821 Si02
#       7
#     4   4   4   4   4   4   4
#     4  10  23  41  61  83 121 162 197 244 290 351
#     4  10  22  41  57  87 120 151 204 245 290 353
#     4  10  21  36  56  88 117 152 189 242 301 347
#     4   9  20  36  60  87 116 149 196 249 285 354
#     4  10  20  34  59  88 120 146 193 254 295 353
#     4   9  19  36  60  89 112 144 199 246 296 347
#     4  10  21  39  59  87 118 150 200 240 300 355
#
# _framework density 19.972981999999998
#
# number of rings (size 3 to 8) (size 9 to 14) (size 15 to 20)
#    0.000    2.571    0.000    3.429    8.000    1.143 
#    7.714    2.143    0.000    0.000    0.000    0.000 
#    0.000    0.000    0.000    0.000    0.000    0.000 
#
# Total GULP energy -347006.236902 kJ/mol
# GULP energy per Si atom -12393.079889 kJ/mol
# Density = 1.992752 g / cm^3
# Si number density = 19.972982 Si / 1000 Ang^3
#
#
#
# Elastic Constant Matrix: (Units=GPa)
#
#
# Indices 1 2 3 4 5 6 
#
# 1 110.3955 17.3520 21.7771 0.0000 -6.9231 0.0000
# 2 17.3520 47.2969 20.9147 0.0000 6.9800 0.0000
# 3 21.7771 20.9147 53.1728 0.0000 6.2040 0.0000
# 4 0.0000 0.0000 0.0000 35.0512 0.0000 -3.1682
# 5 -6.9231 6.9800 6.2040 0.0000 23.9546 0.0000
# 6 0.0000 0.0000 0.0000 -3.1682 0.0000 24.1645
#
#
#
# Elastic Compliance Matrix: (Units=1/GPa)
#
#
# Indices 1 2 3 4 5 6 
#
# 1 0.010564 -0.002943 -0.003738 0.000000 0.004879 0.000000
# 2 -0.002943 0.027009 -0.008663 0.000000 -0.006477 0.000000
# 3 -0.003738 -0.008663 0.024311 0.000000 -0.004853 0.000000
# 4 0.000000 0.000000 0.000000 0.028872 0.000000 0.003785
# 5 0.004879 -0.006477 -0.004853 0.000000 0.046300 0.000000
# 6 0.000000 0.000000 0.000000 0.003785 0.000000 0.041879
#
#
# Mechanical properties :
#
#
# Convention : Reuss Voigt Hill
#
# Bulk Modulus (GPa) = 32.05435 36.77251 34.41343
# Shear Modulus (GPa) = 22.72501 26.68884 24.70692
#
# Velocity S-wave (km/s) = 3.37677 3.65944 3.52094
# Velocity P-wave (km/s) = 5.59349 6.02548 5.81350
#
# Compressibility (1/GPa) = 0.03119701
#
# Stress axis : x y z
#
# Youngs Moduli (GPa) = 94.65860 37.02456 41.13331
#
# Poissons Ratio (x) = 0.10895 0.15377
# Poissons Ratio (y) = 0.27854 0.35633
# Poissons Ratio (z) = 0.35387 0.32073
#
# Static dielectric constant tensor:
#      x y z
#    x 3.805470 0.000000 -0.299460 
#    y 0.000000 3.432170 0.000000 
#    z -0.299460 0.000000 3.501740 
# 
# 
# High freq. dielectric constant tensor:
#      x y z
#    x 1.789720 0.000000 -0.024740 
#    y 0.000000 1.761300 0.000000 
#    z -0.024740 0.000000 1.758340 
# 
# From -- ./inp_files/54876.got.cif
#   From: 2010.03.12/outbox.cif.g09.slc.cpg/sg14_28_cif.got.tgz:54876.got - 2010.03.31 13:35:05.
