data_PCOD8124879
_publ_section_title
;
Structure prediction by ZEFSAII (Michael W. Deem and Ramdas Pophale) SiO2 
 PCOD8124879
Probable space group: P 21/C
;
_chemical_formula_sum "Si O2"
_cell_formula_units_Z 32
_cell_length_a 20.680503
_cell_length_b 9.049954
_cell_length_c 24.607303
_cell_angle_alpha 90.000000
_cell_angle_beta 20.006997
_cell_angle_gamma 90.000000
_cell_volume 1575.683036
_symmetry_space_group_name_H-M "P 21/C"
_symmetry_group_IT_number 14
_symmetry_cell_setting 'monoclinic'
loop_
_space_group_symop_operation_xyz
x,y,z
-x,1/2+y,1/2-z
-x,-y,-z
x,1/2-y,1/2+z
loop_
_atom_site_type_symbol
_atom_site_label
_atom_site_fract_x
_atom_site_fract_y
_atom_site_fract_z
Si Si1 0.206997 0.672402 0.815812
Si Si2 0.442462 0.671731 0.916111
Si Si3 0.792996 0.827623 0.684210
Si Si4 0.137097 0.829114 0.100378
Si Si5 0.862890 0.670924 0.399654
Si Si6 0.180718 0.332666 0.226523
Si Si7 0.557525 0.828276 0.583917
Si Si8 0.819292 0.332716 0.773452
O O1 0.250508 0.500012 0.785731
O O2 0.351159 0.759446 0.740400
O O3 0.229540 0.720555 0.735657
O O4 0.999992 0.713756 0.000014
O O5 0.648823 0.740559 0.759640
O O6 0.460947 0.500009 0.888078
O O7 0.340931 0.749927 0.944387
O O8 0.321950 0.701759 0.065574
O O9 0.770479 0.779525 0.764352
O O10 0.999992 0.750060 0.250027
O O11 0.038726 0.812829 0.118883
O O12 0.157145 0.000026 0.100749
O O13 0.659049 0.750103 0.555652
O O14 0.961257 0.687142 0.381157
O O15 0.213846 0.499968 0.221159
O O16 0.321974 0.298210 0.065538
#
# Coordination Sequence:
#
# PCOD8124879 Si02
#       8
#     4   4   4   4   4   4   4   4
#     4  11  24  38  52  75 107 142 181 222 263 312
#     4  10  20  35  57  83 108 137 176 218 263 316
#     4  11  24  38  52  75 107 142 181 222 263 312
#     4   9  17  31  53  82 112 137 169 215 263 312
#     4   9  17  31  53  82 112 137 169 215 263 312
#     4   9  19  35  56  82 108 136 173 216 261 314
#     4  10  20  35  57  83 108 137 176 218 263 316
#     4   9  19  35  56  82 108 136 173 216 261 314
#
# _framework density 20.308653
#
# number of rings (size 3 to 8) (size 9 to 14) (size 15 to 20)
#    0.000    2.250    0.000    4.500    0.000   11.000 
#    0.000    1.250    0.000    0.000    0.000    0.000 
#    0.000    0.000    0.000    0.000    0.000    0.000 
#
# Total GULP energy -396756.170947 kJ/mol
# GULP energy per Si atom -12398.630342 kJ/mol
# Density = 2.026243 g / cm^3
# Si number density = 20.308653 Si / 1000 Ang^3
#
#
#
# Elastic Constant Matrix: (Units=GPa)
#
#
# Indices 1 2 3 4 5 6 
#
# 1 33.4192 24.5777 27.0110 0.0000 -28.9536 0.0000
# 2 24.5777 121.2761 58.5546 0.0000 -29.1228 0.0000
# 3 27.0110 58.5546 93.9060 0.0000 -39.0654 0.0000
# 4 0.0000 0.0000 0.0000 33.7426 0.0000 -11.7314
# 5 -28.9536 -29.1228 -39.0654 0.0000 38.5973 0.0000
# 6 0.0000 0.0000 0.0000 -11.7314 0.0000 35.4031
#
#
#
# Elastic Compliance Matrix: (Units=1/GPa)
#
#
# Indices 1 2 3 4 5 6 
#
# 1 0.087596 -0.004140 0.005910 0.000000 0.068568 0.000000
# 2 -0.004140 0.012136 -0.006666 0.000000 -0.000695 0.000000
# 3 0.005910 -0.006666 0.022208 0.000000 0.021881 0.000000
# 4 0.000000 0.000000 0.000000 0.033495 0.000000 0.011099
# 5 0.068568 -0.000695 0.021881 0.000000 0.098966 0.000000
# 6 0.000000 0.000000 0.000000 0.011099 0.000000 0.031924
#
#
# Mechanical properties :
#
#
# Convention : Reuss Voigt Hill
#
# Bulk Modulus (GPa) = 8.91670 52.09866 30.50768
# Shear Modulus (GPa) = 14.99246 30.77914 22.88580
#
# Velocity S-wave (km/s) = 2.71999 3.89725 3.36057
# Velocity P-wave (km/s) = 3.77685 6.77942 5.48749
#
# Compressibility (1/GPa) = 0.11214911
#
# Stress axis : x y z
#
# Youngs Moduli (GPa) = 11.41599 82.39881 45.02843
#
# Poissons Ratio (x) = 0.34114 -0.26612
# Poissons Ratio (y) = 0.04726 0.30015
# Poissons Ratio (z) = -0.06747 0.54925
#
# Static dielectric constant tensor:
#      x y z
#    x 3.613260 0.000000 -0.458780 
#    y 0.000000 3.797360 0.000000 
#    z -0.458780 0.000000 3.643520 
# 
# 
# High freq. dielectric constant tensor:
#      x y z
#    x 1.780190 0.000000 -0.038740 
#    y 0.000000 1.803900 0.000000 
#    z -0.038740 0.000000 1.781700 
# 
# From -- ./inp_files/77984.got.cif
#   From: 2010.03.12/outbox.cif.g09.slc.cpg/sg14_39_cif.got.tgz:77984.got - 2010.03.31 13:35:05.
