data_PCOD8124905
_publ_section_title
;
Structure prediction by ZEFSAII (Michael W. Deem and Ramdas Pophale) SiO2 
 PCOD8124905
Probable space group: P 21/C
;
_chemical_formula_sum "Si O2"
_cell_formula_units_Z 32
_cell_length_a 28.731113
_cell_length_b 11.455824
_cell_length_c 7.948379
_cell_angle_alpha 90.000000
_cell_angle_beta 142.775345
_cell_angle_gamma 90.000000
_cell_volume 1582.599247
_symmetry_space_group_name_H-M "P 21/C"
_symmetry_group_IT_number 14
_symmetry_cell_setting 'monoclinic'
loop_
_space_group_symop_operation_xyz
x,y,z
-x,1/2+y,1/2-z
-x,-y,-z
x,1/2-y,1/2+z
loop_
_atom_site_type_symbol
_atom_site_label
_atom_site_fract_x
_atom_site_fract_y
_atom_site_fract_z
Si Si1 0.626737 0.656968 0.776462
Si Si2 0.128374 0.091395 0.620430
Si Si3 0.440489 0.977154 0.476993
Si Si4 0.547233 0.215266 0.247763
Si Si5 0.694149 0.621958 0.327601
Si Si6 0.573308 0.425487 0.515518
Si Si7 0.971478 0.400315 0.293825
Si Si8 0.046682 0.290969 0.193923
O O1 0.543889 0.721219 0.557211
O O2 0.686774 0.745304 0.866955
O O3 0.622576 0.543704 0.641988
O O4 0.662778 0.610684 0.050584
O O5 0.107489 0.189270 0.420342
O O6 0.084133 0.124384 0.664261
O O7 0.107092 0.957588 0.503846
O O8 0.218421 0.084319 0.909787
O O9 0.438020 0.840576 0.522711
O O10 0.500000 0.000000 0.500000
O O11 0.357109 0.033941 0.205294
O O12 0.482111 0.039124 0.761007
O O13 0.583567 0.345678 0.375235
O O14 0.594918 0.144413 0.246372
O O15 0.026223 0.373844 0.291317
O O16 0.970803 0.277802 0.398046
O O17 0.000000 0.500000 0.500000
#
# Coordination Sequence:
#
# PCOD8124905 Si02
#       8
#     4   4   4   4   4   4   4   4
#     4  11  22  37  54  84 113 152 191 255 312 362
#     4  10  20  35  59  93 125 160 193 243 305 358
#     4  11  22  35  56  82 108 156 205 255 306 360
#     4  11  19  37  56  78 105 142 210 256 300 360
#     4  12  23  38  57  85 129 151 195 256 318 362
#     4  11  21  37  58  80 106 143 208 257 301 361
#     4   9  18  34  64  94 127 162 202 237 284 353
#     4   9  18  36  60  96 125 158 200 242 281 358
#
# _framework density 20.219901
#
# number of rings (size 3 to 8) (size 9 to 14) (size 15 to 20)
#    0.000    1.500    3.750    2.625    3.500    0.000 
#    0.000    0.000    2.750    0.000    0.000    0.000 
#    0.000    0.000    0.000    0.000    0.000    0.000 
#
# Total GULP energy -396440.546963 kJ/mol
# GULP energy per Si atom -12388.767093 kJ/mol
# Density = 2.017388 g / cm^3
# Si number density = 20.219901 Si / 1000 Ang^3
#
#
#
# Elastic Constant Matrix: (Units=GPa)
#
#
# Indices 1 2 3 4 5 6 
#
# 1 63.4621 36.7030 43.3993 0.0000 -1.6933 0.0000
# 2 36.7030 102.0816 54.4780 0.0000 13.9932 0.0000
# 3 43.3993 54.4780 111.0289 0.0000 8.4018 0.0000
# 4 0.0000 0.0000 0.0000 32.3443 0.0000 -4.2978
# 5 -1.6933 13.9932 8.4018 0.0000 23.0891 0.0000
# 6 0.0000 0.0000 0.0000 -4.2978 0.0000 33.0020
#
#
#
# Elastic Compliance Matrix: (Units=1/GPa)
#
#
# Indices 1 2 3 4 5 6 
#
# 1 0.024370 -0.006039 -0.007172 0.000000 0.008057 0.000000
# 2 -0.006039 0.015579 -0.004664 0.000000 -0.008187 0.000000
# 3 -0.007172 -0.004664 0.014319 0.000000 -0.002910 0.000000
# 4 0.000000 0.000000 0.000000 0.031462 0.000000 0.004097
# 5 0.008057 -0.008187 -0.002910 0.000000 0.049922 0.000000
# 6 0.000000 0.000000 0.000000 0.004097 0.000000 0.030835
#
#
# Mechanical properties :
#
#
# Convention : Reuss Voigt Hill
#
# Bulk Modulus (GPa) = 54.00414 60.63703 57.32058
# Shear Modulus (GPa) = 23.99134 27.15321 25.57228
#
# Velocity S-wave (km/s) = 3.44833 3.66853 3.56013
# Velocity P-wave (km/s) = 6.52848 6.92806 6.73123
#
# Compressibility (1/GPa) = 0.01851710
#
# Stress axis : x y z
#
# Youngs Moduli (GPa) = 41.03429 64.19071 69.83806
#
# Poissons Ratio (x) = 0.38763 0.50091
# Poissons Ratio (y) = 0.24780 0.32571
# Poissons Ratio (z) = 0.29432 0.29938
#
# Static dielectric constant tensor:
#      x y z
#    x 3.580910 0.000000 -0.509000 
#    y 0.000000 4.181190 0.000000 
#    z -0.509000 0.000000 3.742000 
# 
# 
# High freq. dielectric constant tensor:
#      x y z
#    x 1.774190 0.000000 -0.051950 
#    y 0.000000 1.809060 0.000000 
#    z -0.051950 0.000000 1.758850 
# 
# From -- ./inp_files/19990.got.cif
#   From: 2010.03.12/outbox.cif.g09.slc.cpg/sg14_10_cif.got.tgz:19990.got - 2010.03.31 13:35:05.
