data_PCOD8124759
_publ_section_title
;
Structure prediction by ZEFSAII (Michael W. Deem and Ramdas Pophale) SiO2 
 PCOD8124759
Probable space group: P 21/C
;
_chemical_formula_sum "Si O2"
_cell_formula_units_Z 24
_cell_length_a 9.303995
_cell_length_b 11.678870
_cell_length_c 23.409291
_cell_angle_alpha 90.000000
_cell_angle_beta 29.393361
_cell_angle_gamma 90.000000
_cell_volume 1248.433993
_symmetry_space_group_name_H-M "P 21/C"
_symmetry_group_IT_number 14
_symmetry_cell_setting 'monoclinic'
loop_
_space_group_symop_operation_xyz
x,y,z
-x,1/2+y,1/2-z
-x,-y,-z
x,1/2-y,1/2+z
loop_
_atom_site_type_symbol
_atom_site_label
_atom_site_fract_x
_atom_site_fract_y
_atom_site_fract_z
Si Si1 0.817206 0.051894 0.010286
Si Si2 0.360772 0.601137 0.712932
Si Si3 0.624303 0.547123 0.743384
Si Si4 0.380625 0.159635 0.388328
Si Si5 0.229733 0.686136 0.959821
Si Si6 0.250694 0.009971 0.540054
O O1 0.704617 0.181794 0.052460
O O2 0.522835 0.976684 0.108947
O O3 0.021230 0.044639 0.883083
O O4 0.000000 0.000000 0.000000
O O5 0.500964 0.590213 0.726458
O O6 0.408093 0.731849 0.677646
O O7 0.024799 0.564239 0.831665
O O8 0.515852 0.419254 0.792172
O O9 0.514375 0.633302 0.830333
O O10 0.372569 0.097032 0.451221
O O11 0.049039 0.185517 0.485286
O O12 0.171134 0.612341 0.037864
O O13 0.500000 0.000000 0.500000
#
# Coordination Sequence:
#
# PCOD8124759 Si02
#       6
#     4   4   4   4   4   4
#     4  10  22  31  57 100 120 148 193 266 318 349
#     4  11  22  35  64  87 126 154 201 254 310 368
#     4  10  20  33  58  93 122 146 196 258 303 361
#     4  11  21  38  65  91 114 162 204 257 311 353
#     4  11  20  38  64  89 121 160 203 253 313 359
#     4  11  25  45  61  86 127 173 208 247 310 382
#
# _framework density 19.224084999999999
#
# number of rings (size 3 to 8) (size 9 to 14) (size 15 to 20)
#    0.000    1.333    6.667    1.000    9.333    0.000 
#    3.000    0.000    0.000    5.000    0.000    0.000 
#    0.000    0.000    0.000    0.000    0.000    0.000 
#
# Total GULP energy -297499.968604 kJ/mol
# GULP energy per Si atom -12395.832025 kJ/mol
# Density = 1.918033 g / cm^3
# Si number density = 19.224085 Si / 1000 Ang^3
#
#
#
# Elastic Constant Matrix: (Units=GPa)
#
#
# Indices 1 2 3 4 5 6 
#
# 1 49.8758 -0.7981 6.3414 0.0000 -8.6217 0.0000
# 2 -0.7981 143.1771 42.0135 0.0000 3.6935 0.0000
# 3 6.3414 42.0135 127.5649 0.0000 11.0737 0.0000
# 4 0.0000 0.0000 0.0000 29.3115 0.0000 4.3054
# 5 -8.6217 3.6935 11.0737 0.0000 11.3022 0.0000
# 6 0.0000 0.0000 0.0000 4.3054 0.0000 5.4824
#
#
#
# Elastic Compliance Matrix: (Units=1/GPa)
#
#
# Indices 1 2 3 4 5 6 
#
# 1 0.024177 0.000532 -0.003238 0.000000 0.021442 0.000000
# 2 0.000532 0.007743 -0.002615 0.000000 0.000437 0.000000
# 3 -0.003238 -0.002615 0.009838 0.000000 -0.011255 0.000000
# 4 0.000000 0.000000 0.000000 0.038565 0.000000 -0.030286
# 5 0.021442 0.000437 -0.011255 0.000000 0.115719 0.000000
# 6 0.000000 0.000000 0.000000 -0.030286 0.000000 0.206186
#
#
# Mechanical properties :
#
#
# Convention : Reuss Voigt Hill
#
# Bulk Modulus (GPa) = 32.13785 46.19236 39.16511
# Shear Modulus (GPa) = 11.81356 27.42329 19.61843
#
# Velocity S-wave (km/s) = 2.48164 3.78101 3.19801
# Velocity P-wave (km/s) = 4.99651 6.56825 5.83554
#
# Compressibility (1/GPa) = 0.03111596
#
# Stress axis : x y z
#
# Youngs Moduli (GPa) = 41.36246 129.14427 101.64365
#
# Poissons Ratio (x) = -0.06869 0.32916
# Poissons Ratio (y) = -0.02200 0.26576
# Poissons Ratio (z) = 0.13395 0.33766
#
# Static dielectric constant tensor:
#      x y z
#    x 3.044530 0.000000 0.414010 
#    y 0.000000 3.831130 0.000000 
#    z 0.414010 0.000000 5.079490 
# 
# 
# High freq. dielectric constant tensor:
#      x y z
#    x 1.686350 0.000000 0.013660 
#    y 0.000000 1.763710 0.000000 
#    z 0.013660 0.000000 1.769930 
# 
# From -- ./inp_files/24240.got.cif
#   From: 2010.03.12/outbox.cif.g09.slc.cpg/sg14_13_cif.got.tgz:24240.got - 2010.03.31 13:35:05.
