data_PCOD8124341
_publ_section_title
;
Structure prediction by ZEFSAII (Michael W. Deem and Ramdas Pophale) SiO2 
 PCOD8124341
Probable space group: P 21/C
;
_chemical_formula_sum "Si O2"
_cell_formula_units_Z 20
_cell_length_a 10.761885
_cell_length_b 13.650177
_cell_length_c 4.846067
_cell_angle_alpha 90.000000
_cell_angle_beta 81.320584
_cell_angle_gamma 90.000000
_cell_volume 703.742660
_symmetry_space_group_name_H-M "P 21/C"
_symmetry_group_IT_number 14
_symmetry_cell_setting 'monoclinic'
loop_
_space_group_symop_operation_xyz
x,y,z
-x,1/2+y,1/2-z
-x,-y,-z
x,1/2-y,1/2+z
loop_
_atom_site_type_symbol
_atom_site_label
_atom_site_fract_x
_atom_site_fract_y
_atom_site_fract_z
Si Si1 0.311698 0.318198 0.051256
Si Si2 0.386210 0.501307 0.329884
Si Si3 0.033361 0.187016 0.566650
Si Si4 0.876782 0.439425 0.476200
Si Si5 0.710663 0.315788 0.872164
O O1 0.340192 0.224478 0.239248
O O2 0.396129 0.411199 0.110409
O O3 0.168052 0.359446 0.105961
O O4 0.500000 0.500000 0.500000
O O5 0.250460 0.496738 0.540233
O O6 0.396593 0.603382 0.154977
O O7 0.026452 0.212014 0.246377
O O8 0.914459 0.118877 0.684914
O O9 0.845033 0.363018 0.735452
O O10 0.000000 0.500000 0.500000
O O11 0.696142 0.216087 0.694425
#
# Coordination Sequence:
#
# PCOD8124341 Si02
#       5
#     4   4   4   4   4
#     4  10  22  42  66  96 132 174 221 279 340 401
#     4  10  24  44  66  98 135 177 230 280 339 408
#     4  10  19  36  61  91 124 162 210 263 324 390
#     4  10  20  40  65  94 138 166 227 267 342 386
#     4  10  23  43  70 100 138 181 228 281 345 410
#
# _framework density 28.419478000000002
#
# number of rings (size 3 to 8) (size 9 to 14) (size 15 to 20)
#    1.200    0.800    2.000    1.200    0.000    3.200 
#    0.000    6.000    0.000    0.000    0.000    0.000 
#    0.000    0.000    0.000    0.000    0.000    0.000 
#
# Total GULP energy -247785.799057 kJ/mol
# GULP energy per Si atom -12389.289953 kJ/mol
# Density = 2.835479 g / cm^3
# Si number density = 28.419478 Si / 1000 Ang^3
#
#
#
# Elastic Constant Matrix: (Units=GPa)
#
#
# Indices 1 2 3 4 5 6 
#
# 1 160.1843 34.8468 5.0003 0.0000 24.7194 0.0000
# 2 34.8468 100.7986 -14.6291 0.0000 12.8791 0.0000
# 3 5.0003 -14.6291 51.3526 0.0000 0.0513 0.0000
# 4 0.0000 0.0000 0.0000 -31.2749 0.0000 32.0861
# 5 24.7194 12.8791 0.0513 0.0000 35.0712 0.0000
# 6 0.0000 0.0000 0.0000 32.0861 0.0000 -10.8635
#
#
#
# Elastic Compliance Matrix: (Units=1/GPa)
#
#
# Indices 1 2 3 4 5 6 
#
# 1 0.007449 -0.002204 -0.001349 0.000000 -0.004439 0.000000
# 2 -0.002204 0.011534 0.003503 0.000000 -0.002688 0.000000
# 3 -0.001349 0.003503 0.020603 0.000000 -0.000366 0.000000
# 4 0.000000 0.000000 0.000000 0.015750 0.000000 0.046518
# 5 -0.004439 -0.002688 -0.000366 0.000000 0.032630 0.000000
# 6 0.000000 0.000000 0.000000 0.046518 0.000000 0.045342
#
#
# Mechanical properties :
#
#
# Convention : Reuss Voigt Hill
#
# Bulk Modulus (GPa) = 25.32421 40.30794 32.81608
# Shear Modulus (GPa) = 34.11355 17.72774 25.92064
#
# Velocity S-wave (km/s) = 3.46838 2.50029 3.02333
# Velocity P-wave (km/s) = 4.99697 4.74860 4.87437
#
# Compressibility (1/GPa) = 0.03948790
#
# Stress axis : x y z
#
# Youngs Moduli (GPa) = 134.23885 86.69668 48.53697
#
# Poissons Ratio (x) = 0.19107 0.06546
# Poissons Ratio (y) = 0.29584 -0.17003
# Poissons Ratio (z) = 0.18105 -0.30371
#
# Static dielectric constant tensor:
#      x y z
#    x 5.336310 0.000000 -0.031640 
#    y 0.000000 5.093300 0.000000 
#    z -0.031640 0.000000 4.842610 
# 
# 
# High freq. dielectric constant tensor:
#      x y z
#    x 2.166270 0.000000 0.005670 
#    y 0.000000 2.142540 0.000000 
#    z 0.005670 0.000000 2.139140 
# 
# From -- ./inp_files/2521.got.cif
#   From: 2010.03.12/outbox.cif.g09.slc.cpg/sg14_2_cif.got.tgz:2521.got - 2010.03.31 13:35:05.
