data_PCOD8124930
_publ_section_title
;
Structure prediction by ZEFSAII (Michael W. Deem and Ramdas Pophale) SiO2 
 PCOD8124930
Probable space group: P 21/C
;
_chemical_formula_sum "Si O2"
_cell_formula_units_Z 32
_cell_length_a 8.858751
_cell_length_b 14.263147
_cell_length_c 24.923820
_cell_angle_alpha 90.000000
_cell_angle_beta 148.277079
_cell_angle_gamma 90.000000
_cell_volume 1655.895517
_symmetry_space_group_name_H-M "P 21/C"
_symmetry_group_IT_number 14
_symmetry_cell_setting 'monoclinic'
loop_
_space_group_symop_operation_xyz
x,y,z
-x,1/2+y,1/2-z
-x,-y,-z
x,1/2-y,1/2+z
loop_
_atom_site_type_symbol
_atom_site_label
_atom_site_fract_x
_atom_site_fract_y
_atom_site_fract_z
Si Si1 0.624145 0.375421 0.258513
Si Si2 0.780422 0.776948 0.895458
Si Si3 0.850766 0.787244 0.733505
Si Si4 0.192987 0.426355 0.689289
Si Si5 0.186732 0.194181 0.882894
Si Si6 0.649538 0.162958 0.886088
Si Si7 0.589717 0.032850 0.959104
Si Si8 0.487965 0.819804 0.917916
O O1 0.320005 0.325887 0.154384
O O2 0.582546 0.487475 0.242527
O O3 0.744178 0.351840 0.353942
O O4 0.855383 0.337115 0.285704
O O5 0.721453 0.849163 0.829068
O O6 0.592407 0.808341 0.889089
O O7 0.116245 0.771056 0.012788
O O8 0.784355 0.884499 0.743559
O O9 0.775224 0.781867 0.646957
O O10 0.668563 0.706447 0.708002
O O11 0.189677 0.767275 0.840065
O O12 0.878602 0.468157 0.582013
O O13 0.371089 0.106343 0.918447
O O14 0.292179 0.226851 0.973341
O O15 0.656834 0.062295 0.918053
O O16 0.452068 0.930543 0.918306
#
# Coordination Sequence:
#
# PCOD8124930 Si02
#       8
#     4   4   4   4   4   4   4   4
#     4  12  21  37  62  91 116 161 206 242 303 362
#     4  11  23  38  62  90 121 159 201 254 297 351
#     4  11  23  36  57  87 125 161 190 243 306 360
#     4  11  21  38  62  90 121 158 201 253 304 351
#     4  11  21  34  57  90 123 155 190 244 308 361
#     4  10  22  39  58  88 124 155 199 251 300 357
#     4  10  20  35  61  92 120 147 194 260 311 345
#     4  12  20  36  60  93 120 148 197 256 304 352
#
# _framework density 19.324891000000001
#
# number of rings (size 3 to 8) (size 9 to 14) (size 15 to 20)
#    0.000    1.000    6.250    1.875    0.000    2.000 
#    0.000    0.625    0.000    0.750    0.000    0.000 
#    0.000    0.000    0.000    0.000    0.000    0.000 
#
# Total GULP energy -396642.819313 kJ/mol
# GULP energy per Si atom -12395.088104 kJ/mol
# Density = 1.928091 g / cm^3
# Si number density = 19.324891 Si / 1000 Ang^3
#
#
#
# Elastic Constant Matrix: (Units=GPa)
#
#
# Indices 1 2 3 4 5 6 
#
# 1 104.1993 34.2894 31.5601 0.0000 -11.6573 0.0000
# 2 34.2894 75.0411 44.6610 0.0000 -6.2027 0.0000
# 3 31.5601 44.6610 68.3743 0.0000 -5.7373 0.0000
# 4 0.0000 0.0000 0.0000 24.8840 0.0000 1.0043
# 5 -11.6573 -6.2027 -5.7373 0.0000 34.4482 0.0000
# 6 0.0000 0.0000 0.0000 1.0043 0.0000 31.3019
#
#
#
# Elastic Compliance Matrix: (Units=1/GPa)
#
#
# Indices 1 2 3 4 5 6 
#
# 1 0.011972 -0.003412 -0.003051 0.000000 0.002929 0.000000
# 2 -0.003412 0.022858 -0.013293 0.000000 0.000747 0.000000
# 3 -0.003051 -0.013293 0.024775 0.000000 0.000700 0.000000
# 4 0.000000 0.000000 0.000000 0.040239 0.000000 -0.001291
# 5 0.002929 0.000747 0.000700 0.000000 0.030271 0.000000
# 6 0.000000 0.000000 0.000000 -0.001291 0.000000 0.031988
#
#
# Mechanical properties :
#
#
# Convention : Reuss Voigt Hill
#
# Bulk Modulus (GPa) = 49.77043 52.07064 50.92053
# Shear Modulus (GPa) = 24.00221 27.26711 25.63466
#
# Velocity S-wave (km/s) = 3.52808 3.76038 3.64608
# Velocity P-wave (km/s) = 6.51206 6.77180 6.64320
#
# Compressibility (1/GPa) = 0.02009225
#
# Stress axis : x y z
#
# Youngs Moduli (GPa) = 83.53017 43.74762 40.36280
#
# Poissons Ratio (x) = 0.14928 0.12316
# Poissons Ratio (y) = 0.28503 0.53654
# Poissons Ratio (z) = 0.25487 0.58154
#
# Static dielectric constant tensor:
#      x y z
#    x 3.876810 0.000000 -0.156790 
#    y 0.000000 3.424110 0.000000 
#    z -0.156790 0.000000 3.604120 
# 
# 
# High freq. dielectric constant tensor:
#      x y z
#    x 1.782380 0.000000 -0.005690 
#    y 0.000000 1.720790 0.000000 
#    z -0.005690 0.000000 1.736980 
# 
# From -- ./inp_files/72492.got.cif
#   From: 2010.03.12/outbox.cif.g09.slc.cpg/sg14_37_cif.got.tgz:72492.got - 2010.03.31 13:35:05.
