data_PCOD8124038
_publ_section_title
;
Structure prediction by ZEFSAII (Michael W. Deem and Ramdas Pophale) SiO2 
 PCOD8124038
Probable space group: P 21/C
;
_chemical_formula_sum "Si O2"
_cell_formula_units_Z 32
_cell_length_a 14.744226
_cell_length_b 14.625529
_cell_length_c 21.393820
_cell_angle_alpha 90.000000
_cell_angle_beta 20.565931
_cell_angle_gamma 90.000000
_cell_volume 1620.621116
_symmetry_space_group_name_H-M "P 21/C"
_symmetry_group_IT_number 14
_symmetry_cell_setting 'monoclinic'
loop_
_space_group_symop_operation_xyz
x,y,z
-x,1/2+y,1/2-z
-x,-y,-z
x,1/2-y,1/2+z
loop_
_atom_site_type_symbol
_atom_site_label
_atom_site_fract_x
_atom_site_fract_y
_atom_site_fract_z
Si Si1 0.754812 0.020182 0.240113
Si Si2 0.705625 0.389567 0.990320
Si Si3 0.770874 0.501473 0.063123
Si Si4 0.238656 0.591664 0.393539
Si Si5 0.010398 0.693825 0.908258
Si Si6 0.492971 0.258431 0.218109
Si Si7 0.003073 0.358923 0.677153
Si Si8 0.568041 0.120883 0.785432
O O1 0.786858 0.098749 0.165624
O O2 0.797504 0.074929 0.276372
O O3 0.480929 0.968234 0.417455
O O4 0.972473 0.943267 0.093455
O O5 0.910958 0.352963 0.807806
O O6 0.854161 0.429090 0.955577
O O7 0.556062 0.297491 0.108847
O O8 0.464385 0.518484 0.255937
O O9 0.773478 0.460654 0.133645
O O10 0.943461 0.588896 0.934859
O O11 0.303631 0.684246 0.387961
O O12 0.997466 0.758029 0.855045
O O13 0.293004 0.692878 0.757640
O O14 0.799113 0.721356 0.096641
O O15 0.493746 0.339771 0.266478
O O16 0.289882 0.404391 0.494627
#
# Coordination Sequence:
#
# PCOD8124038 Si02
#       8
#     4   4   4   4   4   4   4   4
#     4  10  19  33  62  81 110 148 193 229 284 333
#     4  10  22  38  56  83 121 149 187 230 286 349
#     4   9  18  38  57  83 107 146 189 237 280 336
#     4   9  17  32  59  86 103 136 189 242 277 319
#     4  10  21  36  60  83 111 148 194 237 286 333
#     4   9  20  35  55  85 111 139 188 243 279 323
#     4  11  22  39  52  86 119 152 185 235 285 346
#     4  10  19  35  59  78 112 146 190 238 284 331
#
# _framework density 19.745515999999999
#
# number of rings (size 3 to 8) (size 9 to 14) (size 15 to 20)
#    0.000    2.250    1.250    1.500    7.000    1.000 
#    4.500    0.625    0.000    0.000    0.000    0.000 
#    0.000    0.000    0.000    0.000    0.000    0.000 
#
# Total GULP energy -396439.925468 kJ/mol
# GULP energy per Si atom -12388.747671 kJ/mol
# Density = 1.970057 g / cm^3
# Si number density = 19.745516 Si / 1000 Ang^3
#
#
#
# Elastic Constant Matrix: (Units=GPa)
#
#
# Indices 1 2 3 4 5 6 
#
# 1 57.4214 29.1956 45.2752 0.0000 15.1576 0.0000
# 2 29.1956 86.9007 35.5400 0.0000 14.1257 0.0000
# 3 45.2752 35.5400 90.6276 0.0000 18.4113 0.0000
# 4 0.0000 0.0000 0.0000 23.1694 0.0000 -0.9984
# 5 15.1576 14.1257 18.4113 0.0000 35.2465 0.0000
# 6 0.0000 0.0000 0.0000 -0.9984 0.0000 29.0660
#
#
#
# Elastic Compliance Matrix: (Units=1/GPa)
#
#
# Indices 1 2 3 4 5 6 
#
# 1 0.031019 -0.004400 -0.012775 0.000000 -0.004903 0.000000
# 2 -0.004400 0.014620 -0.003053 0.000000 -0.002372 0.000000
# 3 -0.012775 -0.003053 0.019297 0.000000 -0.003362 0.000000
# 4 0.000000 0.000000 0.000000 0.043224 0.000000 0.001485
# 5 -0.004903 -0.002372 -0.003362 0.000000 0.033187 0.000000
# 6 0.000000 0.000000 0.000000 0.001485 0.000000 0.034455
#
#
# Mechanical properties :
#
#
# Convention : Reuss Voigt Hill
#
# Bulk Modulus (GPa) = 40.85014 50.55237 45.70126
# Shear Modulus (GPa) = 22.27983 25.82565 24.05274
#
# Velocity S-wave (km/s) = 3.36273 3.62045 3.49397
# Velocity P-wave (km/s) = 5.98419 6.56768 6.28271
#
# Compressibility (1/GPa) = 0.02447972
#
# Stress axis : x y z
#
# Youngs Moduli (GPa) = 32.23822 68.40008 51.82271
#
# Poissons Ratio (x) = 0.30094 0.66202
# Poissons Ratio (y) = 0.14184 0.15823
# Poissons Ratio (z) = 0.41184 0.20885
#
# Static dielectric constant tensor:
#      x y z
#    x 3.525810 0.000000 -0.081380 
#    y 0.000000 3.716810 0.000000 
#    z -0.081380 0.000000 3.447780 
# 
# 
# High freq. dielectric constant tensor:
#      x y z
#    x 1.755710 0.000000 -0.013030 
#    y 0.000000 1.770800 0.000000 
#    z -0.013030 0.000000 1.752270 
# 
# From -- ./inp_files/68682.got.cif
#   From: 2010.03.12/outbox.cif.g09.slc.cpg/sg14_35_cif.got.tgz:68682.got - 2010.03.31 13:35:05.
