data_PCOD8124158
_publ_section_title
;
Structure prediction by ZEFSAII (Michael W. Deem and Ramdas Pophale) SiO2 
 PCOD8124158
Probable space group: P 21/C
;
_chemical_formula_sum "Si O2"
_cell_formula_units_Z 28
_cell_length_a 16.535011
_cell_length_b 20.972612
_cell_length_c 11.053446
_cell_angle_alpha 90.000000
_cell_angle_beta 22.067519
_cell_angle_gamma 90.000000
_cell_volume 1440.106762
_symmetry_space_group_name_H-M "P 21/C"
_symmetry_group_IT_number 14
_symmetry_cell_setting 'monoclinic'
loop_
_space_group_symop_operation_xyz
x,y,z
-x,1/2+y,1/2-z
-x,-y,-z
x,1/2-y,1/2+z
loop_
_atom_site_type_symbol
_atom_site_label
_atom_site_fract_x
_atom_site_fract_y
_atom_site_fract_z
Si Si1 0.538448 0.195315 0.463709
Si Si2 0.169727 0.819041 0.149226
Si Si3 0.420959 0.363715 0.369932
Si Si4 0.208486 0.235429 0.745498
Si Si5 0.423064 0.571919 0.615463
Si Si6 0.010524 0.571939 0.026994
Si Si7 0.568681 0.819444 0.763918
O O1 0.546710 0.151849 0.571947
O O2 0.319715 0.186025 0.686236
O O3 0.520698 0.270215 0.514820
O O4 0.766722 0.181823 0.080526
O O5 0.055421 0.884740 0.346023
O O6 0.028685 0.756597 0.381112
O O7 0.400078 0.817372 0.890261
O O8 0.350294 0.299550 0.535234
O O9 0.571193 0.404395 0.253498
O O10 0.220302 0.406666 0.603880
O O11 0.206190 0.201524 0.614407
O O12 0.500000 0.500000 0.500000
O O13 0.590432 0.612689 0.300702
O O14 0.184415 0.581777 0.892333
O O15 0.000000 0.500000 0.000000
#
# Coordination Sequence:
#
# PCOD8124158 Si02
#       7
#     4   4   4   4   4   4   4
#     4  10  19  35  56  83 118 139 186 238 292 343
#     4   9  20  34  56  84 109 153 182 232 299 338
#     4  10  20  36  56  85 111 149 188 239 283 338
#     4   9  18  35  57  79 114 146 182 231 290 342
#     4  11  20  35  62  83 115 156 197 240 282 341
#     4  10  20  37  58  82 110 152 204 230 280 348
#     4   9  19  34  53  84 112 141 191 234 283 343
#
# _framework density 19.443002
#
# number of rings (size 3 to 8) (size 9 to 14) (size 15 to 20)
#    0.000    2.286    2.857    0.000    0.000    4.571 
#    0.000    0.714    0.000    0.857    0.000    0.000 
#    0.000    0.000    0.000    0.000    0.000    0.000 
#
# Total GULP energy -346876.988373 kJ/mol
# GULP energy per Si atom -12388.463870 kJ/mol
# Density = 1.939875 g / cm^3
# Si number density = 19.443002 Si / 1000 Ang^3
#
#
#
# Elastic Constant Matrix: (Units=GPa)
#
#
# Indices 1 2 3 4 5 6 
#
# 1 99.4764 58.0195 49.9373 0.0000 17.2874 0.0000
# 2 58.0195 99.8658 50.9786 0.0000 13.0826 0.0000
# 3 49.9373 50.9786 101.2793 0.0000 30.2383 0.0000
# 4 0.0000 0.0000 0.0000 21.0682 0.0000 -0.1541
# 5 17.2874 13.0826 30.2383 0.0000 27.9632 0.0000
# 6 0.0000 0.0000 0.0000 -0.1541 0.0000 33.2813
#
#
#
# Elastic Compliance Matrix: (Units=1/GPa)
#
#
# Indices 1 2 3 4 5 6 
#
# 1 0.016752 -0.007508 -0.003599 0.000000 -0.002951 0.000000
# 2 -0.007508 0.016885 -0.005648 0.000000 0.002849 0.000000
# 3 -0.003599 -0.005648 0.019254 0.000000 -0.015953 0.000000
# 4 0.000000 0.000000 0.000000 0.047467 0.000000 0.000220
# 5 -0.002951 0.002849 -0.015953 0.000000 0.053504 0.000000
# 6 0.000000 0.000000 0.000000 0.000220 0.000000 0.030048
#
#
# Mechanical properties :
#
#
# Convention : Reuss Voigt Hill
#
# Bulk Modulus (GPa) = 51.59803 68.72137 60.15970
# Shear Modulus (GPa) = 22.33337 25.90828 24.12083
#
# Velocity S-wave (km/s) = 3.39286 3.65434 3.52602
# Velocity P-wave (km/s) = 6.47645 7.29571 6.89825
#
# Compressibility (1/GPa) = 0.01938058
#
# Stress axis : x y z
#
# Youngs Moduli (GPa) = 59.69602 59.22291 51.93688
#
# Poissons Ratio (x) = 0.44467 0.18693
# Poissons Ratio (y) = 0.44822 0.29333
# Poissons Ratio (z) = 0.21485 0.33448
#
# Static dielectric constant tensor:
#      x y z
#    x 4.136130 0.000000 0.081410 
#    y 0.000000 3.517090 0.000000 
#    z 0.081410 0.000000 3.647190 
# 
# 
# High freq. dielectric constant tensor:
#      x y z
#    x 1.768660 0.000000 0.000980 
#    y 0.000000 1.736730 0.000000 
#    z 0.000980 0.000000 1.738840 
# 
# From -- ./inp_files/26499.got.cif
#   From: 2010.03.12/outbox.cif.g09.slc.cpg/sg14_14_cif.got.tgz:26499.got - 2010.03.31 13:35:05.
