data_PCOD8124802
_publ_section_title
;
Structure prediction by ZEFSAII (Michael W. Deem and Ramdas Pophale) SiO2 
 PCOD8124802
Probable space group: P 21/C
;
_chemical_formula_sum "Si O2"
_cell_formula_units_Z 32
_cell_length_a 8.416970
_cell_length_b 29.754237
_cell_length_c 5.499516
_cell_angle_alpha 90.000000
_cell_angle_beta 67.714784
_cell_angle_gamma 90.000000
_cell_volume 1274.427680
_symmetry_space_group_name_H-M "P 21/C"
_symmetry_group_IT_number 14
_symmetry_cell_setting 'monoclinic'
loop_
_space_group_symop_operation_xyz
x,y,z
-x,1/2+y,1/2-z
-x,-y,-z
x,1/2-y,1/2+z
loop_
_atom_site_type_symbol
_atom_site_label
_atom_site_fract_x
_atom_site_fract_y
_atom_site_fract_z
Si Si1 0.510684 0.132877 0.554519
Si Si2 0.866450 0.012030 0.355005
Si Si3 0.415199 0.955797 0.188236
Si Si4 0.143730 0.368458 0.394215
Si Si5 0.851667 0.768889 0.006407
Si Si6 0.456607 0.730007 0.779353
Si Si7 0.789102 0.094222 0.086877
Si Si8 0.205801 0.458207 0.570997
O O1 0.537244 0.087462 0.685274
O O2 0.304916 0.135258 0.607624
O O3 0.562516 0.176134 0.685047
O O4 0.637667 0.129880 0.247803
O O5 0.691193 0.005434 0.608730
O O6 0.852466 0.064097 0.273955
O O7 0.867470 0.973358 0.151232
O O8 0.068990 0.019069 0.344979
O O9 0.600496 0.976588 0.996781
O O10 0.287590 0.941823 0.050564
O O11 0.123129 0.321782 0.546241
O O12 0.199689 0.404239 0.571042
O O13 0.958539 0.380362 0.380625
O O14 0.937496 0.753671 0.215418
O O15 0.653568 0.754187 0.144156
O O16 0.372088 0.746607 0.571324
#
# Coordination Sequence:
#
# PCOD8124802 Si02
#       8
#     4   4   4   4   4   4   4   4
#     4   9  20  37  55  78 111 151 190 238 301 365
#     4   9  19  37  55  79 118 153 193 248 292 357
#     4  10  20  34  56  81 112 153 193 245 297 356
#     4   9  19  39  58  83 113 154 192 244 301 362
#     4   9  18  37  60  88 119 157 203 251 309 372
#     4   9  18  32  57  85 115 153 198 253 308 371
#     4  10  21  36  55  83 116 148 198 246 295 357
#     4   9  18  36  59  81 115 156 196 240 301 361
#
# _framework density 25.109309
#
# number of rings (size 3 to 8) (size 9 to 14) (size 15 to 20)
#    0.000    2.750    0.000    0.375    1.750    1.500 
#   13.500    6.875    0.000    0.000    0.000    0.000 
#    0.000    0.000    0.000    0.000    0.000    0.000 
#
# Total GULP energy -396437.730860 kJ/mol
# GULP energy per Si atom -12388.679089 kJ/mol
# Density = 2.505216 g / cm^3
# Si number density = 25.109309 Si / 1000 Ang^3
#
#
#
# Elastic Constant Matrix: (Units=GPa)
#
#
# Indices 1 2 3 4 5 6 
#
# 1 127.4862 42.9735 42.6798 0.0000 -32.2404 0.0000
# 2 42.9735 112.9640 56.8885 0.0000 -14.0218 0.0000
# 3 42.6798 56.8885 123.6842 0.0000 -16.1428 0.0000
# 4 0.0000 0.0000 0.0000 23.5552 0.0000 -7.3724
# 5 -32.2404 -14.0218 -16.1428 0.0000 38.4976 0.0000
# 6 0.0000 0.0000 0.0000 -7.3724 0.0000 10.1587
#
#
#
# Elastic Compliance Matrix: (Units=1/GPa)
#
#
# Indices 1 2 3 4 5 6 
#
# 1 0.011209 -0.002424 -0.001738 0.000000 0.007776 0.000000
# 2 -0.002424 0.012206 -0.004721 0.000000 0.000437 0.000000
# 3 -0.001738 -0.004721 0.011046 0.000000 0.001457 0.000000
# 4 0.000000 0.000000 0.000000 0.054930 0.000000 0.039864
# 5 0.007776 0.000437 0.001457 0.000000 0.033257 0.000000
# 6 0.000000 0.000000 0.000000 0.039864 0.000000 0.127367
#
#
# Mechanical properties :
#
#
# Convention : Reuss Voigt Hill
#
# Bulk Modulus (GPa) = 59.89447 72.13534 66.01491
# Shear Modulus (GPa) = 18.29172 29.21516 23.75344
#
# Velocity S-wave (km/s) = 2.70197 3.41474 3.07905
# Velocity P-wave (km/s) = 5.79996 6.65869 6.24410
#
# Compressibility (1/GPa) = 0.01669603
#
# Stress axis : x y z
#
# Youngs Moduli (GPa) = 89.21111 81.92725 90.52673
#
# Poissons Ratio (x) = 0.19856 0.15737
# Poissons Ratio (y) = 0.21621 0.42736
# Poissons Ratio (z) = 0.15509 0.38677
#
# Static dielectric constant tensor:
#      x y z
#    x 4.909190 0.000000 -0.535760 
#    y 0.000000 4.456420 0.000000 
#    z -0.535760 0.000000 4.869940 
# 
# 
# High freq. dielectric constant tensor:
#      x y z
#    x 1.999970 0.000000 -0.027600 
#    y 0.000000 2.011520 0.000000 
#    z -0.027600 0.000000 1.995120 
# 
# From -- ./inp_files/2213.got.cif
#   From: 2010.03.12/outbox.cif.g09.slc.cpg/sg14_2_cif.got.tgz:2213.got - 2010.03.31 13:35:05.
