data_PCOD8124935
_publ_section_title
;
Structure prediction by ZEFSAII (Michael W. Deem and Ramdas Pophale) SiO2 
 PCOD8124935
Probable space group: P 21/C
;
_chemical_formula_sum "Si O2"
_cell_formula_units_Z 28
_cell_length_a 11.448398
_cell_length_b 16.002978
_cell_length_c 8.747587
_cell_angle_alpha 90.000000
_cell_angle_beta 58.319518
_cell_angle_gamma 90.000000
_cell_volume 1363.823869
_symmetry_space_group_name_H-M "P 21/C"
_symmetry_group_IT_number 14
_symmetry_cell_setting 'monoclinic'
loop_
_space_group_symop_operation_xyz
x,y,z
-x,1/2+y,1/2-z
-x,-y,-z
x,1/2-y,1/2+z
loop_
_atom_site_type_symbol
_atom_site_label
_atom_site_fract_x
_atom_site_fract_y
_atom_site_fract_z
Si Si1 0.218435 0.229326 0.046170
Si Si2 0.354152 0.356928 0.179877
Si Si3 0.929764 0.094222 0.900571
Si Si4 0.336443 0.844866 0.462955
Si Si5 0.763352 0.312449 0.274449
Si Si6 0.180489 0.984430 0.727488
Si Si7 0.030560 0.269851 0.923370
O O1 0.316747 0.282843 0.087968
O O2 0.100057 0.182730 0.230290
O O3 0.304566 0.164003 0.886680
O O4 0.130896 0.289744 0.995438
O O5 0.517362 0.365357 0.064798
O O6 0.293753 0.444178 0.168199
O O7 0.823733 0.113466 0.836257
O O8 0.029451 0.170752 0.881319
O O9 0.833482 0.066157 0.105397
O O10 0.032542 0.020462 0.778404
O O11 0.357010 0.836195 0.263018
O O12 0.277072 0.762159 0.586214
O O13 0.232625 0.921192 0.562523
O O14 0.876460 0.292846 0.065997
#
# Coordination Sequence:
#
# PCOD8124935 Si02
#       7
#     4   4   4   4   4   4   4
#     4  10  20  35  62  89 114 154 203 258 298 353
#     4  11  23  42  59  90 124 167 212 243 303 369
#     4  11  22  38  65  92 125 151 204 263 315 365
#     4  12  24  39  64  86 128 169 206 248 295 382
#     4  12  22  40  63  97 118 160 212 256 307 355
#     4  11  23  41  61  91 126 165 197 253 326 356
#     4  11  17  35  62  91 116 143 195 265 304 346
#
# _framework density 20.530508999999999
#
# number of rings (size 3 to 8) (size 9 to 14) (size 15 to 20)
#    0.000    0.857    7.143    1.286    0.000    0.571 
#    0.000    3.571    0.000    0.000    0.000    0.000 
#    0.000    0.000    0.000    0.000    0.000    0.000 
#
# Total GULP energy -347030.257758 kJ/mol
# GULP energy per Si atom -12393.937777 kJ/mol
# Density = 2.048378 g / cm^3
# Si number density = 20.530509 Si / 1000 Ang^3
#
#
#
# Elastic Constant Matrix: (Units=GPa)
#
#
# Indices 1 2 3 4 5 6 
#
# 1 84.3904 22.3859 20.6045 0.0000 15.1812 0.0000
# 2 22.3859 68.1986 22.1430 0.0000 13.3202 0.0000
# 3 20.6045 22.1430 83.6899 0.0000 15.5557 0.0000
# 4 0.0000 0.0000 0.0000 27.8672 0.0000 -0.8850
# 5 15.1812 13.3202 15.5557 0.0000 35.8976 0.0000
# 6 0.0000 0.0000 0.0000 -0.8850 0.0000 27.0740
#
#
#
# Elastic Compliance Matrix: (Units=1/GPa)
#
#
# Indices 1 2 3 4 5 6 
#
# 1 0.013842 -0.003189 -0.001845 0.000000 -0.003871 0.000000
# 2 -0.003189 0.017464 -0.003134 0.000000 -0.003774 0.000000
# 3 -0.001845 -0.003134 0.013999 0.000000 -0.004123 0.000000
# 4 0.000000 0.000000 0.000000 0.035922 0.000000 0.001174
# 5 -0.003871 -0.003774 -0.004123 0.000000 0.032681 0.000000
# 6 0.000000 0.000000 0.000000 0.001174 0.000000 0.036974
#
#
# Mechanical properties :
#
#
# Convention : Reuss Voigt Hill
#
# Bulk Modulus (GPa) = 34.51837 40.72730 37.62284
# Shear Modulus (GPa) = 28.26862 29.57747 28.92304
#
# Velocity S-wave (km/s) = 3.71470 3.79972 3.75745
# Velocity P-wave (km/s) = 5.93703 6.25548 6.09833
#
# Compressibility (1/GPa) = 0.02897009
#
# Stress axis : x y z
#
# Youngs Moduli (GPa) = 72.24196 57.25928 71.43519
#
# Poissons Ratio (x) = 0.18258 0.13178
# Poissons Ratio (y) = 0.23035 0.22390
# Poissons Ratio (z) = 0.13327 0.17947
#
# Static dielectric constant tensor:
#      x y z
#    x 3.729680 0.000000 0.007590 
#    y 0.000000 3.510040 0.000000 
#    z 0.007590 0.000000 3.891900 
# 
# 
# High freq. dielectric constant tensor:
#      x y z
#    x 1.809530 0.000000 0.003220 
#    y 0.000000 1.773680 0.000000 
#    z 0.003220 0.000000 1.813830 
# 
# From -- ./inp_files/12977.got.cif
#   From: 2010.03.12/outbox.cif.g09.slc.cpg/sg14_7_cif.got.tgz:12977.got - 2010.03.31 13:35:05.
