data_PCOD8124480
_publ_section_title
;
Structure prediction by ZEFSAII (Michael W. Deem and Ramdas Pophale) SiO2 
 PCOD8124480
Probable space group: P 21/C
;
_chemical_formula_sum "Si O2"
_cell_formula_units_Z 32
_cell_length_a 10.341209
_cell_length_b 9.775866
_cell_length_c 18.684697
_cell_angle_alpha 90.000000
_cell_angle_beta 68.064940
_cell_angle_gamma 90.000000
_cell_volume 1752.173177
_symmetry_space_group_name_H-M "P 21/C"
_symmetry_group_IT_number 14
_symmetry_cell_setting 'monoclinic'
loop_
_space_group_symop_operation_xyz
x,y,z
-x,1/2+y,1/2-z
-x,-y,-z
x,1/2-y,1/2+z
loop_
_atom_site_type_symbol
_atom_site_label
_atom_site_fract_x
_atom_site_fract_y
_atom_site_fract_z
Si Si1 0.849269 0.502699 0.211227
Si Si2 0.477963 0.621376 0.558728
Si Si3 0.135961 0.312339 0.289330
Si Si4 0.842526 0.512744 0.855147
Si Si5 0.177245 0.801942 0.154384
Si Si6 0.588069 0.955816 0.677889
Si Si7 0.589126 0.851811 0.193032
Si Si8 0.388081 0.403950 0.990630
O O1 0.843864 0.657127 0.243935
O O2 0.816524 0.382496 0.272914
O O3 0.734810 0.489173 0.174703
O O4 0.001304 0.479095 0.146498
O O5 0.500000 0.500000 0.500000
O O6 0.312565 0.647568 0.583807
O O7 0.532264 0.588371 0.628845
O O8 0.568115 0.747059 0.511361
O O9 0.174579 0.403675 0.213881
O O10 0.240912 0.349875 0.333492
O O11 0.975077 0.334054 0.349680
O O12 0.799840 0.359684 0.841181
O O13 0.755408 0.575722 0.937917
O O14 0.539822 0.804935 0.713128
O O15 0.617823 0.954732 0.588573
O O16 0.469435 0.059951 0.728800
O O17 0.500000 0.500000 0.000000
#
# Coordination Sequence:
#
# PCOD8124480 Si02
#       8
#     4   4   4   4   4   4   4   4
#     4   9  19  36  58  84 108 149 186 230 280 328
#     4  11  24  38  58  81 115 149 185 230 283 336
#     4   9  20  35  61  83 109 148 188 229 276 326
#     4  10  20  35  58  83 116 143 187 233 275 331
#     4  10  19  38  56  83 113 146 187 227 275 331
#     4  10  21  36  57  81 113 143 189 231 277 332
#     4  10  21  37  57  83 110 145 185 236 270 333
#     4  11  22  36  54  83 110 148 186 229 281 327
#
# _framework density 18.263034999999999
#
# number of rings (size 3 to 8) (size 9 to 14) (size 15 to 20)
#    0.000    2.000    2.500    0.750    3.500    1.500 
#    0.000    0.625    0.000    0.000    0.000    0.000 
#    0.000    0.000    0.000    0.000    0.000    0.000 
#
# Total GULP energy -396481.093953 kJ/mol
# GULP energy per Si atom -12390.034186 kJ/mol
# Density = 1.822147 g / cm^3
# Si number density = 18.263035 Si / 1000 Ang^3
#
#
#
# Elastic Constant Matrix: (Units=GPa)
#
#
# Indices 1 2 3 4 5 6 
#
# 1 128.2959 57.9709 54.9155 0.0000 -8.6587 0.0000
# 2 57.9709 101.7913 72.0679 0.0000 -8.9619 0.0000
# 3 54.9155 72.0679 87.4722 0.0000 -21.0971 0.0000
# 4 0.0000 0.0000 0.0000 36.6611 0.0000 -1.6265
# 5 -8.6587 -8.9619 -21.0971 0.0000 26.3640 0.0000
# 6 0.0000 0.0000 0.0000 -1.6265 0.0000 25.7746
#
#
#
# Elastic Compliance Matrix: (Units=1/GPa)
#
#
# Indices 1 2 3 4 5 6 
#
# 1 0.011138 -0.003110 -0.004713 0.000000 -0.001170 0.000000
# 2 -0.003110 0.026455 -0.022207 0.000000 -0.009799 0.000000
# 3 -0.004713 -0.022207 0.037786 0.000000 0.021141 0.000000
# 4 0.000000 0.000000 0.000000 0.027353 0.000000 0.001726
# 5 -0.001170 -0.009799 0.021141 0.000000 0.051132 0.000000
# 6 0.000000 0.000000 0.000000 0.001726 0.000000 0.038907
#
#
# Mechanical properties :
#
#
# Convention : Reuss Voigt Hill
#
# Bulk Modulus (GPa) = 65.27496 76.38534 70.83015
# Shear Modulus (GPa) = 19.38453 26.60027 22.99240
#
# Velocity S-wave (km/s) = 3.26146 3.82056 3.55203
# Velocity P-wave (km/s) = 7.07121 7.83442 7.46258
#
# Compressibility (1/GPa) = 0.01531981
#
# Stress axis : x y z
#
# Youngs Moduli (GPa) = 89.78484 37.80008 26.46459
#
# Poissons Ratio (x) = 0.11754 0.12472
# Poissons Ratio (y) = 0.27919 0.58771
# Poissons Ratio (z) = 0.42313 0.83944
#
# Static dielectric constant tensor:
#      x y z
#    x 3.718360 0.000000 -0.056750 
#    y 0.000000 3.543420 0.000000 
#    z -0.056750 0.000000 2.969690 
# 
# 
# High freq. dielectric constant tensor:
#      x y z
#    x 1.728940 0.000000 -0.011510 
#    y 0.000000 1.719220 0.000000 
#    z -0.011510 0.000000 1.680480 
# 
# From -- ./inp_files/57253.got.cif
#   From: 2010.03.12/outbox.cif.g09.slc.cpg/sg14_29_cif.got.tgz:57253.got - 2010.03.31 13:35:05.
