data_PCOD8124883
_publ_section_title
;
Structure prediction by ZEFSAII (Michael W. Deem and Ramdas Pophale) SiO2 
 PCOD8124883
Probable space group: P 21/C
;
_chemical_formula_sum "Si O2"
_cell_formula_units_Z 32
_cell_length_a 19.793923
_cell_length_b 14.451646
_cell_length_c 8.911037
_cell_angle_alpha 90.000000
_cell_angle_beta 35.604880
_cell_angle_gamma 90.000000
_cell_volume 1484.033952
_symmetry_space_group_name_H-M "P 21/C"
_symmetry_group_IT_number 14
_symmetry_cell_setting 'monoclinic'
loop_
_space_group_symop_operation_xyz
x,y,z
-x,1/2+y,1/2-z
-x,-y,-z
x,1/2-y,1/2+z
loop_
_atom_site_type_symbol
_atom_site_label
_atom_site_fract_x
_atom_site_fract_y
_atom_site_fract_z
Si Si1 0.323727 0.635279 0.901333
Si Si2 0.154798 0.542222 0.792963
Si Si3 0.921015 0.636913 0.210852
Si Si4 0.594681 0.714931 0.134974
Si Si5 0.194770 0.023677 0.535622
Si Si6 0.578515 0.624140 0.468741
Si Si7 0.344849 0.821453 0.025104
Si Si8 0.849643 0.820531 0.166710
O O1 0.220991 0.559643 0.105691
O O2 0.448068 0.583028 0.702178
O O3 0.303958 0.719675 0.049188
O O4 0.311795 0.676454 0.757549
O O5 0.159829 0.452721 0.675557
O O6 0.122757 0.508434 0.020699
O O7 0.277026 0.596882 0.560043
O O8 0.052629 0.611875 0.927504
O O9 0.878334 0.720862 0.183986
O O10 0.921234 0.663117 0.386369
O O11 0.585116 0.705423 0.331315
O O12 0.484040 0.666529 0.252309
O O13 0.598965 0.824245 0.090044
O O14 0.714657 0.668840 0.864302
O O15 0.322670 0.049065 0.237558
O O16 0.124703 0.103362 0.749587
#
# Coordination Sequence:
#
# PCOD8124883 Si02
#       8
#     4   4   4   4   4   4   4   4
#     4   9  18  32  52  82 115 153 188 228 286 343
#     4  10  23  42  59  83 115 152 194 237 286 336
#     4  11  24  41  62  85 115 154 195 236 280 337
#     4   9  17  31  54  84 112 146 188 227 281 341
#     4  10  20  35  57  84 113 146 192 236 281 339
#     4   9  16  29  51  79 115 150 184 228 279 340
#     4   9  19  35  56  81 117 152 188 237 285 333
#     4  11  22  39  62  88 115 149 189 235 286 338
#
# _framework density 21.562850000000001
#
# number of rings (size 3 to 8) (size 9 to 14) (size 15 to 20)
#    0.000    2.250    0.000    3.375    0.000    4.500 
#    0.000    1.875    0.000    0.000    0.000    0.000 
#    0.000    0.000    0.000    0.000    0.000    0.000 
#
# Total GULP energy -396618.374866 kJ/mol
# GULP energy per Si atom -12394.324215 kJ/mol
# Density = 2.151377 g / cm^3
# Si number density = 21.562850 Si / 1000 Ang^3
#
#
#
# Elastic Constant Matrix: (Units=GPa)
#
#
# Indices 1 2 3 4 5 6 
#
# 1 75.7659 38.6519 16.6718 0.0000 -11.3542 0.0000
# 2 38.6519 104.7906 31.6243 0.0000 -7.3358 0.0000
# 3 16.6718 31.6243 46.5338 0.0000 -1.2022 0.0000
# 4 0.0000 0.0000 0.0000 32.2126 0.0000 -0.7039
# 5 -11.3542 -7.3358 -1.2022 0.0000 14.7781 0.0000
# 6 0.0000 0.0000 0.0000 -0.7039 0.0000 39.3572
#
#
#
# Elastic Compliance Matrix: (Units=1/GPa)
#
#
# Indices 1 2 3 4 5 6 
#
# 1 0.018047 -0.005048 -0.002748 0.000000 0.011137 0.000000
# 2 -0.005048 0.013847 -0.007540 0.000000 0.002382 0.000000
# 3 -0.002748 -0.007540 0.027505 0.000000 -0.003616 0.000000
# 4 0.000000 0.000000 0.000000 0.031056 0.000000 0.000555
# 5 0.011137 0.002382 -0.003616 0.000000 0.077113 0.000000
# 6 0.000000 0.000000 0.000000 0.000555 0.000000 0.025418
#
#
# Mechanical properties :
#
#
# Convention : Reuss Voigt Hill
#
# Bulk Modulus (GPa) = 34.80956 44.55402 39.68179
# Shear Modulus (GPa) = 21.43772 26.61239 24.02506
#
# Velocity S-wave (km/s) = 3.15651 3.51690 3.34157
# Velocity P-wave (km/s) = 5.42799 6.09907 5.77329
#
# Compressibility (1/GPa) = 0.02872774
#
# Stress axis : x y z
#
# Youngs Moduli (GPa) = 55.41008 72.21747 36.35689
#
# Poissons Ratio (x) = 0.36455 0.09989
# Poissons Ratio (y) = 0.27971 0.27414
# Poissons Ratio (z) = 0.15224 0.54455
#
# Static dielectric constant tensor:
#      x y z
#    x 4.131160 0.000000 -0.109400 
#    y 0.000000 3.881530 0.000000 
#    z -0.109400 0.000000 3.552460 
# 
# 
# High freq. dielectric constant tensor:
#      x y z
#    x 1.858140 0.000000 -0.007720 
#    y 0.000000 1.844180 0.000000 
#    z -0.007720 0.000000 1.809580 
# 
# From -- ./inp_files/19063.got.cif
#   From: 2010.03.12/outbox.cif.g09.slc.cpg/sg14_10_cif.got.tgz:19063.got - 2010.03.31 13:35:05.
