data_PCOD8124535
_publ_section_title
;
Structure prediction by ZEFSAII (Michael W. Deem and Ramdas Pophale) SiO2 
 PCOD8124535
Probable space group: P 21/C
;
_chemical_formula_sum "Si O2"
_cell_formula_units_Z 32
_cell_length_a 10.930140
_cell_length_b 14.321848
_cell_length_c 13.271146
_cell_angle_alpha 90.000000
_cell_angle_beta 129.384321
_cell_angle_gamma 90.000000
_cell_volume 1605.685874
_symmetry_space_group_name_H-M "P 21/C"
_symmetry_group_IT_number 14
_symmetry_cell_setting 'monoclinic'
loop_
_space_group_symop_operation_xyz
x,y,z
-x,1/2+y,1/2-z
-x,-y,-z
x,1/2-y,1/2+z
loop_
_atom_site_type_symbol
_atom_site_label
_atom_site_fract_x
_atom_site_fract_y
_atom_site_fract_z
Si Si1 0.611080 0.502634 0.911487
Si Si2 0.142726 0.158131 0.509933
Si Si3 0.635333 0.772035 0.003835
Si Si4 0.892875 0.854560 0.270384
Si Si5 0.500810 0.449143 0.640096
Si Si6 0.609950 0.129836 0.589985
Si Si7 0.875186 0.224791 0.227139
Si Si8 0.240355 0.526578 0.380022
O O1 0.768908 0.564728 0.981445
O O2 0.560163 0.453244 0.783742
O O3 0.447960 0.555280 0.857141
O O4 0.664361 0.423061 0.017868
O O5 0.254390 0.243561 0.533734
O O6 0.109517 0.149077 0.610544
O O7 0.973549 0.177938 0.369431
O O8 0.503724 0.839978 0.889063
O O9 0.550484 0.686733 0.015344
O O10 0.724929 0.820961 0.141592
O O11 0.023778 0.782364 0.300734
O O12 0.910069 0.959763 0.230254
O O13 0.326907 0.496036 0.530028
O O14 0.634022 0.497282 0.641971
O O15 0.745424 0.200923 0.700573
O O16 0.801825 0.135595 0.130706
#
# Coordination Sequence:
#
# PCOD8124535 Si02
#       8
#     4   4   4   4   4   4   4   4
#     4  10  22  39  64  89 117 155 199 250 299 344
#     4  10  22  39  59  87 120 159 200 237 297 360
#     4   9  20  39  60  86 118 152 199 250 297 349
#     4  10  22  40  60  84 122 160 196 246 297 350
#     4  10  19  38  63  91 112 151 201 252 294 347
#     4  10  22  40  58  89 121 153 196 252 296 349
#     4  11  24  39  58  88 123 162 195 238 297 362
#     4  10  21  38  60  86 123 154 199 249 296 343
#
# _framework density 19.929176999999999
#
# number of rings (size 3 to 8) (size 9 to 14) (size 15 to 20)
#    0.000    2.000    2.500    0.000    3.500    2.500 
#    2.250    0.000    0.000    4.500    0.000    0.000 
#    0.000    0.000    0.000    0.000    0.000    0.000 
#
# Total GULP energy -396479.274363 kJ/mol
# GULP energy per Si atom -12389.977324 kJ/mol
# Density = 1.988382 g / cm^3
# Si number density = 19.929177 Si / 1000 Ang^3
#
#
#
# Elastic Constant Matrix: (Units=GPa)
#
#
# Indices 1 2 3 4 5 6 
#
# 1 60.1802 29.8551 32.9826 0.0000 1.4383 0.0000
# 2 29.8551 109.7065 33.6312 0.0000 5.5155 0.0000
# 3 32.9826 33.6312 89.7661 0.0000 2.9088 0.0000
# 4 0.0000 0.0000 0.0000 27.0422 0.0000 6.1998
# 5 1.4383 5.5155 2.9088 0.0000 18.4149 0.0000
# 6 0.0000 0.0000 0.0000 6.1998 0.0000 35.6832
#
#
#
# Elastic Compliance Matrix: (Units=1/GPa)
#
#
# Indices 1 2 3 4 5 6 
#
# 1 0.022273 -0.004037 -0.006688 0.000000 0.000526 0.000000
# 2 -0.004037 0.011144 -0.002607 0.000000 -0.002611 0.000000
# 3 -0.006688 -0.002607 0.014607 0.000000 -0.001004 0.000000
# 4 0.000000 0.000000 0.000000 0.038513 0.000000 -0.006692
# 5 0.000526 -0.002611 -0.001004 0.000000 0.055203 0.000000
# 6 0.000000 0.000000 0.000000 -0.006692 0.000000 0.029187
#
#
# Mechanical properties :
#
#
# Convention : Reuss Voigt Hill
#
# Bulk Modulus (GPa) = 46.81969 50.28783 48.55376
# Shear Modulus (GPa) = 24.42452 27.10697 25.76574
#
# Velocity S-wave (km/s) = 3.50461 3.69204 3.59954
# Velocity P-wave (km/s) = 6.31826 6.59264 6.45691
#
# Compressibility (1/GPa) = 0.02135854
#
# Stress axis : x y z
#
# Youngs Moduli (GPa) = 44.89827 89.73051 68.46139
#
# Poissons Ratio (x) = 0.36228 0.45787
# Poissons Ratio (y) = 0.18127 0.17850
# Poissons Ratio (z) = 0.30028 0.23395
#
# Static dielectric constant tensor:
#      x y z
#    x 3.575620 0.000000 0.179280 
#    y 0.000000 3.864580 0.000000 
#    z 0.179280 0.000000 3.502390 
# 
# 
# High freq. dielectric constant tensor:
#      x y z
#    x 1.765690 0.000000 0.012270 
#    y 0.000000 1.796760 0.000000 
#    z 0.012270 0.000000 1.763750 
# 
# From -- ./inp_files/30048.got.cif
#   From: 2010.03.12/outbox.cif.g09.slc.cpg/sg14_16_cif.got.tgz:30048.got - 2010.03.31 13:35:05.
