data_PCOD8124549
_publ_section_title
;
Structure prediction by ZEFSAII (Michael W. Deem and Ramdas Pophale) SiO2 
 PCOD8124549
Probable space group: P 21/C
;
_chemical_formula_sum "Si O2"
_cell_formula_units_Z 28
_cell_length_a 8.773850
_cell_length_b 5.303324
_cell_length_c 33.477984
_cell_angle_alpha 90.000000
_cell_angle_beta 126.188582
_cell_angle_gamma 90.000000
_cell_volume 1257.225464
_symmetry_space_group_name_H-M "P 21/C"
_symmetry_group_IT_number 14
_symmetry_cell_setting 'monoclinic'
loop_
_space_group_symop_operation_xyz
x,y,z
-x,1/2+y,1/2-z
-x,-y,-z
x,1/2-y,1/2+z
loop_
_atom_site_type_symbol
_atom_site_label
_atom_site_fract_x
_atom_site_fract_y
_atom_site_fract_z
Si Si1 0.783432 0.372835 0.383696
Si Si2 0.689350 0.505081 0.140431
Si Si3 0.955786 0.504057 0.861544
Si Si4 0.621886 0.013771 0.177515
Si Si5 0.025506 0.741744 0.956370
Si Si6 0.292666 0.537832 0.056093
Si Si7 0.383250 0.351263 0.237387
O O1 0.849721 0.265909 0.350862
O O2 0.605242 0.562347 0.351496
O O3 0.972402 0.479657 0.433980
O O4 0.700841 0.156912 0.399039
O O5 0.708918 0.278084 0.175604
O O6 0.508177 0.444688 0.083506
O O7 0.871419 0.510972 0.141249
O O8 0.674205 0.783832 0.156528
O O9 0.026718 0.572869 0.916812
O O10 0.796380 0.693407 0.819732
O O11 0.702686 0.944020 0.233511
O O12 0.863827 0.681529 0.964837
O O13 0.229018 0.723165 0.009821
O O14 0.485820 0.081489 0.258796
#
# Coordination Sequence:
#
# PCOD8124549 Si02
#       7
#     4   4   4   4   4   4   4
#     4  10  19  39  63  92 122 167 218 269 311 381
#     4  11  25  43  63  97 134 172 206 268 329 389
#     4  11  26  39  63  96 130 165 216 271 325 380
#     4  11  23  43  67  89 133 170 214 262 327 386
#     4  10  19  38  65  89 126 168 221 263 312 380
#     4   9  20  36  62  94 122 170 217 261 320 385
#     4  12  25  42  71  99 123 166 220 270 315 382
#
# _framework density 22.271263999999999
#
# number of rings (size 3 to 8) (size 9 to 14) (size 15 to 20)
#    0.000    1.429    2.857    2.143    4.000    1.714 
#    0.000    0.714    0.000    0.000    0.000    0.000 
#    0.000    0.000    0.000    0.000    0.000    0.000 
#
# Total GULP energy -346888.345305 kJ/mol
# GULP energy per Si atom -12388.869475 kJ/mol
# Density = 2.222057 g / cm^3
# Si number density = 22.271264 Si / 1000 Ang^3
#
#
#
# Elastic Constant Matrix: (Units=GPa)
#
#
# Indices 1 2 3 4 5 6 
#
# 1 131.7018 25.9014 22.6776 0.0000 -9.2061 0.0000
# 2 25.9014 72.3528 -16.7109 0.0000 -4.5422 0.0000
# 3 22.6776 -16.7109 58.2472 0.0000 -3.6786 0.0000
# 4 0.0000 0.0000 0.0000 27.7739 0.0000 -3.6463
# 5 -9.2061 -4.5422 -3.6786 0.0000 22.6816 0.0000
# 6 0.0000 0.0000 0.0000 -3.6463 0.0000 22.1612
#
#
#
# Elastic Compliance Matrix: (Units=1/GPa)
#
#
# Indices 1 2 3 4 5 6 
#
# 1 0.009421 -0.004338 -0.004775 0.000000 0.002181 0.000000
# 2 -0.004338 0.017112 0.006773 0.000000 0.002764 0.000000
# 3 -0.004775 0.006773 0.021150 0.000000 0.002849 0.000000
# 4 0.000000 0.000000 0.000000 0.036800 0.000000 0.006055
# 5 0.002181 0.002764 0.002849 0.000000 0.045989 0.000000
# 6 0.000000 0.000000 0.000000 0.006055 0.000000 0.046120
#
#
# Mechanical properties :
#
#
# Convention : Reuss Voigt Hill
#
# Bulk Modulus (GPa) = 23.25421 36.22644 29.74032
# Shear Modulus (GPa) = 25.56146 29.88559 27.72352
#
# Velocity S-wave (km/s) = 3.39150 3.66716 3.53202
# Velocity P-wave (km/s) = 5.07940 5.85081 5.47870
#
# Compressibility (1/GPa) = 0.04300297
#
# Stress axis : x y z
#
# Youngs Moduli (GPa) = 106.14907 58.43800 47.28074
#
# Poissons Ratio (x) = 0.25353 0.22575
# Poissons Ratio (y) = 0.46052 -0.32024
# Poissons Ratio (z) = 0.50684 -0.39581
#
# Static dielectric constant tensor:
#      x y z
#    x 3.881830 0.000000 0.102450 
#    y 0.000000 3.924650 0.000000 
#    z 0.102450 0.000000 4.303460 
# 
# 
# High freq. dielectric constant tensor:
#      x y z
#    x 1.850410 0.000000 0.000830 
#    y 0.000000 1.872840 0.000000 
#    z 0.000830 0.000000 1.885560 
# 
# From -- ./inp_files/76031.got.cif
#   From: 2010.03.12/outbox.cif.g09.slc.cpg/sg14_39_cif.got.tgz:76031.got - 2010.03.31 13:35:05.
