data_PCOD8124839
_publ_section_title
;
Structure prediction by ZEFSAII (Michael W. Deem and Ramdas Pophale) SiO2 
 PCOD8124839
Probable space group: P 21/C
;
_chemical_formula_sum "Si O2"
_cell_formula_units_Z 32
_cell_length_a 20.125684
_cell_length_b 10.189098
_cell_length_c 8.719051
_cell_angle_alpha 90.000000
_cell_angle_beta 77.489718
_cell_angle_gamma 90.000000
_cell_volume 1745.499925
_symmetry_space_group_name_H-M "P 21/C"
_symmetry_group_IT_number 14
_symmetry_cell_setting 'monoclinic'
loop_
_space_group_symop_operation_xyz
x,y,z
-x,1/2+y,1/2-z
-x,-y,-z
x,1/2-y,1/2+z
loop_
_atom_site_type_symbol
_atom_site_label
_atom_site_fract_x
_atom_site_fract_y
_atom_site_fract_z
Si Si1 0.454244 0.612816 0.454129
Si Si2 0.198506 0.111384 0.718401
Si Si3 0.946827 0.612254 0.845493
Si Si4 0.053173 0.387747 0.792319
Si Si5 0.801494 0.611384 0.416907
Si Si6 0.545756 0.387184 0.908373
Si Si7 0.700803 0.385760 0.469245
Si Si8 0.299197 0.614240 0.170048
O O1 0.500000 0.500000 0.500000
O O2 0.480083 0.750000 0.509959
O O3 0.462311 0.616418 0.268845
O O4 0.376510 0.586400 0.544274
O O5 0.124878 0.071616 0.691728
O O6 0.222705 0.250000 0.638648
O O7 0.252218 0.003602 0.633194
O O8 0.195475 0.120761 0.902262
O O9 0.972972 0.750000 0.763514
O O10 1.000000 0.500000 0.774266
O O11 0.938087 0.627733 0.030957
O O12 0.124878 0.428385 0.683394
O O13 0.747783 0.503601 0.385411
O O14 0.623490 0.413600 0.920784
O O15 0.500000 0.500000 0.000000
O O16 0.728081 0.250000 0.385960
O O17 0.705953 0.372753 0.647024
#
# Coordination Sequence:
#
# PCOD8124839 Si02
#       8
#     4   4   4   4   4   4   4   4
#     4  10  20  36  55  78 107 139 176 217 262 311
#     4  10  20  35  54  77 104 135 171 211 255 303
#     4  10  21  36  54  77 104 135 171 210 254 303
#     4  10  21  36  54  77 104 135 171 210 254 303
#     4  10  20  35  54  77 104 135 171 211 255 303
#     4  10  20  36  55  78 107 139 176 217 262 311
#     4   9  20  36  54  77 105 136 172 213 257 306
#     4   9  20  36  54  77 105 136 172 213 257 306
#
# _framework density 18.332858000000002
#
# number of rings (size 3 to 8) (size 9 to 14) (size 15 to 20)
#    0.000    2.250    0.000    3.750    0.000    7.000 
#    0.000    7.500    0.000    0.000    0.000    0.000 
#    0.000    0.000    0.000    0.000    0.000    0.000 
#
# Total GULP energy -396882.901378 kJ/mol
# GULP energy per Si atom -12402.590668 kJ/mol
# Density = 1.829113 g / cm^3
# Si number density = 18.332858 Si / 1000 Ang^3
#
#
#
# Elastic Constant Matrix: (Units=GPa)
#
#
# Indices 1 2 3 4 5 6 
#
# 1 105.7355 111.6321 44.3831 0.0000 -4.0348 0.0000
# 2 111.6321 188.4327 61.7283 0.0000 -10.2781 0.0000
# 3 44.3831 61.7283 75.5175 0.0000 -2.1890 0.0000
# 4 0.0000 0.0000 0.0000 34.0850 0.0000 -2.2832
# 5 -4.0348 -10.2781 -2.1890 0.0000 21.2613 0.0000
# 6 0.0000 0.0000 0.0000 -2.2832 0.0000 45.1707
#
#
#
# Elastic Compliance Matrix: (Units=1/GPa)
#
#
# Indices 1 2 3 4 5 6 
#
# 1 0.026092 -0.014396 -0.003636 0.000000 -0.002382 0.000000
# 2 -0.014396 0.015374 -0.003981 0.000000 0.004290 0.000000
# 3 -0.003636 -0.003981 0.018613 0.000000 -0.000698 0.000000
# 4 0.000000 0.000000 0.000000 0.029438 0.000000 0.001488
# 5 -0.002382 0.004290 -0.000698 0.000000 0.048584 0.000000
# 6 0.000000 0.000000 0.000000 0.001488 0.000000 0.022213
#
#
# Mechanical properties :
#
#
# Convention : Reuss Voigt Hill
#
# Bulk Modulus (GPa) = 62.30008 89.46365 75.88186
# Shear Modulus (GPa) = 23.84434 30.23289 27.03861
#
# Velocity S-wave (km/s) = 3.61034 4.06533 3.84457
# Velocity P-wave (km/s) = 7.17189 8.42267 7.82232
#
# Compressibility (1/GPa) = 0.01605134
#
# Stress axis : x y z
#
# Youngs Moduli (GPa) = 38.32544 65.04490 53.72537
#
# Poissons Ratio (x) = 0.93642 0.19536
# Poissons Ratio (y) = 0.55175 0.21390
# Poissons Ratio (z) = 0.13936 0.25897
#
# Static dielectric constant tensor:
#      x y z
#    x 3.483670 0.000000 -0.005250 
#    y 0.000000 3.725510 0.000000 
#    z -0.005250 0.000000 3.458190 
# 
# 
# High freq. dielectric constant tensor:
#      x y z
#    x 1.709300 0.000000 0.002490 
#    y 0.000000 1.720120 0.000000 
#    z 0.002490 0.000000 1.721380 
# 
# From -- ./inp_files/18596.got.cif
#   From: 2010.03.12/outbox.cif.g09.slc.cpg/sg14_10_cif.got.tgz:18596.got - 2010.03.31 13:35:05.
