data_PCOD8124783
_publ_section_title
;
Structure prediction by ZEFSAII (Michael W. Deem and Ramdas Pophale) SiO2 
 PCOD8124783
Probable space group: P 21/C
;
_chemical_formula_sum "Si O2"
_cell_formula_units_Z 32
_cell_length_a 7.369179
_cell_length_b 9.166604
_cell_length_c 24.240758
_cell_angle_alpha 90.000000
_cell_angle_beta 91.107969
_cell_angle_gamma 90.000000
_cell_volume 1637.165429
_symmetry_space_group_name_H-M "P 21/C"
_symmetry_group_IT_number 14
_symmetry_cell_setting 'monoclinic'
loop_
_space_group_symop_operation_xyz
x,y,z
-x,1/2+y,1/2-z
-x,-y,-z
x,1/2-y,1/2+z
loop_
_atom_site_type_symbol
_atom_site_label
_atom_site_fract_x
_atom_site_fract_y
_atom_site_fract_z
Si Si1 0.748969 0.826913 0.638897
Si Si2 0.375142 0.672163 0.628060
Si Si3 0.691764 0.662537 0.378855
Si Si4 0.006898 0.180161 0.560662
Si Si5 0.320944 0.839442 0.365451
Si Si6 0.924234 0.154268 0.434205
Si Si7 0.614410 0.130426 0.752444
Si Si8 0.282947 0.186027 0.241259
O O1 0.586762 0.713490 0.628257
O O2 0.833951 0.817241 0.702453
O O3 0.908788 0.778832 0.599070
O O4 0.669004 0.986613 0.623763
O O5 0.359681 0.504396 0.609491
O O6 0.263654 0.777118 0.587283
O O7 0.299463 0.692565 0.690392
O O8 0.511207 0.761885 0.380451
O O9 0.803781 0.683222 0.320859
O O10 0.827322 0.710434 0.427836
O O11 0.837511 0.226680 0.597858
O O12 0.945548 0.196254 0.497708
O O13 0.079505 0.018880 0.574967
O O14 0.271292 0.814795 0.300166
O O15 0.406038 0.172326 0.744507
O O16 0.591773 0.957070 0.755060
#
# Coordination Sequence:
#
# PCOD8124783 Si02
#       8
#     4   4   4   4   4   4   4   4
#     4   9  18  35  57  77 102 137 173 209 251 303
#     4  10  20  34  54  80 108 134 164 210 264 310
#     4  10  20  34  54  80 108 134 164 210 264 310
#     4  10  22  38  54  74 101 137 181 218 248 295
#     4   9  18  35  57  77 102 137 173 209 251 303
#     4  10  22  38  54  74 101 137 181 218 248 295
#     4   8  15  29  50  77 104 130 163 203 252 308
#     4   8  15  29  50  77 104 130 163 203 252 308
#
# _framework density 19.545978000000002
#
# number of rings (size 3 to 8) (size 9 to 14) (size 15 to 20)
#    0.000    2.750    0.000    0.750    0.000    4.500 
#    0.000    5.000    0.000    0.000    0.000    0.000 
#    0.000    0.000    0.000    0.000    0.000    0.000 
#
# Total GULP energy -396440.525714 kJ/mol
# GULP energy per Si atom -12388.766429 kJ/mol
# Density = 1.950149 g / cm^3
# Si number density = 19.545978 Si / 1000 Ang^3
#
#
#
# Elastic Constant Matrix: (Units=GPa)
#
#
# Indices 1 2 3 4 5 6 
#
# 1 46.5912 10.7461 16.2640 0.0000 0.2109 0.0000
# 2 10.7461 40.7689 13.5510 0.0000 3.6761 0.0000
# 3 16.2640 13.5510 65.5628 0.0000 -4.5470 0.0000
# 4 0.0000 0.0000 0.0000 24.4116 0.0000 1.7224
# 5 0.2109 3.6761 -4.5470 0.0000 30.0611 0.0000
# 6 0.0000 0.0000 0.0000 1.7224 0.0000 20.4673
#
#
#
# Elastic Compliance Matrix: (Units=1/GPa)
#
#
# Indices 1 2 3 4 5 6 
#
# 1 0.024323 -0.004686 -0.005091 0.000000 -0.000368 0.000000
# 2 -0.004686 0.027747 -0.004857 0.000000 -0.004095 0.000000
# 3 -0.005091 -0.004857 0.017749 0.000000 0.003314 0.000000
# 4 0.000000 0.000000 0.000000 0.041209 0.000000 -0.003468
# 5 -0.000368 -0.004095 0.003314 0.000000 0.034270 0.000000
# 6 0.000000 0.000000 0.000000 -0.003468 0.000000 0.049150
#
#
# Mechanical properties :
#
#
# Convention : Reuss Voigt Hill
#
# Bulk Modulus (GPa) = 24.65931 26.00502 25.33217
# Shear Modulus (GPa) = 21.07640 22.47879 21.77760
#
# Velocity S-wave (km/s) = 3.28731 3.39491 3.34154
# Velocity P-wave (km/s) = 5.20115 5.35730 5.27980
#
# Compressibility (1/GPa) = 0.04055263
#
# Stress axis : x y z
#
# Youngs Moduli (GPa) = 41.11373 36.03975 56.34113
#
# Poissons Ratio (x) = 0.16888 0.28681
# Poissons Ratio (y) = 0.19266 0.27362
# Poissons Ratio (z) = 0.20930 0.17503
#
# Static dielectric constant tensor:
#      x y z
#    x 3.148300 0.000000 -0.123680 
#    y 0.000000 3.532410 0.000000 
#    z -0.123680 0.000000 3.847200 
# 
# 
# High freq. dielectric constant tensor:
#      x y z
#    x 1.725440 0.000000 -0.004720 
#    y 0.000000 1.759090 0.000000 
#    z -0.004720 0.000000 1.772700 
# 
# From -- ./inp_files/71958.got.cif
#   From: 2010.03.12/outbox.cif.g09.slc.cpg/sg14_36_cif.got.tgz:71958.got - 2010.03.31 13:35:05.
