data_PCOD8124983
_publ_section_title
;
Structure prediction by ZEFSAII (Michael W. Deem and Ramdas Pophale) SiO2 
 PCOD8124983
Probable space group: P 21/C
;
_chemical_formula_sum "Si O2"
_cell_formula_units_Z 32
_cell_length_a 8.962163
_cell_length_b 19.506228
_cell_length_c 8.359684
_cell_angle_alpha 90.000000
_cell_angle_beta 100.211295
_cell_angle_gamma 90.000000
_cell_volume 1438.275244
_symmetry_space_group_name_H-M "P 21/C"
_symmetry_group_IT_number 14
_symmetry_cell_setting 'monoclinic'
loop_
_space_group_symop_operation_xyz
x,y,z
-x,1/2+y,1/2-z
-x,-y,-z
x,1/2-y,1/2+z
loop_
_atom_site_type_symbol
_atom_site_label
_atom_site_fract_x
_atom_site_fract_y
_atom_site_fract_z
Si Si1 0.459629 0.240828 0.281976
Si Si2 0.859895 0.404101 0.950534
Si Si3 0.542591 0.951348 0.363617
Si Si4 0.634675 0.174213 0.590548
Si Si5 0.352887 0.349152 0.498164
Si Si6 0.170092 0.471956 0.548819
Si Si7 0.368606 0.943370 0.866427
Si Si8 0.834403 0.551442 0.088577
O O1 0.516598 0.187860 0.424870
O O2 0.613288 0.263911 0.212681
O O3 0.370198 0.306508 0.337158
O O4 0.337985 0.203357 0.144353
O O5 0.736471 0.409654 0.787987
O O6 0.025796 0.394749 0.904122
O O7 0.805120 0.340537 0.055000
O O8 0.875395 0.473292 0.055079
O O9 0.416209 0.893766 0.325578
O O10 0.706109 0.920110 0.444432
O O11 0.500000 0.000000 0.500000
O O12 0.549156 0.989739 0.194280
O O13 0.208554 0.401101 0.458396
O O14 0.509171 0.389375 0.553991
O O15 0.271543 0.533405 0.500450
O O16 0.218070 0.452299 0.737479
O O17 0.000000 0.500000 0.500000
#
# Coordination Sequence:
#
# PCOD8124983 Si02
#       8
#     4   4   4   4   4   4   4   4
#     4  10  23  39  63  89 120 172 220 260 300 370
#     4  10  20  36  57  85 126 159 201 243 312 397
#     4  11  19  35  63  89 121 160 205 259 329 384
#     4  11  20  38  61  87 117 160 216 260 303 376
#     4  11  23  41  64  92 126 164 214 267 310 386
#     4  12  24  37  61  96 133 159 199 276 343 373
#     4  11  21  37  58  97 126 152 204 268 326 373
#     4  10  21  35  56  90 127 162 188 244 333 390
#
# _framework density 22.248871999999999
#
# number of rings (size 3 to 8) (size 9 to 14) (size 15 to 20)
#    0.000    1.250    5.000    2.625    1.750    0.000 
#    0.000    0.000    0.000   16.500    0.000    0.000 
#    0.000    0.000    0.000    0.000    0.000    0.000 
#
# Total GULP energy -396567.019881 kJ/mol
# GULP energy per Si atom -12392.719371 kJ/mol
# Density = 2.219823 g / cm^3
# Si number density = 22.248872 Si / 1000 Ang^3
#
#
#
# Elastic Constant Matrix: (Units=GPa)
#
#
# Indices 1 2 3 4 5 6 
#
# 1 98.9215 45.4621 16.3965 0.0000 -16.1384 0.0000
# 2 45.4621 84.0234 28.0747 0.0000 -6.6966 0.0000
# 3 16.3965 28.0747 65.4414 0.0000 -23.0813 0.0000
# 4 0.0000 0.0000 0.0000 42.8512 0.0000 -10.8103
# 5 -16.1384 -6.6966 -23.0813 0.0000 29.3678 0.0000
# 6 0.0000 0.0000 0.0000 -10.8103 0.0000 38.5564
#
#
#
# Elastic Compliance Matrix: (Units=1/GPa)
#
#
# Indices 1 2 3 4 5 6 
#
# 1 0.014839 -0.008300 0.002838 0.000000 0.008492 0.000000
# 2 -0.008300 0.018630 -0.008333 0.000000 -0.006862 0.000000
# 3 0.002838 -0.008333 0.024937 0.000000 0.019259 0.000000
# 4 0.000000 0.000000 0.000000 0.025113 0.000000 0.007041
# 5 0.008492 -0.006862 0.019259 0.000000 0.052289 0.000000
# 6 0.000000 0.000000 0.000000 0.007041 0.000000 0.027910
#
#
# Mechanical properties :
#
#
# Convention : Reuss Voigt Hill
#
# Bulk Modulus (GPa) = 32.45100 47.58364 40.01732
# Shear Modulus (GPa) = 24.80408 32.71859 28.76134
#
# Velocity S-wave (km/s) = 3.34255 3.83897 3.59933
# Velocity P-wave (km/s) = 5.43268 6.40965 5.94128
#
# Compressibility (1/GPa) = 0.03081569
#
# Stress axis : x y z
#
# Youngs Moduli (GPa) = 67.39171 53.67755 40.10062
#
# Poissons Ratio (x) = 0.44553 -0.11381
# Poissons Ratio (y) = 0.55936 0.33416
# Poissons Ratio (z) = -0.19127 0.44730
#
# Static dielectric constant tensor:
#      x y z
#    x 3.991220 0.000000 -0.425210 
#    y 0.000000 3.794000 0.000000 
#    z -0.425210 0.000000 4.212460 
# 
# 
# High freq. dielectric constant tensor:
#      x y z
#    x 1.853720 0.000000 -0.023270 
#    y 0.000000 1.857260 0.000000 
#    z -0.023270 0.000000 1.893020 
# 
# From -- ./inp_files/10240.got.cif
#   From: 2010.03.12/outbox.cif.g09.slc.cpg/sg14_6_cif.got.tgz:10240.got - 2010.03.31 13:35:05.
