data_PCOD8124020
_publ_section_title
;
Structure prediction by ZEFSAII (Michael W. Deem and Ramdas Pophale) SiO2 
 PCOD8124020
Probable space group: P 21/C
;
_chemical_formula_sum "Si O2"
_cell_formula_units_Z 32
_cell_length_a 9.600723
_cell_length_b 14.619820
_cell_length_c 20.481984
_cell_angle_alpha 90.000000
_cell_angle_beta 37.335151
_cell_angle_gamma 90.000000
_cell_volume 1743.539653
_symmetry_space_group_name_H-M "P 21/C"
_symmetry_group_IT_number 14
_symmetry_cell_setting 'monoclinic'
loop_
_space_group_symop_operation_xyz
x,y,z
-x,1/2+y,1/2-z
-x,-y,-z
x,1/2-y,1/2+z
loop_
_atom_site_type_symbol
_atom_site_label
_atom_site_fract_x
_atom_site_fract_y
_atom_site_fract_z
Si Si1 0.190984 0.834991 0.632060
Si Si2 0.212447 0.077718 0.064816
Si Si3 0.062544 0.056135 0.375632
Si Si4 0.017896 0.154495 0.741329
Si Si5 0.680967 0.716363 0.981580
Si Si6 0.234604 0.511066 0.225969
Si Si7 0.339807 0.507654 0.649747
Si Si8 0.718608 0.923381 0.572845
O O1 0.010494 0.757929 0.722559
O O2 0.439316 0.787721 0.533146
O O3 0.204049 0.923342 0.674167
O O4 0.109606 0.869647 0.591469
O O5 0.229034 0.182716 0.040142
O O6 0.951653 0.043172 0.150186
O O7 0.271244 0.065424 0.119809
O O8 0.384879 0.020090 0.954210
O O9 0.199257 0.100408 0.385013
O O10 0.253100 0.025733 0.252018
O O11 0.917266 0.971327 0.456818
O O12 0.771150 0.105889 0.826715
O O13 0.133738 0.158132 0.627455
O O14 0.182625 0.093920 0.726308
O O15 0.653200 0.672079 0.063355
O O16 0.489427 0.514107 0.160588
#
# Coordination Sequence:
#
# PCOD8124020 Si02
#       8
#     4   4   4   4   4   4   4   4
#     4  11  20  32  59  85 113 142 186 240 282 326
#     4  10  19  33  58  83 114 141 186 230 278 337
#     4  11  20  40  56  83 114 151 187 233 283 333
#     4  11  18  32  57  86 112 142 188 238 282 326
#     4  11  19  32  55  87 111 142 186 233 280 329
#     4  10  20  37  55  86 112 146 192 233 278 335
#     4  10  19  34  56  87 109 146 183 234 286 330
#     4  10  23  36  60  79 115 153 189 229 283 338
#
# _framework density 18.353467999999999
#
# number of rings (size 3 to 8) (size 9 to 14) (size 15 to 20)
#    0.000    1.500    6.250    0.750    0.000    2.000 
#    0.000    1.875    8.250    0.000    0.000    0.000 
#    0.000    0.000    0.000    0.000    0.000    0.000 
#
# Total GULP energy -396749.903224 kJ/mol
# GULP energy per Si atom -12398.434476 kJ/mol
# Density = 1.831169 g / cm^3
# Si number density = 18.353468 Si / 1000 Ang^3
#
#
#
# Elastic Constant Matrix: (Units=GPa)
#
#
# Indices 1 2 3 4 5 6 
#
# 1 100.3144 28.5609 32.1287 0.0000 4.4408 0.0000
# 2 28.5609 67.0440 11.1984 0.0000 8.0070 0.0000
# 3 32.1287 11.1984 107.5682 0.0000 -0.4982 0.0000
# 4 0.0000 0.0000 0.0000 26.7240 0.0000 -0.4282
# 5 4.4408 8.0070 -0.4982 0.0000 23.1497 0.0000
# 6 0.0000 0.0000 0.0000 -0.4282 0.0000 13.7447
#
#
#
# Elastic Compliance Matrix: (Units=1/GPa)
#
#
# Indices 1 2 3 4 5 6 
#
# 1 0.012351 -0.004625 -0.003211 0.000000 -0.000839 0.000000
# 2 -0.004625 0.017587 -0.000474 0.000000 -0.005206 0.000000
# 3 -0.003211 -0.000474 0.010310 0.000000 0.001002 0.000000
# 4 0.000000 0.000000 0.000000 0.037438 0.000000 0.001166
# 5 -0.000839 -0.005206 0.001002 0.000000 0.045180 0.000000
# 6 0.000000 0.000000 0.000000 0.001166 0.000000 0.072791
#
#
# Mechanical properties :
#
#
# Convention : Reuss Voigt Hill
#
# Bulk Modulus (GPa) = 42.32395 46.52251 44.42323
# Shear Modulus (GPa) = 22.71147 26.25961 24.48554
#
# Velocity S-wave (km/s) = 3.52155 3.78666 3.65651
# Velocity P-wave (km/s) = 6.29648 6.67244 6.48718
#
# Compressibility (1/GPa) = 0.02362729
#
# Stress axis : x y z
#
# Youngs Moduli (GPa) = 80.96394 56.86120 96.99723
#
# Poissons Ratio (x) = 0.26299 0.31150
# Poissons Ratio (y) = 0.37446 0.04593
# Poissons Ratio (z) = 0.26001 0.02693
#
# Static dielectric constant tensor:
#      x y z
#    x 3.118360 0.000000 -0.179910 
#    y 0.000000 3.243870 0.000000 
#    z -0.179910 0.000000 3.713810 
# 
# 
# High freq. dielectric constant tensor:
#      x y z
#    x 1.669060 0.000000 -0.014870 
#    y 0.000000 1.708330 0.000000 
#    z -0.014870 0.000000 1.731340 
# 
# From -- ./inp_files/40985.got.cif
#   From: 2010.03.12/outbox.cif.g09.slc.cpg/sg14_21_cif.got.tgz:40985.got - 2010.03.31 13:35:05.
