data_PCOD8124224
_publ_section_title
;
Structure prediction by ZEFSAII (Michael W. Deem and Ramdas Pophale) SiO2 
 PCOD8124224
Probable space group: P 21/C
;
_chemical_formula_sum "Si O2"
_cell_formula_units_Z 28
_cell_length_a 7.692682
_cell_length_b 11.659259
_cell_length_c 17.858872
_cell_angle_alpha 90.000000
_cell_angle_beta 68.289237
_cell_angle_gamma 90.000000
_cell_volume 1488.154305
_symmetry_space_group_name_H-M "P 21/C"
_symmetry_group_IT_number 14
_symmetry_cell_setting 'monoclinic'
loop_
_space_group_symop_operation_xyz
x,y,z
-x,1/2+y,1/2-z
-x,-y,-z
x,1/2-y,1/2+z
loop_
_atom_site_type_symbol
_atom_site_label
_atom_site_fract_x
_atom_site_fract_y
_atom_site_fract_z
Si Si1 0.322647 0.854941 0.058000
Si Si2 0.412901 0.062716 0.615193
Si Si3 0.512181 0.688278 0.132774
Si Si4 0.701621 0.893959 0.907266
Si Si5 0.169929 0.180233 0.535573
Si Si6 0.232257 0.801671 0.447713
Si Si7 0.455180 0.229805 0.199615
O O1 0.372101 0.786876 0.126075
O O2 0.186948 0.780375 0.026209
O O3 0.225524 0.975694 0.095293
O O4 0.509290 0.874694 0.981363
O O5 0.261633 0.084776 0.574399
O O6 0.367353 0.144607 0.693738
O O7 0.405381 0.931937 0.640876
O O8 0.379992 0.901173 0.449802
O O9 0.559449 0.707796 0.211176
O O10 0.708467 0.691110 0.058719
O O11 0.847040 0.803762 0.919914
O O12 0.664690 0.867081 0.825519
O O13 0.960391 0.140974 0.548518
O O14 0.328856 0.729247 0.364409
#
# Coordination Sequence:
#
# PCOD8124224 Si02
#       7
#     4   4   4   4   4   4   4
#     4   9  17  31  53  79 103 142 183 218 257 330
#     4   9  20  38  53  79 112 144 180 225 278 324
#     4  11  19  33  59  80 107 148 185 223 272 332
#     4   8  16  33  53  74 108 143 176 219 269 316
#     4  10  19  35  61  81 106 147 183 223 272 327
#     4   9  19  37  55  82 111 140 180 228 276 317
#     4   8  19  35  53  78 109 143 175 226 278 312
#
# _framework density 18.815252999999998
#
# number of rings (size 3 to 8) (size 9 to 14) (size 15 to 20)
#    0.857    2.000    2.857    0.429    2.000    1.143 
#    0.000    2.857    3.143    0.000    0.000    0.000 
#    0.000    0.000    0.000    0.000    0.000    0.000 
#
# Total GULP energy -346955.717448 kJ/mol
# GULP energy per Si atom -12391.275623 kJ/mol
# Density = 1.877243 g / cm^3
# Si number density = 18.815253 Si / 1000 Ang^3
#
#
#
# Elastic Constant Matrix: (Units=GPa)
#
#
# Indices 1 2 3 4 5 6 
#
# 1 88.3279 9.2349 14.0100 0.0000 16.4305 0.0000
# 2 9.2349 100.0651 27.0330 0.0000 17.7525 0.0000
# 3 14.0100 27.0330 106.1290 0.0000 33.8536 0.0000
# 4 0.0000 0.0000 0.0000 18.7438 0.0000 7.0679
# 5 16.4305 17.7525 33.8536 0.0000 23.8906 0.0000
# 6 0.0000 0.0000 0.0000 7.0679 0.0000 3.9615
#
#
#
# Elastic Compliance Matrix: (Units=1/GPa)
#
#
# Indices 1 2 3 4 5 6 
#
# 1 0.013251 0.000408 0.002099 0.000000 -0.012391 0.000000
# 2 0.000408 0.011532 -0.000307 0.000000 -0.008414 0.000000
# 3 0.002099 -0.000307 0.017539 0.000000 -0.026069 0.000000
# 4 0.000000 0.000000 0.000000 0.163036 0.000000 -0.290882
# 5 -0.012391 -0.008414 -0.026069 0.000000 0.093573 0.000000
# 6 0.000000 0.000000 0.000000 -0.290882 0.000000 0.771410
#
#
# Mechanical properties :
#
#
# Convention : Reuss Voigt Hill
#
# Bulk Modulus (GPa) = 21.40281 43.89754 32.65017
# Shear Modulus (GPa) = 4.62315 25.60212 15.11263
#
# Velocity S-wave (km/s) = 1.56922 3.69278 2.83717
# Velocity P-wave (km/s) = 3.83187 6.44699 5.30315
#
# Compressibility (1/GPa) = 0.04672284
#
# Stress axis : x y z
#
# Youngs Moduli (GPa) = 75.46728 86.71844 57.01479
#
# Poissons Ratio (x) = -0.03541 -0.11970
# Poissons Ratio (y) = -0.03081 0.01751
# Poissons Ratio (z) = -0.15844 0.02664
#
# Static dielectric constant tensor:
#      x y z
#    x 3.064940 0.000000 0.223790 
#    y 0.000000 3.679770 0.000000 
#    z 0.223790 0.000000 3.164300 
# 
# 
# High freq. dielectric constant tensor:
#      x y z
#    x 1.700020 0.000000 0.030570 
#    y 0.000000 1.733790 0.000000 
#    z 0.030570 0.000000 1.708170 
# 
# From -- ./inp_files/40029.got.cif
#   From: 2010.03.12/outbox.cif.g09.slc.cpg/sg14_21_cif.got.tgz:40029.got - 2010.03.31 13:35:05.
