data_PCOD8124024
_publ_section_title
;
Structure prediction by ZEFSAII (Michael W. Deem and Ramdas Pophale) SiO2 
 PCOD8124024
Probable space group: P 21/C
;
_chemical_formula_sum "Si O2"
_cell_formula_units_Z 32
_cell_length_a 9.378791
_cell_length_b 21.018389
_cell_length_c 8.762018
_cell_angle_alpha 90.000000
_cell_angle_beta 117.384268
_cell_angle_gamma 90.000000
_cell_volume 1533.680452
_symmetry_space_group_name_H-M "P 21/C"
_symmetry_group_IT_number 14
_symmetry_cell_setting 'monoclinic'
loop_
_space_group_symop_operation_xyz
x,y,z
-x,1/2+y,1/2-z
-x,-y,-z
x,1/2-y,1/2+z
loop_
_atom_site_type_symbol
_atom_site_label
_atom_site_fract_x
_atom_site_fract_y
_atom_site_fract_z
Si Si1 0.134327 0.565898 0.907516
Si Si2 0.702836 0.609496 0.390452
Si Si3 0.656939 0.211474 0.780614
Si Si4 0.934410 0.383406 0.449800
Si Si5 0.271627 0.975294 0.961556
Si Si6 0.591675 0.165739 0.417338
Si Si7 0.450396 0.121855 0.873874
Si Si8 0.812196 0.548692 0.884190
O O1 0.080677 0.573037 0.707457
O O2 0.984206 0.582547 0.943978
O O3 0.281696 0.609629 0.023491
O O4 0.187451 0.492479 0.960657
O O5 0.704372 0.532702 0.405047
O O6 0.581696 0.635146 0.202140
O O7 0.650812 0.641078 0.526366
O O8 0.880017 0.634243 0.431176
O O9 0.836311 0.182583 0.880995
O O10 0.584739 0.199757 0.577907
O O11 0.652442 0.286188 0.814936
O O12 0.547976 0.180674 0.858399
O O13 0.864160 0.425649 0.551528
O O14 0.439369 0.938228 0.027765
O O15 0.217026 0.001060 0.772237
O O16 0.327912 0.100882 0.678655
#
# Coordination Sequence:
#
# PCOD8124024 Si02
#       8
#     4   4   4   4   4   4   4   4
#     4  10  20  36  58  86 121 154 189 241 291 347
#     4  11  20  36  61  88 121 152 195 241 287 352
#     4  10  24  43  62  79 115 153 200 247 297 349
#     4  10  21  39  59  92 119 158 191 243 294 349
#     4  10  19  33  60  90 127 159 190 233 296 349
#     4  11  23  42  61  82 113 156 200 246 298 345
#     4  10  19  36  60  89 119 157 197 238 290 348
#     4  10  19  33  58  91 123 157 192 235 288 356
#
# _framework density 20.864840000000001
#
# number of rings (size 3 to 8) (size 9 to 14) (size 15 to 20)
#    0.000    1.750    2.500    4.125    0.000    2.000 
#    4.500    5.000    0.000    0.000    0.000    0.000 
#    0.000    0.000    0.000    0.000    0.000    0.000 
#
# Total GULP energy -396788.745783 kJ/mol
# GULP energy per Si atom -12399.648306 kJ/mol
# Density = 2.081735 g / cm^3
# Si number density = 20.864840 Si / 1000 Ang^3
#
#
#
# Elastic Constant Matrix: (Units=GPa)
#
#
# Indices 1 2 3 4 5 6 
#
# 1 98.0808 10.0144 25.7004 0.0000 19.0551 0.0000
# 2 10.0144 24.4545 11.8280 0.0000 4.0669 0.0000
# 3 25.7004 11.8280 71.6215 0.0000 17.6956 0.0000
# 4 0.0000 0.0000 0.0000 20.1170 0.0000 -8.9140
# 5 19.0551 4.0669 17.6956 0.0000 34.3384 0.0000
# 6 0.0000 0.0000 0.0000 -8.9140 0.0000 21.5879
#
#
#
# Elastic Compliance Matrix: (Units=1/GPa)
#
#
# Indices 1 2 3 4 5 6 
#
# 1 0.012161 -0.002862 -0.002644 0.000000 -0.005047 0.000000
# 2 -0.002862 0.045202 -0.006311 0.000000 -0.000513 0.000000
# 3 -0.002644 -0.006311 0.017654 0.000000 -0.006883 0.000000
# 4 0.000000 0.000000 0.000000 0.060841 0.000000 0.025122
# 5 -0.005047 -0.000513 -0.006883 0.000000 0.035530 0.000000
# 6 0.000000 0.000000 0.000000 0.025122 0.000000 0.056696
#
#
# Mechanical properties :
#
#
# Convention : Reuss Voigt Hill
#
# Bulk Modulus (GPa) = 19.46191 32.13807 25.79999
# Shear Modulus (GPa) = 18.59795 24.98291 21.79043
#
# Velocity S-wave (km/s) = 2.98879 3.46406 3.23516
# Velocity P-wave (km/s) = 4.61068 5.60678 5.13295
#
# Compressibility (1/GPa) = 0.05138241
#
# Stress axis : x y z
#
# Youngs Moduli (GPa) = 82.22801 22.12285 56.64441
#
# Poissons Ratio (x) = 0.06331 0.14979
# Poissons Ratio (y) = 0.23533 0.35750
# Poissons Ratio (z) = 0.21744 0.13962
#
# Static dielectric constant tensor:
#      x y z
#    x 3.950410 0.000000 0.164060 
#    y 0.000000 3.578520 0.000000 
#    z 0.164060 0.000000 3.764400 
# 
# 
# High freq. dielectric constant tensor:
#      x y z
#    x 1.826770 0.000000 0.009740 
#    y 0.000000 1.793640 0.000000 
#    z 0.009740 0.000000 1.814090 
# 
# From -- ./inp_files/10718.got.cif
#   From: 2010.03.12/outbox.cif.g09.slc.cpg/sg14_6_cif.got.tgz:10718.got - 2010.03.31 13:35:05.
