data_PCOD8124892
_publ_section_title
;
Structure prediction by ZEFSAII (Michael W. Deem and Ramdas Pophale) SiO2 
 PCOD8124892
Probable space group: P 21/C
;
_chemical_formula_sum "Si O2"
_cell_formula_units_Z 32
_cell_length_a 19.448706
_cell_length_b 12.602068
_cell_length_c 14.207163
_cell_angle_alpha 90.000000
_cell_angle_beta 155.278412
_cell_angle_gamma 90.000000
_cell_volume 1456.242276
_symmetry_space_group_name_H-M "P 21/C"
_symmetry_group_IT_number 14
_symmetry_cell_setting 'monoclinic'
loop_
_space_group_symop_operation_xyz
x,y,z
-x,1/2+y,1/2-z
-x,-y,-z
x,1/2-y,1/2+z
loop_
_atom_site_type_symbol
_atom_site_label
_atom_site_fract_x
_atom_site_fract_y
_atom_site_fract_z
Si Si1 0.320563 0.846435 0.978933
Si Si2 0.677523 0.774304 0.380363
Si Si3 0.643629 0.263115 0.274904
Si Si4 0.294635 0.310179 0.786947
Si Si5 0.216795 0.971374 0.125786
Si Si6 0.197441 0.444506 0.399785
Si Si7 0.881722 0.341582 0.952428
Si Si8 0.922998 0.854931 0.815617
O O1 0.174972 0.823340 0.724965
O O2 0.315139 0.973313 0.990451
O O3 0.489030 0.809602 0.140215
O O4 0.289993 0.780696 0.036832
O O5 0.742516 0.755455 0.354617
O O6 0.701352 0.665461 0.469448
O O7 0.772080 0.869595 0.553563
O O8 0.677250 0.364118 0.248167
O O9 0.724870 0.156134 0.330112
O O10 0.445535 0.255659 0.030116
O O11 0.328043 0.435973 0.810187
O O12 0.135323 0.310472 0.655802
O O13 0.047318 0.955088 0.975787
O O14 0.155595 0.008746 0.948716
O O15 0.015508 0.435976 0.125466
O O16 0.973117 0.237678 0.104916
#
# Coordination Sequence:
#
# PCOD8124892 Si02
#       8
#     4   4   4   4   4   4   4   4
#     4  11  20  38  63  89 118 169 205 246 308 363
#     4  10  21  38  59  87 126 158 202 253 310 356
#     4  10  20  35  58  87 116 156 203 250 303 362
#     4  11  19  35  59  85 120 155 198 255 307 352
#     4   9  20  35  57  86 116 156 197 252 308 357
#     4   9  21  38  60  87 125 162 201 256 299 363
#     4  10  21  38  60  87 121 159 205 242 303 368
#     4  10  21  37  58  89 119 155 201 253 302 364
#
# _framework density 21.974364999999999
#
# number of rings (size 3 to 8) (size 9 to 14) (size 15 to 20)
#    0.000    2.000    2.500    1.125    0.000    5.000 
#    0.000    1.250    0.000    4.500    0.000    0.000 
#    0.000    0.000    0.000    0.000    0.000    0.000 
#
# Total GULP energy -396462.140054 kJ/mol
# GULP energy per Si atom -12389.441877 kJ/mol
# Density = 2.192435 g / cm^3
# Si number density = 21.974365 Si / 1000 Ang^3
#
#
#
# Elastic Constant Matrix: (Units=GPa)
#
#
# Indices 1 2 3 4 5 6 
#
# 1 108.4620 18.9815 34.3748 0.0000 5.4266 0.0000
# 2 18.9815 37.7921 19.0023 0.0000 9.0606 0.0000
# 3 34.3748 19.0023 97.2256 0.0000 -2.5215 0.0000
# 4 0.0000 0.0000 0.0000 25.5960 0.0000 6.1604
# 5 5.4266 9.0606 -2.5215 0.0000 38.0274 0.0000
# 6 0.0000 0.0000 0.0000 6.1604 0.0000 27.3114
#
#
#
# Elastic Compliance Matrix: (Units=1/GPa)
#
#
# Indices 1 2 3 4 5 6 
#
# 1 0.010910 -0.003676 -0.003162 0.000000 -0.000891 0.000000
# 2 -0.003676 0.032810 -0.005311 0.000000 -0.007645 0.000000
# 3 -0.003162 -0.005311 0.012507 0.000000 0.002546 0.000000
# 4 0.000000 0.000000 0.000000 0.041311 0.000000 -0.009318
# 5 -0.000891 -0.007645 0.002546 0.000000 0.028414 0.000000
# 6 0.000000 0.000000 0.000000 -0.009318 0.000000 0.038717
#
#
# Mechanical properties :
#
#
# Convention : Reuss Voigt Hill
#
# Bulk Modulus (GPa) = 31.31941 43.13298 37.22620
# Shear Modulus (GPa) = 25.04868 29.59504 27.32186
#
# Velocity S-wave (km/s) = 3.37991 3.67386 3.52994
# Velocity P-wave (km/s) = 5.43281 6.13740 5.79582
#
# Compressibility (1/GPa) = 0.03192908
#
# Stress axis : x y z
#
# Youngs Moduli (GPa) = 91.66054 30.47810 79.95316
#
# Poissons Ratio (x) = 0.11205 0.25280
# Poissons Ratio (y) = 0.33697 0.42464
# Poissons Ratio (z) = 0.28982 0.16187
#
# Static dielectric constant tensor:
#      x y z
#    x 3.900590 0.000000 0.066700 
#    y 0.000000 3.857020 0.000000 
#    z 0.066700 0.000000 3.971890 
# 
# 
# High freq. dielectric constant tensor:
#      x y z
#    x 1.865900 0.000000 -0.000260 
#    y 0.000000 1.829800 0.000000 
#    z -0.000260 0.000000 1.866980 
# 
# From -- ./inp_files/41258.got.cif
#   From: 2010.03.12/outbox.cif.g09.slc.cpg/sg14_21_cif.got.tgz:41258.got - 2010.03.31 13:35:05.
