data_PCOD8124807
_publ_section_title
;
Structure prediction by ZEFSAII (Michael W. Deem and Ramdas Pophale) SiO2 
 PCOD8124807
Probable space group: P 21/C
;
_chemical_formula_sum "Si O2"
_cell_formula_units_Z 32
_cell_length_a 11.433011
_cell_length_b 8.100501
_cell_length_c 20.819982
_cell_angle_alpha 90.000000
_cell_angle_beta 64.283443
_cell_angle_gamma 90.000000
_cell_volume 1737.218095
_symmetry_space_group_name_H-M "P 21/C"
_symmetry_group_IT_number 14
_symmetry_cell_setting 'monoclinic'
loop_
_space_group_symop_operation_xyz
x,y,z
-x,1/2+y,1/2-z
-x,-y,-z
x,1/2-y,1/2+z
loop_
_atom_site_type_symbol
_atom_site_label
_atom_site_fract_x
_atom_site_fract_y
_atom_site_fract_z
Si Si1 0.249017 0.016468 0.411694
Si Si2 0.312426 0.461820 0.100732
Si Si3 0.419849 0.214184 0.813541
Si Si4 0.337437 0.552087 0.238558
Si Si5 0.695223 0.502156 0.553403
Si Si6 0.854343 0.776831 0.453945
Si Si7 0.856390 0.311644 0.614695
Si Si8 0.583931 0.179282 0.530192
O O1 0.305888 0.151434 0.349093
O O2 0.144517 0.099503 0.484942
O O3 0.180463 0.879649 0.384876
O O4 0.367646 0.939089 0.423764
O O5 0.286793 0.515898 0.179423
O O6 0.183875 0.376807 0.101485
O O7 0.429220 0.331739 0.065747
O O8 0.351179 0.625280 0.052074
O O9 0.559901 0.298900 0.781882
O O10 0.400304 0.116953 0.751258
O O11 0.409209 0.080019 0.872825
O O12 0.210714 0.608598 0.307453
O O13 0.746111 0.638566 0.492362
O O14 0.815774 0.417503 0.562093
O O15 0.619032 0.368484 0.530619
O O16 0.989770 0.683705 0.412115
#
# Coordination Sequence:
#
# PCOD8124807 Si02
#       8
#     4   4   4   4   4   4   4   4
#     4   9  17  35  59  85 103 141 189 234 276 313
#     4  10  21  36  55  76 115 148 174 226 280 341
#     4  10  20  34  57  83 109 134 185 236 283 324
#     4  11  22  36  54  81 114 149 178 230 284 335
#     4   9  20  35  59  87 104 135 190 240 274 312
#     4  10  20  36  56  83 112 148 184 224 275 332
#     4  10  20  36  57  80 114 148 185 226 268 328
#     4   9  18  36  58  81 109 137 179 234 287 318
#
# _framework density 18.420255999999998
#
# number of rings (size 3 to 8) (size 9 to 14) (size 15 to 20)
#    0.000    2.250    1.250    1.500    5.250    0.500 
#    0.000    2.500    0.000    0.000    0.000    0.000 
#    0.000    0.000    0.000    0.000    0.000    0.000 
#
# Total GULP energy -396860.385088 kJ/mol
# GULP energy per Si atom -12401.887034 kJ/mol
# Density = 1.837833 g / cm^3
# Si number density = 18.420256 Si / 1000 Ang^3
#
#
#
# Elastic Constant Matrix: (Units=GPa)
#
#
# Indices 1 2 3 4 5 6 
#
# 1 46.2295 13.6971 24.5503 0.0000 2.4285 0.0000
# 2 13.6971 86.8464 31.0173 0.0000 14.1917 0.0000
# 3 24.5503 31.0173 79.0105 0.0000 14.0061 0.0000
# 4 0.0000 0.0000 0.0000 21.6002 0.0000 2.8621
# 5 2.4285 14.1917 14.0061 0.0000 24.7903 0.0000
# 6 0.0000 0.0000 0.0000 2.8621 0.0000 25.3902
#
#
#
# Elastic Compliance Matrix: (Units=1/GPa)
#
#
# Indices 1 2 3 4 5 6 
#
# 1 0.026239 -0.001770 -0.007982 0.000000 0.002952 0.000000
# 2 -0.001770 0.014148 -0.004000 0.000000 -0.005666 0.000000
# 3 -0.007982 -0.004000 0.017961 0.000000 -0.007076 0.000000
# 4 0.000000 0.000000 0.000000 0.046998 0.000000 -0.005298
# 5 0.002952 -0.005666 -0.007076 0.000000 0.047291 0.000000
# 6 0.000000 0.000000 0.000000 -0.005298 0.000000 0.039982
#
#
# Mechanical properties :
#
#
# Convention : Reuss Voigt Hill
#
# Bulk Modulus (GPa) = 32.41942 38.95730 35.68836
# Shear Modulus (GPa) = 21.70099 23.87760 22.78929
#
# Velocity S-wave (km/s) = 3.43608 3.60428 3.52118
# Velocity P-wave (km/s) = 5.77756 6.20614 5.99568
#
# Compressibility (1/GPa) = 0.03084571
#
# Stress axis : x y z
#
# Youngs Moduli (GPa) = 38.11093 70.68036 55.67585
#
# Poissons Ratio (x) = 0.12512 0.44438
# Poissons Ratio (y) = 0.06746 0.22269
# Poissons Ratio (z) = 0.30418 0.28270
#
# Static dielectric constant tensor:
#      x y z
#    x 3.149550 0.000000 0.050970 
#    y 0.000000 3.497860 0.000000 
#    z 0.050970 0.000000 3.312160 
# 
# 
# High freq. dielectric constant tensor:
#      x y z
#    x 1.692970 0.000000 0.000510 
#    y 0.000000 1.725520 0.000000 
#    z 0.000510 0.000000 1.706690 
# 
# From -- ./inp_files/66849.got.cif
#   From: 2010.03.12/outbox.cif.g09.slc.cpg/sg14_34_cif.got.tgz:66849.got - 2010.03.31 13:35:05.
