data_PCOD8124270
_publ_section_title
;
Structure prediction by ZEFSAII (Michael W. Deem and Ramdas Pophale) SiO2 
 PCOD8124270
Probable space group: P 21/C
;
_chemical_formula_sum "Si O2"
_cell_formula_units_Z 28
_cell_length_a 21.123494
_cell_length_b 14.052858
_cell_length_c 9.046596
_cell_angle_alpha 90.000000
_cell_angle_beta 31.057125
_cell_angle_gamma 90.000000
_cell_volume 1385.398669
_symmetry_space_group_name_H-M "P 21/C"
_symmetry_group_IT_number 14
_symmetry_cell_setting 'monoclinic'
loop_
_space_group_symop_operation_xyz
x,y,z
-x,1/2+y,1/2-z
-x,-y,-z
x,1/2-y,1/2+z
loop_
_atom_site_type_symbol
_atom_site_label
_atom_site_fract_x
_atom_site_fract_y
_atom_site_fract_z
Si Si1 0.707796 0.174063 0.731119
Si Si2 0.415432 0.995734 0.891798
Si Si3 0.967462 0.374000 0.191309
Si Si4 0.870090 0.258545 0.647913
Si Si5 0.526152 0.702564 0.775387
Si Si6 0.380337 0.356449 0.103183
Si Si7 0.196412 0.471025 0.614005
O O1 0.809034 0.181479 0.659224
O O2 0.766993 0.187800 0.451776
O O3 0.644131 0.069333 0.858682
O O4 0.612254 0.258451 0.962220
O O5 0.542864 0.950449 0.588012
O O6 0.449484 0.104611 0.865714
O O7 0.317659 0.993816 0.954682
O O8 0.947831 0.333491 0.394996
O O9 0.964322 0.293532 0.070187
O O10 0.855523 0.444862 0.381958
O O11 0.096228 0.429660 0.928971
O O12 0.622155 0.780273 0.522794
O O13 0.552787 0.692735 0.893431
O O14 0.240349 0.386517 0.416560
#
# Coordination Sequence:
#
# PCOD8124270 Si02
#       7
#     4   4   4   4   4   4   4
#     4  10  19  36  56  86 116 147 190 237 276 340
#     4  10  20  36  61  83 115 152 185 231 289 343
#     4  10  22  37  60  84 109 150 195 231 278 331
#     4  10  21  35  60  83 112 150 194 235 275 328
#     4  10  20  35  54  84 110 152 183 228 290 341
#     4  10  22  36  57  85 113 150 185 229 289 341
#     4  10  20  39  59  80 114 151 189 227 283 346
#
# _framework density 20.210788999999998
#
# number of rings (size 3 to 8) (size 9 to 14) (size 15 to 20)
#    0.000    2.000    1.429    3.429    6.000    2.286 
#    2.571    2.857    0.000    0.000    0.000    0.000 
#    0.000    0.000    0.000    0.000    0.000    0.000 
#
# Total GULP energy -347084.944536 kJ/mol
# GULP energy per Si atom -12395.890876 kJ/mol
# Density = 2.016479 g / cm^3
# Si number density = 20.210789 Si / 1000 Ang^3
#
#
#
# Elastic Constant Matrix: (Units=GPa)
#
#
# Indices 1 2 3 4 5 6 
#
# 1 31.1903 12.2403 7.4706 0.0000 13.6791 0.0000
# 2 12.2403 107.6115 38.6811 0.0000 8.3222 0.0000
# 3 7.4706 38.6811 75.9188 0.0000 16.2664 0.0000
# 4 0.0000 0.0000 0.0000 29.7877 0.0000 4.0256
# 5 13.6791 8.3222 16.2664 0.0000 29.3950 0.0000
# 6 0.0000 0.0000 0.0000 4.0256 0.0000 20.2764
#
#
#
# Elastic Compliance Matrix: (Units=1/GPa)
#
#
# Indices 1 2 3 4 5 6 
#
# 1 0.041635 -0.003987 0.002092 0.000000 -0.019404 0.000000
# 2 -0.003987 0.011758 -0.005993 0.000000 0.001843 0.000000
# 3 0.002092 -0.005993 0.017999 0.000000 -0.009237 0.000000
# 4 0.000000 0.000000 0.000000 0.034497 0.000000 -0.006849
# 5 -0.019404 0.001843 -0.009237 0.000000 0.047639 0.000000
# 6 0.000000 0.000000 0.000000 -0.006849 0.000000 0.050678
#
#
# Mechanical properties :
#
#
# Convention : Reuss Voigt Hill
#
# Bulk Modulus (GPa) = 17.98086 36.83385 27.40735
# Shear Modulus (GPa) = 20.96259 26.31371 23.63815
#
# Velocity S-wave (km/s) = 3.22405 3.61219 3.42362
# Velocity P-wave (km/s) = 4.77235 5.97173 5.40541
#
# Compressibility (1/GPa) = 0.05561470
#
# Stress axis : x y z
#
# Youngs Moduli (GPa) = 24.01835 85.04867 55.55917
#
# Poissons Ratio (x) = 0.33910 -0.11623
# Poissons Ratio (y) = 0.09576 0.33298
# Poissons Ratio (z) = -0.05025 0.50972
#
# Static dielectric constant tensor:
#      x y z
#    x 3.306890 0.000000 0.076260 
#    y 0.000000 3.860050 0.000000 
#    z 0.076260 0.000000 3.792330 
# 
# 
# High freq. dielectric constant tensor:
#      x y z
#    x 1.758800 0.000000 0.003510 
#    y 0.000000 1.795690 0.000000 
#    z 0.003510 0.000000 1.795010 
# 
# From -- ./inp_files/16286.got.cif
#   From: 2010.03.12/outbox.cif.g09.slc.cpg/sg14_9_cif.got.tgz:16286.got - 2010.03.31 13:35:05.
