data_PCOD8124319
_publ_section_title
;
Structure prediction by ZEFSAII (Michael W. Deem and Ramdas Pophale) SiO2 
 PCOD8124319
Probable space group: P 21/C
;
_chemical_formula_sum "Si O2"
_cell_formula_units_Z 24
_cell_length_a 12.283728
_cell_length_b 19.794642
_cell_length_c 8.885210
_cell_angle_alpha 90.000000
_cell_angle_beta 33.455642
_cell_angle_gamma 90.000000
_cell_volume 1191.040760
_symmetry_space_group_name_H-M "P 21/C"
_symmetry_group_IT_number 14
_symmetry_cell_setting 'monoclinic'
loop_
_space_group_symop_operation_xyz
x,y,z
-x,1/2+y,1/2-z
-x,-y,-z
x,1/2-y,1/2+z
loop_
_atom_site_type_symbol
_atom_site_label
_atom_site_fract_x
_atom_site_fract_y
_atom_site_fract_z
Si Si1 0.416069 0.627970 0.325572
Si Si2 0.744840 0.961164 0.354666
Si Si3 0.145460 0.707228 0.423511
Si Si4 0.816673 0.851471 0.488408
Si Si5 0.907620 0.358604 0.075441
Si Si6 0.933546 0.093570 0.213995
O O1 0.335126 0.678783 0.293111
O O2 0.242470 0.603012 0.637293
O O3 0.514719 0.562700 0.126750
O O4 0.585689 0.666202 0.229275
O O5 0.863543 0.923674 0.354176
O O6 0.763963 0.041318 0.354631
O O7 0.851093 0.936146 0.078523
O O8 0.951702 0.705132 0.752643
O O9 0.185127 0.784437 0.337315
O O10 0.109786 0.665771 0.311061
O O11 0.875594 0.855210 0.596444
O O12 0.926159 0.399676 0.901419
#
# Coordination Sequence:
#
# PCOD8124319 Si02
#       6
#     4   4   4   4   4   4
#     4   9  20  40  53  80 113 149 185 235 285 332
#     4   8  19  39  57  81 111 155 192 226 287 331
#     4  10  20  37  58  81 115 151 185 232 289 339
#     4   8  19  39  54  76 115 151 177 234 292 322
#     4  11  21  35  59  86 113 146 189 234 286 337
#     4  10  19  36  60  86 111 147 198 232 274 345
#
# _framework density 20.150444
#
# number of rings (size 3 to 8) (size 9 to 14) (size 15 to 20)
#    1.000    1.667    0.000    2.000    0.000    3.333 
#    6.000    0.000    0.000    0.000    0.000    0.000 
#    0.000    0.000    0.000    0.000    0.000    0.000 
#
# Total GULP energy -297419.089960 kJ/mol
# GULP energy per Si atom -12392.462082 kJ/mol
# Density = 2.010458 g / cm^3
# Si number density = 20.150444 Si / 1000 Ang^3
#
#
#
# Elastic Constant Matrix: (Units=GPa)
#
#
# Indices 1 2 3 4 5 6 
#
# 1 60.5678 -28.8767 22.6895 0.0000 -5.3682 0.0000
# 2 -28.8767 43.1244 0.3208 0.0000 9.2439 0.0000
# 3 22.6895 0.3208 61.2022 0.0000 9.8747 0.0000
# 4 0.0000 0.0000 0.0000 21.3530 0.0000 -0.3421
# 5 -5.3682 9.2439 9.8747 0.0000 33.2393 0.0000
# 6 0.0000 0.0000 0.0000 -0.3421 0.0000 17.3035
#
#
#
# Elastic Compliance Matrix: (Units=1/GPa)
#
#
# Indices 1 2 3 4 5 6 
#
# 1 0.030877 0.020130 -0.012031 0.000000 0.002963 0.000000
# 2 0.020130 0.037844 -0.006814 0.000000 -0.005249 0.000000
# 3 -0.012031 -0.006814 0.021892 0.000000 -0.006552 0.000000
# 4 0.000000 0.000000 0.000000 0.046847 0.000000 0.000926
# 5 0.002963 -0.005249 -0.006552 0.000000 0.033969 0.000000
# 6 0.000000 0.000000 0.000000 0.000926 0.000000 0.057810
#
#
# Mechanical properties :
#
#
# Convention : Reuss Voigt Hill
#
# Bulk Modulus (GPa) = 10.73145 17.01795 13.87470
# Shear Modulus (GPa) = 19.40012 25.76322 22.58167
#
# Velocity S-wave (km/s) = 3.10621 3.57955 3.35125
# Velocity P-wave (km/s) = 4.26637 5.05451 4.67707
#
# Compressibility (1/GPa) = 0.09318404
#
# Stress axis : x y z
#
# Youngs Moduli (GPa) = 32.38629 26.42426 45.67837
#
# Poissons Ratio (x) = -0.53193 0.54954
# Poissons Ratio (y) = -0.65194 0.31127
# Poissons Ratio (z) = 0.38963 0.18006
#
# Static dielectric constant tensor:
#      x y z
#    x 3.561700 0.000000 0.047320 
#    y 0.000000 3.338340 0.000000 
#    z 0.047320 0.000000 3.518270 
# 
# 
# High freq. dielectric constant tensor:
#      x y z
#    x 1.784100 0.000000 0.005080 
#    y 0.000000 1.765190 0.000000 
#    z 0.005080 0.000000 1.775970 
# 
# From -- ./inp_files/14085.got.cif
#   From: 2010.03.12/outbox.cif.g09.slc.cpg/sg14_8_cif.got.tgz:14085.got - 2010.03.31 13:35:05.
