data_PCOD8124801
_publ_section_title
;
Structure prediction by ZEFSAII (Michael W. Deem and Ramdas Pophale) SiO2 
 PCOD8124801
Probable space group: P 21/C
;
_chemical_formula_sum "Si O2"
_cell_formula_units_Z 32
_cell_length_a 23.364779
_cell_length_b 5.057932
_cell_length_c 21.926974
_cell_angle_alpha 90.000000
_cell_angle_beta 39.949984
_cell_angle_gamma 90.000000
_cell_volume 1663.905473
_symmetry_space_group_name_H-M "P 21/C"
_symmetry_group_IT_number 14
_symmetry_cell_setting 'monoclinic'
loop_
_space_group_symop_operation_xyz
x,y,z
-x,1/2+y,1/2-z
-x,-y,-z
x,1/2-y,1/2+z
loop_
_atom_site_type_symbol
_atom_site_label
_atom_site_fract_x
_atom_site_fract_y
_atom_site_fract_z
Si Si1 0.357480 0.941422 0.650989
Si Si2 0.392544 0.634186 0.512670
Si Si3 0.415979 0.456198 0.671764
Si Si4 0.243989 0.244691 0.663695
Si Si5 0.108840 0.907174 0.639871
Si Si6 0.558028 0.863351 0.712207
Si Si7 0.076232 0.406718 0.744437
Si Si8 0.700975 0.464477 0.004651
O O1 0.401865 0.171792 0.653602
O O2 0.259512 0.037471 0.706483
O O3 0.412982 0.876891 0.543025
O O4 0.350749 0.683069 0.699532
O O5 0.481451 0.463769 0.427704
O O6 0.317672 0.473729 0.611367
O O7 0.357518 0.723696 0.474663
O O8 0.401516 0.439081 0.755589
O O9 0.141538 0.348816 0.748883
O O10 0.262061 0.127777 0.582338
O O11 0.096208 0.703761 0.706173
O O12 0.209860 0.866596 0.531551
O O13 0.029988 0.868503 0.653458
O O14 0.097915 0.205961 0.672141
O O15 0.483652 0.072320 0.751552
O O16 0.640098 0.859263 0.598098
#
# Coordination Sequence:
#
# PCOD8124801 Si02
#       8
#     4   4   4   4   4   4   4   4
#     4  11  24  36  53  78 104 140 181 224 268 311
#     4  11  20  35  56  76 110 137 179 219 272 317
#     4  12  24  37  52  75 107 142 184 224 257 307
#     4  10  20  34  56  81 110 138 175 220 273 330
#     4   9  17  30  50  76 111 136 171 209 267 335
#     4  12  25  41  56  76 107 148 189 223 260 311
#     4   9  17  30  49  79 109 139 162 214 273 328
#     4  10  21  34  55  82 107 148 178 219 269 322
#
# _framework density 19.231860000000001
#
# number of rings (size 3 to 8) (size 9 to 14) (size 15 to 20)
#    0.000    1.500    3.750    2.250    3.500    0.000 
#    0.000    0.000    0.000    0.000    0.000    1.750 
#    0.000    0.125    0.000    0.000    0.000    0.000 
#
# Total GULP energy -396447.159216 kJ/mol
# GULP energy per Si atom -12388.973725 kJ/mol
# Density = 1.918809 g / cm^3
# Si number density = 19.231860 Si / 1000 Ang^3
#
#
#
# Elastic Constant Matrix: (Units=GPa)
#
#
# Indices 1 2 3 4 5 6 
#
# 1 95.6771 14.7953 37.7954 0.0000 -9.4147 0.0000
# 2 14.7953 68.0056 5.0889 0.0000 -2.6825 0.0000
# 3 37.7954 5.0889 39.2340 0.0000 -6.7830 0.0000
# 4 0.0000 0.0000 0.0000 11.9908 0.0000 0.6347
# 5 -9.4147 -2.6825 -6.7830 0.0000 23.8018 0.0000
# 6 0.0000 0.0000 0.0000 0.6347 0.0000 27.8592
#
#
#
# Elastic Compliance Matrix: (Units=1/GPa)
#
#
# Indices 1 2 3 4 5 6 
#
# 1 0.017388 -0.002500 -0.016078 0.000000 0.002014 0.000000
# 2 -0.002500 0.015240 0.000587 0.000000 0.000896 0.000000
# 3 -0.016078 0.000587 0.041875 0.000000 0.005640 0.000000
# 4 0.000000 0.000000 0.000000 0.083498 0.000000 -0.001902
# 5 0.002014 0.000896 0.005640 0.000000 0.044519 0.000000
# 6 0.000000 0.000000 0.000000 -0.001902 0.000000 0.035938
#
#
# Mechanical properties :
#
#
# Convention : Reuss Voigt Hill
#
# Bulk Modulus (GPa) = 25.96012 35.36400 30.66206
# Shear Modulus (GPa) = 17.40455 22.41282 19.90868
#
# Velocity S-wave (km/s) = 3.01156 3.41750 3.22093
# Velocity P-wave (km/s) = 5.06167 5.83100 5.45990
#
# Compressibility (1/GPa) = 0.03852063
#
# Stress axis : x y z
#
# Youngs Moduli (GPa) = 57.51126 65.61649 23.88034
#
# Poissons Ratio (x) = 0.16406 0.38394
# Poissons Ratio (y) = 0.14380 -0.01401
# Poissons Ratio (z) = 0.92466 -0.03850
#
# Static dielectric constant tensor:
#      x y z
#    x 4.120640 0.000000 -0.393970 
#    y 0.000000 3.654450 0.000000 
#    z -0.393970 0.000000 3.156710 
# 
# 
# High freq. dielectric constant tensor:
#      x y z
#    x 1.761570 0.000000 -0.022790 
#    y 0.000000 1.764670 0.000000 
#    z -0.022790 0.000000 1.673140 
# 
# From -- ./inp_files/69530.got.cif
#   From: 2010.03.12/outbox.cif.g09.slc.cpg/sg14_35_cif.got.tgz:69530.got - 2010.03.31 13:35:05.
