data_PCOD8124967
_publ_section_title
;
Structure prediction by ZEFSAII (Michael W. Deem and Ramdas Pophale) SiO2 
 PCOD8124967
Probable space group: P 21/C
;
_chemical_formula_sum "Si O2"
_cell_formula_units_Z 32
_cell_length_a 12.744945
_cell_length_b 12.574974
_cell_length_c 10.217381
_cell_angle_alpha 90.000000
_cell_angle_beta 69.983649
_cell_angle_gamma 90.000000
_cell_volume 1538.598612
_symmetry_space_group_name_H-M "P 21/C"
_symmetry_group_IT_number 14
_symmetry_cell_setting 'monoclinic'
loop_
_space_group_symop_operation_xyz
x,y,z
-x,1/2+y,1/2-z
-x,-y,-z
x,1/2-y,1/2+z
loop_
_atom_site_type_symbol
_atom_site_label
_atom_site_fract_x
_atom_site_fract_y
_atom_site_fract_z
Si Si1 0.687140 0.267908 0.582880
Si Si2 0.419963 0.850579 0.611838
Si Si3 0.870224 0.433922 0.511337
Si Si4 0.172585 0.936610 0.461831
Si Si5 0.338048 0.434693 0.040795
Si Si6 0.010021 0.527244 0.802338
Si Si7 0.147215 0.211655 0.691342
Si Si8 0.909564 0.844017 0.016637
O O1 0.608405 0.292062 0.740372
O O2 0.612897 0.229582 0.492268
O O3 0.756246 0.375342 0.519646
O O4 0.778890 0.180341 0.580272
O O5 0.550027 0.876858 0.553246
O O6 0.355669 0.963188 0.628584
O O7 0.936573 0.488183 0.361494
O O8 0.851524 0.545215 0.596866
O O9 0.954890 0.354965 0.551150
O O10 0.111119 0.976580 0.359964
O O11 0.273475 0.020002 0.441680
O O12 0.084085 0.937966 0.621780
O O13 0.267547 0.344197 0.142557
O O14 0.949066 0.640809 0.834597
O O15 0.146386 0.314768 0.598487
O O16 0.117570 0.240632 0.855068
#
# Coordination Sequence:
#
# PCOD8124967 Si02
#       8
#     4   4   4   4   4   4   4   4
#     4  11  21  36  60  84 113 154 200 241 286 344
#     4  10  22  39  60  85 111 150 199 245 293 339
#     4  10  21  36  54  82 121 153 185 235 286 342
#     4   9  18  33  58  88 117 150 188 236 290 348
#     4   9  20  39  60  80 114 152 190 242 295 340
#     4   9  18  32  54  87 119 147 186 228 285 356
#     4  10  20  36  56  81 111 150 188 228 282 347
#     4  10  22  35  54  82 114 148 184 225 285 350
#
# _framework density 20.798147
#
# number of rings (size 3 to 8) (size 9 to 14) (size 15 to 20)
#    0.000    2.250    0.000    2.250    0.000   10.000 
#    0.000    1.250    0.000    8.250    0.000    0.000 
#    0.000    0.000    0.000    0.000    0.000    0.000 
#
# Total GULP energy -396556.178451 kJ/mol
# GULP energy per Si atom -12392.380577 kJ/mol
# Density = 2.075081 g / cm^3
# Si number density = 20.798147 Si / 1000 Ang^3
#
#
#
# Elastic Constant Matrix: (Units=GPa)
#
#
# Indices 1 2 3 4 5 6 
#
# 1 116.4653 32.7326 35.8553 0.0000 -2.8230 0.0000
# 2 32.7326 68.4855 33.9618 0.0000 -5.1840 0.0000
# 3 35.8553 33.9618 107.1609 0.0000 5.3531 0.0000
# 4 0.0000 0.0000 0.0000 30.4603 0.0000 -3.7074
# 5 -2.8230 -5.1840 5.3531 0.0000 18.1496 0.0000
# 6 0.0000 0.0000 0.0000 -3.7074 0.0000 33.9217
#
#
#
# Elastic Compliance Matrix: (Units=1/GPa)
#
#
# Indices 1 2 3 4 5 6 
#
# 1 0.010383 -0.003694 -0.002366 0.000000 0.001258 0.000000
# 2 -0.003694 0.019471 -0.005262 0.000000 0.006539 0.000000
# 3 -0.002366 -0.005262 0.012062 0.000000 -0.005429 0.000000
# 4 0.000000 0.000000 0.000000 0.033272 0.000000 0.003636
# 5 0.001258 0.006539 -0.005429 0.000000 0.058762 0.000000
# 6 0.000000 0.000000 0.000000 0.003636 0.000000 0.029877
#
#
# Mechanical properties :
#
#
# Convention : Reuss Voigt Hill
#
# Bulk Modulus (GPa) = 51.88583 55.24568 53.56576
# Shear Modulus (GPa) = 25.92062 29.14381 27.53221
#
# Velocity S-wave (km/s) = 3.53412 3.74741 3.64233
# Velocity P-wave (km/s) = 6.45406 6.73384 6.59543
#
# Compressibility (1/GPa) = 0.01927308
#
# Stress axis : x y z
#
# Youngs Moduli (GPa) = 96.30698 51.35746 82.90362
#
# Poissons Ratio (x) = 0.18972 0.19618
# Poissons Ratio (y) = 0.35577 0.43620
# Poissons Ratio (z) = 0.22789 0.27022
#
# Static dielectric constant tensor:
#      x y z
#    x 3.697040 0.000000 -0.011170 
#    y 0.000000 3.729210 0.000000 
#    z -0.011170 0.000000 3.687180 
# 
# 
# High freq. dielectric constant tensor:
#      x y z
#    x 1.805340 0.000000 0.004730 
#    y 0.000000 1.811860 0.000000 
#    z 0.004730 0.000000 1.806320 
# 
# From -- ./inp_files/29353.got.cif
#   From: 2010.03.12/outbox.cif.g09.slc.cpg/sg14_15_cif.got.tgz:29353.got - 2010.03.31 13:35:05.
