data_PCOD8124434
_publ_section_title
;
Structure prediction by ZEFSAII (Michael W. Deem and Ramdas Pophale) SiO2 
 PCOD8124434
Probable space group: P 21/C
;
_chemical_formula_sum "Si O2"
_cell_formula_units_Z 32
_cell_length_a 18.808149
_cell_length_b 16.853475
_cell_length_c 12.315225
_cell_angle_alpha 90.000000
_cell_angle_beta 22.192488
_cell_angle_gamma 90.000000
_cell_volume 1474.508065
_symmetry_space_group_name_H-M "P 21/C"
_symmetry_group_IT_number 14
_symmetry_cell_setting 'monoclinic'
loop_
_space_group_symop_operation_xyz
x,y,z
-x,1/2+y,1/2-z
-x,-y,-z
x,1/2-y,1/2+z
loop_
_atom_site_type_symbol
_atom_site_label
_atom_site_fract_x
_atom_site_fract_y
_atom_site_fract_z
Si Si1 0.131816 0.430313 0.416463
Si Si2 0.953145 0.356284 0.996264
Si Si3 0.247749 0.202179 0.906708
Si Si4 0.589130 0.146245 0.740608
Si Si5 0.816506 0.022228 0.531556
Si Si6 0.675070 0.237676 0.298177
Si Si7 0.808949 0.400899 0.723344
Si Si8 0.821664 0.854070 0.614349
O O1 0.259830 0.364669 0.294037
O O2 0.253202 0.507754 0.210773
O O3 0.971372 0.461447 0.722379
O O4 0.024805 0.395201 0.461293
O O5 0.134154 0.328390 0.670844
O O6 0.007340 0.367257 0.044789
O O7 0.880935 0.441119 0.055365
O O8 0.782378 0.293734 0.232597
O O9 0.457794 0.228112 0.641722
O O10 0.133836 0.277700 0.021938
O O11 0.627899 0.065732 0.755222
O O12 0.689858 0.221299 0.658594
O O13 0.666372 0.139002 0.510439
O O14 0.367350 0.160598 0.048929
O O15 0.790825 0.928712 0.579038
O O16 0.780249 0.151671 0.154367
#
# Coordination Sequence:
#
# PCOD8124434 Si02
#       8
#     4   4   4   4   4   4   4   4
#     4   9  20  37  59  87 115 156 197 241 294 350
#     4  10  21  37  58  84 120 153 192 249 297 347
#     4  10  22  39  57  86 121 151 201 247 291 352
#     4   9  20  37  57  86 121 154 194 245 292 348
#     4   9  19  36  57  86 116 152 194 241 296 356
#     4  10  21  36  59  85 116 157 194 243 297 344
#     4  10  19  37  62  81 120 155 196 241 292 352
#     4  11  20  35  63  83 117 157 195 240 299 353
#
# _framework density 21.702152000000002
#
# number of rings (size 3 to 8) (size 9 to 14) (size 15 to 20)
#    0.000    2.250    0.000    3.000    1.750    0.500 
#    2.250    0.000   13.750    0.000    0.000    0.000 
#    0.000    0.000    0.000    0.000    0.000    0.000 
#
# Total GULP energy -396725.393854 kJ/mol
# GULP energy per Si atom -12397.668558 kJ/mol
# Density = 2.165276 g / cm^3
# Si number density = 21.702152 Si / 1000 Ang^3
#
#
#
# Elastic Constant Matrix: (Units=GPa)
#
#
# Indices 1 2 3 4 5 6 
#
# 1 68.0589 33.5477 -0.1192 0.0000 -19.7091 0.0000
# 2 33.5477 125.1615 8.4786 0.0000 -4.0779 0.0000
# 3 -0.1192 8.4786 35.5024 0.0000 -15.2772 0.0000
# 4 0.0000 0.0000 0.0000 21.1403 0.0000 3.9049
# 5 -19.7091 -4.0779 -15.2772 0.0000 22.4140 0.0000
# 6 0.0000 0.0000 0.0000 3.9049 0.0000 31.3415
#
#
#
# Elastic Compliance Matrix: (Units=1/GPa)
#
#
# Indices 1 2 3 4 5 6 
#
# 1 0.028951 -0.007769 0.017403 0.000000 0.035905 0.000000
# 2 -0.007769 0.010207 -0.006515 0.000000 -0.009415 0.000000
# 3 0.017403 -0.006515 0.050738 0.000000 0.048700 0.000000
# 4 0.000000 0.000000 0.000000 0.048417 0.000000 -0.006032
# 5 0.035905 -0.009415 0.048700 0.000000 0.107668 0.000000
# 6 0.000000 0.000000 0.000000 -0.006032 0.000000 0.032658
#
#
# Mechanical properties :
#
#
# Convention : Reuss Voigt Hill
#
# Bulk Modulus (GPa) = 10.40219 34.72634 22.56427
# Shear Modulus (GPa) = 16.42335 27.43354 21.92845
#
# Velocity S-wave (km/s) = 2.75391 3.55927 3.18217
# Velocity P-wave (km/s) = 3.86208 5.73823 4.89095
#
# Compressibility (1/GPa) = 0.09613358
#
# Stress axis : x y z
#
# Youngs Moduli (GPa) = 34.54118 97.97555 19.70923
#
# Poissons Ratio (x) = 0.76117 -0.34300
# Poissons Ratio (y) = 0.26835 0.12841
# Poissons Ratio (z) = -0.60113 0.63831
#
# Static dielectric constant tensor:
#      x y z
#    x 3.834590 0.000000 -0.207450 
#    y 0.000000 4.164370 0.000000 
#    z -0.207450 0.000000 3.625910 
# 
# 
# High freq. dielectric constant tensor:
#      x y z
#    x 1.846480 0.000000 -0.013580 
#    y 0.000000 1.859900 0.000000 
#    z -0.013580 0.000000 1.829660 
# 
# From -- ./inp_files/50660.got.cif
#   From: 2010.03.12/outbox.cif.g09.slc.cpg/sg14_26_cif.got.tgz:50660.got - 2010.03.31 13:35:05.
