data_PCOD8125539
_publ_section_title
;
Structure prediction by ZEFSAII (Michael W. Deem and Ramdas Pophale) SiO2 
 PCOD8125539
Probable space group: P 21/C
;
_chemical_formula_sum "Si O2"
_cell_formula_units_Z 24
_cell_length_a 11.361486
_cell_length_b 18.478456
_cell_length_c 8.567616
_cell_angle_alpha 90.000000
_cell_angle_beta 41.053704
_cell_angle_gamma 90.000000
_cell_volume 1181.330902
_symmetry_space_group_name_H-M "P 21/C"
_symmetry_group_IT_number 14
_symmetry_cell_setting 'monoclinic'
loop_
_space_group_symop_operation_xyz
x,y,z
-x,1/2+y,1/2-z
-x,-y,-z
x,1/2-y,1/2+z
loop_
_atom_site_type_symbol
_atom_site_label
_atom_site_fract_x
_atom_site_fract_y
_atom_site_fract_z
Si Si1 0.544069 0.439301 0.741117
Si Si2 0.250001 0.153082 0.387180
Si Si3 0.957548 0.096520 0.181234
Si Si4 0.044068 0.939301 0.170745
Si Si5 0.750001 0.804917 0.968950
Si Si6 0.542451 0.403480 0.096331
O O1 0.426371 0.395300 0.735826
O O2 0.505170 0.524396 0.759225
O O3 0.750001 0.422451 0.498359
O O4 0.489188 0.415449 0.969891
O O5 0.073631 0.104700 0.588567
O O6 0.250000 0.219266 0.507534
O O7 0.250000 0.182608 0.213984
O O8 0.750000 0.116394 0.407751
O O9 0.071396 0.162610 0.133186
O O10 0.005169 0.024397 0.230436
O O11 0.010813 0.084551 0.948266
O O12 0.571397 0.837391 0.224021
#
# Coordination Sequence:
#
# PCOD8125539 Si02
#       6
#     4   4   4   4   4   4
#     4  10  20  39  67  94 123 162 206 251 306 370
#     4  12  26  42  62  90 129 166 207 258 310 366
#     4  10  20  39  67  94 123 162 206 251 306 370
#     4  10  20  39  67  94 123 162 206 251 306 370
#     4  12  26  42  62  90 129 166 207 258 310 366
#     4  10  20  39  67  94 123 162 206 251 306 370
#
# _framework density 20.316068000000001
#
# number of rings (size 3 to 8) (size 9 to 14) (size 15 to 20)
#    0.000    1.333    3.333    3.000    0.000    4.000 
#    0.000    0.000    0.000    0.000    0.000    0.000 
#    0.000    0.000    0.000    0.000    0.000    0.000 
#
# Total GULP energy -297771.996431 kJ/mol
# GULP energy per Si atom -12407.166518 kJ/mol
# Density = 2.026983 g / cm^3
# Si number density = 20.316068 Si / 1000 Ang^3
#
#
#
# Elastic Constant Matrix: (Units=GPa)
#
#
# Indices 1 2 3 4 5 6 
#
# 1 68.3842 2.0052 17.2415 0.0000 -19.9664 0.0000
# 2 2.0052 60.9824 7.7419 0.0000 -19.0071 0.0000
# 3 17.2415 7.7419 80.5684 0.0000 -20.4015 0.0000
# 4 0.0000 0.0000 0.0000 9.0865 0.0000 22.3993
# 5 -19.9664 -19.0071 -20.4015 0.0000 30.0287 0.0000
# 6 0.0000 0.0000 0.0000 22.3993 0.0000 15.8474
#
#
#
# Elastic Compliance Matrix: (Units=1/GPa)
#
#
# Indices 1 2 3 4 5 6 
#
# 1 0.018975 0.004044 -0.000732 0.000000 0.014679 0.000000
# 2 0.004044 0.021459 0.001441 0.000000 0.017251 0.000000
# 3 -0.000732 0.001441 0.015143 0.000000 0.010713 0.000000
# 4 0.000000 0.000000 0.000000 -0.044300 0.000000 0.062615
# 5 0.014679 0.017251 0.010713 0.000000 0.061260 0.000000
# 6 0.000000 0.000000 0.000000 0.062615 0.000000 -0.025400
#
#
# Mechanical properties :
#
#
# Convention : Reuss Voigt Hill
#
# Bulk Modulus (GPa) = 15.36504 29.32358 22.34431
# Shear Modulus (GPa) = 84.28093 23.18895 53.73494
#
# Velocity S-wave (km/s) = 6.44786 3.38214 5.14848
# Velocity P-wave (km/s) = 7.93805 5.45132 6.80917
#
# Compressibility (1/GPa) = 0.06508281
#
# Stress axis : x y z
#
# Youngs Moduli (GPa) = 52.70021 46.60038 66.03788
#
# Poissons Ratio (x) = -0.18847 0.04835
# Poissons Ratio (y) = -0.21314 -0.09514
# Poissons Ratio (z) = 0.03859 -0.06714
#
# Static dielectric constant tensor:
#      x y z
#    x 3.600250 0.000000 -0.131690 
#    y 0.000000 3.657050 0.000000 
#    z -0.131690 0.000000 3.639990 
# 
# 
# High freq. dielectric constant tensor:
#      x y z
#    x 1.793080 0.000000 -0.013680 
#    y 0.000000 1.791540 0.000000 
#    z -0.013680 0.000000 1.797210 
# 
# From -- ./inp_files/14099.got.cif
#   From: 2010.03.12/outbox.cif.g09.slc.cpg/sg14_8_cif.got.tgz:14099.got - 2010.03.31 13:35:05.
