data_PCOD8125245
_publ_section_title
;
Structure prediction by ZEFSAII (Michael W. Deem and Ramdas Pophale) SiO2 
 PCOD8125245
Probable space group: P 21/C
;
_chemical_formula_sum "Si O2"
_cell_formula_units_Z 32
_cell_length_a 12.354934
_cell_length_b 14.626757
_cell_length_c 12.444114
_cell_angle_alpha 90.000000
_cell_angle_beta 43.079683
_cell_angle_gamma 90.000000
_cell_volume 1535.969464
_symmetry_space_group_name_H-M "P 21/C"
_symmetry_group_IT_number 14
_symmetry_cell_setting 'monoclinic'
loop_
_space_group_symop_operation_xyz
x,y,z
-x,1/2+y,1/2-z
-x,-y,-z
x,1/2-y,1/2+z
loop_
_atom_site_type_symbol
_atom_site_label
_atom_site_fract_x
_atom_site_fract_y
_atom_site_fract_z
Si Si1 0.346649 0.279016 0.985821
Si Si2 0.037716 0.219223 0.825447
Si Si3 0.123010 0.919578 0.914505
Si Si4 0.857679 0.242606 0.262413
Si Si5 0.375972 0.021491 0.251458
Si Si6 0.444607 0.639888 0.550153
Si Si7 0.144105 0.327001 0.948874
Si Si8 0.471587 0.542106 0.138725
O O1 0.406245 0.183832 0.993534
O O2 0.286032 0.269173 0.906068
O O3 0.488518 0.350715 0.894065
O O4 0.190628 0.322462 0.154758
O O5 0.117892 0.283670 0.853311
O O6 0.920520 0.279539 0.836243
O O7 0.923930 0.139295 0.948506
O O8 0.124678 0.853481 0.810364
O O9 0.290541 0.968451 0.804687
O O10 0.000000 0.000000 0.000000
O O11 0.679606 0.281067 0.391168
O O12 0.975444 0.321501 0.131804
O O13 0.203587 0.068754 0.389836
O O14 0.433294 0.995723 0.331088
O O15 0.359159 0.930244 0.193440
O O16 0.495540 0.090844 0.101961
O O17 0.500000 0.500000 0.000000
#
# Coordination Sequence:
#
# PCOD8125245 Si02
#       8
#     4   4   4   4   4   4   4   4
#     4  10  20  37  65  86 125 167 210 265 315 384
#     4  10  20  40  62  88 127 169 211 261 323 384
#     4  11  23  41  63  93 129 168 217 264 325 389
#     4  10  22  40  62  92 128 168 211 263 326 384
#     4  10  23  40  65  94 126 167 218 268 319 383
#     4  11  21  41  64  96 126 168 215 267 327 377
#     4   9  20  39  60  89 124 166 213 256 318 379
#     4  11  23  42  60  95 129 163 215 265 322 383
#
# _framework density 20.833748
#
# number of rings (size 3 to 8) (size 9 to 14) (size 15 to 20)
#    0.000    1.750    2.500    1.500    0.000    4.500 
#    6.750    0.000    0.000    0.000    0.000    0.000 
#    0.000    0.000    0.000    0.000    0.000    0.000 
#
# Total GULP energy -396554.691413 kJ/mol
# GULP energy per Si atom -12392.334107 kJ/mol
# Density = 2.078633 g / cm^3
# Si number density = 20.833748 Si / 1000 Ang^3
#
#
#
# Elastic Constant Matrix: (Units=GPa)
#
#
# Indices 1 2 3 4 5 6 
#
# 1 122.5470 33.1047 34.4280 0.0000 12.9136 0.0000
# 2 33.1047 59.6534 17.2501 0.0000 2.8491 0.0000
# 3 34.4280 17.2501 65.8094 0.0000 -3.0558 0.0000
# 4 0.0000 0.0000 0.0000 34.9831 0.0000 0.8355
# 5 12.9136 2.8491 -3.0558 0.0000 41.1080 0.0000
# 6 0.0000 0.0000 0.0000 0.8355 0.0000 20.0595
#
#
#
# Elastic Compliance Matrix: (Units=1/GPa)
#
#
# Indices 1 2 3 4 5 6 
#
# 1 0.011121 -0.004624 -0.004770 0.000000 -0.003528 0.000000
# 2 -0.004624 0.020168 -0.002875 0.000000 -0.000159 0.000000
# 3 -0.004770 -0.002875 0.018587 0.000000 0.003079 0.000000
# 4 0.000000 0.000000 0.000000 0.028614 0.000000 -0.001192
# 5 -0.003528 -0.000159 0.003079 0.000000 0.025674 0.000000
# 6 0.000000 0.000000 0.000000 -0.001192 0.000000 0.049901
#
#
# Mechanical properties :
#
#
# Convention : Reuss Voigt Hill
#
# Bulk Modulus (GPa) = 39.46399 46.39728 42.93064
# Shear Modulus (GPa) = 26.73090 30.11192 28.42141
#
# Velocity S-wave (km/s) = 3.58587 3.80589 3.69752
# Velocity P-wave (km/s) = 6.01066 6.45226 6.23537
#
# Compressibility (1/GPa) = 0.02533955
#
# Stress axis : x y z
#
# Youngs Moduli (GPa) = 89.92067 49.58228 53.80038
#
# Poissons Ratio (x) = 0.22926 0.25661
# Poissons Ratio (y) = 0.41578 0.15468
# Poissons Ratio (z) = 0.42889 0.14255
#
# Static dielectric constant tensor:
#      x y z
#    x 4.028030 0.000000 0.281420 
#    y 0.000000 3.318280 0.000000 
#    z 0.281420 0.000000 4.733570 
# 
# 
# High freq. dielectric constant tensor:
#      x y z
#    x 1.830150 0.000000 0.002780 
#    y 0.000000 1.786610 0.000000 
#    z 0.002780 0.000000 1.825590 
# 
# From -- ./inp_files/30441.got.cif
#   From: 2010.03.12/outbox.cif.g09.slc.cpg/sg14_16_cif.got.tgz:30441.got - 2010.03.31 13:35:05.
