data_PCOD8125055
_publ_section_title
;
Structure prediction by ZEFSAII (Michael W. Deem and Ramdas Pophale) SiO2 
 PCOD8125055
Probable space group: P 21/C
;
_chemical_formula_sum "Si O2"
_cell_formula_units_Z 24
_cell_length_a 13.304278
_cell_length_b 17.116818
_cell_length_c 8.183738
_cell_angle_alpha 90.000000
_cell_angle_beta 27.291630
_cell_angle_gamma 90.000000
_cell_volume 854.523667
_symmetry_space_group_name_H-M "P 21/C"
_symmetry_group_IT_number 14
_symmetry_cell_setting 'monoclinic'
loop_
_space_group_symop_operation_xyz
x,y,z
-x,1/2+y,1/2-z
-x,-y,-z
x,1/2-y,1/2+z
loop_
_atom_site_type_symbol
_atom_site_label
_atom_site_fract_x
_atom_site_fract_y
_atom_site_fract_z
Si Si1 0.900143 0.066307 0.473955
Si Si2 0.555898 0.644563 0.025927
Si Si3 0.641779 0.358263 0.093890
Si Si4 0.116246 0.797868 0.269197
Si Si5 0.689969 0.787789 0.673587
Si Si6 0.363750 0.490169 0.367141
O O1 0.818439 0.080392 0.408408
O O2 0.958625 0.152062 0.465681
O O3 0.124621 0.018009 0.127468
O O4 0.706085 0.020111 0.850594
O O5 0.297514 0.651548 0.417811
O O6 0.691589 0.681200 0.984472
O O7 0.556864 0.549000 0.009691
O O8 0.632843 0.694570 0.756223
O O9 0.497632 0.331747 0.456756
O O10 0.488965 0.406188 0.189047
O O11 0.774678 0.284094 0.827348
O O12 0.926283 0.795067 0.410979
#
# Coordination Sequence:
#
# PCOD8125055 Si02
#       6
#     4   4   4   4   4   4
#     4  10  20  36  60  91 119 160 215 257 310 366
#     4  10  24  39  64  93 125 164 214 262 320 368
#     4  11  21  35  61  89 125 160 208 264 317 362
#     4  10  22  36  58  93 119 161 207 261 309 375
#     4  11  22  39  62  92 124 165 210 261 314 380
#     4  10  20  37  59  92 121 160 212 267 305 372
#
# _framework density 28.085825
#
# number of rings (size 3 to 8) (size 9 to 14) (size 15 to 20)
#    0.000    1.667    5.000    0.500    2.333    0.000 
#    0.000    0.833    0.000    7.000    0.000    0.000 
#    0.000    0.000    0.000    0.000    0.000    0.000 
#
# Total GULP energy -297396.351803 kJ/mol
# GULP energy per Si atom -12391.514658 kJ/mol
# Density = 2.802190 g / cm^3
# Si number density = 28.085825 Si / 1000 Ang^3
#
#
#
# Elastic Constant Matrix: (Units=GPa)
#
#
# Indices 1 2 3 4 5 6 
#
# 1 73.7401 63.7900 23.0123 0.0000 -13.7254 0.0000
# 2 63.7900 146.9398 26.4328 0.0000 -16.2140 0.0000
# 3 23.0123 26.4328 86.6331 0.0000 -12.9178 0.0000
# 4 0.0000 0.0000 0.0000 30.6601 0.0000 -7.1999
# 5 -13.7254 -16.2140 -12.9178 0.0000 41.7786 0.0000
# 6 0.0000 0.0000 0.0000 -7.1999 0.0000 48.4404
#
#
#
# Elastic Compliance Matrix: (Units=1/GPa)
#
#
# Indices 1 2 3 4 5 6 
#
# 1 0.022882 -0.009078 -0.002844 0.000000 0.003115 0.000000
# 2 -0.009078 0.011004 -0.000790 0.000000 0.001044 0.000000
# 3 -0.002844 -0.000790 0.012952 0.000000 0.002764 0.000000
# 4 0.000000 0.000000 0.000000 0.033795 0.000000 0.005023
# 5 0.003115 0.001044 0.002764 0.000000 0.026219 0.000000
# 6 0.000000 0.000000 0.000000 0.005023 0.000000 0.021391
#
#
# Mechanical properties :
#
#
# Convention : Reuss Voigt Hill
#
# Bulk Modulus (GPa) = 46.70169 59.30923 53.00546
# Shear Modulus (GPa) = 31.09391 37.11436 34.10413
#
# Velocity S-wave (km/s) = 3.33093 3.63914 3.48844
# Velocity P-wave (km/s) = 5.60872 6.23063 5.92784
#
# Compressibility (1/GPa) = 0.02141250
#
# Stress axis : x y z
#
# Youngs Moduli (GPa) = 43.70338 90.87698 77.21100
#
# Poissons Ratio (x) = 0.82499 0.21957
# Poissons Ratio (y) = 0.39675 0.06103
# Poissons Ratio (z) = 0.12428 0.07183
#
# Static dielectric constant tensor:
#      x y z
#    x 4.994440 0.000000 -0.008200 
#    y 0.000000 6.101050 0.000000 
#    z -0.008200 0.000000 5.193390 
# 
# 
# High freq. dielectric constant tensor:
#      x y z
#    x 2.140480 0.000000 -0.004300 
#    y 0.000000 2.158460 0.000000 
#    z -0.004300 0.000000 2.143080 
# 
# From -- ./inp_files/34377.got.cif
#   From: 2010.03.12/outbox.cif.g09.slc.cpg/sg14_18_cif.got.tgz:34377.got - 2010.03.31 13:35:05.
