data_PCOD8125036
_publ_section_title
;
Structure prediction by ZEFSAII (Michael W. Deem and Ramdas Pophale) SiO2 
 PCOD8125036
Probable space group: P 21/C
;
_chemical_formula_sum "Si O2"
_cell_formula_units_Z 32
_cell_length_a 11.437539
_cell_length_b 8.585502
_cell_length_c 22.631382
_cell_angle_alpha 90.000000
_cell_angle_beta 43.243415
_cell_angle_gamma 90.000000
_cell_volume 1522.519502
_symmetry_space_group_name_H-M "P 21/C"
_symmetry_group_IT_number 14
_symmetry_cell_setting 'monoclinic'
loop_
_space_group_symop_operation_xyz
x,y,z
-x,1/2+y,1/2-z
-x,-y,-z
x,1/2-y,1/2+z
loop_
_atom_site_type_symbol
_atom_site_label
_atom_site_fract_x
_atom_site_fract_y
_atom_site_fract_z
Si Si1 0.603778 0.648216 0.150200
Si Si2 0.104832 0.616559 0.263318
Si Si3 0.465950 0.831514 0.582506
Si Si4 0.147237 0.255888 0.233100
Si Si5 0.123487 0.094480 0.363679
Si Si6 0.495138 0.801726 0.442450
Si Si7 0.229031 0.659265 0.952358
Si Si8 0.235620 0.747319 0.327016
O O1 0.592699 0.728810 0.088684
O O2 0.756240 0.703416 0.137965
O O3 0.637111 0.464648 0.125187
O O4 0.424926 0.678356 0.248316
O O5 0.272262 0.696905 0.173924
O O6 0.100386 0.434696 0.254591
O O7 0.103512 0.653224 0.333995
O O8 0.941380 0.689161 0.292436
O O9 0.495885 0.739825 0.510005
O O10 0.498162 0.012612 0.559578
O O11 0.086786 0.172876 0.314712
O O12 0.347952 0.227559 0.150596
O O13 0.941291 0.072388 0.462677
O O14 0.216414 0.930396 0.318245
O O15 0.321736 0.750545 0.472230
O O16 0.186180 0.778083 0.914328
#
# Coordination Sequence:
#
# PCOD8125036 Si02
#       8
#     4   4   4   4   4   4   4   4
#     4   9  18  32  55  86 115 146 194 246 291 339
#     4  10  21  36  57  83 116 153 196 247 300 356
#     4   8  16  31  52  79 108 143 187 237 287 343
#     4  11  22  37  59  88 119 156 197 246 304 361
#     4  11  22  37  61  87 119 161 205 245 294 359
#     4   9  17  31  55  82 110 146 192 241 286 340
#     4  10  20  36  59  88 120 160 206 242 289 362
#     4  10  20  36  59  86 117 154 202 252 295 350
#
# _framework density 21.017792
#
# number of rings (size 3 to 8) (size 9 to 14) (size 15 to 20)
#    0.000    2.250    0.000    4.500    0.000    7.000 
#    0.000    0.625    0.000   25.500    0.000    0.000 
#    0.000    0.000    0.000    0.000    0.000    0.000 
#
# Total GULP energy -396508.967338 kJ/mol
# GULP energy per Si atom -12390.905229 kJ/mol
# Density = 2.096995 g / cm^3
# Si number density = 21.017792 Si / 1000 Ang^3
#
#
#
# Elastic Constant Matrix: (Units=GPa)
#
#
# Indices 1 2 3 4 5 6 
#
# 1 156.2379 11.6968 14.3416 0.0000 6.1261 0.0000
# 2 11.6968 27.8486 8.1761 0.0000 -11.4770 0.0000
# 3 14.3416 8.1761 51.9335 0.0000 -1.6393 0.0000
# 4 0.0000 0.0000 0.0000 22.4802 0.0000 -2.5532
# 5 6.1261 -11.4770 -1.6393 0.0000 39.1696 0.0000
# 6 0.0000 0.0000 0.0000 -2.5532 0.0000 24.1612
#
#
#
# Elastic Compliance Matrix: (Units=1/GPa)
#
#
# Indices 1 2 3 4 5 6 
#
# 1 0.006865 -0.003330 -0.001438 0.000000 -0.002110 0.000000
# 2 -0.003330 0.044454 -0.005659 0.000000 0.013309 0.000000
# 3 -0.001438 -0.005659 0.020525 0.000000 -0.000574 0.000000
# 4 0.000000 0.000000 0.000000 0.045024 0.000000 0.004758
# 5 -0.002110 0.013309 -0.000574 0.000000 0.029736 0.000000
# 6 0.000000 0.000000 0.000000 0.004758 0.000000 0.041891
#
#
# Mechanical properties :
#
#
# Convention : Reuss Voigt Hill
#
# Bulk Modulus (GPa) = 19.61197 33.82767 26.71982
# Shear Modulus (GPa) = 22.09017 30.61591 26.35304
#
# Velocity S-wave (km/s) = 3.24546 3.82077 3.54481
# Velocity P-wave (km/s) = 4.83688 5.96608 5.43091
#
# Compressibility (1/GPa) = 0.05098927
#
# Stress axis : x y z
#
# Youngs Moduli (GPa) = 145.67608 22.49532 48.72057
#
# Poissons Ratio (x) = 0.07492 0.07006
# Poissons Ratio (y) = 0.48517 0.27569
# Poissons Ratio (z) = 0.20947 0.12729
#
# Static dielectric constant tensor:
#      x y z
#    x 4.574790 0.000000 0.329590 
#    y 0.000000 3.259070 0.000000 
#    z 0.329590 0.000000 3.789920 
# 
# 
# High freq. dielectric constant tensor:
#      x y z
#    x 1.859470 0.000000 0.013810 
#    y 0.000000 1.763550 0.000000 
#    z 0.013810 0.000000 1.814340 
# 
# From -- ./inp_files/73090.got.cif
#   From: 2010.03.12/outbox.cif.g09.slc.cpg/sg14_37_cif.got.tgz:73090.got - 2010.03.31 13:35:05.
