data_PCOD8125536
_publ_section_title
;
Structure prediction by ZEFSAII (Michael W. Deem and Ramdas Pophale) SiO2 
 PCOD8125536
Probable space group: P 21/C
;
_chemical_formula_sum "Si O2"
_cell_formula_units_Z 28
_cell_length_a 5.603738
_cell_length_b 18.625552
_cell_length_c 14.391252
_cell_angle_alpha 90.000000
_cell_angle_beta 116.134654
_cell_angle_gamma 90.000000
_cell_volume 1348.486009
_symmetry_space_group_name_H-M "P 21/C"
_symmetry_group_IT_number 14
_symmetry_cell_setting 'monoclinic'
loop_
_space_group_symop_operation_xyz
x,y,z
-x,1/2+y,1/2-z
-x,-y,-z
x,1/2-y,1/2+z
loop_
_atom_site_type_symbol
_atom_site_label
_atom_site_fract_x
_atom_site_fract_y
_atom_site_fract_z
Si Si1 0.057102 0.732176 0.953225
Si Si2 0.668817 0.665362 0.763428
Si Si3 0.105964 0.911688 0.212902
Si Si4 0.461544 0.693348 0.167181
Si Si5 0.705475 0.320144 0.655782
Si Si6 0.166364 0.126552 0.016179
Si Si7 0.151138 0.072872 0.212970
O O1 0.160278 0.750617 0.867445
O O2 0.778277 0.692090 0.883745
O O3 0.037349 0.808410 0.001463
O O4 0.249163 0.682742 0.048140
O O5 0.389086 0.626466 0.739922
O O6 0.626495 0.732338 0.684686
O O7 0.907566 0.618693 0.758163
O O8 0.175242 0.992668 0.255639
O O9 0.931482 0.917293 0.089139
O O10 0.329649 0.703229 0.244703
O O11 0.640789 0.622574 0.195678
O O12 0.448263 0.335737 0.548940
O O13 0.863970 0.394687 0.683471
O O14 0.200420 0.074271 0.110508
#
# Coordination Sequence:
#
# PCOD8125536 Si02
#       7
#     4   4   4   4   4   4   4
#     4  11  22  39  64 103 127 174 229 286 321 399
#     4  12  25  44  66 101 133 173 231 275 328 402
#     4  12  27  43  67 100 141 178 215 286 342 394
#     4  11  22  42  70  94 134 182 222 279 336 395
#     4  10  20  39  66  97 133 171 226 274 340 399
#     4  10  21  37  68  95 135 171 221 279 347 394
#     4  10  24  42  63  98 136 178 222 272 342 412
#
# _framework density 20.764029000000001
#
# number of rings (size 3 to 8) (size 9 to 14) (size 15 to 20)
#    0.000    1.143    5.714    2.143    6.000    1.714 
#    0.000    1.429    0.000    0.000    0.000    0.000 
#    0.000    0.000    0.000    0.000    0.000    0.000 
#
# Total GULP energy -346995.283535 kJ/mol
# GULP energy per Si atom -12392.688698 kJ/mol
# Density = 2.071677 g / cm^3
# Si number density = 20.764029 Si / 1000 Ang^3
#
#
#
# Elastic Constant Matrix: (Units=GPa)
#
#
# Indices 1 2 3 4 5 6 
#
# 1 98.4098 25.8359 24.1597 0.0000 5.6792 0.0000
# 2 25.8359 96.4186 39.5956 0.0000 2.9455 0.0000
# 3 24.1597 39.5956 94.4427 0.0000 27.2495 0.0000
# 4 0.0000 0.0000 0.0000 26.0343 0.0000 8.6417
# 5 5.6792 2.9455 27.2495 0.0000 21.7403 0.0000
# 6 0.0000 0.0000 0.0000 8.6417 0.0000 20.1825
#
#
#
# Elastic Compliance Matrix: (Units=1/GPa)
#
#
# Indices 1 2 3 4 5 6 
#
# 1 0.011220 -0.002242 -0.001836 0.000000 -0.000326 0.000000
# 2 -0.002242 0.013846 -0.007612 0.000000 0.008251 0.000000
# 3 -0.001836 -0.007612 0.021639 0.000000 -0.025612 0.000000
# 4 0.000000 0.000000 0.000000 0.044775 0.000000 -0.019172
# 5 -0.000326 0.008251 -0.025612 0.000000 0.077067 0.000000
# 6 0.000000 0.000000 0.000000 -0.019172 0.000000 0.057757
#
#
# Mechanical properties :
#
#
# Convention : Reuss Voigt Hill
#
# Bulk Modulus (GPa) = 42.87366 52.05039 47.46203
# Shear Modulus (GPa) = 19.42049 26.90342 23.16195
#
# Velocity S-wave (km/s) = 3.06158 3.60345 3.34351
# Velocity P-wave (km/s) = 5.76112 6.51423 6.14922
#
# Compressibility (1/GPa) = 0.02332434
#
# Stress axis : x y z
#
# Youngs Moduli (GPa) = 89.12764 72.22148 46.21204
#
# Poissons Ratio (x) = 0.16196 0.08484
# Poissons Ratio (y) = 0.19987 0.35177
# Poissons Ratio (z) = 0.16364 0.54976
#
# Static dielectric constant tensor:
#      x y z
#    x 3.943750 0.000000 0.135640 
#    y 0.000000 3.569570 0.000000 
#    z 0.135640 0.000000 3.596160 
# 
# 
# High freq. dielectric constant tensor:
#      x y z
#    x 1.821400 0.000000 0.016150 
#    y 0.000000 1.796760 0.000000 
#    z 0.016150 0.000000 1.803400 
# 
# From -- ./inp_files/37570.got.cif
#   From: 2010.03.12/outbox.cif.g09.slc.cpg/sg14_19_cif.got.tgz:37570.got - 2010.03.31 13:35:05.
