data_PCOD8125410
_publ_section_title
;
Structure prediction by ZEFSAII (Michael W. Deem and Ramdas Pophale) SiO2 
 PCOD8125410
Probable space group: P 21/C
;
_chemical_formula_sum "Si O2"
_cell_formula_units_Z 20
_cell_length_a 5.525040
_cell_length_b 7.177491
_cell_length_c 23.264547
_cell_angle_alpha 90.000000
_cell_angle_beta 120.820590
_cell_angle_gamma 90.000000
_cell_volume 792.286941
_symmetry_space_group_name_H-M "P 21/C"
_symmetry_group_IT_number 14
_symmetry_cell_setting 'monoclinic'
loop_
_space_group_symop_operation_xyz
x,y,z
-x,1/2+y,1/2-z
-x,-y,-z
x,1/2-y,1/2+z
loop_
_atom_site_type_symbol
_atom_site_label
_atom_site_fract_x
_atom_site_fract_y
_atom_site_fract_z
Si Si1 0.362587 0.822651 0.953265
Si Si2 0.654506 0.138574 0.728365
Si Si3 0.968157 0.720359 0.502166
Si Si4 0.363413 0.788440 0.649550
Si Si5 0.225813 0.989618 0.823585
O O1 0.159893 0.890860 0.876700
O O2 0.164164 0.701421 0.972980
O O3 0.638329 0.713134 0.960236
O O4 0.500000 0.000000 0.000000
O O5 0.651156 0.158576 0.796312
O O6 0.604771 0.337957 0.693355
O O7 0.421502 0.000525 0.674287
O O8 0.954808 0.041522 0.752328
O O9 0.081223 0.791254 0.577413
O O10 0.000000 0.500000 0.500000
O O11 0.602826 0.680059 0.641946
#
# Coordination Sequence:
#
# PCOD8125410 Si02
#       5
#     4   4   4   4   4
#     4  10  20  38  67  94 127 184 224 275 348 404
#     4  12  26  42  66 106 130 188 222 288 346 414
#     4  10  20  38  67  94 127 184 224 275 348 404
#     4  12  24  42  68  97 139 173 232 282 342 413
#     4  12  24  42  68  97 139 173 232 282 342 413
#
# _framework density 25.243378
#
# number of rings (size 3 to 8) (size 9 to 14) (size 15 to 20)
#    0.000    0.800    8.000    2.400    0.000    0.000 
#    0.000    2.000    0.000    0.000    0.000    0.000 
#    0.000    0.000    0.000    0.000    0.000    0.000 
#
# Total GULP energy -247826.954689 kJ/mol
# GULP energy per Si atom -12391.347734 kJ/mol
# Density = 2.518592 g / cm^3
# Si number density = 25.243378 Si / 1000 Ang^3
#
#
#
# Elastic Constant Matrix: (Units=GPa)
#
#
# Indices 1 2 3 4 5 6 
#
# 1 128.0357 5.1106 1.7323 0.0000 -12.3376 0.0000
# 2 5.1106 70.7266 -11.9750 0.0000 -1.3841 0.0000
# 3 1.7323 -11.9750 62.0534 0.0000 -17.3188 0.0000
# 4 0.0000 0.0000 0.0000 12.7073 0.0000 1.8549
# 5 -12.3376 -1.3841 -17.3188 0.0000 36.8579 0.0000
# 6 0.0000 0.0000 0.0000 1.8549 0.0000 21.4678
#
#
#
# Elastic Compliance Matrix: (Units=1/GPa)
#
#
# Indices 1 2 3 4 5 6 
#
# 1 0.008104 -0.000442 0.000507 0.000000 0.002934 0.000000
# 2 -0.000442 0.014791 0.003430 0.000000 0.002019 0.000000
# 3 0.000507 0.003430 0.019389 0.000000 0.009409 0.000000
# 4 0.000000 0.000000 0.000000 0.079700 0.000000 -0.006886
# 5 0.002934 0.002019 0.009409 0.000000 0.032610 0.000000
# 6 0.000000 0.000000 0.000000 -0.006886 0.000000 0.047176
#
#
# Mechanical properties :
#
#
# Convention : Reuss Voigt Hill
#
# Bulk Modulus (GPa) = 20.29424 27.83905 24.06664
# Shear Modulus (GPa) = 23.67369 31.93648 27.80508
#
# Velocity S-wave (km/s) = 3.06570 3.56074 3.32246
# Velocity P-wave (km/s) = 4.53743 5.28747 4.92675
#
# Compressibility (1/GPa) = 0.04927508
#
# Stress axis : x y z
#
# Youngs Moduli (GPa) = 123.39774 67.60772 51.57561
#
# Poissons Ratio (x) = 0.02990 -0.02617
# Poissons Ratio (y) = 0.05457 -0.17692
# Poissons Ratio (z) = -0.06262 -0.23191
#
# Static dielectric constant tensor:
#      x y z
#    x 4.085090 0.000000 -0.070020 
#    y 0.000000 4.036650 0.000000 
#    z -0.070020 0.000000 4.611500 
# 
# 
# High freq. dielectric constant tensor:
#      x y z
#    x 2.000610 0.000000 -0.004260 
#    y 0.000000 1.978070 0.000000 
#    z -0.004260 0.000000 2.015480 
# 
# From -- ./inp_files/62930.got.cif
#   From: 2010.03.12/outbox.cif.g09.slc.cpg/sg14_32_cif.got.tgz:62930.got - 2010.03.31 13:35:05.
