data_PCOD8125184
_publ_section_title
;
Structure prediction by ZEFSAII (Michael W. Deem and Ramdas Pophale) SiO2 
 PCOD8125184
Probable space group: P 21/C
;
_chemical_formula_sum "Si O2"
_cell_formula_units_Z 28
_cell_length_a 10.904942
_cell_length_b 5.124121
_cell_length_c 23.897998
_cell_angle_alpha 90.000000
_cell_angle_beta 106.338349
_cell_angle_gamma 90.000000
_cell_volume 1281.451845
_symmetry_space_group_name_H-M "P 21/C"
_symmetry_group_IT_number 14
_symmetry_cell_setting 'monoclinic'
loop_
_space_group_symop_operation_xyz
x,y,z
-x,1/2+y,1/2-z
-x,-y,-z
x,1/2-y,1/2+z
loop_
_atom_site_type_symbol
_atom_site_label
_atom_site_fract_x
_atom_site_fract_y
_atom_site_fract_z
Si Si1 0.072483 0.664944 0.278247
Si Si2 0.520161 0.254639 0.824315
Si Si3 0.143007 0.908173 0.909539
Si Si4 0.635962 0.243811 0.220467
Si Si5 0.882717 0.594713 0.020657
Si Si6 0.416429 0.807120 0.955288
Si Si7 0.627509 0.498411 0.941649
O O1 0.066180 0.576283 0.342092
O O2 0.215517 0.710556 0.274429
O O3 0.005750 0.434247 0.235234
O O4 0.449323 0.979263 0.819481
O O5 0.617444 0.274853 0.784948
O O6 0.609813 0.282163 0.891098
O O7 0.411287 0.475654 0.806890
O O8 0.293494 0.952416 0.913375
O O9 0.134411 0.620177 0.933594
O O10 0.093221 0.126680 0.946418
O O11 0.767877 0.629564 0.959796
O O12 0.000000 0.500000 0.000000
O O13 0.506009 0.690966 0.917666
O O14 0.371770 0.593819 0.994125
O O15 0.500000 0.000000 0.000000
#
# Coordination Sequence:
#
# PCOD8125184 Si02
#       7
#     4   4   4   4   4   4   4
#     4  12  26  43  67  94 127 174 223 261 315 383
#     4  10  22  39  65  91 124 168 202 271 320 371
#     4  11  24  42  66  91 129 167 208 270 316 363
#     4  10  23  43  61  92 127 159 218 263 320 365
#     4  11  24  43  62  93 131 168 208 252 316 390
#     4  10  20  37  60  94 123 152 202 258 310 374
#     4  10  22  34  61  94 122 161 206 247 320 378
#
# _framework density 21.850218999999999
#
# number of rings (size 3 to 8) (size 9 to 14) (size 15 to 20)
#    0.000    1.429    1.429    3.000    4.000    2.286 
#    0.000    0.000    0.000    0.000    0.000    0.000 
#    0.000    0.000    0.000    0.000    0.000    0.000 
#
# Total GULP energy -347046.477831 kJ/mol
# GULP energy per Si atom -12394.517065 kJ/mol
# Density = 2.180049 g / cm^3
# Si number density = 21.850219 Si / 1000 Ang^3
#
#
#
# Elastic Constant Matrix: (Units=GPa)
#
#
# Indices 1 2 3 4 5 6 
#
# 1 106.6436 7.0457 35.7912 0.0000 -5.3461 0.0000
# 2 7.0457 84.5106 9.5113 0.0000 -2.6454 0.0000
# 3 35.7912 9.5113 86.6787 0.0000 7.8262 0.0000
# 4 0.0000 0.0000 0.0000 34.0767 0.0000 -0.0669
# 5 -5.3461 -2.6454 7.8262 0.0000 16.3976 0.0000
# 6 0.0000 0.0000 0.0000 -0.0669 0.0000 26.5073
#
#
#
# Elastic Compliance Matrix: (Units=1/GPa)
#
#
# Indices 1 2 3 4 5 6 
#
# 1 0.011473 -0.000167 -0.005282 0.000000 0.006235 0.000000
# 2 -0.000167 0.012097 -0.001494 0.000000 0.002610 0.000000
# 3 -0.005282 -0.001494 0.014692 0.000000 -0.008975 0.000000
# 4 0.000000 0.000000 0.000000 0.029346 0.000000 0.000074
# 5 0.006235 0.002610 -0.008975 0.000000 0.067722 0.000000
# 6 0.000000 0.000000 0.000000 0.000074 0.000000 0.037726
#
#
# Mechanical properties :
#
#
# Convention : Reuss Voigt Hill
#
# Bulk Modulus (GPa) = 41.02415 42.50326 41.76371
# Shear Modulus (GPa) = 25.63215 30.42863 28.03039
#
# Velocity S-wave (km/s) = 3.42875 3.73580 3.58556
# Velocity P-wave (km/s) = 5.87290 6.17273 6.02468
#
# Compressibility (1/GPa) = 0.02437588
#
# Stress axis : x y z
#
# Youngs Moduli (GPa) = 87.15819 82.66776 68.06279
#
# Poissons Ratio (x) = 0.01380 0.35952
# Poissons Ratio (y) = 0.01455 0.10169
# Poissons Ratio (z) = 0.46039 0.12352
#
# Static dielectric constant tensor:
#      x y z
#    x 3.967370 0.000000 0.256530 
#    y 0.000000 3.941500 0.000000 
#    z 0.256530 0.000000 3.779180 
# 
# 
# High freq. dielectric constant tensor:
#      x y z
#    x 1.857680 0.000000 0.002330 
#    y 0.000000 1.863450 0.000000 
#    z 0.002330 0.000000 1.863460 
# 
# From -- ./inp_files/66329.got.cif
#   From: 2010.03.12/outbox.cif.g09.slc.cpg/sg14_34_cif.got.tgz:66329.got - 2010.03.31 13:35:05.
