data_PCOD8125258
_publ_section_title
;
Structure prediction by ZEFSAII (Michael W. Deem and Ramdas Pophale) SiO2 
 PCOD8125258
Probable space group: P 21/C
;
_chemical_formula_sum "Si O2"
_cell_formula_units_Z 24
_cell_length_a 15.255741
_cell_length_b 5.092260
_cell_length_c 28.243221
_cell_angle_alpha 90.000000
_cell_angle_beta 151.060386
_cell_angle_gamma 90.000000
_cell_volume 1061.701810
_symmetry_space_group_name_H-M "P 21/C"
_symmetry_group_IT_number 14
_symmetry_cell_setting 'monoclinic'
loop_
_space_group_symop_operation_xyz
x,y,z
-x,1/2+y,1/2-z
-x,-y,-z
x,1/2-y,1/2+z
loop_
_atom_site_type_symbol
_atom_site_label
_atom_site_fract_x
_atom_site_fract_y
_atom_site_fract_z
Si Si1 0.380310 0.747761 0.933121
Si Si2 0.078952 0.823701 0.367100
Si Si3 0.156613 0.673961 0.738029
Si Si4 0.363392 0.527814 0.747362
Si Si5 0.719757 0.289790 0.939412
Si Si6 0.703131 0.777854 0.875887
O O1 0.322013 0.743778 0.850809
O O2 0.200220 0.737582 0.879160
O O3 0.500000 0.500000 0.000000
O O4 0.500000 0.000000 0.000000
O O5 0.913801 0.620129 0.286235
O O6 0.195335 0.794397 0.469054
O O7 0.004223 0.119123 0.330480
O O8 0.229828 0.683176 0.718902
O O9 0.482225 0.741717 0.773768
O O10 0.247945 0.351253 0.655302
O O11 0.502944 0.341310 0.842716
O O12 0.800464 0.514107 0.941738
O O13 0.766224 0.008741 0.940193
#
# Coordination Sequence:
#
# PCOD8125258 Si02
#       6
#     4   4   4   4   4   4
#     4  12  26  47  76 100 128 178 236 272 327 414
#     4  12  26  45  64 100 147 172 209 284 351 399
#     4  12  27  42  68 102 139 176 214 280 353 403
#     4  10  22  39  69  93 131 174 244 268 336 381
#     4  10  21  38  65  90 128 180 226 272 326 393
#     4  10  20  37  67  92 127 173 238 287 307 383
#
# _framework density 22.605219000000002
#
# number of rings (size 3 to 8) (size 9 to 14) (size 15 to 20)
#    1.000    0.000    1.667    5.000    4.667    0.000 
#    0.000    5.000    0.000    0.000    0.000    0.000 
#    0.000    0.000    0.000    0.000    0.000    0.000 
#
# Total GULP energy -297591.073032 kJ/mol
# GULP energy per Si atom -12399.628043 kJ/mol
# Density = 2.255377 g / cm^3
# Si number density = 22.605219 Si / 1000 Ang^3
#
#
#
# Elastic Constant Matrix: (Units=GPa)
#
#
# Indices 1 2 3 4 5 6 
#
# 1 116.0964 17.5936 9.9879 0.0000 -5.6835 0.0000
# 2 17.5936 120.5702 11.5020 0.0000 -2.6083 0.0000
# 3 9.9879 11.5020 47.1432 0.0000 -10.2089 0.0000
# 4 0.0000 0.0000 0.0000 48.7164 0.0000 2.2744
# 5 -5.6835 -2.6083 -10.2089 0.0000 29.8147 0.0000
# 6 0.0000 0.0000 0.0000 2.2744 0.0000 30.3699
#
#
#
# Elastic Compliance Matrix: (Units=1/GPa)
#
#
# Indices 1 2 3 4 5 6 
#
# 1 0.008962 -0.001152 -0.001371 0.000000 0.001138 0.000000
# 2 -0.001152 0.008640 -0.001888 0.000000 -0.000110 0.000000
# 3 -0.001371 -0.001888 0.023622 0.000000 0.007662 0.000000
# 4 0.000000 0.000000 0.000000 0.020599 0.000000 -0.001543
# 5 0.001138 -0.000110 0.007662 0.000000 0.036371 0.000000
# 6 0.000000 0.000000 0.000000 -0.001543 0.000000 0.033043
#
#
# Mechanical properties :
#
#
# Convention : Reuss Voigt Hill
#
# Bulk Modulus (GPa) = 30.86252 40.21963 35.54108
# Shear Modulus (GPa) = 33.14339 38.09531 35.61935
#
# Velocity S-wave (km/s) = 3.83323 4.10963 3.97383
# Velocity P-wave (km/s) = 5.76836 6.35213 6.06727
#
# Compressibility (1/GPa) = 0.03240176
#
# Stress axis : x y z
#
# Youngs Moduli (GPa) = 111.58446 115.74401 42.33300
#
# Poissons Ratio (x) = 0.13337 0.05804
# Poissons Ratio (y) = 0.12858 0.07991
# Poissons Ratio (z) = 0.15299 0.21848
#
# Static dielectric constant tensor:
#      x y z
#    x 3.724820 0.000000 -0.108620 
#    y 0.000000 4.155480 0.000000 
#    z -0.108620 0.000000 3.918860 
# 
# 
# High freq. dielectric constant tensor:
#      x y z
#    x 1.880480 0.000000 -0.020390 
#    y 0.000000 1.903340 0.000000 
#    z -0.020390 0.000000 1.889480 
# 
# From -- ./inp_files/77443.got.cif
#   From: 2010.03.12/outbox.cif.g09.slc.cpg/sg14_39_cif.got.tgz:77443.got - 2010.03.31 13:35:05.
