data_PCOD8125165
_publ_section_title
;
Structure prediction by ZEFSAII (Michael W. Deem and Ramdas Pophale) SiO2 
 PCOD8125165
Probable space group: P 21/C
;
_chemical_formula_sum "Si O2"
_cell_formula_units_Z 28
_cell_length_a 7.277418
_cell_length_b 9.222189
_cell_length_c 18.869963
_cell_angle_alpha 90.000000
_cell_angle_beta 74.547287
_cell_angle_gamma 90.000000
_cell_volume 1220.652784
_symmetry_space_group_name_H-M "P 21/C"
_symmetry_group_IT_number 14
_symmetry_cell_setting 'monoclinic'
loop_
_space_group_symop_operation_xyz
x,y,z
-x,1/2+y,1/2-z
-x,-y,-z
x,1/2-y,1/2+z
loop_
_atom_site_type_symbol
_atom_site_label
_atom_site_fract_x
_atom_site_fract_y
_atom_site_fract_z
Si Si1 0.900111 0.086305 0.775745
Si Si2 0.773541 0.382483 0.607522
Si Si3 0.589409 0.600431 0.092327
Si Si4 0.115206 0.221123 0.153199
Si Si5 0.173939 0.194464 0.854933
Si Si6 0.518325 0.289371 0.045737
Si Si7 0.443007 0.738200 0.236597
O O1 0.687392 0.126910 0.774868
O O2 0.043257 0.130827 0.697520
O O3 0.969225 0.178023 0.838317
O O4 0.908316 0.914170 0.789222
O O5 0.787567 0.554613 0.600296
O O6 0.682358 0.330062 0.542593
O O7 0.630200 0.335630 0.685125
O O8 0.980346 0.311893 0.599451
O O9 0.797361 0.665029 0.096565
O O10 0.606490 0.433507 0.071927
O O11 0.440468 0.621386 0.172234
O O12 0.512828 0.692995 0.033948
O O13 0.326942 0.240668 0.104248
O O14 0.340302 0.202127 0.776477
#
# Coordination Sequence:
#
# PCOD8125165 Si02
#       7
#     4   4   4   4   4   4   4
#     4  10  20  37  59  92 118 152 194 245 309 333
#     4  10  21  36  62  87 114 150 205 237 309 333
#     4   9  24  40  60  83 120 161 202 231 305 351
#     4  10  23  36  61  90 120 151 198 247 291 366
#     4   9  20  37  56  88 113 153 195 245 287 355
#     4  11  22  44  57  85 122 161 191 252 290 357
#     4   9  20  36  58  89 114 153 195 242 292 358
#
# _framework density 22.938547
#
# number of rings (size 3 to 8) (size 9 to 14) (size 15 to 20)
#    0.857    1.429    0.000    1.714    8.000    2.857 
#    2.571    2.857    0.000    0.000    0.000    0.000 
#    0.000    0.000    0.000    0.000    0.000    0.000 
#
# Total GULP energy -346942.742014 kJ/mol
# GULP energy per Si atom -12390.812215 kJ/mol
# Density = 2.288634 g / cm^3
# Si number density = 22.938547 Si / 1000 Ang^3
#
#
#
# Elastic Constant Matrix: (Units=GPa)
#
#
# Indices 1 2 3 4 5 6 
#
# 1 50.2752 16.2215 3.5708 0.0000 6.8942 0.0000
# 2 16.2215 62.8944 6.2232 0.0000 0.2851 0.0000
# 3 3.5708 6.2232 32.6942 0.0000 7.2670 0.0000
# 4 0.0000 0.0000 0.0000 33.6787 0.0000 11.7715
# 5 6.8942 0.2851 7.2670 0.0000 9.1725 0.0000
# 6 0.0000 0.0000 0.0000 11.7715 0.0000 29.0731
#
#
#
# Elastic Compliance Matrix: (Units=1/GPa)
#
#
# Indices 1 2 3 4 5 6 
#
# 1 0.024645 -0.006578 0.003195 0.000000 -0.020851 0.000000
# 2 -0.006578 0.018003 -0.004470 0.000000 0.007926 0.000000
# 3 0.003195 -0.004470 0.038343 0.000000 -0.032640 0.000000
# 4 0.000000 0.000000 0.000000 0.034587 0.000000 -0.014004
# 5 -0.020851 0.007926 -0.032640 0.000000 0.150306 0.000000
# 6 0.000000 0.000000 0.000000 -0.014004 0.000000 0.040066
#
#
# Mechanical properties :
#
#
# Convention : Reuss Voigt Hill
#
# Bulk Modulus (GPa) = 15.31747 21.98833 18.65290
# Shear Modulus (GPa) = 14.55947 22.37473 18.46710
#
# Velocity S-wave (km/s) = 2.52209 3.12656 2.84045
# Velocity P-wave (km/s) = 3.89530 4.75819 4.34820
#
# Compressibility (1/GPa) = 0.06528493
#
# Stress axis : x y z
#
# Youngs Moduli (GPa) = 40.57574 55.54749 26.08008
#
# Poissons Ratio (x) = 0.36539 -0.08332
# Poissons Ratio (y) = 0.26691 0.11658
# Poissons Ratio (z) = -0.12963 0.24830
#
# Static dielectric constant tensor:
#      x y z
#    x 4.168710 0.000000 0.325620 
#    y 0.000000 3.996040 0.000000 
#    z 0.325620 0.000000 3.916250 
# 
# 
# High freq. dielectric constant tensor:
#      x y z
#    x 1.902770 0.000000 0.026360 
#    y 0.000000 1.902110 0.000000 
#    z 0.026360 0.000000 1.884020 
# 
# From -- ./inp_files/64565.got.cif
#   From: 2010.03.12/outbox.cif.g09.slc.cpg/sg14_33_cif.got.tgz:64565.got - 2010.03.31 13:35:05.
