data_PCOD8125141
_publ_section_title
;
Structure prediction by ZEFSAII (Michael W. Deem and Ramdas Pophale) SiO2 
 PCOD8125141
Probable space group: P 21/C
;
_chemical_formula_sum "Si O2"
_cell_formula_units_Z 28
_cell_length_a 21.161284
_cell_length_b 4.993653
_cell_length_c 13.372674
_cell_angle_alpha 90.000000
_cell_angle_beta 76.956535
_cell_angle_gamma 90.000000
_cell_volume 1376.658985
_symmetry_space_group_name_H-M "P 21/C"
_symmetry_group_IT_number 14
_symmetry_cell_setting 'monoclinic'
loop_
_space_group_symop_operation_xyz
x,y,z
-x,1/2+y,1/2-z
-x,-y,-z
x,1/2-y,1/2+z
loop_
_atom_site_type_symbol
_atom_site_label
_atom_site_fract_x
_atom_site_fract_y
_atom_site_fract_z
Si Si1 0.232296 0.508351 0.999024
Si Si2 0.831408 0.994464 0.888855
Si Si3 0.571483 0.451193 0.434894
Si Si4 0.924317 0.455950 0.533256
Si Si5 0.504135 0.830149 0.692031
Si Si6 0.622472 0.568648 0.010639
Si Si7 0.860019 0.535196 0.145706
O O1 0.306848 0.420945 0.966337
O O2 0.205816 0.509683 0.894798
O O3 0.193152 0.303203 0.082084
O O4 0.223525 0.795518 0.055625
O O5 0.845659 0.019321 0.766608
O O6 0.896503 0.044627 0.930164
O O7 0.500000 0.500000 0.500000
O O8 0.559709 0.317932 0.331016
O O9 0.614680 0.724000 0.419259
O O10 0.608470 0.235746 0.489332
O O11 0.888034 0.669555 0.617002
O O12 0.000000 0.500000 0.500000
O O13 0.914333 0.169677 0.588120
O O14 0.516016 0.640429 0.784497
O O15 0.569718 0.814678 0.605888
#
# Coordination Sequence:
#
# PCOD8125141 Si02
#       7
#     4   4   4   4   4   4   4
#     4  10  22  40  59  83 118 154 203 244 293 348
#     4  10  21  39  61  85 120 164 196 246 295 337
#     4  10  20  37  59  76 107 148 179 223 300 356
#     4  10  21  36  60  93 124 159 199 241 292 346
#     4  11  21  36  56  84 114 140 181 241 301 352
#     4  11  21  39  59  80 110 151 190 237 293 362
#     4  10  21  39  60  85 124 158 197 248 288 341
#
# _framework density 20.339096999999999
#
# number of rings (size 3 to 8) (size 9 to 14) (size 15 to 20)
#    0.000    1.714    0.000    6.429    0.000    1.143 
#    7.714    0.000    0.000    0.000    0.000    0.000 
#    0.000    0.000    0.000    0.000    0.000    0.000 
#
# Total GULP energy -347092.073319 kJ/mol
# GULP energy per Si atom -12396.145476 kJ/mol
# Density = 2.029280 g / cm^3
# Si number density = 20.339097 Si / 1000 Ang^3
#
#
#
# Elastic Constant Matrix: (Units=GPa)
#
#
# Indices 1 2 3 4 5 6 
#
# 1 120.1311 17.3165 40.7352 0.0000 11.4794 0.0000
# 2 17.3165 87.0607 11.1745 0.0000 5.4779 0.0000
# 3 40.7352 11.1745 110.8452 0.0000 10.7542 0.0000
# 4 0.0000 0.0000 0.0000 27.9589 0.0000 5.8223
# 5 11.4794 5.4779 10.7542 0.0000 14.4956 0.0000
# 6 0.0000 0.0000 0.0000 5.8223 0.0000 30.9472
#
#
#
# Elastic Compliance Matrix: (Units=1/GPa)
#
#
# Indices 1 2 3 4 5 6 
#
# 1 0.010042 -0.001278 -0.003057 0.000000 -0.005202 0.000000
# 2 -0.001278 0.011997 -0.000429 0.000000 -0.003204 0.000000
# 3 -0.003057 -0.000429 0.010708 0.000000 -0.005362 0.000000
# 4 0.000000 0.000000 0.000000 0.037225 0.000000 -0.007003
# 5 -0.005202 -0.003204 -0.005362 0.000000 0.078294 0.000000
# 6 0.000000 0.000000 0.000000 -0.007003 0.000000 0.033631
#
#
# Mechanical properties :
#
#
# Convention : Reuss Voigt Hill
#
# Bulk Modulus (GPa) = 43.06623 50.72104 46.89364
# Shear Modulus (GPa) = 25.10482 31.26774 28.18628
#
# Velocity S-wave (km/s) = 3.51709 3.92512 3.72670
# Velocity P-wave (km/s) = 6.14112 6.74789 6.45164
#
# Compressibility (1/GPa) = 0.02322005
#
# Stress axis : x y z
#
# Youngs Moduli (GPa) = 99.58116 83.35410 93.38428
#
# Poissons Ratio (x) = 0.10650 0.28547
# Poissons Ratio (y) = 0.12724 0.04007
# Poissons Ratio (z) = 0.30441 0.03577
#
# Static dielectric constant tensor:
#      x y z
#    x 3.728790 0.000000 0.393260 
#    y 0.000000 4.087090 0.000000 
#    z 0.393260 0.000000 3.696700 
# 
# 
# High freq. dielectric constant tensor:
#      x y z
#    x 1.780450 0.000000 0.019910 
#    y 0.000000 1.823910 0.000000 
#    z 0.019910 0.000000 1.779830 
# 
# From -- ./inp_files/34586.got.cif
#   From: 2010.03.12/outbox.cif.g09.slc.cpg/sg14_18_cif.got.tgz:34586.got - 2010.03.31 13:35:05.
