data_PCOD8125785
_publ_section_title
;
Structure prediction by ZEFSAII (Michael W. Deem and Ramdas Pophale) SiO2 
 PCOD8125785
Probable space group: P 21/C
;
_chemical_formula_sum "Si O2"
_cell_formula_units_Z 28
_cell_length_a 5.246740
_cell_length_b 19.859552
_cell_length_c 11.421987
_cell_angle_alpha 90.000000
_cell_angle_beta 79.329564
_cell_angle_gamma 90.000000
_cell_volume 1169.567659
_symmetry_space_group_name_H-M "P 21/C"
_symmetry_group_IT_number 14
_symmetry_cell_setting 'monoclinic'
loop_
_space_group_symop_operation_xyz
x,y,z
-x,1/2+y,1/2-z
-x,-y,-z
x,1/2-y,1/2+z
loop_
_atom_site_type_symbol
_atom_site_label
_atom_site_fract_x
_atom_site_fract_y
_atom_site_fract_z
Si Si1 0.947830 0.971217 0.812802
Si Si2 0.408682 0.771635 0.261946
Si Si3 0.781658 0.520212 0.928654
Si Si4 0.590196 0.857437 0.847273
Si Si5 0.793114 0.790617 0.035913
Si Si6 0.863404 0.823416 0.384758
Si Si7 0.842896 0.405849 0.467199
O O1 0.051488 0.939266 0.922843
O O2 0.729900 0.921355 0.773640
O O3 0.174537 0.981552 0.698675
O O4 0.827076 0.043692 0.858260
O O5 0.412520 0.688929 0.277151
O O6 0.516621 0.789951 0.124538
O O7 0.599712 0.801877 0.342318
O O8 0.124787 0.804225 0.291384
O O9 0.825336 0.598427 0.906227
O O10 0.500000 0.500000 0.000000
O O11 0.000000 0.500000 0.000000
O O12 0.445204 0.884482 0.976029
O O13 0.797490 0.810477 0.896709
O O14 0.889056 0.712924 0.011812
O O15 0.987787 0.840856 0.086670
#
# Coordination Sequence:
#
# PCOD8125785 Si02
#       7
#     4   4   4   4   4   4   4
#     4  10  24  40  70 100 139 188 230 303 349 431
#     4  11  24  41  72  97 139 178 223 292 350 424
#     4  12  29  49  70 101 143 195 242 286 355 439
#     4  10  22  41  65 105 132 176 235 287 363 418
#     4  10  23  39  67 100 134 181 228 295 353 425
#     4  11  25  47  64 103 133 180 234 281 349 421
#     4  10  20  43  68 102 138 173 242 291 372 408
#
# _framework density 23.940470999999999
#
# number of rings (size 3 to 8) (size 9 to 14) (size 15 to 20)
#    0.000    1.429    1.429    2.143    8.000    0.000 
#    0.000    0.000    0.000    0.000    0.000    0.000 
#    0.000    0.000    0.000    0.000    0.000    0.000 
#
# Total GULP energy -346882.230837 kJ/mol
# GULP energy per Si atom -12388.651101 kJ/mol
# Density = 2.388598 g / cm^3
# Si number density = 23.940471 Si / 1000 Ang^3
#
#
#
# Elastic Constant Matrix: (Units=GPa)
#
#
# Indices 1 2 3 4 5 6 
#
# 1 78.5445 35.2998 21.8903 0.0000 -23.0591 0.0000
# 2 35.2998 135.4753 54.1693 0.0000 -23.0337 0.0000
# 3 21.8903 54.1693 109.9929 0.0000 -39.9005 0.0000
# 4 0.0000 0.0000 0.0000 27.2117 0.0000 -7.9897
# 5 -23.0591 -23.0337 -39.9005 0.0000 46.5508 0.0000
# 6 0.0000 0.0000 0.0000 -7.9897 0.0000 33.5217
#
#
#
# Elastic Compliance Matrix: (Units=1/GPa)
#
#
# Indices 1 2 3 4 5 6 
#
# 1 0.016073 -0.003398 0.001093 0.000000 0.007217 0.000000
# 2 -0.003398 0.009940 -0.004420 0.000000 -0.000553 0.000000
# 3 0.001093 -0.004420 0.015171 0.000000 0.011358 0.000000
# 4 0.000000 0.000000 0.000000 0.039514 0.000000 0.009418
# 5 0.007217 -0.000553 0.011358 0.000000 0.034519 0.000000
# 6 0.000000 0.000000 0.000000 0.009418 0.000000 0.032076
#
#
# Mechanical properties :
#
#
# Convention : Reuss Voigt Hill
#
# Bulk Modulus (GPa) = 36.05685 60.74796 48.40240
# Shear Modulus (GPa) = 29.41409 35.63372 32.52391
#
# Velocity S-wave (km/s) = 3.50899 3.86220 3.68983
# Velocity P-wave (km/s) = 5.61347 6.73190 6.19797
#
# Compressibility (1/GPa) = 0.02773398
#
# Stress axis : x y z
#
# Youngs Moduli (GPa) = 62.21622 100.60463 65.91653
#
# Poissons Ratio (x) = 0.34184 -0.07202
# Poissons Ratio (y) = 0.21140 0.29132
# Poissons Ratio (z) = -0.06798 0.44463
#
# Static dielectric constant tensor:
#      x y z
#    x 4.136700 0.000000 -0.148770 
#    y 0.000000 5.109480 0.000000 
#    z -0.148770 0.000000 4.321960 
# 
# 
# High freq. dielectric constant tensor:
#      x y z
#    x 1.932320 0.000000 -0.014310 
#    y 0.000000 1.974320 0.000000 
#    z -0.014310 0.000000 1.943970 
# 
# From -- ./inp_files/21675.got.cif
#   From: 2010.03.12/outbox.cif.g09.slc.cpg/sg14_11_cif.got.tgz:21675.got - 2010.03.31 13:35:05.
