data_PCOD8125027
_publ_section_title
;
Structure prediction by ZEFSAII (Michael W. Deem and Ramdas Pophale) SiO2 
 PCOD8125027
Probable space group: P 21/C
;
_chemical_formula_sum "Si O2"
_cell_formula_units_Z 32
_cell_length_a 21.131697
_cell_length_b 14.039651
_cell_length_c 15.727541
_cell_angle_alpha 90.000000
_cell_angle_beta 159.884454
_cell_angle_gamma 90.000000
_cell_volume 1604.730035
_symmetry_space_group_name_H-M "P 21/C"
_symmetry_group_IT_number 14
_symmetry_cell_setting 'monoclinic'
loop_
_space_group_symop_operation_xyz
x,y,z
-x,1/2+y,1/2-z
-x,-y,-z
x,1/2-y,1/2+z
loop_
_atom_site_type_symbol
_atom_site_label
_atom_site_fract_x
_atom_site_fract_y
_atom_site_fract_z
Si Si1 0.285418 0.294379 0.677059
Si Si2 0.210736 0.494783 0.530478
Si Si3 0.091172 0.684003 0.711125
Si Si4 0.637737 0.276784 0.716009
Si Si5 0.909407 0.363630 0.481410
Si Si6 0.281035 0.356843 0.036051
Si Si7 0.644437 0.333473 0.391608
Si Si8 0.193119 0.552677 0.991684
O O1 0.333622 0.400592 0.703239
O O2 0.212141 0.230143 0.507581
O O3 0.126687 0.303004 0.547818
O O4 0.467053 0.241434 0.939004
O O5 0.180035 0.545416 0.583574
O O6 0.310109 0.561955 0.587522
O O7 0.016804 0.464787 0.243343
O O8 0.129208 0.637593 0.667421
O O9 0.185584 0.610804 0.894365
O O10 0.184030 0.787952 0.840489
O O11 0.823600 0.230011 0.915228
O O12 0.582377 0.233757 0.736669
O O13 0.688474 0.388412 0.789508
O O14 0.128630 0.366395 0.770452
O O15 0.479144 0.337809 0.248339
O O16 0.295584 0.452885 0.109443
#
# Coordination Sequence:
#
# PCOD8125027 Si02
#       8
#     4   4   4   4   4   4   4   4
#     4  11  22  37  59  83 113 150 189 233 280 330
#     4   9  20  37  59  83 112 149 188 233 279 331
#     4  10  20  37  59  85 115 146 183 233 285 335
#     4  10  21  37  57  83 114 147 184 234 283 333
#     4  10  20  36  59  85 113 145 186 232 282 334
#     4  11  22  36  57  82 111 151 190 231 279 334
#     4  10  21  37  57  84 115 145 185 231 282 337
#     4   9  20  38  57  78 111 148 185 230 282 334
#
# _framework density 19.941049
#
# number of rings (size 3 to 8) (size 9 to 14) (size 15 to 20)
#    0.000    2.000    0.000    5.250    0.000   11.000 
#    0.000    1.250    0.000    5.250    0.000    0.000 
#    0.000    0.000    0.000    0.000    0.000    0.000 
#
# Total GULP energy -396776.108888 kJ/mol
# GULP energy per Si atom -12399.253403 kJ/mol
# Density = 1.989566 g / cm^3
# Si number density = 19.941049 Si / 1000 Ang^3
#
#
#
# Elastic Constant Matrix: (Units=GPa)
#
#
# Indices 1 2 3 4 5 6 
#
# 1 67.3228 44.0818 15.0946 0.0000 8.4647 0.0000
# 2 44.0818 115.7309 28.0928 0.0000 -2.7329 0.0000
# 3 15.0946 28.0928 66.5357 0.0000 -1.1179 0.0000
# 4 0.0000 0.0000 0.0000 33.0929 0.0000 -3.0554
# 5 8.4647 -2.7329 -1.1179 0.0000 27.5300 0.0000
# 6 0.0000 0.0000 0.0000 -3.0554 0.0000 14.7640
#
#
#
# Elastic Compliance Matrix: (Units=1/GPa)
#
#
# Indices 1 2 3 4 5 6 
#
# 1 0.021324 -0.007903 -0.001625 0.000000 -0.007407 0.000000
# 2 -0.007903 0.012573 -0.003457 0.000000 0.003538 0.000000
# 3 -0.001625 -0.003457 0.016872 0.000000 0.000842 0.000000
# 4 0.000000 0.000000 0.000000 0.030807 0.000000 0.006375
# 5 -0.007407 0.003538 0.000842 0.000000 0.038987 0.000000
# 6 0.000000 0.000000 0.000000 0.006375 0.000000 0.069052
#
#
# Mechanical properties :
#
#
# Convention : Reuss Voigt Hill
#
# Bulk Modulus (GPa) = 40.32239 47.12532 43.72385
# Shear Modulus (GPa) = 22.33632 25.89872 24.11752
#
# Velocity S-wave (km/s) = 3.35045 3.60775 3.48147
# Velocity P-wave (km/s) = 5.93566 6.40610 6.17536
#
# Compressibility (1/GPa) = 0.02480012
#
# Stress axis : x y z
#
# Youngs Moduli (GPa) = 46.89524 79.53271 59.27035
#
# Poissons Ratio (x) = 0.62852 0.09634
# Poissons Ratio (y) = 0.37060 0.20487
# Poissons Ratio (z) = 0.07623 0.27490
#
# Static dielectric constant tensor:
#      x y z
#    x 3.434220 0.000000 0.000820 
#    y 0.000000 3.913300 0.000000 
#    z 0.000820 0.000000 3.510380 
# 
# 
# High freq. dielectric constant tensor:
#      x y z
#    x 1.764300 0.000000 0.007890 
#    y 0.000000 1.787150 0.000000 
#    z 0.007890 0.000000 1.770990 
# 
# From -- ./inp_files/50705.got.cif
#   From: 2010.03.12/outbox.cif.g09.slc.cpg/sg14_26_cif.got.tgz:50705.got - 2010.03.31 13:35:05.
