data_PCOD8125444
_publ_section_title
;
Structure prediction by ZEFSAII (Michael W. Deem and Ramdas Pophale) SiO2 
 PCOD8125444
Probable space group: P 21/C
;
_chemical_formula_sum "Si O2"
_cell_formula_units_Z 32
_cell_length_a 18.247299
_cell_length_b 9.707369
_cell_length_c 22.520759
_cell_angle_alpha 90.000000
_cell_angle_beta 155.175367
_cell_angle_gamma 90.000000
_cell_volume 1674.824730
_symmetry_space_group_name_H-M "P 21/C"
_symmetry_group_IT_number 14
_symmetry_cell_setting 'monoclinic'
loop_
_space_group_symop_operation_xyz
x,y,z
-x,1/2+y,1/2-z
-x,-y,-z
x,1/2-y,1/2+z
loop_
_atom_site_type_symbol
_atom_site_label
_atom_site_fract_x
_atom_site_fract_y
_atom_site_fract_z
Si Si1 0.565810 0.475091 0.214472
Si Si2 0.557385 0.705738 0.700701
Si Si3 0.745410 0.515835 0.926202
Si Si4 0.956050 0.024800 0.267293
Si Si5 0.580931 0.124448 0.024043
Si Si6 0.521766 0.633169 0.976988
Si Si7 0.911389 0.709280 0.239051
Si Si8 0.243763 0.704991 0.558205
O O1 0.612411 0.634965 0.241574
O O2 0.386456 0.450923 0.117401
O O3 0.723707 0.406009 0.366636
O O4 0.547443 0.396617 0.139252
O O5 0.708304 0.615519 0.843324
O O6 0.545036 0.658438 0.623740
O O7 0.372795 0.681749 0.597379
O O8 0.725222 0.356907 0.891543
O O9 0.939725 0.540244 0.094095
O O10 0.769932 0.093038 0.137736
O O11 0.061929 0.101562 0.293990
O O12 0.937363 0.865060 0.234612
O O13 0.599594 0.251617 0.082556
O O14 0.500000 0.000000 0.000000
O O15 0.719335 0.688336 0.123727
O O16 0.500000 0.500000 0.000000
O O17 0.047396 0.680990 0.391955
#
# Coordination Sequence:
#
# PCOD8125444 Si02
#       8
#     4   4   4   4   4   4   4   4
#     4  10  20  39  60  91 122 163 207 253 313 366
#     4  10  20  39  60  90 125 162 205 257 309 370
#     4   9  20  37  63  90 120 156 209 262 304 362
#     4  11  23  41  65  95 125 161 216 260 307 369
#     4  12  25  42  62  92 130 169 206 252 320 378
#     4  12  25  42  64  90 132 171 204 258 317 374
#     4  11  23  41  65  96 124 163 215 262 303 371
#     4   9  20  37  63  90 121 156 208 263 305 361
#
# _framework density 19.106477999999999
#
# number of rings (size 3 to 8) (size 9 to 14) (size 15 to 20)
#    0.000    1.500    5.000    0.000    3.500    1.000 
#    0.000    2.500    0.000    0.000    0.000    0.000 
#    0.000    0.000    0.000    0.000    0.000    0.000 
#
# Total GULP energy -396914.144701 kJ/mol
# GULP energy per Si atom -12403.567022 kJ/mol
# Density = 1.906299 g / cm^3
# Si number density = 19.106478 Si / 1000 Ang^3
#
#
#
# Elastic Constant Matrix: (Units=GPa)
#
#
# Indices 1 2 3 4 5 6 
#
# 1 60.3819 44.1083 33.5453 0.0000 -24.6088 0.0000
# 2 44.1083 138.9107 58.4347 0.0000 -25.0926 0.0000
# 3 33.5453 58.4347 96.9173 0.0000 -19.1702 0.0000
# 4 0.0000 0.0000 0.0000 33.9935 0.0000 -7.0326
# 5 -24.6088 -25.0926 -19.1702 0.0000 32.9673 0.0000
# 6 0.0000 0.0000 0.0000 -7.0326 0.0000 39.7244
#
#
#
# Elastic Compliance Matrix: (Units=1/GPa)
#
#
# Indices 1 2 3 4 5 6 
#
# 1 0.028395 -0.004532 -0.004052 0.000000 0.015390 0.000000
# 2 -0.004532 0.010990 -0.004602 0.000000 0.002306 0.000000
# 3 -0.004052 -0.004602 0.014920 0.000000 0.002149 0.000000
# 4 0.000000 0.000000 0.000000 0.030536 0.000000 0.005406
# 5 0.015390 0.002306 0.002149 0.000000 0.044827 0.000000
# 6 0.000000 0.000000 0.000000 0.005406 0.000000 0.026130
#
#
# Mechanical properties :
#
#
# Convention : Reuss Voigt Hill
#
# Bulk Modulus (GPa) = 35.79711 63.15405 49.47558
# Shear Modulus (GPa) = 26.11246 32.01182 29.06214
#
# Velocity S-wave (km/s) = 3.70088 4.09766 3.90431
# Velocity P-wave (km/s) = 6.08590 7.45072 6.80263
#
# Compressibility (1/GPa) = 0.02793521
#
# Stress axis : x y z
#
# Youngs Moduli (GPa) = 35.21758 90.99007 67.02444
#
# Poissons Ratio (x) = 0.41235 0.27155
# Poissons Ratio (y) = 0.15960 0.30842
# Poissons Ratio (z) = 0.14268 0.41870
#
# Static dielectric constant tensor:
#      x y z
#    x -1.566100 0.000000 -0.744720 
#    y 0.000000 3.694630 0.000000 
#    z -0.744720 0.000000 3.431530 
# 
# 
# High freq. dielectric constant tensor:
#      x y z
#    x 1.727340 0.000000 -0.009000 
#    y 0.000000 1.759330 0.000000 
#    z -0.009000 0.000000 1.744060 
# 
# From -- ./inp_files/69162.got.cif
#   From: 2010.03.12/outbox.cif.g09.slc.cpg/sg14_35_cif.got.tgz:69162.got - 2010.03.31 13:35:05.
