data_PCOD8125653
_publ_section_title
;
Structure prediction by ZEFSAII (Michael W. Deem and Ramdas Pophale) SiO2 
 PCOD8125653
Probable space group: P 21/C
;
_chemical_formula_sum "Si O2"
_cell_formula_units_Z 16
_cell_length_a 12.274400
_cell_length_b 11.606170
_cell_length_c 14.201119
_cell_angle_alpha 90.000000
_cell_angle_beta 161.082798
_cell_angle_gamma 90.000000
_cell_volume 655.883517
_symmetry_space_group_name_H-M "P 21/C"
_symmetry_group_IT_number 14
_symmetry_cell_setting 'monoclinic'
loop_
_space_group_symop_operation_xyz
x,y,z
-x,1/2+y,1/2-z
-x,-y,-z
x,1/2-y,1/2+z
loop_
_atom_site_type_symbol
_atom_site_label
_atom_site_fract_x
_atom_site_fract_y
_atom_site_fract_z
Si Si1 0.632638 0.394729 0.673882
Si Si2 0.363245 0.293181 0.289104
Si Si3 0.488887 0.536267 0.098680
Si Si4 0.254386 0.523864 0.506005
O O1 0.500000 0.500000 0.500000
O O2 0.453272 0.286952 0.475059
O O3 0.508236 0.421731 0.677757
O O4 0.030358 0.369841 0.998425
O O5 0.348741 0.161114 0.247242
O O6 0.665310 0.354538 0.478252
O O7 0.108641 0.521237 0.821608
O O8 0.500000 0.500000 0.000000
O O9 0.710515 0.458155 0.351779
#
# Coordination Sequence:
#
# PCOD8125653 Si02
#       4
#     4   4   4   4
#     4  10  20  40  70 101 127 167 230 289 338 407
#     4  11  23  42  68 100 135 175 225 292 350 401
#     4  12  27  43  62  99 140 178 224 279 344 414
#     4  11  23  43  67  94 128 178 230 274 336 420
#
# _framework density 24.394576000000001
#
# number of rings (size 3 to 8) (size 9 to 14) (size 15 to 20)
#    0.000    1.000    0.000    9.750    0.000    6.000 
#    0.000    0.000    0.000    0.000    0.000    0.000 
#    0.000    0.000    0.000    0.000    0.000    0.000 
#
# Total GULP energy -198225.419399 kJ/mol
# GULP energy per Si atom -12389.088712 kJ/mol
# Density = 2.433905 g / cm^3
# Si number density = 24.394576 Si / 1000 Ang^3
#
#
#
# Elastic Constant Matrix: (Units=GPa)
#
#
# Indices 1 2 3 4 5 6 
#
# 1 88.6030 21.7537 0.1138 0.0000 -26.7935 0.0000
# 2 21.7537 85.6738 17.2927 0.0000 12.7768 0.0000
# 3 0.1138 17.2927 113.7627 0.0000 -1.9619 0.0000
# 4 0.0000 0.0000 0.0000 25.4107 0.0000 -8.7762
# 5 -26.7935 12.7768 -1.9619 0.0000 44.2167 0.0000
# 6 0.0000 0.0000 0.0000 -8.7762 0.0000 23.4680
#
#
#
# Elastic Compliance Matrix: (Units=1/GPa)
#
#
# Indices 1 2 3 4 5 6 
#
# 1 0.016329 -0.006118 0.001116 0.000000 0.011712 0.000000
# 2 -0.006118 0.014922 -0.002402 0.000000 -0.008126 0.000000
# 3 0.001116 -0.002402 0.009185 0.000000 0.001778 0.000000
# 4 0.000000 0.000000 0.000000 0.045190 0.000000 0.016900
# 5 0.011712 -0.008126 0.001778 0.000000 0.032140 0.000000
# 6 0.000000 0.000000 0.000000 0.016900 0.000000 0.048931
#
#
# Mechanical properties :
#
#
# Convention : Reuss Voigt Hill
#
# Bulk Modulus (GPa) = 39.02183 40.70666 39.86425
# Shear Modulus (GPa) = 26.30915 35.21101 30.76008
#
# Velocity S-wave (km/s) = 3.28759 3.80333 3.55482
# Velocity P-wave (km/s) = 5.51741 6.00084 5.76419
#
# Compressibility (1/GPa) = 0.02562668
#
# Stress axis : x y z
#
# Youngs Moduli (GPa) = 61.24258 67.01396 108.87393
#
# Poissons Ratio (x) = 0.40998 -0.12146
# Poissons Ratio (y) = 0.37467 0.26155
# Poissons Ratio (z) = -0.06832 0.16099
#
# Static dielectric constant tensor:
#      x y z
#    x 4.974170 0.000000 -0.174710 
#    y 0.000000 4.278440 0.000000 
#    z -0.174710 0.000000 4.488550 
# 
# 
# High freq. dielectric constant tensor:
#      x y z
#    x 1.979070 0.000000 -0.013800 
#    y 0.000000 1.948400 0.000000 
#    z -0.013800 0.000000 1.982470 
# 
# From -- ./inp_files/44732.got.cif
#   From: 2010.03.12/outbox.cif.g09.slc.cpg/sg14_23_cif.got.tgz:44732.got - 2010.03.31 13:35:05.
