data_PCOD8125607
_publ_section_title
;
Structure prediction by ZEFSAII (Michael W. Deem and Ramdas Pophale) SiO2 
 PCOD8125607
Probable space group: P 21/C
;
_chemical_formula_sum "Si O2"
_cell_formula_units_Z 16
_cell_length_a 8.280179
_cell_length_b 5.036125
_cell_length_c 17.631911
_cell_angle_alpha 90.000000
_cell_angle_beta 53.486467
_cell_angle_gamma 90.000000
_cell_volume 590.933229
_symmetry_space_group_name_H-M "P 21/C"
_symmetry_group_IT_number 14
_symmetry_cell_setting 'monoclinic'
loop_
_space_group_symop_operation_xyz
x,y,z
-x,1/2+y,1/2-z
-x,-y,-z
x,1/2-y,1/2+z
loop_
_atom_site_type_symbol
_atom_site_label
_atom_site_fract_x
_atom_site_fract_y
_atom_site_fract_z
Si Si1 0.791241 0.750679 0.614699
Si Si2 0.442572 0.766272 0.847392
Si Si3 0.867254 0.719838 0.290215
Si Si4 0.185931 0.521421 0.541041
O O1 0.615247 0.534449 0.682246
O O2 0.871238 0.706693 0.505506
O O3 0.986234 0.702932 0.614115
O O4 0.683756 0.030438 0.655718
O O5 0.686750 0.736235 0.778823
O O6 0.365973 0.798449 0.956655
O O7 0.753271 0.616113 0.397683
O O8 0.026797 0.497447 0.219649
#
# Coordination Sequence:
#
# PCOD8125607 Si02
#       4
#     4   4   4   4
#     4   9  20  36  72  91 115 152 229 270 306 361
#     4  10  20  40  64  94 116 166 218 260 314 373
#     4  12  27  40  58  92 139 173 206 258 327 390
#     4   9  22  39  68  92 121 161 218 266 315 374
#
# _framework density 27.075817000000001
#
# number of rings (size 3 to 8) (size 9 to 14) (size 15 to 20)
#    1.500    0.500    0.000    3.000    3.500    1.000 
#    0.000    5.000    0.000    0.000    0.000    0.000 
#    0.000    0.000    0.000    0.000    0.000    0.000 
#
# Total GULP energy -198350.764435 kJ/mol
# GULP energy per Si atom -12396.922777 kJ/mol
# Density = 2.701419 g / cm^3
# Si number density = 27.075817 Si / 1000 Ang^3
#
#
#
# Elastic Constant Matrix: (Units=GPa)
#
#
# Indices 1 2 3 4 5 6 
#
# 1 151.4875 47.4841 20.6861 0.0000 -23.0774 0.0000
# 2 47.4841 133.6740 -2.8859 0.0000 -7.1708 0.0000
# 3 20.6861 -2.8859 103.4569 0.0000 -29.8277 0.0000
# 4 0.0000 0.0000 0.0000 -76.0109 0.0000 6.3297
# 5 -23.0774 -7.1708 -29.8277 0.0000 48.1888 0.0000
# 6 0.0000 0.0000 0.0000 6.3297 0.0000 42.5500
#
#
#
# Elastic Compliance Matrix: (Units=1/GPa)
#
#
# Indices 1 2 3 4 5 6 
#
# 1 0.008008 -0.002706 -0.000836 0.000000 0.002914 0.000000
# 2 -0.002706 0.008492 0.000936 0.000000 0.000547 0.000000
# 3 -0.000836 0.000936 0.011909 0.000000 0.007110 0.000000
# 4 0.000000 0.000000 0.000000 -0.012995 0.000000 0.001933
# 5 0.002914 0.000547 0.007110 0.000000 0.026630 0.000000
# 6 0.000000 0.000000 0.000000 0.001933 0.000000 0.023214
#
#
# Mechanical properties :
#
#
# Convention : Reuss Voigt Hill
#
# Bulk Modulus (GPa) = 43.11349 57.68746 50.40048
# Shear Modulus (GPa) = 63.93625 24.50120 44.21872
#
# Velocity S-wave (km/s) = 4.86467 3.01144 4.04560
# Velocity P-wave (km/s) = 6.89284 5.78306 6.36219
#
# Compressibility (1/GPa) = 0.02319459
#
# Stress axis : x y z
#
# Youngs Moduli (GPa) = 124.88039 117.76169 83.96928
#
# Poissons Ratio (x) = 0.31869 0.07023
# Poissons Ratio (y) = 0.33795 -0.07856
# Poissons Ratio (z) = 0.10444 -0.11018
#
# Static dielectric constant tensor:
#      x y z
#    x 4.411500 0.000000 0.028890 
#    y 0.000000 4.545350 0.000000 
#    z 0.028890 0.000000 5.287320 
# 
# 
# High freq. dielectric constant tensor:
#      x y z
#    x 2.078540 0.000000 0.013420 
#    y 0.000000 2.071870 0.000000 
#    z 0.013420 0.000000 2.142040 
# 
# From -- ./inp_files/64074.got.cif
#   From: 2010.03.12/outbox.cif.g09.slc.cpg/sg14_33_cif.got.tgz:64074.got - 2010.03.31 13:35:05.
