data_PCOD8125865
_publ_section_title
;
Structure prediction by ZEFSAII (Michael W. Deem and Ramdas Pophale) SiO2 
 PCOD8125865
Probable space group: P 21/C
;
_chemical_formula_sum "Si O2"
_cell_formula_units_Z 24
_cell_length_a 8.730339
_cell_length_b 28.210548
_cell_length_c 9.423893
_cell_angle_alpha 90.000000
_cell_angle_beta 31.862693
_cell_angle_gamma 90.000000
_cell_volume 1225.215983
_symmetry_space_group_name_H-M "P 21/C"
_symmetry_group_IT_number 14
_symmetry_cell_setting 'monoclinic'
loop_
_space_group_symop_operation_xyz
x,y,z
-x,1/2+y,1/2-z
-x,-y,-z
x,1/2-y,1/2+z
loop_
_atom_site_type_symbol
_atom_site_label
_atom_site_fract_x
_atom_site_fract_y
_atom_site_fract_z
Si Si1 0.624874 0.886840 0.483853
Si Si2 0.958374 0.782431 0.930790
Si Si3 0.876707 0.974251 0.810523
Si Si4 0.368068 0.032154 0.307446
Si Si5 0.987487 0.609802 0.421045
Si Si6 0.388218 0.278942 0.017820
O O1 0.677025 0.917083 0.584105
O O2 0.872961 0.895188 0.171905
O O3 0.598820 0.832267 0.553466
O O4 0.324574 0.903276 0.650926
O O5 0.293428 0.764107 0.671192
O O6 0.937269 0.837307 0.900889
O O7 0.849336 0.775514 0.174520
O O8 0.735576 0.754614 0.006574
O O9 0.755243 0.962211 0.752181
O O10 0.838853 0.926802 0.931526
O O11 0.203485 0.992764 0.532506
O O12 0.700557 0.015639 0.031205
#
# Coordination Sequence:
#
# PCOD8125865 Si02
#       6
#     4   4   4   4   4   4
#     4  10  21  36  55  80 108 139 179 223 266 319
#     4  10  21  38  58  83 113 144 183 228 274 327
#     4  10  21  36  53  77 108 140 177 219 264 318
#     4  10  21  36  53  77 108 140 177 219 264 318
#     4  10  21  36  55  80 108 139 179 223 266 319
#     4  10  21  38  58  83 113 144 183 228 274 327
#
# _framework density 19.588384000000001
#
# number of rings (size 3 to 8) (size 9 to 14) (size 15 to 20)
#    0.000    2.000    0.000    3.000    0.000    5.333 
#    0.000    5.000    0.000    0.000    0.000    0.000 
#    0.000    0.000    0.000    0.000    0.000    0.000 
#
# Total GULP energy -297549.261130 kJ/mol
# GULP energy per Si atom -12397.885880 kJ/mol
# Density = 1.954380 g / cm^3
# Si number density = 19.588384 Si / 1000 Ang^3
#
#
#
# Elastic Constant Matrix: (Units=GPa)
#
#
# Indices 1 2 3 4 5 6 
#
# 1 53.3688 43.4670 13.6950 0.0000 -1.0485 0.0000
# 2 43.4670 79.4237 17.4888 0.0000 6.4945 0.0000
# 3 13.6950 17.4888 82.6105 0.0000 -4.9208 0.0000
# 4 0.0000 0.0000 0.0000 26.2635 0.0000 4.7121
# 5 -1.0485 6.4945 -4.9208 0.0000 25.0700 0.0000
# 6 0.0000 0.0000 0.0000 4.7121 0.0000 33.4247
#
#
#
# Elastic Compliance Matrix: (Units=1/GPa)
#
#
# Indices 1 2 3 4 5 6 
#
# 1 0.034959 -0.019347 -0.001329 0.000000 0.006213 0.000000
# 2 -0.019347 0.024326 -0.002394 0.000000 -0.007581 0.000000
# 3 -0.001329 -0.002394 0.013018 0.000000 0.003120 0.000000
# 4 0.000000 0.000000 0.000000 0.039064 0.000000 -0.005507
# 5 0.006213 -0.007581 0.003120 0.000000 0.042724 0.000000
# 6 0.000000 0.000000 0.000000 -0.005507 0.000000 0.030694
#
#
# Mechanical properties :
#
#
# Convention : Reuss Voigt Hill
#
# Bulk Modulus (GPa) = 38.22481 40.52273 39.37377
# Shear Modulus (GPa) = 20.86397 26.33512 23.59954
#
# Velocity S-wave (km/s) = 3.26716 3.67062 3.47475
# Velocity P-wave (km/s) = 5.81281 6.22066 6.02019
#
# Compressibility (1/GPa) = 0.02616102
#
# Stress axis : x y z
#
# Youngs Moduli (GPa) = 28.60526 41.10784 76.81639
#
# Poissons Ratio (x) = 0.79533 0.10212
# Poissons Ratio (y) = 0.55344 0.18391
# Poissons Ratio (z) = 0.03803 0.09842
#
# Static dielectric constant tensor:
#      x y z
#    x 3.279280 0.000000 -0.091790 
#    y 0.000000 3.639270 0.000000 
#    z -0.091790 0.000000 3.882740 
# 
# 
# High freq. dielectric constant tensor:
#      x y z
#    x 1.747140 0.000000 -0.002820 
#    y 0.000000 1.760300 0.000000 
#    z -0.002820 0.000000 1.786660 
# 
# From -- ./inp_files/1646.got.cif
#   From: 2010.03.12/outbox.cif.g09.slc.cpg/sg14_1_cif.got.tgz:1646.got - 2010.03.31 13:35:05.
