data_PCOD8125980
_publ_section_title
;
Structure prediction by ZEFSAII (Michael W. Deem and Ramdas Pophale) SiO2 
 PCOD8125980
Probable space group: P 21/C
;
_chemical_formula_sum "Si O2"
_cell_formula_units_Z 28
_cell_length_a 6.816923
_cell_length_b 18.426092
_cell_length_c 15.257206
_cell_angle_alpha 90.000000
_cell_angle_beta 44.957434
_cell_angle_gamma 90.000000
_cell_volume 1354.124985
_symmetry_space_group_name_H-M "P 21/C"
_symmetry_group_IT_number 14
_symmetry_cell_setting 'monoclinic'
loop_
_space_group_symop_operation_xyz
x,y,z
-x,1/2+y,1/2-z
-x,-y,-z
x,1/2-y,1/2+z
loop_
_atom_site_type_symbol
_atom_site_label
_atom_site_fract_x
_atom_site_fract_y
_atom_site_fract_z
Si Si1 0.733306 0.134071 0.721734
Si Si2 0.891740 0.625247 0.254877
Si Si3 0.461660 0.506105 0.369423
Si Si4 0.183437 0.204522 0.953816
Si Si5 0.766393 0.774397 0.378575
Si Si6 0.018745 0.564917 0.391270
Si Si7 0.812879 0.329282 0.003523
O O1 0.691454 0.054539 0.775447
O O2 0.453754 0.182315 0.813141
O O3 0.821069 0.127968 0.592601
O O4 0.973025 0.171139 0.703689
O O5 0.601777 0.582626 0.345609
O O6 0.833497 0.709016 0.291966
O O7 0.078268 0.590043 0.273224
O O8 0.045812 0.618564 0.113346
O O9 0.270757 0.514916 0.343237
O O10 0.268811 0.481121 0.512131
O O11 0.293101 0.245808 0.005090
O O12 0.005849 0.134303 0.037067
O O13 0.985092 0.254387 0.957345
O O14 0.499235 0.815800 0.428057
#
# Coordination Sequence:
#
# PCOD8125980 Si02
#       7
#     4   4   4   4   4   4   4
#     4  10  22  38  56  82 117 152 189 235 287 343
#     4  11  22  36  60  87 113 148 191 238 282 336
#     4  10  21  39  60  83 114 151 189 237 288 334
#     4   9  19  37  59  83 111 146 193 242 281 333
#     4  10  21  37  58  85 114 149 192 239 286 334
#     4   9  20  38  61  85 110 145 193 240 283 332
#     4  11  22  35  56  84 116 154 190 230 287 344
#
# _framework density 20.677558999999999
#
# number of rings (size 3 to 8) (size 9 to 14) (size 15 to 20)
#    0.000    2.000    0.000    3.000    0.000    6.286 
#    0.000    5.714    0.000    0.000    0.000    0.000 
#    0.000    0.000    0.000    0.000    0.000    0.000 
#
# Total GULP energy -347289.724531 kJ/mol
# GULP energy per Si atom -12403.204448 kJ/mol
# Density = 2.063050 g / cm^3
# Si number density = 20.677559 Si / 1000 Ang^3
#
#
#
# Elastic Constant Matrix: (Units=GPa)
#
#
# Indices 1 2 3 4 5 6 
#
# 1 82.4316 43.8057 35.6245 0.0000 -13.3016 0.0000
# 2 43.8057 73.2321 22.9962 0.0000 -8.3668 0.0000
# 3 35.6245 22.9962 83.5000 0.0000 8.6406 0.0000
# 4 0.0000 0.0000 0.0000 16.6526 0.0000 -5.8547
# 5 -13.3016 -8.3668 8.6406 0.0000 29.5557 0.0000
# 6 0.0000 0.0000 0.0000 -5.8547 0.0000 41.7619
#
#
#
# Elastic Compliance Matrix: (Units=1/GPa)
#
#
# Indices 1 2 3 4 5 6 
#
# 1 0.022210 -0.009759 -0.007771 0.000000 0.009505 0.000000
# 2 -0.009759 0.020194 -0.001583 0.000000 0.001787 0.000000
# 3 -0.007771 -0.001583 0.016639 0.000000 -0.008810 0.000000
# 4 0.000000 0.000000 0.000000 0.063164 0.000000 0.008855
# 5 0.009505 0.001787 -0.008810 0.000000 0.041194 0.000000
# 6 0.000000 0.000000 0.000000 0.008855 0.000000 0.025187
#
#
# Mechanical properties :
#
#
# Convention : Reuss Voigt Hill
#
# Bulk Modulus (GPa) = 48.03916 49.33516 48.68716
# Shear Modulus (GPa) = 21.39009 26.70986 24.04998
#
# Velocity S-wave (km/s) = 3.21979 3.59797 3.41412
# Velocity P-wave (km/s) = 6.09144 6.41651 6.25609
#
# Compressibility (1/GPa) = 0.02081635
#
# Stress axis : x y z
#
# Youngs Moduli (GPa) = 45.02531 49.51945 60.09875
#
# Poissons Ratio (x) = 0.48326 0.46706
# Poissons Ratio (y) = 0.43940 0.09513
# Poissons Ratio (z) = 0.34991 0.07838
#
# Static dielectric constant tensor:
#      x y z
#    x 3.661030 0.000000 0.054890 
#    y 0.000000 3.648910 0.000000 
#    z 0.054890 0.000000 3.677290 
# 
# 
# High freq. dielectric constant tensor:
#      x y z
#    x 1.814210 0.000000 0.003760 
#    y 0.000000 1.801400 0.000000 
#    z 0.003760 0.000000 1.801890 
# 
# From -- ./inp_files/38049.got.cif
#   From: 2010.03.12/outbox.cif.g09.slc.cpg/sg14_20_cif.got.tgz:38049.got - 2010.03.31 13:35:05.
