data_PCOD8125655
_publ_section_title
;
Structure prediction by ZEFSAII (Michael W. Deem and Ramdas Pophale) SiO2 
 PCOD8125655
Probable space group: P 21/C
;
_chemical_formula_sum "Si O2"
_cell_formula_units_Z 32
_cell_length_a 8.907846
_cell_length_b 24.345117
_cell_length_c 8.943587
_cell_angle_alpha 90.000000
_cell_angle_beta 130.299528
_cell_angle_gamma 90.000000
_cell_volume 1479.227761
_symmetry_space_group_name_H-M "P 21/C"
_symmetry_group_IT_number 14
_symmetry_cell_setting 'monoclinic'
loop_
_space_group_symop_operation_xyz
x,y,z
-x,1/2+y,1/2-z
-x,-y,-z
x,1/2-y,1/2+z
loop_
_atom_site_type_symbol
_atom_site_label
_atom_site_fract_x
_atom_site_fract_y
_atom_site_fract_z
Si Si1 0.618841 0.070982 0.554065
Si Si2 0.028863 0.230676 0.343563
Si Si3 0.311319 0.247664 0.762007
Si Si4 0.287594 0.133054 0.167027
Si Si5 0.340311 0.667981 0.474098
Si Si6 0.133115 0.656657 0.638335
Si Si7 0.430624 0.486369 0.206098
Si Si8 0.406202 0.074213 0.967256
O O1 0.413541 0.092535 0.351718
O O2 0.783460 0.117361 0.676926
O O3 0.578359 0.046424 0.692146
O O4 0.701358 0.024991 0.488722
O O5 0.929905 0.287657 0.324447
O O6 0.208810 0.211744 0.565666
O O7 0.125986 0.238198 0.246138
O O8 0.860127 0.184885 0.237329
O O9 0.385240 0.306270 0.743848
O O10 0.488918 0.213299 0.947916
O O11 0.278256 0.116436 0.984102
O O12 0.058449 0.130695 0.068320
O O13 0.306216 0.666426 0.630343
O O14 0.395377 0.608077 0.446827
O O15 0.557995 0.522250 0.403631
O O16 0.312598 0.445306 0.245281
#
# Coordination Sequence:
#
# PCOD8125655 Si02
#       8
#     4   4   4   4   4   4   4   4
#     4  10  20  40  70  88 122 163 209 261 318 373
#     4  11  24  41  58  95 131 159 212 254 295 382
#     4  11  25  39  61  93 132 168 205 250 305 372
#     4  10  22  41  62  94 128 161 205 256 308 371
#     4  12  23  38  66  89 126 174 203 251 315 368
#     4  11  23  39  62  96 125 164 209 254 307 373
#     4   9  20  40  65  93 117 161 212 264 318 369
#     4  10  21  40  66  88 126 165 206 261 322 366
#
# _framework density 21.632908
#
# number of rings (size 3 to 8) (size 9 to 14) (size 15 to 20)
#    0.000    1.500    3.750    2.250    5.250    2.000 
#    0.000    6.250    0.000    0.000    0.000    0.000 
#    0.000    0.000    0.000    0.000    0.000    0.000 
#
# Total GULP energy -396439.735773 kJ/mol
# GULP energy per Si atom -12388.741743 kJ/mol
# Density = 2.158367 g / cm^3
# Si number density = 21.632908 Si / 1000 Ang^3
#
#
#
# Elastic Constant Matrix: (Units=GPa)
#
#
# Indices 1 2 3 4 5 6 
#
# 1 87.3259 39.3087 29.9940 0.0000 -11.1810 0.0000
# 2 39.3087 251.4035 -2.3451 0.0000 -59.0638 0.0000
# 3 29.9940 -2.3451 89.3777 0.0000 4.3042 0.0000
# 4 0.0000 0.0000 0.0000 32.1169 0.0000 -16.0654
# 5 -11.1810 -59.0638 4.3042 0.0000 54.2768 0.0000
# 6 0.0000 0.0000 0.0000 -16.0654 0.0000 25.0963
#
#
#
# Elastic Compliance Matrix: (Units=1/GPa)
#
#
# Indices 1 2 3 4 5 6 
#
# 1 0.014163 -0.001993 -0.004860 0.000000 0.001134 0.000000
# 2 -0.001993 0.005626 0.000544 0.000000 0.005669 0.000000
# 3 -0.004860 0.000544 0.012903 0.000000 -0.001433 0.000000
# 4 0.000000 0.000000 0.000000 0.045803 0.000000 0.029321
# 5 0.001134 0.005669 -0.001433 0.000000 0.024940 0.000000
# 6 0.000000 0.000000 0.000000 0.029321 0.000000 0.058616
#
#
# Mechanical properties :
#
#
# Convention : Reuss Voigt Hill
#
# Bulk Modulus (GPa) = 49.81940 62.44692 56.13316
# Shear Modulus (GPa) = 27.56930 46.37464 36.97197
#
# Velocity S-wave (km/s) = 3.57377 4.63504 4.13856
# Velocity P-wave (km/s) = 6.33313 7.58776 6.98866
#
# Compressibility (1/GPa) = 0.02007250
#
# Stress axis : x y z
#
# Youngs Moduli (GPa) = 70.60617 177.73958 77.50357
#
# Poissons Ratio (x) = 0.35432 0.37665
# Poissons Ratio (y) = 0.14075 -0.04213
# Poissons Ratio (z) = 0.34313 -0.09662
#
# Static dielectric constant tensor:
#      x y z
#    x 3.984480 0.000000 -0.281800 
#    y 0.000000 4.194490 0.000000 
#    z -0.281800 0.000000 3.893730 
# 
# 
# High freq. dielectric constant tensor:
#      x y z
#    x 1.839740 0.000000 -0.029370 
#    y 0.000000 1.858670 0.000000 
#    z -0.029370 0.000000 1.836350 
# 
# From -- ./inp_files/11079.got.cif
#   From: 2010.03.12/outbox.cif.g09.slc.cpg/sg14_6_cif.got.tgz:11079.got - 2010.03.31 13:35:05.
