data_PCOD8125178
_publ_section_title
;
Structure prediction by ZEFSAII (Michael W. Deem and Ramdas Pophale) SiO2 
 PCOD8125178
Probable space group: P 21/C
;
_chemical_formula_sum "Si O2"
_cell_formula_units_Z 28
_cell_length_a 11.850391
_cell_length_b 23.163477
_cell_length_c 5.262158
_cell_angle_alpha 90.000000
_cell_angle_beta 60.878138
_cell_angle_gamma 90.000000
_cell_volume 1261.845764
_symmetry_space_group_name_H-M "P 21/C"
_symmetry_group_IT_number 14
_symmetry_cell_setting 'monoclinic'
loop_
_space_group_symop_operation_xyz
x,y,z
-x,1/2+y,1/2-z
-x,-y,-z
x,1/2-y,1/2+z
loop_
_atom_site_type_symbol
_atom_site_label
_atom_site_fract_x
_atom_site_fract_y
_atom_site_fract_z
Si Si1 0.758441 0.220886 0.805146
Si Si2 0.695477 0.532577 0.923937
Si Si3 0.936881 0.718673 0.054194
Si Si4 0.642596 0.099264 0.022779
Si Si5 0.132318 0.523808 0.613660
Si Si6 0.511575 0.065570 0.685261
Si Si7 0.894523 0.585943 0.033610
O O1 0.701200 0.238696 0.593506
O O2 0.723098 0.156910 0.917431
O O3 0.911193 0.226886 0.622753
O O4 0.810802 0.487305 0.731759
O O5 0.569279 0.499354 0.172847
O O6 0.755634 0.579649 0.046657
O O7 0.641034 0.562368 0.720670
O O8 0.878207 0.746836 0.860892
O O9 0.901507 0.651211 0.123194
O O10 0.747750 0.048699 0.850684
O O11 0.531829 0.099896 0.925939
O O12 0.583707 0.095632 0.368627
O O13 0.016031 0.570061 0.715458
O O14 0.088805 0.460822 0.760459
#
# Coordination Sequence:
#
# PCOD8125178 Si02
#       7
#     4   4   4   4   4   4   4
#     4  10  20  37  60  86 118 156 201 256 306 352
#     4  10  22  37  57  89 125 165 196 245 300 376
#     4  10  23  40  60  87 119 163 204 243 297 364
#     4  11  20  40  59  92 120 158 200 256 298 369
#     4  10  22  35  60  95 124 158 191 254 317 366
#     4  10  23  36  62  85 127 160 206 237 304 365
#     4  11  21  39  60  91 126 161 198 256 306 370
#
# _framework density 22.189717000000002
#
# number of rings (size 3 to 8) (size 9 to 14) (size 15 to 20)
#    0.000    1.714    2.857    1.286    4.000    1.714 
#    0.000    0.000    0.000    5.143    0.000    0.000 
#    0.000    0.000    0.000    0.000    0.000    0.000 
#
# Total GULP energy -347008.632071 kJ/mol
# GULP energy per Si atom -12393.165431 kJ/mol
# Density = 2.213921 g / cm^3
# Si number density = 22.189717 Si / 1000 Ang^3
#
#
#
# Elastic Constant Matrix: (Units=GPa)
#
#
# Indices 1 2 3 4 5 6 
#
# 1 70.0689 2.8505 19.1126 0.0000 18.3978 0.0000
# 2 2.8505 114.5203 27.7663 0.0000 10.4355 0.0000
# 3 19.1126 27.7663 57.7453 0.0000 19.8814 0.0000
# 4 0.0000 0.0000 0.0000 24.9403 0.0000 3.8503
# 5 18.3978 10.4355 19.8814 0.0000 31.0676 0.0000
# 6 0.0000 0.0000 0.0000 3.8503 0.0000 25.5787
#
#
#
# Elastic Compliance Matrix: (Units=1/GPa)
#
#
# Indices 1 2 3 4 5 6 
#
# 1 0.017384 0.001163 -0.003379 0.000000 -0.008523 0.000000
# 2 0.001163 0.009965 -0.004857 0.000000 -0.000928 0.000000
# 3 -0.003379 -0.004857 0.025037 0.000000 -0.012390 0.000000
# 4 0.000000 0.000000 0.000000 0.041050 0.000000 -0.006179
# 5 -0.008523 -0.000928 -0.012390 0.000000 0.045475 0.000000
# 6 0.000000 0.000000 0.000000 -0.006179 0.000000 0.040025
#
#
# Mechanical properties :
#
#
# Convention : Reuss Voigt Hill
#
# Bulk Modulus (GPa) = 26.15012 37.97702 32.06357
# Shear Modulus (GPa) = 24.29203 29.15766 26.72484
#
# Velocity S-wave (km/s) = 3.31228 3.62887 3.47418
# Velocity P-wave (km/s) = 5.14185 5.89153 5.52941
#
# Compressibility (1/GPa) = 0.03824074
#
# Stress axis : x y z
#
# Youngs Moduli (GPa) = 57.52486 100.34765 39.94086
#
# Poissons Ratio (x) = -0.11671 0.13494
# Poissons Ratio (y) = -0.06691 0.19400
# Poissons Ratio (z) = 0.19435 0.48742
#
# Static dielectric constant tensor:
#      x y z
#    x 4.132430 0.000000 0.004700 
#    y 0.000000 3.745630 0.000000 
#    z 0.004700 0.000000 4.115040 
# 
# 
# High freq. dielectric constant tensor:
#      x y z
#    x 1.864830 0.000000 0.009380 
#    y 0.000000 1.845300 0.000000 
#    z 0.009380 0.000000 1.874510 
# 
# From -- ./inp_files/2921.got.cif
#   From: 2010.03.12/outbox.cif.g09.slc.cpg/sg14_2_cif.got.tgz:2921.got - 2010.03.31 13:35:05.
