data_PCOD8125301
_publ_section_title
;
Structure prediction by ZEFSAII (Michael W. Deem and Ramdas Pophale) SiO2 
 PCOD8125301
Probable space group: P 21/C
;
_chemical_formula_sum "Si O2"
_cell_formula_units_Z 28
_cell_length_a 12.031610
_cell_length_b 9.712021
_cell_length_c 21.336893
_cell_angle_alpha 90.000000
_cell_angle_beta 143.858119
_cell_angle_gamma 90.000000
_cell_volume 1470.481596
_symmetry_space_group_name_H-M "P 21/C"
_symmetry_group_IT_number 14
_symmetry_cell_setting 'monoclinic'
loop_
_space_group_symop_operation_xyz
x,y,z
-x,1/2+y,1/2-z
-x,-y,-z
x,1/2-y,1/2+z
loop_
_atom_site_type_symbol
_atom_site_label
_atom_site_fract_x
_atom_site_fract_y
_atom_site_fract_z
Si Si1 0.738767 0.068612 0.873161
Si Si2 0.782433 0.593803 0.028899
Si Si3 0.634947 0.681061 0.741544
Si Si4 0.101432 0.281194 0.530653
Si Si5 0.936925 0.900778 0.289656
Si Si6 0.613224 0.976330 0.685779
Si Si7 0.103749 0.384625 0.787046
O O1 0.533223 0.093640 0.807069
O O2 0.810690 0.931974 0.940999
O O3 0.727647 0.049091 0.793446
O O4 0.881646 0.196169 0.949251
O O5 0.882721 0.693481 0.025145
O O6 0.568579 0.566366 0.912633
O O7 0.788091 0.665679 0.100350
O O8 0.900821 0.450180 0.087500
O O9 0.796243 0.702389 0.866702
O O10 0.731543 0.597223 0.728565
O O11 0.550700 0.824394 0.678730
O O12 0.984641 0.745260 0.289351
O O13 0.937293 0.007953 0.231070
O O14 0.749096 0.969160 0.688055
#
# Coordination Sequence:
#
# PCOD8125301 Si02
#       7
#     4   4   4   4   4   4   4
#     4  10  22  38  60  88 129 160 195 259 306 372
#     4  10  21  37  62  90 115 161 213 245 301 377
#     4  10  21  40  58  90 124 155 204 252 310 365
#     4  10  22  38  58  93 122 163 200 246 321 359
#     4   9  22  38  61  87 119 161 201 261 300 365
#     4  10  20  38  60  84 124 161 197 255 309 361
#     4   9  21  40  58  87 120 157 207 249 314 350
#
# _framework density 19.04138
#
# number of rings (size 3 to 8) (size 9 to 14) (size 15 to 20)
#    0.857    1.429    1.429    0.429    4.000    2.857 
#    2.571    0.000    0.000    3.429    0.000    0.000 
#    0.000    0.000    0.000    0.000    0.000    0.000 
#
# Total GULP energy -347057.931514 kJ/mol
# GULP energy per Si atom -12394.926126 kJ/mol
# Density = 1.899804 g / cm^3
# Si number density = 19.041380 Si / 1000 Ang^3
#
#
#
# Elastic Constant Matrix: (Units=GPa)
#
#
# Indices 1 2 3 4 5 6 
#
# 1 133.9881 60.5903 35.1698 0.0000 5.4851 0.0000
# 2 60.5903 84.6546 34.9738 0.0000 13.0302 0.0000
# 3 35.1698 34.9738 71.4909 0.0000 15.2590 0.0000
# 4 0.0000 0.0000 0.0000 32.1676 0.0000 -5.4598
# 5 5.4851 13.0302 15.2590 0.0000 22.4687 0.0000
# 6 0.0000 0.0000 0.0000 -5.4598 0.0000 36.9941
#
#
#
# Elastic Compliance Matrix: (Units=1/GPa)
#
#
# Indices 1 2 3 4 5 6 
#
# 1 0.011475 -0.007652 -0.002632 0.000000 0.003424 0.000000
# 2 -0.007652 0.020270 -0.004727 0.000000 -0.006677 0.000000
# 3 -0.002632 -0.004727 0.019733 0.000000 -0.010018 0.000000
# 4 0.000000 0.000000 0.000000 0.031886 0.000000 0.004706
# 5 0.003424 -0.006677 -0.010018 0.000000 0.054346 0.000000
# 6 0.000000 0.000000 0.000000 0.004706 0.000000 0.027726
#
#
# Mechanical properties :
#
#
# Convention : Reuss Voigt Hill
#
# Bulk Modulus (GPa) = 46.60771 61.28904 53.94838
# Shear Modulus (GPa) = 24.67802 28.95272 26.81537
#
# Velocity S-wave (km/s) = 3.60393 3.90361 3.75676
# Velocity P-wave (km/s) = 6.46900 7.25084 6.87105
#
# Compressibility (1/GPa) = 0.02145568
#
# Stress axis : x y z
#
# Youngs Moduli (GPa) = 87.14975 49.33343 50.67633
#
# Poissons Ratio (x) = 0.37752 0.13339
# Poissons Ratio (y) = 0.66690 0.23953
# Poissons Ratio (z) = 0.22939 0.23318
#
# Static dielectric constant tensor:
#      x y z
#    x 3.523660 0.000000 -0.117210 
#    y 0.000000 3.350550 0.000000 
#    z -0.117210 0.000000 3.342270 
# 
# 
# High freq. dielectric constant tensor:
#      x y z
#    x 1.748440 0.000000 -0.006610 
#    y 0.000000 1.731260 0.000000 
#    z -0.006610 0.000000 1.727970 
# 
# From -- ./inp_files/67193.got.cif
#   From: 2010.03.12/outbox.cif.g09.slc.cpg/sg14_34_cif.got.tgz:67193.got - 2010.03.31 13:35:05.
