data_PCOD8125091
_publ_section_title
;
Structure prediction by ZEFSAII (Michael W. Deem and Ramdas Pophale) SiO2 
 PCOD8125091
Probable space group: P 21/C
;
_chemical_formula_sum "Si O2"
_cell_formula_units_Z 24
_cell_length_a 7.489386
_cell_length_b 14.925225
_cell_length_c 9.912238
_cell_angle_alpha 90.000000
_cell_angle_beta 91.517120
_cell_angle_gamma 90.000000
_cell_volume 1107.609209
_symmetry_space_group_name_H-M "P 21/C"
_symmetry_group_IT_number 14
_symmetry_cell_setting 'monoclinic'
loop_
_space_group_symop_operation_xyz
x,y,z
-x,1/2+y,1/2-z
-x,-y,-z
x,1/2-y,1/2+z
loop_
_atom_site_type_symbol
_atom_site_label
_atom_site_fract_x
_atom_site_fract_y
_atom_site_fract_z
Si Si1 0.323359 0.960905 0.778877
Si Si2 0.381693 0.172250 0.250563
Si Si3 0.164934 0.726700 0.601651
Si Si4 0.988276 0.341529 0.661137
Si Si5 0.399077 0.616327 0.019824
Si Si6 0.487544 0.867589 0.231973
O O1 0.463310 0.882310 0.828071
O O2 0.127834 0.932697 0.827201
O O3 0.321806 0.963488 0.613477
O O4 0.382681 0.058669 0.836435
O O5 0.413804 0.153177 0.410802
O O6 0.403683 0.278412 0.225121
O O7 0.191764 0.135865 0.199270
O O8 0.079597 0.763881 0.738199
O O9 0.017904 0.687276 0.496288
O O10 0.256622 0.804153 0.517857
O O11 0.314351 0.651694 0.638166
O O12 0.422916 0.583464 0.868349
#
# Coordination Sequence:
#
# PCOD8125091 Si02
#       6
#     4   4   4   4   4   4
#     4   9  21  38  60  87 121 152 196 245 283 351
#     4   9  22  36  59  86 121 152 195 245 289 346
#     4  10  20  36  64  81 120 152 200 235 293 350
#     4  11  21  41  56  90 115 156 193 247 290 342
#     4   8  17  37  57  88 114 153 192 246 280 345
#     4  11  18  39  64  87 114 164 194 233 302 341
#
# _framework density 21.668292999999998
#
# number of rings (size 3 to 8) (size 9 to 14) (size 15 to 20)
#    1.000    1.333    3.333    0.500    2.333    0.667 
#    3.000    1.667    0.000    0.000    0.000    0.000 
#    0.000    0.000    0.000    0.000    0.000    0.000 
#
# Total GULP energy -297314.021013 kJ/mol
# GULP energy per Si atom -12388.084209 kJ/mol
# Density = 2.161898 g / cm^3
# Si number density = 21.668293 Si / 1000 Ang^3
#
#
#
# Elastic Constant Matrix: (Units=GPa)
#
#
# Indices 1 2 3 4 5 6 
#
# 1 90.4762 5.1607 8.2691 0.0000 29.0944 0.0000
# 2 5.1607 75.4746 -16.7993 0.0000 5.7307 0.0000
# 3 8.2691 -16.7993 70.6717 0.0000 5.3356 0.0000
# 4 0.0000 0.0000 0.0000 6.0761 0.0000 0.7458
# 5 29.0944 5.7307 5.3356 0.0000 23.8897 0.0000
# 6 0.0000 0.0000 0.0000 0.7458 0.0000 12.7748
#
#
#
# Elastic Compliance Matrix: (Units=1/GPa)
#
#
# Indices 1 2 3 4 5 6 
#
# 1 0.018191 0.000356 -0.000371 0.000000 -0.022157 0.000000
# 2 0.000356 0.014417 0.003742 0.000000 -0.004728 0.000000
# 3 -0.000371 0.003742 0.015376 0.000000 -0.003880 0.000000
# 4 0.000000 0.000000 0.000000 0.165768 0.000000 -0.009678
# 5 -0.022157 -0.004728 -0.003880 0.000000 0.070844 0.000000
# 6 0.000000 0.000000 0.000000 -0.009678 0.000000 0.078844
#
#
# Mechanical properties :
#
#
# Convention : Reuss Voigt Hill
#
# Bulk Modulus (GPa) = 18.03793 25.54260 21.79027
# Shear Modulus (GPa) = 13.35237 24.54758 18.94997
#
# Velocity S-wave (km/s) = 2.48506 3.36948 2.96048
# Velocity P-wave (km/s) = 4.07145 5.19148 4.66520
#
# Compressibility (1/GPa) = 0.05543873
#
# Stress axis : x y z
#
# Youngs Moduli (GPa) = 54.97133 69.36200 65.03695
#
# Poissons Ratio (x) = -0.02469 0.02413
# Poissons Ratio (y) = -0.01957 -0.24339
# Poissons Ratio (z) = 0.02040 -0.25958
#
# Static dielectric constant tensor:
#      x y z
#    x 3.577790 0.000000 0.077890 
#    y 0.000000 3.685380 0.000000 
#    z 0.077890 0.000000 3.706450 
# 
# 
# High freq. dielectric constant tensor:
#      x y z
#    x 1.823050 0.000000 0.008610 
#    y 0.000000 1.837190 0.000000 
#    z 0.008610 0.000000 1.843510 
# 
# From -- ./inp_files/25020.got.cif
#   From: 2010.03.12/outbox.cif.g09.slc.cpg/sg14_13_cif.got.tgz:25020.got - 2010.03.31 13:35:05.
