data_PCOD8125849
_publ_section_title
;
Structure prediction by ZEFSAII (Michael W. Deem and Ramdas Pophale) SiO2 
 PCOD8125849
Probable space group: P 21/C
;
_chemical_formula_sum "Si O2"
_cell_formula_units_Z 24
_cell_length_a 13.596743
_cell_length_b 8.476229
_cell_length_c 14.026370
_cell_angle_alpha 90.000000
_cell_angle_beta 39.294277
_cell_angle_gamma 90.000000
_cell_volume 1023.752087
_symmetry_space_group_name_H-M "P 21/C"
_symmetry_group_IT_number 14
_symmetry_cell_setting 'monoclinic'
loop_
_space_group_symop_operation_xyz
x,y,z
-x,1/2+y,1/2-z
-x,-y,-z
x,1/2-y,1/2+z
loop_
_atom_site_type_symbol
_atom_site_label
_atom_site_fract_x
_atom_site_fract_y
_atom_site_fract_z
Si Si1 0.707550 0.559042 0.830902
Si Si2 0.093810 0.697761 0.282831
Si Si3 0.032812 0.819761 0.040196
Si Si4 0.954009 0.014768 0.366306
Si Si5 0.636265 0.669574 0.077814
Si Si6 0.341112 0.007247 0.841706
O O1 0.729508 0.369937 0.837784
O O2 0.640675 0.588937 0.776461
O O3 0.884329 0.622526 0.711060
O O4 0.601233 0.643150 0.990331
O O5 0.004239 0.645602 0.448676
O O6 0.011662 0.620121 0.252789
O O7 0.092662 0.886710 0.272617
O O8 0.188137 0.900412 0.964958
O O9 0.047374 0.631353 0.042167
O O10 0.790620 0.924432 0.489511
O O11 0.660220 0.854397 0.079416
O O12 0.490456 0.604128 0.247101
#
# Coordination Sequence:
#
# PCOD8125849 Si02
#       6
#     4   4   4   4   4   4
#     4  10  22  40  64  89 120 160 202 254 306 356
#     4  10  21  35  57  89 122 155 195 245 300 353
#     4  11  22  39  63  91 121 158 200 252 306 359
#     4  11  21  37  61  92 124 159 202 249 301 362
#     4  11  23  40  62  88 120 164 205 249 302 364
#     4  11  23  43  62  87 124 164 204 249 306 364
#
# _framework density 23.443176000000001
#
# number of rings (size 3 to 8) (size 9 to 14) (size 15 to 20)
#    0.000    1.333    0.000    8.000    0.000    2.667 
#    0.000    0.833    0.000    0.000    0.000    0.000 
#    0.000    0.000    0.000    0.000    0.000    0.000 
#
# Total GULP energy -297530.653625 kJ/mol
# GULP energy per Si atom -12397.110568 kJ/mol
# Density = 2.338982 g / cm^3
# Si number density = 23.443176 Si / 1000 Ang^3
#
#
#
# Elastic Constant Matrix: (Units=GPa)
#
#
# Indices 1 2 3 4 5 6 
#
# 1 38.8287 24.3109 18.1961 0.0000 -2.6229 0.0000
# 2 24.3109 149.8673 49.2541 0.0000 -7.3510 0.0000
# 3 18.1961 49.2541 93.1196 0.0000 -7.3478 0.0000
# 4 0.0000 0.0000 0.0000 38.6819 0.0000 5.1234
# 5 -2.6229 -7.3510 -7.3478 0.0000 28.9914 0.0000
# 6 0.0000 0.0000 0.0000 5.1234 0.0000 30.4693
#
#
#
# Elastic Compliance Matrix: (Units=1/GPa)
#
#
# Indices 1 2 3 4 5 6 
#
# 1 0.029842 -0.003517 -0.003907 0.000000 0.000818 0.000000
# 2 -0.003517 0.008519 -0.003748 0.000000 0.000892 0.000000
# 3 -0.003907 -0.003748 0.013655 0.000000 0.002157 0.000000
# 4 0.000000 0.000000 0.000000 0.026441 0.000000 -0.004446
# 5 0.000818 0.000892 0.002157 0.000000 0.035340 0.000000
# 6 0.000000 0.000000 0.000000 -0.004446 0.000000 0.033567
#
#
# Mechanical properties :
#
#
# Convention : Reuss Voigt Hill
#
# Bulk Modulus (GPa) = 33.70133 51.70418 42.70276
# Shear Modulus (GPa) = 27.83999 32.29884 30.06941
#
# Velocity S-wave (km/s) = 3.44983 3.71583 3.58530
# Velocity P-wave (km/s) = 5.50231 6.36497 5.94930
#
# Compressibility (1/GPa) = 0.02967242
#
# Stress axis : x y z
#
# Youngs Moduli (GPa) = 33.50981 117.38942 73.23316
#
# Poissons Ratio (x) = 0.41284 0.28609
# Poissons Ratio (y) = 0.11785 0.27449
# Poissons Ratio (z) = 0.13091 0.44000
#
# Static dielectric constant tensor:
#      x y z
#    x 4.093790 0.000000 0.169820 
#    y 0.000000 4.521920 0.000000 
#    z 0.169820 0.000000 4.206280 
# 
# 
# High freq. dielectric constant tensor:
#      x y z
#    x 1.913180 0.000000 0.013190 
#    y 0.000000 1.932150 0.000000 
#    z 0.013190 0.000000 1.923200 
# 
# From -- ./inp_files/46374.got.cif
#   From: 2010.03.12/outbox.cif.g09.slc.cpg/sg14_24_cif.got.tgz:46374.got - 2010.03.31 13:35:05.
