data_PCOD8125541
_publ_section_title
;
Structure prediction by ZEFSAII (Michael W. Deem and Ramdas Pophale) SiO2 
 PCOD8125541
Probable space group: P 21/C
;
_chemical_formula_sum "Si O2"
_cell_formula_units_Z 28
_cell_length_a 5.547312
_cell_length_b 12.980548
_cell_length_c 19.694629
_cell_angle_alpha 90.000000
_cell_angle_beta 110.076095
_cell_angle_gamma 90.000000
_cell_volume 1331.983584
_symmetry_space_group_name_H-M "P 21/C"
_symmetry_group_IT_number 14
_symmetry_cell_setting 'monoclinic'
loop_
_space_group_symop_operation_xyz
x,y,z
-x,1/2+y,1/2-z
-x,-y,-z
x,1/2-y,1/2+z
loop_
_atom_site_type_symbol
_atom_site_label
_atom_site_fract_x
_atom_site_fract_y
_atom_site_fract_z
Si Si1 0.083473 0.536808 0.768957
Si Si2 0.297398 0.677322 0.681930
Si Si3 0.381728 0.483201 0.364142
Si Si4 0.989084 0.723416 0.831282
Si Si5 0.690764 0.673444 0.189348
Si Si6 0.572316 0.795342 0.902318
Si Si7 0.225088 0.304176 0.432412
O O1 0.214562 0.636724 0.746986
O O2 0.962717 0.597668 0.821891
O O3 0.286956 0.450278 0.811792
O O4 0.889239 0.483877 0.696413
O O5 0.503436 0.593887 0.679338
O O6 0.429021 0.790512 0.702266
O O7 0.080380 0.685432 0.603651
O O8 0.560341 0.581105 0.393439
O O9 0.343053 0.418114 0.429636
O O10 0.282999 0.751408 0.878462
O O11 0.929600 0.779291 0.753626
O O12 0.769541 0.754329 0.864555
O O13 0.680576 0.718874 0.112449
O O14 0.702266 0.766558 0.986241
#
# Coordination Sequence:
#
# PCOD8125541 Si02
#       7
#     4   4   4   4   4   4   4
#     4  11  22  41  66 105 131 177 237 291 337 406
#     4  10  20  39  67  96 133 175 229 284 347 407
#     4  10  21  39  70  97 135 175 225 288 354 406
#     4  12  25  44  67 100 136 177 232 284 336 409
#     4  11  22  42  71  95 136 185 225 286 339 407
#     4  12  27  43  67 103 142 179 222 290 349 403
#     4  10  24  42  64  98 140 177 228 276 353 416
#
# _framework density 21.021281999999999
#
# number of rings (size 3 to 8) (size 9 to 14) (size 15 to 20)
#    0.000    1.143    5.714    2.143    6.000    1.714 
#    0.000    1.429    0.000    0.000    0.000    0.000 
#    0.000    0.000    0.000    0.000    0.000    0.000 
#
# Total GULP energy -346944.131382 kJ/mol
# GULP energy per Si atom -12390.861835 kJ/mol
# Density = 2.097344 g / cm^3
# Si number density = 21.021282 Si / 1000 Ang^3
#
#
#
# Elastic Constant Matrix: (Units=GPa)
#
#
# Indices 1 2 3 4 5 6 
#
# 1 103.1875 51.5510 17.9943 0.0000 -0.0400 0.0000
# 2 51.5510 126.2155 56.5474 0.0000 -2.0314 0.0000
# 3 17.9943 56.5474 80.3047 0.0000 -2.6505 0.0000
# 4 0.0000 0.0000 0.0000 20.9857 0.0000 6.7648
# 5 -0.0400 -2.0314 -2.6505 0.0000 24.8336 0.0000
# 6 0.0000 0.0000 0.0000 6.7648 0.0000 37.0083
#
#
#
# Elastic Compliance Matrix: (Units=1/GPa)
#
#
# Indices 1 2 3 4 5 6 
#
# 1 0.012248 -0.005513 0.001127 0.000000 -0.000311 0.000000
# 2 -0.005513 0.014056 -0.008655 0.000000 0.000217 0.000000
# 3 0.001127 -0.008655 0.018336 0.000000 0.001251 0.000000
# 4 0.000000 0.000000 0.000000 0.050635 0.000000 -0.009256
# 5 -0.000311 0.000217 0.001251 0.000000 0.040419 0.000000
# 6 0.000000 0.000000 0.000000 -0.009256 0.000000 0.028713
#
#
# Mechanical properties :
#
#
# Convention : Reuss Voigt Hill
#
# Bulk Modulus (GPa) = 53.88348 62.43255 58.15801
# Shear Modulus (GPa) = 25.42273 28.80652 27.11463
#
# Velocity S-wave (km/s) = 3.48139 3.70584 3.59537
# Velocity P-wave (km/s) = 6.46905 6.93363 6.70536
#
# Compressibility (1/GPa) = 0.01855857
#
# Stress axis : x y z
#
# Youngs Moduli (GPa) = 81.64277 71.14581 54.53795
#
# Poissons Ratio (x) = 0.39220 -0.06146
# Poissons Ratio (y) = 0.45006 0.47203
# Poissons Ratio (z) = -0.09201 0.61577
#
# Static dielectric constant tensor:
#      x y z
#    x 4.077150 0.000000 0.030040 
#    y 0.000000 3.806770 0.000000 
#    z 0.030040 0.000000 3.554450 
# 
# 
# High freq. dielectric constant tensor:
#      x y z
#    x 1.835220 0.000000 0.003660 
#    y 0.000000 1.818640 0.000000 
#    z 0.003660 0.000000 1.802380 
# 
# From -- ./inp_files/63366.got.cif
#   From: 2010.03.12/outbox.cif.g09.slc.cpg/sg14_32_cif.got.tgz:63366.got - 2010.03.31 13:35:05.
