data_PCOD8125008
_publ_section_title
;
Structure prediction by ZEFSAII (Michael W. Deem and Ramdas Pophale) SiO2 
 PCOD8125008
Probable space group: P 21/C
;
_chemical_formula_sum "Si O2"
_cell_formula_units_Z 32
_cell_length_a 20.238371
_cell_length_b 6.344876
_cell_length_c 13.753806
_cell_angle_alpha 90.000000
_cell_angle_beta 114.813343
_cell_angle_gamma 90.000000
_cell_volume 1603.076484
_symmetry_space_group_name_H-M "P 21/C"
_symmetry_group_IT_number 14
_symmetry_cell_setting 'monoclinic'
loop_
_space_group_symop_operation_xyz
x,y,z
-x,1/2+y,1/2-z
-x,-y,-z
x,1/2-y,1/2+z
loop_
_atom_site_type_symbol
_atom_site_label
_atom_site_fract_x
_atom_site_fract_y
_atom_site_fract_z
Si Si1 0.654610 0.639377 0.441543
Si Si2 0.276654 0.515447 0.114883
Si Si3 0.096089 0.935116 0.998272
Si Si4 0.778725 0.158773 0.068012
Si Si5 0.469495 0.427064 0.083541
Si Si6 0.960940 0.811949 0.423141
Si Si7 0.417535 0.761992 0.203116
Si Si8 0.155875 0.613873 0.189398
O O1 0.710350 0.499465 0.539224
O O2 0.601403 0.494525 0.345464
O O3 0.701607 0.777210 0.395352
O O4 0.604823 0.791943 0.477953
O O5 0.345680 0.645210 0.197590
O O6 0.217650 0.506306 0.162533
O O7 0.246475 0.625306 0.997976
O O8 0.022565 0.828347 0.906263
O O9 0.159013 0.949955 0.958067
O O10 0.118816 0.803791 0.107931
O O11 0.079348 0.171786 0.020426
O O12 0.810400 0.213402 0.192810
O O13 0.453741 0.632957 0.137671
O O14 0.528015 0.278417 0.172778
O O15 0.500000 0.500000 0.000000
O O16 0.900672 0.924641 0.317068
O O17 0.000000 0.000000 0.500000
#
# Coordination Sequence:
#
# PCOD8125008 Si02
#       8
#     4   4   4   4   4   4   4   4
#     4  10  21  39  59  84 121 156 198 254 302 357
#     4   9  21  37  59  81 118 157 193 250 300 353
#     4   9  19  38  57  82 121 153 191 248 290 351
#     4  10  21  37  57  88 118 153 203 247 296 359
#     4  11  23  39  62  88 119 159 202 251 308 367
#     4   9  18  36  58  81 112 154 195 238 303 352
#     4  10  21  40  58  86 119 153 202 251 305 359
#     4  10  20  36  58  87 115 156 198 239 299 354
#
# _framework density 19.961617
#
# number of rings (size 3 to 8) (size 9 to 14) (size 15 to 20)
#    0.000    2.250    1.250    0.750    0.000    5.500 
#    6.750    0.000    0.000    0.000    0.000    0.000 
#    0.000    0.000    0.000    0.000    0.000    0.000 
#
# Total GULP energy -396731.940320 kJ/mol
# GULP energy per Si atom -12397.873135 kJ/mol
# Density = 1.991618 g / cm^3
# Si number density = 19.961617 Si / 1000 Ang^3
#
#
#
# Elastic Constant Matrix: (Units=GPa)
#
#
# Indices 1 2 3 4 5 6 
#
# 1 100.8543 24.7338 46.8021 0.0000 13.0904 0.0000
# 2 24.7338 78.4676 28.9069 0.0000 5.4516 0.0000
# 3 46.8021 28.9069 102.5505 0.0000 6.4016 0.0000
# 4 0.0000 0.0000 0.0000 12.0556 0.0000 1.4820
# 5 13.0904 5.4516 6.4016 0.0000 17.6853 0.0000
# 6 0.0000 0.0000 0.0000 1.4820 0.0000 33.2946
#
#
#
# Elastic Compliance Matrix: (Units=1/GPa)
#
#
# Indices 1 2 3 4 5 6 
#
# 1 0.013842 -0.001870 -0.005306 0.000000 -0.007748 0.000000
# 2 -0.001870 0.014631 -0.003147 0.000000 -0.001987 0.000000
# 3 -0.005306 -0.003147 0.013049 0.000000 0.000174 0.000000
# 4 0.000000 0.000000 0.000000 0.083405 0.000000 -0.003713
# 5 -0.007748 -0.001987 0.000174 0.000000 0.062829 0.000000
# 6 0.000000 0.000000 0.000000 -0.003713 0.000000 0.030200
#
#
# Mechanical properties :
#
#
# Convention : Reuss Voigt Hill
#
# Bulk Modulus (GPa) = 47.90230 53.63978 50.77104
# Shear Modulus (GPa) = 20.36152 24.70241 22.53196
#
# Velocity S-wave (km/s) = 3.19726 3.52162 3.36335
# Velocity P-wave (km/s) = 6.13834 6.59284 6.36965
#
# Compressibility (1/GPa) = 0.02087583
#
# Stress axis : x y z
#
# Youngs Moduli (GPa) = 72.24330 68.34892 76.63315
#
# Poissons Ratio (x) = 0.12781 0.40665
# Poissons Ratio (y) = 0.13509 0.24114
# Poissons Ratio (z) = 0.38336 0.21507
#
# Static dielectric constant tensor:
#      x y z
#    x 4.046000 0.000000 0.365460 
#    y 0.000000 3.859540 0.000000 
#    z 0.365460 0.000000 3.253590 
# 
# 
# High freq. dielectric constant tensor:
#      x y z
#    x 1.801650 0.000000 0.022000 
#    y 0.000000 1.787800 0.000000 
#    z 0.022000 0.000000 1.739160 
# 
# From -- ./inp_files/35541.got.cif
#   From: 2010.03.12/outbox.cif.g09.slc.cpg/sg14_18_cif.got.tgz:35541.got - 2010.03.31 13:35:05.
