data_PCOD8125413
_publ_section_title
;
Structure prediction by ZEFSAII (Michael W. Deem and Ramdas Pophale) SiO2 
 PCOD8125413
Probable space group: P 21/C
;
_chemical_formula_sum "Si O2"
_cell_formula_units_Z 28
_cell_length_a 27.423126
_cell_length_b 9.166991
_cell_length_c 8.884654
_cell_angle_alpha 90.000000
_cell_angle_beta 38.791727
_cell_angle_gamma 90.000000
_cell_volume 1399.262873
_symmetry_space_group_name_H-M "P 21/C"
_symmetry_group_IT_number 14
_symmetry_cell_setting 'monoclinic'
loop_
_space_group_symop_operation_xyz
x,y,z
-x,1/2+y,1/2-z
-x,-y,-z
x,1/2-y,1/2+z
loop_
_atom_site_type_symbol
_atom_site_label
_atom_site_fract_x
_atom_site_fract_y
_atom_site_fract_z
Si Si1 0.918391 0.432251 0.152979
Si Si2 0.855978 0.339125 0.003178
Si Si3 0.586966 0.944743 0.283313
Si Si4 0.752571 0.025928 0.512149
Si Si5 0.708990 0.326357 0.564529
Si Si6 0.344074 0.232186 0.144356
Si Si7 0.776886 0.540401 0.631880
O O1 0.894069 0.290516 0.312341
O O2 0.855100 0.558405 0.343602
O O3 0.919828 0.400792 0.968908
O O4 0.000000 0.500000 0.000000
O O5 0.819903 0.461431 0.977618
O O6 0.784541 0.295428 0.281468
O O7 0.605628 0.848420 0.384302
O O8 0.500000 0.000000 0.500000
O O9 0.598241 0.841606 0.113019
O O10 0.641621 0.088471 0.136809
O O11 0.690969 0.162110 0.662321
O O12 0.695168 0.889684 0.659152
O O13 0.799833 0.010833 0.243028
O O14 0.725612 0.415725 0.675754
O O15 0.271156 0.310528 0.240180
#
# Coordination Sequence:
#
# PCOD8125413 Si02
#       7
#     4   4   4   4   4   4   4
#     4  11  23  43  63  97 140 165 218 279 339 390
#     4  11  20  39  67  93 120 175 222 265 316 403
#     4  11  25  45  63  99 143 166 215 282 342 389
#     4  12  19  39  73  93 121 167 240 261 318 389
#     4  10  20  38  69  93 122 174 222 267 319 399
#     4  11  24  42  66  99 127 176 224 272 322 398
#     4  10  21  40  64  94 128 171 222 269 318 399
#
# _framework density 20.010535999999998
#
# number of rings (size 3 to 8) (size 9 to 14) (size 15 to 20)
#    0.000    1.143    7.143    0.000    0.000    1.143 
#    7.714    2.857    0.000    0.000    0.000    0.000 
#    0.000    0.000    0.000    0.000    0.000    0.000 
#
# Total GULP energy -346907.662007 kJ/mol
# GULP energy per Si atom -12389.559357 kJ/mol
# Density = 1.996499 g / cm^3
# Si number density = 20.010536 Si / 1000 Ang^3
#
#
#
# Elastic Constant Matrix: (Units=GPa)
#
#
# Indices 1 2 3 4 5 6 
#
# 1 122.4029 51.3479 46.0267 0.0000 2.0541 0.0000
# 2 51.3479 105.4942 39.9013 0.0000 -10.0455 0.0000
# 3 46.0267 39.9013 78.9891 0.0000 2.2350 0.0000
# 4 0.0000 0.0000 0.0000 36.2131 0.0000 -2.6919
# 5 2.0541 -10.0455 2.2350 0.0000 40.7172 0.0000
# 6 0.0000 0.0000 0.0000 -2.6919 0.0000 32.3582
#
#
#
# Elastic Compliance Matrix: (Units=1/GPa)
#
#
# Indices 1 2 3 4 5 6 
#
# 1 0.011651 -0.004008 -0.004727 0.000000 -0.001317 0.000000
# 2 -0.004008 0.013535 -0.004609 0.000000 0.003794 0.000000
# 3 -0.004727 -0.004609 0.017795 0.000000 -0.001875 0.000000
# 4 0.000000 0.000000 0.000000 0.027786 0.000000 0.002312
# 5 -0.001317 0.003794 -0.001875 0.000000 0.025665 0.000000
# 6 0.000000 0.000000 0.000000 0.002312 0.000000 0.031096
#
#
# Mechanical properties :
#
#
# Convention : Reuss Voigt Hill
#
# Bulk Modulus (GPa) = 61.37574 64.60421 62.98998
# Shear Modulus (GPa) = 31.31901 33.16505 32.24203
#
# Velocity S-wave (km/s) = 3.96046 4.07551 4.01840
# Velocity P-wave (km/s) = 7.18693 7.38252 7.28538
#
# Compressibility (1/GPa) = 0.01629308
#
# Stress axis : x y z
#
# Youngs Moduli (GPa) = 85.83125 73.88388 56.19439
#
# Poissons Ratio (x) = 0.29616 0.26561
# Poissons Ratio (y) = 0.34405 0.25898
# Poissons Ratio (z) = 0.40570 0.34051
#
# Static dielectric constant tensor:
#      x y z
#    x 3.896970 0.000000 0.262320 
#    y 0.000000 3.841870 0.000000 
#    z 0.262320 0.000000 3.528360 
# 
# 
# High freq. dielectric constant tensor:
#      x y z
#    x 1.778690 0.000000 0.028330 
#    y 0.000000 1.785330 0.000000 
#    z 0.028330 0.000000 1.766570 
# 
# From -- ./inp_files/19938.got.cif
#   From: 2010.03.12/outbox.cif.g09.slc.cpg/sg14_10_cif.got.tgz:19938.got - 2010.03.31 13:35:05.
