data_PCOD8125470
_publ_section_title
;
Structure prediction by ZEFSAII (Michael W. Deem and Ramdas Pophale) SiO2 
 PCOD8125470
Probable space group: P 21/C
;
_chemical_formula_sum "Si O2"
_cell_formula_units_Z 20
_cell_length_a 9.805872
_cell_length_b 8.356936
_cell_length_c 30.778425
_cell_angle_alpha 90.000000
_cell_angle_beta 157.690592
_cell_angle_gamma 90.000000
_cell_volume 957.447853
_symmetry_space_group_name_H-M "P 21/C"
_symmetry_group_IT_number 14
_symmetry_cell_setting 'monoclinic'
loop_
_space_group_symop_operation_xyz
x,y,z
-x,1/2+y,1/2-z
-x,-y,-z
x,1/2-y,1/2+z
loop_
_atom_site_type_symbol
_atom_site_label
_atom_site_fract_x
_atom_site_fract_y
_atom_site_fract_z
Si Si1 0.603047 0.684017 0.531067
Si Si2 0.738347 0.691588 0.979804
Si Si3 0.304812 0.616726 0.605457
Si Si4 0.200354 0.841980 0.755019
Si Si5 0.533993 0.346843 0.925832
O O1 0.500000 0.500000 0.500000
O O2 0.532028 0.757360 0.462813
O O3 0.353944 0.767456 0.494593
O O4 0.022546 0.722016 0.666907
O O5 0.507521 0.745496 0.870445
O O6 0.784108 0.500427 0.991642
O O7 0.137575 0.771056 0.094177
O O8 0.635342 0.503683 0.718717
O O9 0.428542 0.721608 0.601431
O O10 0.000000 0.500000 0.500000
O O11 0.886531 0.899038 0.695853
#
# Coordination Sequence:
#
# PCOD8125470 Si02
#       5
#     4   4   4   4   4
#     4  10  22  38  64  94 126 168 218 263 314 388
#     4  11  21  38  64  94 130 167 213 267 321 369
#     4  10  20  39  62  87 128 163 209 266 317 370
#     4   9  22  38  64  88 128 171 216 253 319 377
#     4  10  21  38  64  91 127 168 214 255 317 386
#
# _framework density 20.888864999999999
#
# number of rings (size 3 to 8) (size 9 to 14) (size 15 to 20)
#    1.200    0.800    0.000    4.800    2.800    0.000 
#    0.000    6.000    0.000    0.000    0.000    0.000 
#    0.000    0.000    0.000    0.000    0.000    0.000 
#
# Total GULP energy -247779.552187 kJ/mol
# GULP energy per Si atom -12388.977609 kJ/mol
# Density = 2.084132 g / cm^3
# Si number density = 20.888865 Si / 1000 Ang^3
#
#
#
# Elastic Constant Matrix: (Units=GPa)
#
#
# Indices 1 2 3 4 5 6 
#
# 1 69.9717 47.5264 19.0733 0.0025 6.0899 0.0099
# 2 47.5264 174.7501 58.2759 0.0027 10.2327 0.0057
# 3 19.0733 58.2759 67.3053 0.0089 4.7354 0.0136
# 4 0.0025 0.0027 0.0089 44.0081 -0.0014 4.7610
# 5 6.0899 10.2327 4.7354 -0.0014 33.9253 -0.0041
# 6 0.0099 0.0057 0.0136 4.7610 -0.0041 37.8176
#
#
#
# Elastic Compliance Matrix: (Units=1/GPa)
#
#
# Indices 1 2 3 4 5 6 
#
# 1 0.017694 -0.004330 -0.001144 0.000000 -0.001710 -0.000004
# 2 -0.004330 0.009178 -0.006645 0.000001 -0.001064 0.000002
# 3 -0.001144 -0.006645 0.020986 -0.000003 -0.000720 -0.000006
# 4 0.000000 0.000001 -0.000003 0.023037 0.000001 -0.002900
# 5 -0.001710 -0.001064 -0.000720 0.000001 0.030205 0.000004
# 6 -0.000004 0.000002 -0.000006 -0.002900 0.000004 0.026808
#
#
# Mechanical properties :
#
#
# Convention : Reuss Voigt Hill
#
# Bulk Modulus (GPa) = 42.33950 62.41980 52.37965
# Shear Modulus (GPa) = 31.24606 35.62698 33.43652
#
# Velocity S-wave (km/s) = 3.87178 4.13431 4.00520
# Velocity P-wave (km/s) = 6.34827 7.26201 6.82046
#
# Compressibility (1/GPa) = 0.02361861
#
# Stress axis : x y z
#
# Youngs Moduli (GPa) = 56.51783 108.95060 47.65025
#
# Poissons Ratio (x) = 0.47179 0.05453
# Poissons Ratio (y) = 0.24474 0.31664
# Poissons Ratio (z) = 0.06468 0.72399
#
# Static dielectric constant tensor:
#      x y z
#    x 3.767900 0.000010 0.166810 
#    y 0.000010 4.018890 0.000000 
#    z 0.166810 0.000000 3.537480 
# 
# 
# High freq. dielectric constant tensor:
#      x y z
#    x 1.813130 0.000000 0.010940 
#    y 0.000000 1.831860 0.000000 
#    z 0.010940 0.000000 1.785690 
# 
# From -- ./inp_files/79416.got.cif
#   From: 2010.03.12/outbox.cif.g09.slc.cpg/sg14_40_cif.got.tgz:79416.got - 2010.03.31 13:35:05.
