data_PCOD8125130
_publ_section_title
;
Structure prediction by ZEFSAII (Michael W. Deem and Ramdas Pophale) SiO2 
 PCOD8125130
Probable space group: P 21/C
;
_chemical_formula_sum "Si O2"
_cell_formula_units_Z 20
_cell_length_a 8.939542
_cell_length_b 14.494104
_cell_length_c 7.807391
_cell_angle_alpha 90.000000
_cell_angle_beta 122.815075
_cell_angle_gamma 90.000000
_cell_volume 850.180309
_symmetry_space_group_name_H-M "P 21/C"
_symmetry_group_IT_number 14
_symmetry_cell_setting 'monoclinic'
loop_
_space_group_symop_operation_xyz
x,y,z
-x,1/2+y,1/2-z
-x,-y,-z
x,1/2-y,1/2+z
loop_
_atom_site_type_symbol
_atom_site_label
_atom_site_fract_x
_atom_site_fract_y
_atom_site_fract_z
Si Si1 0.497549 0.613169 0.805111
Si Si2 0.375152 0.796518 0.547731
Si Si3 0.140464 0.419900 0.132708
Si Si4 0.164831 0.515080 0.478665
Si Si5 0.854920 0.176098 0.296988
O O1 0.467464 0.700515 0.660379
O O2 0.507347 0.643541 0.011618
O O3 0.684062 0.567404 0.872082
O O4 0.347185 0.533861 0.694276
O O5 0.200861 0.774574 0.317935
O O6 0.304752 0.852353 0.669089
O O7 0.187482 0.427047 0.364397
O O8 0.000000 0.500000 0.000000
O O9 0.041748 0.323184 0.019840
O O10 0.125296 0.605163 0.343769
O O11 0.000000 0.500000 0.500000
#
# Coordination Sequence:
#
# PCOD8125130 Si02
#       5
#     4   4   4   4   4
#     4  10  20  37  60  85 114 151 192 238 287 343
#     4   9  19  37  59  82 110 149 195 242 290 338
#     4  10  21  37  55  84 116 151 189 231 284 342
#     4  10  20  37  58  82 114 152 189 234 284 339
#     4   9  19  36  56  81 113 147 188 239 288 340
#
# _framework density 23.524421
#
# number of rings (size 3 to 8) (size 9 to 14) (size 15 to 20)
#    0.000    2.400    0.000    1.800    0.000    1.600 
#    0.000   28.000    0.000    0.000    0.000    0.000 
#    0.000    0.000    0.000    0.000    0.000    0.000 
#
# Total GULP energy -247784.472044 kJ/mol
# GULP energy per Si atom -12389.223602 kJ/mol
# Density = 2.347088 g / cm^3
# Si number density = 23.524421 Si / 1000 Ang^3
#
#
#
# Elastic Constant Matrix: (Units=GPa)
#
#
# Indices 1 2 3 4 5 6 
#
# 1 235.4423 44.9487 56.9283 0.0000 -5.1582 0.0000
# 2 44.9487 36.8518 19.6491 0.0000 1.5408 0.0000
# 3 56.9283 19.6491 52.2001 0.0000 -0.6239 0.0000
# 4 0.0000 0.0000 0.0000 40.1541 0.0000 -3.4415
# 5 -5.1582 1.5408 -0.6239 0.0000 49.9962 0.0000
# 6 0.0000 0.0000 0.0000 -3.4415 0.0000 42.1877
#
#
#
# Elastic Compliance Matrix: (Units=1/GPa)
#
#
# Indices 1 2 3 4 5 6 
#
# 1 0.006499 -0.005235 -0.005107 0.000000 0.000768 0.000000
# 2 -0.005235 0.038240 -0.008707 0.000000 -0.001827 0.000000
# 3 -0.005107 -0.008707 0.028005 0.000000 0.000091 0.000000
# 4 0.000000 0.000000 0.000000 0.025079 0.000000 0.002046
# 5 0.000768 -0.001827 0.000091 0.000000 0.020138 0.000000
# 6 0.000000 0.000000 0.000000 0.002046 0.000000 0.023870
#
#
# Mechanical properties :
#
#
# Convention : Reuss Voigt Hill
#
# Bulk Modulus (GPa) = 28.86377 63.06070 45.96224
# Shear Modulus (GPa) = 26.11255 39.99882 33.05569
#
# Velocity S-wave (km/s) = 3.33531 4.12796 3.75262
# Velocity P-wave (km/s) = 5.20852 7.04164 6.19328
#
# Compressibility (1/GPa) = 0.03464551
#
# Stress axis : x y z
#
# Youngs Moduli (GPa) = 153.88050 26.15066 35.70741
#
# Poissons Ratio (x) = 0.13691 0.18237
# Poissons Ratio (y) = 0.80561 0.31089
# Poissons Ratio (z) = 0.78592 0.22768
#
# Static dielectric constant tensor:
#      x y z
#    x 4.228340 0.000000 -0.051980 
#    y 0.000000 4.334590 0.000000 
#    z -0.051980 0.000000 4.988500 
# 
# 
# High freq. dielectric constant tensor:
#      x y z
#    x 1.939830 0.000000 -0.018150 
#    y 0.000000 1.895910 0.000000 
#    z -0.018150 0.000000 1.930070 
# 
# From -- ./inp_files/6046.got.cif
#   From: 2010.03.12/outbox.cif.g09.slc.cpg/sg14_4_cif.got.tgz:6046.got - 2010.03.31 13:35:05.
