data_PCOD8126741
_publ_section_title
;
Structure prediction by ZEFSAII (Michael W. Deem and Ramdas Pophale) SiO2 
 PCOD8126741
Probable space group: P 21/C
;
_chemical_formula_sum "Si O2"
_cell_formula_units_Z 32
_cell_length_a 21.571005
_cell_length_b 12.618617
_cell_length_c 12.641103
_cell_angle_alpha 90.000000
_cell_angle_beta 153.557141
_cell_angle_gamma 90.000000
_cell_volume 1532.232792
_symmetry_space_group_name_H-M "P 21/C"
_symmetry_group_IT_number 14
_symmetry_cell_setting 'monoclinic'
loop_
_space_group_symop_operation_xyz
x,y,z
-x,1/2+y,1/2-z
-x,-y,-z
x,1/2-y,1/2+z
loop_
_atom_site_type_symbol
_atom_site_label
_atom_site_fract_x
_atom_site_fract_y
_atom_site_fract_z
Si Si1 0.395011 0.424421 0.778384
Si Si2 0.236439 0.221762 0.193900
Si Si3 0.999747 0.942414 0.110779
Si Si4 0.548632 0.634753 0.362610
Si Si5 0.214476 0.891271 0.925785
Si Si6 0.703859 0.434973 0.671906
Si Si7 0.287789 0.825544 0.602950
Si Si8 0.939669 0.917769 0.607457
O O1 0.339422 0.332048 0.768155
O O2 0.468567 0.369743 0.790241
O O3 0.266005 0.493195 0.539107
O O4 0.500000 0.500000 0.000000
O O5 0.334232 0.276650 0.431870
O O6 0.148492 0.312547 0.998768
O O7 0.132503 0.136326 0.086981
O O8 0.143279 0.879635 0.348022
O O9 0.983114 0.036752 0.170961
O O10 0.000000 0.000000 0.000000
O O11 0.585746 0.520124 0.466700
O O12 0.398762 0.657802 0.180712
O O13 0.264569 0.863641 0.883152
O O14 0.047990 0.889800 0.680276
O O15 0.270868 0.800485 0.090010
O O16 0.654575 0.364846 0.695894
O O17 0.847329 0.490259 0.918842
#
# Coordination Sequence:
#
# PCOD8126741 Si02
#       8
#     4   4   4   4   4   4   4   4
#     4  11  25  43  67  95 130 169 221 275 317 389
#     4  11  23  45  66  97 130 176 220 265 334 388
#     4  11  25  41  65  97 134 170 211 281 328 385
#     4  10  24  43  67  93 129 178 219 263 328 394
#     4  11  21  39  63  95 124 167 214 264 326 379
#     4   9  22  41  64  88 127 171 214 265 317 391
#     4  11  23  42  63  98 128 169 216 270 332 384
#     4  10  21  42  63  94 128 168 217 261 322 393
#
# _framework density 20.884554000000001
#
# number of rings (size 3 to 8) (size 9 to 14) (size 15 to 20)
#    0.000    1.500    2.500    1.500    3.500    3.000 
#    0.000    0.000    0.000    0.000    0.000    0.000 
#    0.000    0.000    0.000    0.000    0.000    0.000 
#
# Total GULP energy -396819.114993 kJ/mol
# GULP energy per Si atom -12400.597344 kJ/mol
# Density = 2.083702 g / cm^3
# Si number density = 20.884554 Si / 1000 Ang^3
#
#
#
# Elastic Constant Matrix: (Units=GPa)
#
#
# Indices 1 2 3 4 5 6 
#
# 1 117.9268 53.2757 45.6615 0.0000 3.0293 0.0000
# 2 53.2757 104.8222 21.6444 0.0000 -5.5972 0.0000
# 3 45.6615 21.6444 58.1759 0.0000 1.2392 0.0000
# 4 0.0000 0.0000 0.0000 27.8320 0.0000 3.8971
# 5 3.0293 -5.5972 1.2392 0.0000 39.8417 0.0000
# 6 0.0000 0.0000 0.0000 3.8971 0.0000 37.9242
#
#
#
# Elastic Compliance Matrix: (Units=1/GPa)
#
#
# Indices 1 2 3 4 5 6 
#
# 1 0.014705 -0.005615 -0.009418 0.000000 -0.001614 0.000000
# 2 -0.005615 0.012577 -0.000319 0.000000 0.002204 0.000000
# 3 -0.009418 -0.000319 0.024702 0.000000 -0.000097 0.000000
# 4 0.000000 0.000000 0.000000 0.036454 0.000000 -0.003746
# 5 -0.001614 0.002204 -0.000097 0.000000 0.025535 0.000000
# 6 0.000000 0.000000 0.000000 -0.003746 0.000000 0.026753
#
#
# Mechanical properties :
#
#
# Convention : Reuss Voigt Hill
#
# Bulk Modulus (GPa) = 46.99323 58.00979 52.50151
# Shear Modulus (GPa) = 28.00734 31.80914 29.90824
#
# Velocity S-wave (km/s) = 3.66602 3.90692 3.78838
# Velocity P-wave (km/s) = 6.36159 6.94181 6.65802
#
# Compressibility (1/GPa) = 0.02127966
#
# Stress axis : x y z
#
# Youngs Moduli (GPa) = 68.00527 79.50756 40.48228
#
# Poissons Ratio (x) = 0.44645 0.38126
# Poissons Ratio (y) = 0.38186 0.01292
# Poissons Ratio (z) = 0.64048 0.02537
#
# Static dielectric constant tensor:
#      x y z
#    x 3.933980 0.000000 -0.018810 
#    y 0.000000 4.001210 0.000000 
#    z -0.018810 0.000000 3.770020 
# 
# 
# High freq. dielectric constant tensor:
#      x y z
#    x 1.823370 0.000000 0.007830 
#    y 0.000000 1.826680 0.000000 
#    z 0.007830 0.000000 1.815160 
# 
# From -- ./inp_files/35266.got.cif
#   From: 2010.03.12/outbox.cif.g09.slc.cpg/sg14_18_cif.got.tgz:35266.got - 2010.03.31 13:35:05.
