data_PCOD8126535
_publ_section_title
;
Structure prediction by ZEFSAII (Michael W. Deem and Ramdas Pophale) SiO2 
 PCOD8126535
Probable space group: P 21/C
;
_chemical_formula_sum "Si O2"
_cell_formula_units_Z 32
_cell_length_a 9.083179
_cell_length_b 10.917785
_cell_length_c 29.025279
_cell_angle_alpha 90.000000
_cell_angle_beta 150.126573
_cell_angle_gamma 90.000000
_cell_volume 1433.681981
_symmetry_space_group_name_H-M "P 21/C"
_symmetry_group_IT_number 14
_symmetry_cell_setting 'monoclinic'
loop_
_space_group_symop_operation_xyz
x,y,z
-x,1/2+y,1/2-z
-x,-y,-z
x,1/2-y,1/2+z
loop_
_atom_site_type_symbol
_atom_site_label
_atom_site_fract_x
_atom_site_fract_y
_atom_site_fract_z
Si Si1 0.780766 0.569706 0.291386
Si Si2 0.520557 0.811546 0.911549
Si Si3 0.451427 0.431761 0.132086
Si Si4 0.292956 0.990489 0.782582
Si Si5 0.882473 0.464969 0.038681
Si Si6 0.110782 0.688099 0.868482
Si Si7 0.201438 0.843934 0.673804
Si Si8 0.134498 0.902673 0.110192
O O1 0.745876 0.490298 0.235099
O O2 0.454100 0.566703 0.223467
O O3 0.864319 0.708816 0.306364
O O4 0.983594 0.505951 0.385849
O O5 0.483274 0.707607 0.863171
O O6 0.397626 0.758209 0.926358
O O7 0.334969 0.933035 0.845147
O O8 0.861998 0.851702 0.007046
O O9 0.168851 0.421585 0.088682
O O10 0.387014 0.519624 0.070288
O O11 0.607014 0.051305 0.853345
O O12 0.027550 0.089438 0.705235
O O13 0.197963 0.871213 0.727053
O O14 0.808938 0.369731 0.060076
O O15 0.912960 0.601112 0.069526
O O16 0.260061 0.703399 0.677969
#
# Coordination Sequence:
#
# PCOD8126535 Si02
#       8
#     4   4   4   4   4   4   4   4
#     4  10  22  38  64  91 128 172 213 270 332 401
#     4  12  26  40  65 102 135 171 226 276 339 396
#     4  10  21  40  68  96 123 171 236 273 315 402
#     4  10  23  41  67  94 132 179 225 274 330 408
#     4   9  20  40  66  94 129 165 224 276 327 393
#     4  11  25  44  63  94 141 175 214 273 356 398
#     4   9  17  38  64  93 116 169 225 268 327 382
#     4  11  21  41  67  95 130 171 227 283 328 397
#
# _framework density 22.320153000000001
#
# number of rings (size 3 to 8) (size 9 to 14) (size 15 to 20)
#    0.000    1.750    2.500    1.875    5.250    1.000 
#    2.250    1.250    0.000    0.000    0.000    0.000 
#    0.000    0.000    0.000    0.000    0.000    0.000 
#
# Total GULP energy -396473.102515 kJ/mol
# GULP energy per Si atom -12389.784454 kJ/mol
# Density = 2.226935 g / cm^3
# Si number density = 22.320153 Si / 1000 Ang^3
#
#
#
# Elastic Constant Matrix: (Units=GPa)
#
#
# Indices 1 2 3 4 5 6 
#
# 1 70.7325 30.8812 19.8711 0.0000 -9.3828 0.0000
# 2 30.8812 113.0865 20.8826 0.0000 -14.8960 0.0000
# 3 19.8711 20.8826 49.4819 0.0000 -8.2136 0.0000
# 4 0.0000 0.0000 0.0000 30.7992 0.0000 -8.1305
# 5 -9.3828 -14.8960 -8.2136 0.0000 20.5055 0.0000
# 6 0.0000 0.0000 0.0000 -8.1305 0.0000 39.1478
#
#
#
# Elastic Compliance Matrix: (Units=1/GPa)
#
#
# Indices 1 2 3 4 5 6 
#
# 1 0.017492 -0.003386 -0.005008 0.000000 0.003538 0.000000
# 2 -0.003386 0.010917 -0.002344 0.000000 0.005442 0.000000
# 3 -0.005008 -0.002344 0.024153 0.000000 0.005680 0.000000
# 4 0.000000 0.000000 0.000000 0.034352 0.000000 0.007134
# 5 0.003538 0.005442 0.005680 0.000000 0.056615 0.000000
# 6 0.000000 0.000000 0.000000 0.007134 0.000000 0.027026
#
#
# Mechanical properties :
#
#
# Convention : Reuss Voigt Hill
#
# Bulk Modulus (GPa) = 32.16941 41.84120 37.00531
# Shear Modulus (GPa) = 24.70432 28.86825 26.78628
#
# Velocity S-wave (km/s) = 3.33049 3.60025 3.46800
# Velocity P-wave (km/s) = 5.40681 6.00575 5.71413
#
# Compressibility (1/GPa) = 0.03108543
#
# Stress axis : x y z
#
# Youngs Moduli (GPa) = 57.16777 91.59907 41.40303
#
# Poissons Ratio (x) = 0.31014 0.20736
# Poissons Ratio (y) = 0.19356 0.09706
# Poissons Ratio (z) = 0.28632 0.21473
#
# Static dielectric constant tensor:
#      x y z
#    x 3.862520 0.000000 -0.245540 
#    y 0.000000 4.002880 0.000000 
#    z -0.245540 0.000000 3.901350 
# 
# 
# High freq. dielectric constant tensor:
#      x y z
#    x 1.859640 0.000000 -0.016390 
#    y 0.000000 1.886160 0.000000 
#    z -0.016390 0.000000 1.868900 
# 
# From -- ./inp_files/79656.got.cif
#   From: 2010.03.12/outbox.cif.g09.slc.cpg/sg14_40_cif.got.tgz:79656.got - 2010.03.31 13:35:05.
