data_PCOD8126990
_publ_section_title
;
Structure prediction by ZEFSAII (Michael W. Deem and Ramdas Pophale) SiO2 
 PCOD8126990
Probable space group: P 21/C
;
_chemical_formula_sum "Si O2"
_cell_formula_units_Z 28
_cell_length_a 8.899901
_cell_length_b 8.110597
_cell_length_c 21.339487
_cell_angle_alpha 90.000000
_cell_angle_beta 115.516147
_cell_angle_gamma 90.000000
_cell_volume 1390.118498
_symmetry_space_group_name_H-M "P 21/C"
_symmetry_group_IT_number 14
_symmetry_cell_setting 'monoclinic'
loop_
_space_group_symop_operation_xyz
x,y,z
-x,1/2+y,1/2-z
-x,-y,-z
x,1/2-y,1/2+z
loop_
_atom_site_type_symbol
_atom_site_label
_atom_site_fract_x
_atom_site_fract_y
_atom_site_fract_z
Si Si1 0.096749 0.578193 0.105826
Si Si2 0.214240 0.591527 0.315837
Si Si3 0.741136 0.008369 0.489335
Si Si4 0.585258 0.354629 0.080549
Si Si5 0.052716 0.659537 0.700349
Si Si6 0.344122 0.097569 0.731128
Si Si7 0.354540 0.042953 0.287863
O O1 0.217560 0.605004 0.067675
O O2 0.084771 0.748092 0.141089
O O3 0.170819 0.425566 0.160578
O O4 0.910830 0.542287 0.052104
O O5 0.333610 0.680591 0.386738
O O6 0.072712 0.715619 0.262878
O O7 0.340218 0.543769 0.282942
O O8 0.128476 0.427517 0.329178
O O9 0.617578 0.852913 0.452828
O O10 0.640333 0.123858 0.518629
O O11 0.649038 0.504576 0.137835
O O12 0.184778 0.513909 0.726093
O O13 0.370704 0.267587 0.772482
O O14 0.496792 0.067566 0.712539
#
# Coordination Sequence:
#
# PCOD8126990 Si02
#       7
#     4   4   4   4   4   4   4
#     4  10  22  40  63  85 121 161 213 241 307 371
#     4  10  22  37  61  94 121 155 199 261 316 360
#     4  10  22  40  64  80 120 174 206 240 296 374
#     4  10  22  40  63  85 121 161 213 241 307 371
#     4  10  22  37  61  94 121 155 199 261 316 360
#     4  11  22  37  64  93 121 153 198 263 316 360
#     4  11  22  37  64  93 121 153 198 263 316 360
#
# _framework density 20.142168000000002
#
# number of rings (size 3 to 8) (size 9 to 14) (size 15 to 20)
#    0.000    1.714    1.429    3.429   12.000    0.000 
#    0.000    1.429    0.000    0.000    0.000    0.000 
#    0.000    0.000    0.000    0.000    0.000    0.000 
#
# Total GULP energy -346992.202879 kJ/mol
# GULP energy per Si atom -12392.578674 kJ/mol
# Density = 2.009632 g / cm^3
# Si number density = 20.142168 Si / 1000 Ang^3
#
#
#
# Elastic Constant Matrix: (Units=GPa)
#
#
# Indices 1 2 3 4 5 6 
#
# 1 92.8381 11.0286 21.0397 0.0000 -10.3978 0.0000
# 2 11.0286 67.2617 11.8524 0.0000 -8.2415 0.0000
# 3 21.0397 11.8524 64.7406 0.0000 -8.3266 0.0000
# 4 0.0000 0.0000 0.0000 20.8849 0.0000 0.3810
# 5 -10.3978 -8.2415 -8.3266 0.0000 28.5293 0.0000
# 6 0.0000 0.0000 0.0000 0.3810 0.0000 32.5843
#
#
#
# Elastic Compliance Matrix: (Units=1/GPa)
#
#
# Indices 1 2 3 4 5 6 
#
# 1 0.011990 -0.001001 -0.003313 0.000000 0.003114 0.000000
# 2 -0.001001 0.015844 -0.002113 0.000000 0.003596 0.000000
# 3 -0.003313 -0.002113 0.017326 0.000000 0.003239 0.000000
# 4 0.000000 0.000000 0.000000 0.047892 0.000000 -0.000560
# 5 0.003114 0.003596 0.003239 0.000000 0.038171 0.000000
# 6 0.000000 0.000000 0.000000 -0.000560 0.000000 0.030696
#
#
# Mechanical properties :
#
#
# Convention : Reuss Voigt Hill
#
# Bulk Modulus (GPa) = 30.95263 34.74242 32.84752
# Shear Modulus (GPa) = 26.94823 28.46103 27.70463
#
# Velocity S-wave (km/s) = 3.66170 3.76308 3.71274
# Velocity P-wave (km/s) = 5.76870 6.01390 5.89258
#
# Compressibility (1/GPa) = 0.03230744
#
# Stress axis : x y z
#
# Youngs Moduli (GPa) = 83.40396 63.11419 57.71564
#
# Poissons Ratio (x) = 0.06315 0.19120
# Poissons Ratio (y) = 0.08346 0.12196
# Poissons Ratio (z) = 0.27630 0.13336
#
# Static dielectric constant tensor:
#      x y z
#    x 3.935580 0.000000 -0.030240 
#    y 0.000000 3.429670 0.000000 
#    z -0.030240 0.000000 3.829930 
# 
# 
# High freq. dielectric constant tensor:
#      x y z
#    x 1.805530 0.000000 -0.003470 
#    y 0.000000 1.757200 0.000000 
#    z -0.003470 0.000000 1.787480 
# 
# From -- ./inp_files/64618.got.cif
#   From: 2010.03.12/outbox.cif.g09.slc.cpg/sg14_33_cif.got.tgz:64618.got - 2010.03.31 13:35:05.
