data_PCOD8126805
_publ_section_title
;
Structure prediction by ZEFSAII (Michael W. Deem and Ramdas Pophale) SiO2 
 PCOD8126805
Probable space group: P 21/C
;
_chemical_formula_sum "Si O2"
_cell_formula_units_Z 24
_cell_length_a 10.076026
_cell_length_b 17.088627
_cell_length_c 8.729087
_cell_angle_alpha 90.000000
_cell_angle_beta 130.990928
_cell_angle_gamma 90.000000
_cell_volume 1134.501048
_symmetry_space_group_name_H-M "P 21/C"
_symmetry_group_IT_number 14
_symmetry_cell_setting 'monoclinic'
loop_
_space_group_symop_operation_xyz
x,y,z
-x,1/2+y,1/2-z
-x,-y,-z
x,1/2-y,1/2+z
loop_
_atom_site_type_symbol
_atom_site_label
_atom_site_fract_x
_atom_site_fract_y
_atom_site_fract_z
Si Si1 0.945431 0.928281 0.070294
Si Si2 0.727774 0.173905 0.674157
Si Si3 0.711358 0.341296 0.512980
Si Si4 0.560219 0.539016 0.791039
Si Si5 0.629781 0.585874 0.157970
Si Si6 0.162209 0.982179 0.726972
O O1 0.108153 0.877761 0.261637
O O2 0.836732 0.956202 0.135261
O O3 0.802687 0.875149 0.867076
O O4 0.000000 0.000000 0.000000
O O5 0.712408 0.261349 0.604924
O O6 0.768242 0.176407 0.884169
O O7 0.544497 0.137904 0.478597
O O8 0.524448 0.386872 0.362025
O O9 0.848788 0.395773 0.708406
O O10 0.407293 0.491605 0.766539
O O11 0.661283 0.488568 0.741297
O O12 0.688353 0.566019 0.027089
O O13 0.000000 0.000000 0.500000
#
# Coordination Sequence:
#
# PCOD8126805 Si02
#       6
#     4   4   4   4   4   4
#     4  12  22  43  69  97 131 178 228 273 331 396
#     4  11  26  44  66  98 140 177 216 279 343 394
#     4  11  25  45  65  97 138 176 217 277 341 394
#     4  10  21  42  70  98 129 172 231 271 326 403
#     4  10  21  43  70  96 131 179 218 274 333 394
#     4  12  24  39  71 103 129 173 233 283 317 404
#
# _framework density 21.154674
#
# number of rings (size 3 to 8) (size 9 to 14) (size 15 to 20)
#    0.000    1.000    3.333    4.500    4.667    0.000 
#    3.000    0.000    0.000    0.000    0.000    0.000 
#    0.000    0.000    0.000    0.000    0.000    0.000 
#
# Total GULP energy -297338.127842 kJ/mol
# GULP energy per Si atom -12389.088660 kJ/mol
# Density = 2.110652 g / cm^3
# Si number density = 21.154674 Si / 1000 Ang^3
#
#
#
# Elastic Constant Matrix: (Units=GPa)
#
#
# Indices 1 2 3 4 5 6 
#
# 1 87.7185 37.4806 36.1925 0.0000 -13.7230 0.0000
# 2 37.4806 133.9746 63.7563 0.0000 -3.9475 0.0000
# 3 36.1925 63.7563 165.5316 0.0000 3.3065 0.0000
# 4 0.0000 0.0000 0.0000 37.4282 0.0000 -10.7570
# 5 -13.7230 -3.9475 3.3065 0.0000 30.8291 0.0000
# 6 0.0000 0.0000 0.0000 -10.7570 0.0000 24.1460
#
#
#
# Elastic Compliance Matrix: (Units=1/GPa)
#
#
# Indices 1 2 3 4 5 6 
#
# 1 0.014509 -0.002819 -0.002213 0.000000 0.006335 0.000000
# 2 -0.002819 0.009762 -0.003150 0.000000 0.000333 0.000000
# 3 -0.002213 -0.003150 0.007783 0.000000 -0.002223 0.000000
# 4 0.000000 0.000000 0.000000 0.030641 0.000000 0.013651
# 5 0.006335 0.000333 -0.002223 0.000000 0.035538 0.000000
# 6 0.000000 0.000000 0.000000 0.013651 0.000000 0.047496
#
#
# Mechanical properties :
#
#
# Convention : Reuss Voigt Hill
#
# Bulk Modulus (GPa) = 63.74016 73.56484 68.65250
# Shear Modulus (GPa) = 29.88251 35.13368 32.50809
#
# Velocity S-wave (km/s) = 3.76250 4.07971 3.92431
# Velocity P-wave (km/s) = 7.00508 7.55264 7.28400
#
# Compressibility (1/GPa) = 0.01568870
#
# Stress axis : x y z
#
# Youngs Moduli (GPa) = 68.92374 102.44150 128.49057
#
# Poissons Ratio (x) = 0.28881 0.28434
# Poissons Ratio (y) = 0.19431 0.40475
# Poissons Ratio (z) = 0.15252 0.32270
#
# Static dielectric constant tensor:
#      x y z
#    x 4.114210 0.000000 -0.177290 
#    y 0.000000 1.807800 0.000000 
#    z -0.177290 0.000000 4.516750 
# 
# 
# High freq. dielectric constant tensor:
#      x y z
#    x 1.824910 0.000000 -0.012690 
#    y 0.000000 1.794290 0.000000 
#    z -0.012690 0.000000 1.863350 
# 
# From -- ./inp_files/10300.got.cif
#   From: 2010.03.12/outbox.cif.g09.slc.cpg/sg14_6_cif.got.tgz:10300.got - 2010.03.31 13:35:05.
