data_PCOD8126979
_publ_section_title
;
Structure prediction by ZEFSAII (Michael W. Deem and Ramdas Pophale) SiO2 
 PCOD8126979
Probable space group: P 21/C
;
_chemical_formula_sum "Si O2"
_cell_formula_units_Z 28
_cell_length_a 13.677914
_cell_length_b 17.175326
_cell_length_c 9.380691
_cell_angle_alpha 90.000000
_cell_angle_beta 142.774708
_cell_angle_gamma 90.000000
_cell_volume 1333.151938
_symmetry_space_group_name_H-M "P 21/C"
_symmetry_group_IT_number 14
_symmetry_cell_setting 'monoclinic'
loop_
_space_group_symop_operation_xyz
x,y,z
-x,1/2+y,1/2-z
-x,-y,-z
x,1/2-y,1/2+z
loop_
_atom_site_type_symbol
_atom_site_label
_atom_site_fract_x
_atom_site_fract_y
_atom_site_fract_z
Si Si1 0.882086 0.188443 0.308629
Si Si2 0.600625 0.905261 0.818728
Si Si3 0.650307 0.621796 0.052335
Si Si4 0.191976 0.284013 0.318532
Si Si5 0.897259 0.326568 0.139968
Si Si6 0.704302 0.073919 0.908387
Si Si7 0.750369 0.047964 0.637317
O O1 0.812781 0.265896 0.151195
O O2 0.806856 0.178090 0.380538
O O3 0.077793 0.197903 0.549413
O O4 0.837972 0.114806 0.161151
O O5 0.628118 0.869815 0.694667
O O6 0.413365 0.921980 0.626001
O O7 0.700001 0.984743 0.952863
O O8 0.657468 0.843507 0.004000
O O9 0.472123 0.613292 0.776255
O O10 0.758400 0.545599 0.140499
O O11 0.744133 0.696032 0.100575
O O12 0.084695 0.302232 0.335906
O O13 0.890784 0.412659 0.204052
O O14 0.762258 0.078535 0.812460
#
# Coordination Sequence:
#
# PCOD8126979 Si02
#       7
#     4   4   4   4   4   4   4
#     4  10  22  38  58  87 129 158 203 253 312 368
#     4   9  19  39  64  93 124 161 209 255 303 374
#     4   9  19  40  65  91 123 171 206 252 305 375
#     4  10  22  37  59  87 135 153 214 245 318 360
#     4  10  22  39  57  90 124 162 204 252 304 375
#     4   9  19  39  67  96 120 161 210 255 311 363
#     4   9  19  40  69  93 120 159 218 252 302 370
#
# _framework density 21.002856999999999
#
# number of rings (size 3 to 8) (size 9 to 14) (size 15 to 20)
#    0.857    1.714    0.000    3.429    2.000    0.571 
#    2.571    7.857    0.000    0.000    0.000    0.000 
#    0.000    0.000    0.000    0.000    0.000    0.000 
#
# Total GULP energy -346975.435607 kJ/mol
# GULP energy per Si atom -12391.979843 kJ/mol
# Density = 2.095505 g / cm^3
# Si number density = 21.002857 Si / 1000 Ang^3
#
#
#
# Elastic Constant Matrix: (Units=GPa)
#
#
# Indices 1 2 3 4 5 6 
#
# 1 61.3572 50.1445 28.5269 0.0000 5.7937 0.0000
# 2 50.1445 149.0839 70.2229 0.0000 4.1127 0.0000
# 3 28.5269 70.2229 106.9151 0.0000 -13.5006 0.0000
# 4 0.0000 0.0000 0.0000 33.9126 0.0000 0.8274
# 5 5.7937 4.1127 -13.5006 0.0000 14.5118 0.0000
# 6 0.0000 0.0000 0.0000 0.8274 0.0000 41.7008
#
#
#
# Elastic Compliance Matrix: (Units=1/GPa)
#
#
# Indices 1 2 3 4 5 6 
#
# 1 0.024085 -0.005869 -0.004051 0.000000 -0.011721 0.000000
# 2 -0.005869 0.012566 -0.007751 0.000000 -0.008429 0.000000
# 3 -0.004051 -0.007751 0.018138 0.000000 0.020688 0.000000
# 4 0.000000 0.000000 0.000000 0.029502 0.000000 -0.000585
# 5 -0.011721 -0.008429 0.020688 0.000000 0.095224 0.000000
# 6 0.000000 0.000000 0.000000 -0.000585 0.000000 0.023992
#
#
# Mechanical properties :
#
#
# Convention : Reuss Voigt Hill
#
# Bulk Modulus (GPa) = 51.42970 68.34941 59.88956
# Shear Modulus (GPa) = 20.38052 29.25584 24.81818
#
# Velocity S-wave (km/s) = 3.11845 3.73627 3.44125
# Velocity P-wave (km/s) = 6.12426 7.15727 6.66082
#
# Compressibility (1/GPa) = 0.01944402
#
# Stress axis : x y z
#
# Youngs Moduli (GPa) = 41.51919 79.58294 55.13354
#
# Poissons Ratio (x) = 0.46711 0.22337
# Poissons Ratio (y) = 0.24369 0.42736
# Poissons Ratio (z) = 0.16821 0.61688
#
# Static dielectric constant tensor:
#      x y z
#    x 3.428460 0.000000 0.020000 
#    y 0.000000 3.749370 0.000000 
#    z 0.020000 0.000000 3.670290 
# 
# 
# High freq. dielectric constant tensor:
#      x y z
#    x 1.791090 0.000000 0.000270 
#    y 0.000000 1.827280 0.000000 
#    z 0.000270 0.000000 1.818240 
# 
# From -- ./inp_files/16276.got.cif
#   From: 2010.03.12/outbox.cif.g09.slc.cpg/sg14_9_cif.got.tgz:16276.got - 2010.03.31 13:35:05.
