data_PCOD8126465
_publ_section_title
;
Structure prediction by ZEFSAII (Michael W. Deem and Ramdas Pophale) SiO2 
 PCOD8126465
Probable space group: P 21/C
;
_chemical_formula_sum "Si O2"
_cell_formula_units_Z 32
_cell_length_a 5.950736
_cell_length_b 11.359639
_cell_length_c 25.864216
_cell_angle_alpha 90.000000
_cell_angle_beta 117.396923
_cell_angle_gamma 90.000000
_cell_volume 1552.277233
_symmetry_space_group_name_H-M "P 21/C"
_symmetry_group_IT_number 14
_symmetry_cell_setting 'monoclinic'
loop_
_space_group_symop_operation_xyz
x,y,z
-x,1/2+y,1/2-z
-x,-y,-z
x,1/2-y,1/2+z
loop_
_atom_site_type_symbol
_atom_site_label
_atom_site_fract_x
_atom_site_fract_y
_atom_site_fract_z
Si Si1 0.029048 0.680890 0.345574
Si Si2 0.835863 0.250000 0.750000
Si Si3 0.273378 0.863440 0.655885
Si Si4 0.350163 0.136560 0.655885
Si Si5 0.646753 0.819110 0.154426
Si Si6 0.226791 0.500000 0.613395
Si Si7 0.580825 0.706008 0.433112
Si Si8 0.848379 0.793992 0.066888
O O1 0.879907 0.802325 0.338200
O O2 0.858029 0.569860 0.344053
O O3 0.100850 0.669754 0.292990
O O4 0.282489 0.680628 0.406997
O O5 0.753798 0.339972 0.786007
O O6 0.609772 0.160028 0.713993
O O7 0.071109 0.169754 0.792990
O O8 0.527105 0.802325 0.661800
O O9 0.029113 0.814970 0.599811
O O10 0.293596 1.000000 0.646798
O O11 0.370132 0.185030 0.599811
O O12 0.654502 0.819372 0.093003
O O13 0.481818 0.930140 0.155947
O O14 0.276350 0.409663 0.572375
O O15 0.013148 0.590337 0.572375
O O16 0.685204 0.740675 0.500000
#
# Coordination Sequence:
#
# PCOD8126465 Si02
#       8
#     4   4   4   4   4   4   4   4
#     4  10  22  42  59  93 127 163 210 259 316 374
#     4  10  22  44  60  92 120 168 212 256 314 376
#     4  10  23  45  62  90 127 163 213 260 311 374
#     4  10  23  45  62  90 127 163 213 260 311 374
#     4  10  22  42  59  93 127 163 210 259 316 374
#     4  10  21  40  64  92 132 160 209 262 316 372
#     4  10  22  40  65  94 127 167 209 259 315 371
#     4  10  22  40  65  94 127 167 209 259 315 371
#
# _framework density 20.614874
#
# number of rings (size 3 to 8) (size 9 to 14) (size 15 to 20)
#    0.000    2.000    0.000    1.875    0.000   10.500 
#   54.000    1.250    0.000    0.000    0.000    0.000 
#    0.000    0.000    0.000    0.000    0.000    0.000 
#
# Total GULP energy -396954.166920 kJ/mol
# GULP energy per Si atom -12404.817716 kJ/mol
# Density = 2.056795 g / cm^3
# Si number density = 20.614874 Si / 1000 Ang^3
#
#
#
# Elastic Constant Matrix: (Units=GPa)
#
#
# Indices 1 2 3 4 5 6 
#
# 1 139.7761 65.7454 65.7624 0.0000 1.3085 0.0000
# 2 65.7454 161.5607 59.8946 0.0000 0.1888 0.0000
# 3 65.7624 59.8946 154.4098 0.0000 -1.7808 0.0000
# 4 0.0000 0.0000 0.0000 15.4063 0.0000 0.3285
# 5 1.3085 0.1888 -1.7808 0.0000 16.8292 0.0000
# 6 0.0000 0.0000 0.0000 0.3285 0.0000 25.5866
#
#
#
# Elastic Compliance Matrix: (Units=1/GPa)
#
#
# Indices 1 2 3 4 5 6 
#
# 1 0.010013 -0.002906 -0.003150 0.000000 -0.001079 0.000000
# 2 -0.002906 0.008075 -0.001895 0.000000 -0.000065 0.000000
# 3 -0.003150 -0.001895 0.008567 0.000000 0.001173 0.000000
# 4 0.000000 0.000000 0.000000 0.064926 0.000000 -0.000834
# 5 -0.001079 -0.000065 0.001173 0.000000 0.059629 0.000000
# 6 0.000000 0.000000 0.000000 -0.000834 0.000000 0.039094
#
#
# Mechanical properties :
#
#
# Convention : Reuss Voigt Hill
#
# Bulk Modulus (GPa) = 93.00182 93.17238 93.08710
# Shear Modulus (GPa) = 23.83340 29.18738 26.51039
#
# Velocity S-wave (km/s) = 3.40387 3.76685 3.58995
# Velocity P-wave (km/s) = 7.78848 8.01334 7.90171
#
# Compressibility (1/GPa) = 0.01075248
#
# Stress axis : x y z
#
# Youngs Moduli (GPa) = 99.86905 123.84169 116.73349
#
# Poissons Ratio (x) = 0.35985 0.36770
# Poissons Ratio (y) = 0.29019 0.22125
# Poissons Ratio (z) = 0.31457 0.23473
#
# Static dielectric constant tensor:
#      x y z
#    x 4.109230 0.000000 0.016240 
#    y 0.000000 3.524520 0.000000 
#    z 0.016240 0.000000 3.606030 
# 
# 
# High freq. dielectric constant tensor:
#      x y z
#    x 1.829090 0.000000 0.000960 
#    y 0.000000 1.795000 0.000000 
#    z 0.000960 0.000000 1.799460 
# 
# From -- ./inp_files/75816.got.cif
#   From: 2010.03.12/outbox.cif.g09.slc.cpg/sg14_38_cif.got.tgz:75816.got - 2010.03.31 13:35:05.
