data_PCOD8126273
_publ_section_title
;
Structure prediction by ZEFSAII (Michael W. Deem and Ramdas Pophale) SiO2 
 PCOD8126273
Probable space group: P 21/C
;
_chemical_formula_sum "Si O2"
_cell_formula_units_Z 28
_cell_length_a 18.235249
_cell_length_b 8.078951
_cell_length_c 10.680559
_cell_angle_alpha 90.000000
_cell_angle_beta 50.121592
_cell_angle_gamma 90.000000
_cell_volume 1207.497707
_symmetry_space_group_name_H-M "P 21/C"
_symmetry_group_IT_number 14
_symmetry_cell_setting 'monoclinic'
loop_
_space_group_symop_operation_xyz
x,y,z
-x,1/2+y,1/2-z
-x,-y,-z
x,1/2-y,1/2+z
loop_
_atom_site_type_symbol
_atom_site_label
_atom_site_fract_x
_atom_site_fract_y
_atom_site_fract_z
Si Si1 0.780036 0.102569 0.572223
Si Si2 0.428654 0.693329 0.683441
Si Si3 0.141361 0.413519 0.780244
Si Si4 0.058171 0.848601 0.170156
Si Si5 0.734226 0.752392 0.543498
Si Si6 0.523917 0.685521 0.324330
Si Si7 0.912844 0.659443 0.483509
O O1 0.685598 0.208617 0.704900
O O2 0.855847 0.219435 0.421471
O O3 0.826885 0.038421 0.647744
O O4 0.754376 0.949287 0.509795
O O5 0.473437 0.761234 0.503800
O O6 0.460055 0.506626 0.671581
O O7 0.460857 0.799971 0.767930
O O8 0.077884 0.512563 0.752788
O O9 0.238364 0.335763 0.616689
O O10 0.070983 0.263600 0.906740
O O11 0.960552 0.757286 0.312671
O O12 0.052754 0.965713 0.049676
O O13 0.623854 0.717952 0.695489
O O14 0.798798 0.671175 0.582651
#
# Coordination Sequence:
#
# PCOD8126273 Si02
#       7
#     4   4   4   4   4   4   4
#     4  10  23  42  63  96 130 170 222 272 333 398
#     4  10  24  42  67  98 134 176 224 277 333 396
#     4  10  22  40  66  90 132 173 216 269 332 389
#     4  11  23  41  66  94 132 168 215 273 325 400
#     4   9  21  39  62  89 129 169 215 271 325 394
#     4  10  23  41  67  97 134 176 221 276 334 393
#     4  10  21  39  62  95 125 171 213 262 329 390
#
# _framework density 23.188451000000001
#
# number of rings (size 3 to 8) (size 9 to 14) (size 15 to 20)
#    0.000    2.000    0.000    2.143   10.000    4.000 
#    2.571    4.286    0.000    0.000    0.000    0.000 
#    0.000    0.000    0.000    0.000    0.000    0.000 
#
# Total GULP energy -347109.598507 kJ/mol
# GULP energy per Si atom -12396.771375 kJ/mol
# Density = 2.313567 g / cm^3
# Si number density = 23.188451 Si / 1000 Ang^3
#
#
#
# Elastic Constant Matrix: (Units=GPa)
#
#
# Indices 1 2 3 4 5 6 
#
# 1 32.3383 3.0376 13.5858 0.0000 2.7830 0.0000
# 2 3.0376 45.2035 9.9296 0.0000 0.7791 0.0000
# 3 13.5858 9.9296 92.3246 0.0000 2.4054 0.0000
# 4 0.0000 0.0000 0.0000 40.0605 0.0000 0.7365
# 5 2.7830 0.7791 2.4054 0.0000 40.2165 0.0000
# 6 0.0000 0.0000 0.0000 0.7365 0.0000 28.3991
#
#
#
# Elastic Compliance Matrix: (Units=1/GPa)
#
#
# Indices 1 2 3 4 5 6 
#
# 1 0.033181 -0.001162 -0.004706 0.000000 -0.001992 0.000000
# 2 -0.001162 0.022702 -0.002265 0.000000 -0.000224 0.000000
# 3 -0.004706 -0.002265 0.011776 0.000000 -0.000335 0.000000
# 4 0.000000 0.000000 0.000000 0.024974 0.000000 -0.000648
# 5 -0.001992 -0.000224 -0.000335 0.000000 0.025028 0.000000
# 6 0.000000 0.000000 0.000000 -0.000648 0.000000 0.035229
#
#
# Mechanical properties :
#
#
# Convention : Reuss Voigt Hill
#
# Bulk Modulus (GPa) = 19.45756 24.77470 22.11613
# Shear Modulus (GPa) = 26.84059 31.28945 29.06502
#
# Velocity S-wave (km/s) = 3.40589 3.67734 3.54422
# Velocity P-wave (km/s) = 4.88632 5.36076 5.12903
#
# Compressibility (1/GPa) = 0.05139390
#
# Stress axis : x y z
#
# Youngs Moduli (GPa) = 30.13806 44.04974 84.91763
#
# Poissons Ratio (x) = 0.05117 0.39960
# Poissons Ratio (y) = 0.03501 0.19232
# Poissons Ratio (z) = 0.14182 0.09976
#
# Static dielectric constant tensor:
#      x y z
#    x 3.976860 0.000000 0.049650 
#    y 0.000000 4.384680 0.000000 
#    z 0.049650 0.000000 4.516310 
# 
# 
# High freq. dielectric constant tensor:
#      x y z
#    x 1.908920 0.000000 -0.002070 
#    y 0.000000 1.916810 0.000000 
#    z -0.002070 0.000000 1.922250 
# 
# From -- ./inp_files/34949.got.cif
#   From: 2010.03.12/outbox.cif.g09.slc.cpg/sg14_18_cif.got.tgz:34949.got - 2010.03.31 13:35:05.
