data_PCOD8126813
_publ_section_title
;
Structure prediction by ZEFSAII (Michael W. Deem and Ramdas Pophale) SiO2 
 PCOD8126813
Probable space group: P 21/C
;
_chemical_formula_sum "Si O2"
_cell_formula_units_Z 32
_cell_length_a 11.035828
_cell_length_b 9.033728
_cell_length_c 27.884326
_cell_angle_alpha 90.000000
_cell_angle_beta 148.711698
_cell_angle_gamma 90.000000
_cell_volume 1443.735863
_symmetry_space_group_name_H-M "P 21/C"
_symmetry_group_IT_number 14
_symmetry_cell_setting 'monoclinic'
loop_
_space_group_symop_operation_xyz
x,y,z
-x,1/2+y,1/2-z
-x,-y,-z
x,1/2-y,1/2+z
loop_
_atom_site_type_symbol
_atom_site_label
_atom_site_fract_x
_atom_site_fract_y
_atom_site_fract_z
Si Si1 0.240826 0.352201 0.676439
Si Si2 0.186287 0.409740 0.769234
Si Si3 0.593817 0.886319 0.158400
Si Si4 0.648297 0.422370 0.590747
Si Si5 0.878900 0.267636 0.986889
Si Si6 0.635999 0.970878 0.271441
Si Si7 0.079051 0.405799 0.967511
Si Si8 0.486122 0.594484 0.946314
O O1 0.241994 0.411910 0.731223
O O2 0.368091 0.196370 0.711489
O O3 0.375093 0.470337 0.689648
O O4 0.984540 0.326009 0.567191
O O5 0.236681 0.242437 0.805190
O O6 0.344217 0.517545 0.855125
O O7 0.921048 0.463250 0.684425
O O8 0.365879 0.811234 0.105654
O O9 0.719400 0.971860 0.244354
O O10 0.533045 0.011223 0.099535
O O11 0.500000 0.500000 0.500000
O O12 0.638383 0.246593 0.582089
O O13 0.055488 0.277760 0.000619
O O14 0.820607 0.438047 0.979598
O O15 0.816501 0.074196 0.360317
O O16 0.255985 0.359396 0.985172
O O17 0.500000 0.500000 0.000000
#
# Coordination Sequence:
#
# PCOD8126813 Si02
#       8
#     4   4   4   4   4   4   4   4
#     4  10  23  40  68  99 138 179 226 292 354 428
#     4  11  24  47  75  95 139 192 236 288 364 429
#     4  11  23  44  70 100 142 178 229 311 363 420
#     4  12  28  47  68 104 139 182 239 303 365 422
#     4  10  21  42  72  98 141 179 227 296 356 428
#     4  10  23  39  65  97 137 174 226 282 360 418
#     4  10  22  42  70 100 132 187 238 273 350 437
#     4  12  28  45  75  99 139 195 250 290 352 442
#
# _framework density 22.164721
#
# number of rings (size 3 to 8) (size 9 to 14) (size 15 to 20)
#    0.000    1.250    1.250    3.750   12.250    0.500 
#    6.750    0.000    0.000    0.000    0.000    0.000 
#    0.000    0.000    0.000    0.000    0.000    0.000 
#
# Total GULP energy -396633.514217 kJ/mol
# GULP energy per Si atom -12394.797319 kJ/mol
# Density = 2.211427 g / cm^3
# Si number density = 22.164721 Si / 1000 Ang^3
#
#
#
# Elastic Constant Matrix: (Units=GPa)
#
#
# Indices 1 2 3 4 5 6 
#
# 1 90.0712 36.4396 44.2739 0.0000 -0.7481 0.0000
# 2 36.4396 81.8623 47.5348 0.0000 -9.8652 0.0000
# 3 44.2739 47.5348 106.0254 0.0000 -11.1271 0.0000
# 4 0.0000 0.0000 0.0000 31.9704 0.0000 -6.6847
# 5 -0.7481 -9.8652 -11.1271 0.0000 41.4091 0.0000
# 6 0.0000 0.0000 0.0000 -6.6847 0.0000 40.8213
#
#
#
# Elastic Compliance Matrix: (Units=1/GPa)
#
#
# Indices 1 2 3 4 5 6 
#
# 1 0.015072 -0.004289 -0.004578 0.000000 -0.001980 0.000000
# 2 -0.004289 0.017898 -0.005962 0.000000 0.002584 0.000000
# 3 -0.004578 -0.005962 0.014261 0.000000 0.002329 0.000000
# 4 0.000000 0.000000 0.000000 0.032388 0.000000 0.005304
# 5 -0.001980 0.002584 0.002329 0.000000 0.025355 0.000000
# 6 0.000000 0.000000 0.000000 0.005304 0.000000 0.025366
#
#
# Mechanical properties :
#
#
# Convention : Reuss Voigt Hill
#
# Bulk Modulus (GPa) = 56.90958 59.38395 58.14676
# Shear Modulus (GPa) = 30.14668 32.82086 31.48377
#
# Velocity S-wave (km/s) = 3.69198 3.85225 3.77297
# Velocity P-wave (km/s) = 6.62614 6.82911 6.72839
#
# Compressibility (1/GPa) = 0.01757173
#
# Stress axis : x y z
#
# Youngs Moduli (GPa) = 66.35030 55.87125 70.12096
#
# Poissons Ratio (x) = 0.23962 0.32105
# Poissons Ratio (y) = 0.28457 0.41808
# Poissons Ratio (z) = 0.30378 0.33312
#
# Static dielectric constant tensor:
#      x y z
#    x 4.092070 0.000000 -0.091060 
#    y 0.000000 3.989880 0.000000 
#    z -0.091060 0.000000 4.151350 
# 
# 
# High freq. dielectric constant tensor:
#      x y z
#    x 1.867860 0.000000 -0.008570 
#    y 0.000000 1.863520 0.000000 
#    z -0.008570 0.000000 1.886910 
# 
# From -- ./inp_files/80009.got.cif
#   From: 2010.03.12/outbox.cif.g09.slc.cpg/sg14_41_cif.got.tgz:80009.got - 2010.03.31 13:35:05.
