data_PCOD8126930
_publ_section_title
;
Structure prediction by ZEFSAII (Michael W. Deem and Ramdas Pophale) SiO2 
 PCOD8126930
Probable space group: P 21/C
;
_chemical_formula_sum "Si O2"
_cell_formula_units_Z 20
_cell_length_a 6.848737
_cell_length_b 5.674956
_cell_length_c 22.639926
_cell_angle_alpha 90.000000
_cell_angle_beta 75.577897
_cell_angle_gamma 90.000000
_cell_volume 852.200637
_symmetry_space_group_name_H-M "P 21/C"
_symmetry_group_IT_number 14
_symmetry_cell_setting 'monoclinic'
loop_
_space_group_symop_operation_xyz
x,y,z
-x,1/2+y,1/2-z
-x,-y,-z
x,1/2-y,1/2+z
loop_
_atom_site_type_symbol
_atom_site_label
_atom_site_fract_x
_atom_site_fract_y
_atom_site_fract_z
Si Si1 0.016031 0.479279 0.343009
Si Si2 0.069308 0.141856 0.569561
Si Si3 0.600078 0.540381 0.762325
Si Si4 0.655277 0.346284 0.880071
Si Si5 0.213356 0.249487 0.939821
O O1 0.171871 0.451756 0.278431
O O2 0.110215 0.411763 0.399173
O O3 0.959854 0.747499 0.362753
O O4 0.814363 0.339910 0.340550
O O5 0.145623 0.318181 0.511876
O O6 0.248890 0.955934 0.568025
O O7 0.860494 0.019067 0.565265
O O8 0.498692 0.790348 0.751704
O O9 0.602390 0.535433 0.832984
O O10 0.452129 0.217619 0.915616
#
# Coordination Sequence:
#
# PCOD8126930 Si02
#       5
#     4   4   4   4   4
#     4  11  25  41  68 101 135 184 235 290 352 417
#     4  10  23  40  72  97 141 181 230 293 346 428
#     4  12  28  48  74  99 145 191 237 295 356 421
#     4  11  25  41  68 101 137 183 237 290 351 418
#     4  10  21  46  64 102 138 182 230 286 358 416
#
# _framework density 23.468651000000001
#
# number of rings (size 3 to 8) (size 9 to 14) (size 15 to 20)
#    0.000    1.200    2.000    2.400    8.400    2.400 
#    0.000    0.000    0.000    0.000    0.000    0.000 
#    0.000    0.000    0.000    0.000    0.000    0.000 
#
# Total GULP energy -247842.165318 kJ/mol
# GULP energy per Si atom -12392.108266 kJ/mol
# Density = 2.341524 g / cm^3
# Si number density = 23.468651 Si / 1000 Ang^3
#
#
#
# Elastic Constant Matrix: (Units=GPa)
#
#
# Indices 1 2 3 4 5 6 
#
# 1 128.0327 22.4077 8.2977 0.0000 -19.2992 0.0000
# 2 22.4077 72.2800 -6.7832 0.0000 -3.3664 0.0000
# 3 8.2977 -6.7832 63.7904 0.0000 -10.8820 0.0000
# 4 0.0000 0.0000 0.0000 35.8944 0.0000 -2.3213
# 5 -19.2992 -3.3664 -10.8820 0.0000 44.7215 0.0000
# 6 0.0000 0.0000 0.0000 -2.3213 0.0000 24.2219
#
#
#
# Elastic Compliance Matrix: (Units=1/GPa)
#
#
# Indices 1 2 3 4 5 6 
#
# 1 0.008846 -0.002663 -0.000852 0.000000 0.003409 0.000000
# 2 -0.002663 0.014870 0.002006 0.000000 0.000458 0.000000
# 3 -0.000852 0.002006 0.016655 0.000000 0.003836 0.000000
# 4 0.000000 0.000000 0.000000 0.028033 0.000000 0.002687
# 5 0.003409 0.000458 0.003836 0.000000 0.024800 0.000000
# 6 0.000000 0.000000 0.000000 0.002687 0.000000 0.041542
#
#
# Mechanical properties :
#
#
# Convention : Reuss Voigt Hill
#
# Bulk Modulus (GPa) = 26.77287 34.66084 30.71685
# Shear Modulus (GPa) = 33.28524 36.97961 35.13242
#
# Velocity S-wave (km/s) = 3.77010 3.97382 3.87330
# Velocity P-wave (km/s) = 5.51219 5.98799 5.75501
#
# Compressibility (1/GPa) = 0.03735124
#
# Stress axis : x y z
#
# Youngs Moduli (GPa) = 113.04770 67.24780 60.04262
#
# Poissons Ratio (x) = 0.17911 0.05117
# Poissons Ratio (y) = 0.30110 -0.12044
# Poissons Ratio (z) = 0.09634 -0.13489
#
# Static dielectric constant tensor:
#      x y z
#    x 4.234460 0.000000 -0.016070 
#    y 0.000000 4.170310 0.000000 
#    z -0.016070 0.000000 4.193850 
# 
# 
# High freq. dielectric constant tensor:
#      x y z
#    x 1.936670 0.000000 0.000090 
#    y 0.000000 1.916230 0.000000 
#    z 0.000090 0.000000 1.935670 
# 
# From -- ./inp_files/70866.got.cif
#   From: 2010.03.12/outbox.cif.g09.slc.cpg/sg14_36_cif.got.tgz:70866.got - 2010.03.31 13:35:05.
