data_PCOD8126077
_publ_section_title
;
Structure prediction by ZEFSAII (Michael W. Deem and Ramdas Pophale) SiO2 
 PCOD8126077
Probable space group: P 21/C
;
_chemical_formula_sum "Si O2"
_cell_formula_units_Z 24
_cell_length_a 8.706296
_cell_length_b 17.013165
_cell_length_c 16.686717
_cell_angle_alpha 90.000000
_cell_angle_beta 147.977736
_cell_angle_gamma 90.000000
_cell_volume 1310.596801
_symmetry_space_group_name_H-M "P 21/C"
_symmetry_group_IT_number 14
_symmetry_cell_setting 'monoclinic'
loop_
_space_group_symop_operation_xyz
x,y,z
-x,1/2+y,1/2-z
-x,-y,-z
x,1/2-y,1/2+z
loop_
_atom_site_type_symbol
_atom_site_label
_atom_site_fract_x
_atom_site_fract_y
_atom_site_fract_z
Si Si1 0.220002 0.661671 0.714728
Si Si2 0.447673 0.314042 0.604176
Si Si3 0.613341 0.933635 0.791708
Si Si4 0.306453 0.576099 0.420151
Si Si5 0.685823 0.994531 0.661697
Si Si6 0.291222 0.914164 0.087773
O O1 0.425317 0.726901 0.843859
O O2 0.237267 0.581335 0.772123
O O3 0.339886 0.651262 0.677220
O O4 0.888807 0.690136 0.567362
O O5 0.496306 0.353743 0.713958
O O6 0.624956 0.362499 0.617855
O O7 0.505594 0.947063 0.651974
O O8 0.523347 0.007353 0.808317
O O9 0.956973 0.937192 0.936724
O O10 0.500000 0.500000 0.500000
O O11 0.379996 0.616398 0.539054
O O12 0.972781 0.552355 0.265210
O O13 0.500000 0.000000 0.500000
#
# Coordination Sequence:
#
# PCOD8126077 Si02
#       6
#     4   4   4   4   4   4
#     4  10  22  38  55  81 117 151 182 237 287 341
#     4  11  21  37  58  84 114 145 192 235 293 332
#     4   8  15  33  58  74 104 146 182 221 273 336
#     4  11  18  35  63  85 105 149 197 233 271 342
#     4  10  21  38  59  83 115 151 194 233 278 334
#     4   8  15  33  56  78 100 143 188 220 268 332
#
# _framework density 18.312268
#
# number of rings (size 3 to 8) (size 9 to 14) (size 15 to 20)
#    0.000    2.333    3.333    2.000    2.333    0.000 
#    3.000    4.167    0.000    0.000    0.000    0.000 
#    0.000    0.000    0.000    0.000    0.000    0.000 
#
# Total GULP energy -297394.763204 kJ/mol
# GULP energy per Si atom -12391.448467 kJ/mol
# Density = 1.827059 g / cm^3
# Si number density = 18.312268 Si / 1000 Ang^3
#
#
#
# Elastic Constant Matrix: (Units=GPa)
#
#
# Indices 1 2 3 4 5 6 
#
# 1 104.3677 28.4726 38.5559 0.0000 -17.1551 0.0000
# 2 28.4726 74.4387 25.9328 0.0000 0.4826 0.0000
# 3 38.5559 25.9328 74.5487 0.0000 -15.6280 0.0000
# 4 0.0000 0.0000 0.0000 29.6344 0.0000 -1.3720
# 5 -17.1551 0.4826 -15.6280 0.0000 28.6343 0.0000
# 6 0.0000 0.0000 0.0000 -1.3720 0.0000 24.7378
#
#
#
# Elastic Compliance Matrix: (Units=1/GPa)
#
#
# Indices 1 2 3 4 5 6 
#
# 1 0.013059 -0.003503 -0.004385 0.000000 0.005490 0.000000
# 2 -0.003503 0.016556 -0.005020 0.000000 -0.005118 0.000000
# 3 -0.004385 -0.005020 0.019078 0.000000 0.007870 0.000000
# 4 0.000000 0.000000 0.000000 0.033831 0.000000 0.001876
# 5 0.005490 -0.005118 0.007870 0.000000 0.042594 0.000000
# 6 0.000000 0.000000 0.000000 0.001876 0.000000 0.040528
#
#
# Mechanical properties :
#
#
# Convention : Reuss Voigt Hill
#
# Bulk Modulus (GPa) = 43.71196 48.80863 46.26029
# Shear Modulus (GPa) = 25.11442 27.29422 26.20432
#
# Velocity S-wave (km/s) = 3.70733 3.86487 3.78692
# Velocity P-wave (km/s) = 6.49984 6.82845 6.66617
#
# Compressibility (1/GPa) = 0.02287703
#
# Stress axis : x y z
#
# Youngs Moduli (GPa) = 76.57298 60.40106 52.41650
#
# Poissons Ratio (x) = 0.21160 0.22983
# Poissons Ratio (y) = 0.26826 0.26314
# Poissons Ratio (z) = 0.33575 0.30323
#
# Static dielectric constant tensor:
#      x y z
#    x 4.476760 0.000000 -0.309470 
#    y 0.000000 2.915690 0.000000 
#    z -0.309470 0.000000 3.243020 
# 
# 
# High freq. dielectric constant tensor:
#      x y z
#    x 1.723990 0.000000 -0.015930 
#    y 0.000000 1.693950 0.000000 
#    z -0.015930 0.000000 1.683130 
# 
# From -- ./inp_files/9662.got.cif
#   From: 2010.03.12/outbox.cif.g09.slc.cpg/sg14_5_cif.got.tgz:9662.got - 2010.03.31 13:35:05.
