data_PCOD8126044
_publ_section_title
;
Structure prediction by ZEFSAII (Michael W. Deem and Ramdas Pophale) SiO2 
 PCOD8126044
Probable space group: P 21/C
;
_chemical_formula_sum "Si O2"
_cell_formula_units_Z 20
_cell_length_a 8.740292
_cell_length_b 20.135641
_cell_length_c 5.217359
_cell_angle_alpha 90.000000
_cell_angle_beta 71.078159
_cell_angle_gamma 90.000000
_cell_volume 868.591805
_symmetry_space_group_name_H-M "P 21/C"
_symmetry_group_IT_number 14
_symmetry_cell_setting 'monoclinic'
loop_
_space_group_symop_operation_xyz
x,y,z
-x,1/2+y,1/2-z
-x,-y,-z
x,1/2-y,1/2+z
loop_
_atom_site_type_symbol
_atom_site_label
_atom_site_fract_x
_atom_site_fract_y
_atom_site_fract_z
Si Si1 0.431768 0.429032 0.598093
Si Si2 0.600732 0.102161 0.523198
Si Si3 0.856039 0.997001 0.377012
Si Si4 0.096603 0.091892 0.069635
Si Si5 0.881668 0.292981 0.811585
O O1 0.500000 0.500000 0.500000
O O2 0.487091 0.401704 0.838976
O O3 0.232176 0.431104 0.711223
O O4 0.492370 0.380495 0.333665
O O5 0.726473 0.159949 0.391767
O O6 0.683841 0.029969 0.545433
O O7 0.826188 0.925307 0.252694
O O8 0.000000 0.000000 0.500000
O O9 0.927990 0.051471 0.138505
O O10 0.048850 0.167385 0.159859
O O11 0.878640 0.236558 0.598344
#
# Coordination Sequence:
#
# PCOD8126044 Si02
#       5
#     4   4   4   4   4
#     4  12  23  41  65 108 140 167 199 274 351 416
#     4  11  25  41  67  95 137 176 215 263 342 402
#     4  10  21  37  64  96 133 172 208 271 331 401
#     4  10  24  38  65  98 131 168 221 270 331 388
#     4  11  26  48  68  90 126 182 240 275 308 380
#
# _framework density 23.025774999999999
#
# number of rings (size 3 to 8) (size 9 to 14) (size 15 to 20)
#    0.000    1.200    2.000    3.000   14.000    0.000 
#    0.000    6.000    0.000    0.000    0.000    0.000 
#    0.000    0.000    0.000    0.000    0.000    0.000 
#
# Total GULP energy -247766.866674 kJ/mol
# GULP energy per Si atom -12388.343334 kJ/mol
# Density = 2.297337 g / cm^3
# Si number density = 23.025775 Si / 1000 Ang^3
#
#
#
# Elastic Constant Matrix: (Units=GPa)
#
#
# Indices 1 2 3 4 5 6 
#
# 1 140.6598 24.6426 45.8710 0.0000 2.0852 0.0000
# 2 24.6426 63.6052 10.6079 0.0000 -11.7456 0.0000
# 3 45.8710 10.6079 122.0955 0.0000 5.6571 0.0000
# 4 0.0000 0.0000 0.0000 29.5557 0.0000 0.0840
# 5 2.0852 -11.7456 5.6571 0.0000 47.4389 0.0000
# 6 0.0000 0.0000 0.0000 0.0840 0.0000 31.6370
#
#
#
# Elastic Compliance Matrix: (Units=1/GPa)
#
#
# Indices 1 2 3 4 5 6 
#
# 1 0.008601 -0.002984 -0.002937 0.000000 -0.000767 0.000000
# 2 -0.002984 0.017839 -0.000643 0.000000 0.004625 0.000000
# 3 -0.002937 -0.000643 0.009403 0.000000 -0.001151 0.000000
# 4 0.000000 0.000000 0.000000 0.033835 0.000000 -0.000090
# 5 -0.000767 0.004625 -0.001151 0.000000 0.022396 0.000000
# 6 0.000000 0.000000 0.000000 -0.000090 0.000000 0.031609
#
#
# Mechanical properties :
#
#
# Convention : Reuss Voigt Hill
#
# Bulk Modulus (GPa) = 44.02248 54.28927 49.15588
# Shear Modulus (GPa) = 34.63024 38.07558 36.35291
#
# Velocity S-wave (km/s) = 3.88232 4.07087 3.97771
# Velocity P-wave (km/s) = 6.26553 6.76201 6.51850
#
# Compressibility (1/GPa) = 0.02271567
#
# Stress axis : x y z
#
# Youngs Moduli (GPa) = 116.26278 56.05556 106.35108
#
# Poissons Ratio (x) = 0.16728 0.31232
# Poissons Ratio (y) = 0.34695 0.06839
# Poissons Ratio (z) = 0.34142 0.03605
#
# Static dielectric constant tensor:
#      x y z
#    x 3.355610 0.000000 -0.623620 
#    y 0.000000 4.045940 0.000000 
#    z -0.623620 0.000000 5.373940 
# 
# 
# High freq. dielectric constant tensor:
#      x y z
#    x 1.923680 0.000000 -0.011910 
#    y 0.000000 1.867850 0.000000 
#    z -0.011910 0.000000 1.946770 
# 
# From -- ./inp_files/1152.got.cif
#   From: 2010.03.12/outbox.cif.g09.slc.cpg/sg14_1_cif.got.tgz:1152.got - 2010.03.31 13:35:05.
