data_PCOD8126711
_publ_section_title
;
Structure prediction by ZEFSAII (Michael W. Deem and Ramdas Pophale) SiO2 
 PCOD8126711
Probable space group: P 21/C
;
_chemical_formula_sum "Si O2"
_cell_formula_units_Z 32
_cell_length_a 12.010335
_cell_length_b 19.702707
_cell_length_c 11.855762
_cell_angle_alpha 90.000000
_cell_angle_beta 147.193862
_cell_angle_gamma 90.000000
_cell_volume 1520.015775
_symmetry_space_group_name_H-M "P 21/C"
_symmetry_group_IT_number 14
_symmetry_cell_setting 'monoclinic'
loop_
_space_group_symop_operation_xyz
x,y,z
-x,1/2+y,1/2-z
-x,-y,-z
x,1/2-y,1/2+z
loop_
_atom_site_type_symbol
_atom_site_label
_atom_site_fract_x
_atom_site_fract_y
_atom_site_fract_z
Si Si1 0.237482 0.989514 0.185963
Si Si2 0.993153 0.318189 0.032703
Si Si3 0.501481 0.113915 0.474988
Si Si4 0.286572 0.686501 0.406757
Si Si5 0.621220 0.035365 0.946353
Si Si6 0.798432 0.541804 0.801879
Si Si7 0.384800 0.697402 0.144576
Si Si8 0.365752 0.252427 0.446236
O O1 0.334130 0.055067 0.327340
O O2 0.294517 0.919548 0.298275
O O3 0.311893 0.985286 0.121003
O O4 0.000000 0.000000 0.000000
O O5 0.913953 0.297116 0.840847
O O6 0.787805 0.338572 0.926084
O O7 0.148246 0.379995 0.158850
O O8 0.126279 0.259074 0.206616
O O9 0.546922 0.144237 0.391034
O O10 0.422349 0.172836 0.490792
O O11 0.285955 0.608293 0.441988
O O12 0.273967 0.734948 0.504044
O O13 0.497632 0.704736 0.524299
O O14 0.373410 0.032819 0.746717
O O15 0.711459 0.979125 0.106681
O O16 0.000000 0.500000 0.000000
O O17 0.586626 0.719140 0.387996
#
# Coordination Sequence:
#
# PCOD8126711 Si02
#       8
#     4   4   4   4   4   4   4   4
#     4  11  27  45  67  93 134 186 227 269 333 412
#     4  11  23  40  67 101 129 167 224 271 350 399
#     4  10  25  46  63  96 134 171 227 276 331 405
#     4  10  21  42  58  98 128 169 215 276 328 404
#     4  11  24  41  68  94 135 174 225 279 338 400
#     4  11  24  40  68 102 131 171 223 285 340 402
#     4  10  24  39  70  93 133 169 220 277 332 402
#     4  10  22  42  65  94 131 169 215 281 337 396
#
# _framework density 21.052413000000001
#
# number of rings (size 3 to 8) (size 9 to 14) (size 15 to 20)
#    0.000    1.500    2.500    0.750    5.250    7.000 
#    2.250    0.000    0.000    0.000    0.000    0.000 
#    0.000    0.000    0.000    0.000    0.000    0.000 
#
# Total GULP energy -396827.828873 kJ/mol
# GULP energy per Si atom -12400.869652 kJ/mol
# Density = 2.100450 g / cm^3
# Si number density = 21.052413 Si / 1000 Ang^3
#
#
#
# Elastic Constant Matrix: (Units=GPa)
#
#
# Indices 1 2 3 4 5 6 
#
# 1 92.1536 17.7398 40.4592 0.0000 -1.7539 0.0000
# 2 17.7398 76.5707 36.3965 0.0000 4.6794 0.0000
# 3 40.4592 36.3965 146.1357 0.0000 7.9807 0.0000
# 4 0.0000 0.0000 0.0000 35.5267 0.0000 -2.0135
# 5 -1.7539 4.6794 7.9807 0.0000 32.7748 0.0000
# 6 0.0000 0.0000 0.0000 -2.0135 0.0000 25.7331
#
#
#
# Elastic Compliance Matrix: (Units=1/GPa)
#
#
# Indices 1 2 3 4 5 6 
#
# 1 0.012576 -0.001494 -0.003201 0.000000 0.001666 0.000000
# 2 -0.001494 0.015040 -0.003254 0.000000 -0.001435 0.000000
# 3 -0.003201 -0.003254 0.008638 0.000000 -0.001810 0.000000
# 4 0.000000 0.000000 0.000000 0.028273 0.000000 0.002212
# 5 0.001666 -0.001435 -0.001810 0.000000 0.031246 0.000000
# 6 0.000000 0.000000 0.000000 0.002212 0.000000 0.039034
#
#
# Mechanical properties :
#
#
# Convention : Reuss Voigt Hill
#
# Bulk Modulus (GPa) = 49.12202 56.00569 52.56386
# Shear Modulus (GPa) = 31.74793 33.49122 32.61958
#
# Velocity S-wave (km/s) = 3.88757 3.99287 3.94057
# Velocity P-wave (km/s) = 6.59809 6.92229 6.76213
#
# Compressibility (1/GPa) = 0.02035747
#
# Stress axis : x y z
#
# Youngs Moduli (GPa) = 79.51675 66.48782 115.76247
#
# Poissons Ratio (x) = 0.09933 0.37052
# Poissons Ratio (y) = 0.11880 0.37669
# Poissons Ratio (z) = 0.25451 0.21635
#
# Static dielectric constant tensor:
#      x y z
#    x 3.616940 0.000000 -0.058980 
#    y 0.000000 4.397510 0.000000 
#    z -0.058980 0.000000 3.966490 
# 
# 
# High freq. dielectric constant tensor:
#      x y z
#    x 1.814720 0.000000 -0.004480 
#    y 0.000000 1.833820 0.000000 
#    z -0.004480 0.000000 1.837470 
# 
# From -- ./inp_files/30756.got.cif
#   From: 2010.03.12/outbox.cif.g09.slc.cpg/sg14_16_cif.got.tgz:30756.got - 2010.03.31 13:35:05.
