data_PCOD8126592
_publ_section_title
;
Structure prediction by ZEFSAII (Michael W. Deem and Ramdas Pophale) SiO2 
 PCOD8126592
Probable space group: P 21/C
;
_chemical_formula_sum "Si O2"
_cell_formula_units_Z 20
_cell_length_a 8.853836
_cell_length_b 15.092407
_cell_length_c 15.192848
_cell_angle_alpha 90.000000
_cell_angle_beta 30.018927
_cell_angle_gamma 90.000000
_cell_volume 1015.658182
_symmetry_space_group_name_H-M "P 21/C"
_symmetry_group_IT_number 14
_symmetry_cell_setting 'monoclinic'
loop_
_space_group_symop_operation_xyz
x,y,z
-x,1/2+y,1/2-z
-x,-y,-z
x,1/2-y,1/2+z
loop_
_atom_site_type_symbol
_atom_site_label
_atom_site_fract_x
_atom_site_fract_y
_atom_site_fract_z
Si Si1 0.306473 0.685330 0.413468
Si Si2 0.811724 0.465482 0.384118
Si Si3 0.976128 0.858176 0.560402
Si Si4 0.840713 0.059128 0.153048
Si Si5 0.143042 0.459990 0.046604
O O1 0.215306 0.618288 0.537375
O O2 0.662224 0.690205 0.230407
O O3 0.171617 0.655982 0.385759
O O4 0.217951 0.787025 0.471979
O O5 0.500000 0.500000 0.500000
O O6 0.956131 0.550739 0.361966
O O7 0.051393 0.430380 0.190751
O O8 0.017218 0.890807 0.438903
O O9 0.992483 0.943650 0.613792
O O10 0.498844 0.029990 0.348686
O O11 0.000000 0.000000 0.000000
#
# Coordination Sequence:
#
# PCOD8126592 Si02
#       5
#     4   4   4   4   4
#     4  10  22  40  60  92 122 163 205 257 310 369
#     4  11  21  39  63  92 122 158 209 258 310 366
#     4  10  22  39  63  89 123 163 205 252 311 369
#     4   9  21  38  63  88 121 166 203 247 314 373
#     4  10  21  41  63  89 124 166 206 252 313 367
#
# _framework density 19.691662999999998
#
# number of rings (size 3 to 8) (size 9 to 14) (size 15 to 20)
#    0.000    2.000    2.000    0.600    8.400    0.000 
#    3.600    2.000    0.000    0.000    0.000    0.000 
#    0.000    0.000    0.000    0.000    0.000    0.000 
#
# Total GULP energy -247819.708690 kJ/mol
# GULP energy per Si atom -12390.985434 kJ/mol
# Density = 1.964684 g / cm^3
# Si number density = 19.691663 Si / 1000 Ang^3
#
#
#
# Elastic Constant Matrix: (Units=GPa)
#
#
# Indices 1 2 3 4 5 6 
#
# 1 110.3781 41.2624 34.6519 0.0000 1.4136 0.0000
# 2 41.2624 109.5706 40.9633 0.0000 -4.4139 0.0000
# 3 34.6519 40.9633 109.1096 0.0000 9.8631 0.0000
# 4 0.0000 0.0000 0.0000 20.1331 0.0000 -10.4672
# 5 1.4136 -4.4139 9.8631 0.0000 35.5406 0.0000
# 6 0.0000 0.0000 0.0000 -10.4672 0.0000 32.6750
#
#
#
# Elastic Compliance Matrix: (Units=1/GPa)
#
#
# Indices 1 2 3 4 5 6 
#
# 1 0.011003 -0.003320 -0.002227 0.000000 -0.000232 0.000000
# 2 -0.003320 0.011837 -0.003625 0.000000 0.002608 0.000000
# 3 -0.002227 -0.003625 0.011556 0.000000 -0.003569 0.000000
# 4 0.000000 0.000000 0.000000 0.059595 0.000000 0.019091
# 5 -0.000232 0.002608 -0.003569 0.000000 0.029460 0.000000
# 6 0.000000 0.000000 0.000000 0.019091 0.000000 0.036720
#
#
# Mechanical properties :
#
#
# Convention : Reuss Voigt Hill
#
# Bulk Modulus (GPa) = 62.30095 62.53483 62.41789
# Shear Modulus (GPa) = 27.19351 31.81512 29.50431
#
# Velocity S-wave (km/s) = 3.72017 4.02389 3.87501
# Velocity P-wave (km/s) = 7.08236 7.30855 7.19634
#
# Compressibility (1/GPa) = 0.01605112
#
# Stress axis : x y z
#
# Youngs Moduli (GPa) = 90.88345 84.47819 86.53500
#
# Poissons Ratio (x) = 0.28050 0.19270
# Poissons Ratio (y) = 0.30177 0.31372
# Poissons Ratio (z) = 0.20239 0.30627
#
# Static dielectric constant tensor:
#      x y z
#    x 3.865850 0.000000 0.060280 
#    y 0.000000 3.458640 0.000000 
#    z 0.060280 0.000000 3.690130 
# 
# 
# High freq. dielectric constant tensor:
#      x y z
#    x 1.769640 0.000000 -0.001490 
#    y 0.000000 1.745940 0.000000 
#    z -0.001490 0.000000 1.783030 
# 
# From -- ./inp_files/8746.got.cif
#   From: 2010.03.12/outbox.cif.g09.slc.cpg/sg14_5_cif.got.tgz:8746.got - 2010.03.31 13:35:05.
