data_PCOD8126872
_publ_section_title
;
Structure prediction by ZEFSAII (Michael W. Deem and Ramdas Pophale) SiO2 
 PCOD8126872
Probable space group: P 21/C
;
_chemical_formula_sum "Si O2"
_cell_formula_units_Z 28
_cell_length_a 8.396140
_cell_length_b 5.201706
_cell_length_c 29.778357
_cell_angle_alpha 90.000000
_cell_angle_beta 120.237022
_cell_angle_gamma 90.000000
_cell_volume 1123.607450
_symmetry_space_group_name_H-M "P 21/C"
_symmetry_group_IT_number 14
_symmetry_cell_setting 'monoclinic'
loop_
_space_group_symop_operation_xyz
x,y,z
-x,1/2+y,1/2-z
-x,-y,-z
x,1/2-y,1/2+z
loop_
_atom_site_type_symbol
_atom_site_label
_atom_site_fract_x
_atom_site_fract_y
_atom_site_fract_z
Si Si1 0.442364 0.758599 0.549832
Si Si2 0.725292 0.753384 0.009956
Si Si3 0.064155 0.726959 0.346257
Si Si4 0.730419 0.762907 0.247117
Si Si5 0.400688 0.059268 0.674752
Si Si6 0.043653 0.726403 0.115877
Si Si7 0.417582 0.949868 0.853578
O O1 0.304049 0.528413 0.517008
O O2 0.615554 0.764290 0.541178
O O3 0.510725 0.706156 0.610605
O O4 0.336947 0.029989 0.533182
O O5 0.940613 0.716437 0.053083
O O6 0.040710 0.008657 0.363724
O O7 0.281912 0.697719 0.368765
O O8 0.948052 0.701301 0.283002
O O9 0.986802 0.509317 0.368608
O O10 0.666622 0.825870 0.288204
O O11 0.611340 0.528011 0.211397
O O12 0.700079 0.991849 0.207799
O O13 0.408881 0.273714 0.636610
O O14 0.262524 0.828331 0.640347
#
# Coordination Sequence:
#
# PCOD8126872 Si02
#       7
#     4   4   4   4   4   4   4
#     4  10  23  40  69 102 137 180 231 298 356 422
#     4  10  21  43  70  98 139 181 230 289 372 425
#     4  11  27  42  73 105 140 178 246 293 350 419
#     4  11  25  45  68  94 142 192 225 281 354 431
#     4  11  25  44  71  96 144 192 236 282 366 432
#     4  11  24  47  72 104 139 188 233 292 360 441
#     4  12  27  43  68 109 141 183 242 301 345 424
#
# _framework density 24.919736
#
# number of rings (size 3 to 8) (size 9 to 14) (size 15 to 20)
#    0.000    1.143    2.857    1.714   14.000    0.000 
#    0.000    1.429    0.000    0.000    0.000    0.000 
#    0.000    0.000    0.000    0.000    0.000    0.000 
#
# Total GULP energy -347179.281083 kJ/mol
# GULP energy per Si atom -12399.260039 kJ/mol
# Density = 2.486302 g / cm^3
# Si number density = 24.919736 Si / 1000 Ang^3
#
#
#
# Elastic Constant Matrix: (Units=GPa)
#
#
# Indices 1 2 3 4 5 6 
#
# 1 46.3513 5.8226 32.9611 0.0000 -4.4995 0.0000
# 2 5.8226 78.0994 13.2095 0.0000 1.3339 0.0000
# 3 32.9611 13.2095 112.4119 0.0000 27.8574 0.0000
# 4 0.0000 0.0000 0.0000 44.8414 0.0000 2.8739
# 5 -4.4995 1.3339 27.8574 0.0000 27.0772 0.0000
# 6 0.0000 0.0000 0.0000 2.8739 0.0000 28.7656
#
#
#
# Elastic Compliance Matrix: (Units=1/GPa)
#
#
# Indices 1 2 3 4 5 6 
#
# 1 0.034813 -0.000333 -0.015578 0.000000 0.021828 0.000000
# 2 -0.000333 0.013099 -0.001702 0.000000 0.001050 0.000000
# 3 -0.015578 -0.001702 0.019172 0.000000 -0.022230 0.000000
# 4 0.000000 0.000000 0.000000 0.022445 0.000000 -0.002242
# 5 0.021828 0.001050 -0.022230 0.000000 0.063377 0.000000
# 6 0.000000 0.000000 0.000000 -0.002242 0.000000 0.034988
#
#
# Mechanical properties :
#
#
# Convention : Reuss Voigt Hill
#
# Bulk Modulus (GPa) = 31.38919 37.87209 34.63064
# Shear Modulus (GPa) = 21.39139 32.46146 26.92642
#
# Velocity S-wave (km/s) = 2.93304 3.61313 3.29070
# Velocity P-wave (km/s) = 4.90854 5.71287 5.32591
#
# Compressibility (1/GPa) = 0.03185810
#
# Stress axis : x y z
#
# Youngs Moduli (GPa) = 28.72506 76.34207 52.15846
#
# Poissons Ratio (x) = 0.02546 0.81252
# Poissons Ratio (y) = 0.00958 0.08876
# Poissons Ratio (z) = 0.44748 0.12991
#
# Static dielectric constant tensor:
#      x y z
#    x 4.454610 0.000000 0.306700 
#    y 0.000000 4.408310 0.000000 
#    z 0.306700 0.000000 4.724140 
# 
# 
# High freq. dielectric constant tensor:
#      x y z
#    x 1.974440 0.000000 0.010720 
#    y 0.000000 1.998170 0.000000 
#    z 0.010720 0.000000 2.000140 
# 
# From -- ./inp_files/79298.got.cif
#   From: 2010.03.12/outbox.cif.g09.slc.cpg/sg14_40_cif.got.tgz:79298.got - 2010.03.31 13:35:05.
