data_PCOD8126356
_publ_section_title
;
Structure prediction by ZEFSAII (Michael W. Deem and Ramdas Pophale) SiO2 
 PCOD8126356
Probable space group: P 21/C
;
_chemical_formula_sum "Si O2"
_cell_formula_units_Z 32
_cell_length_a 13.423829
_cell_length_b 8.686637
_cell_length_c 22.656126
_cell_angle_alpha 90.000000
_cell_angle_beta 147.170720
_cell_angle_gamma 90.000000
_cell_volume 1432.264877
_symmetry_space_group_name_H-M "P 21/C"
_symmetry_group_IT_number 14
_symmetry_cell_setting 'monoclinic'
loop_
_space_group_symop_operation_xyz
x,y,z
-x,1/2+y,1/2-z
-x,-y,-z
x,1/2-y,1/2+z
loop_
_atom_site_type_symbol
_atom_site_label
_atom_site_fract_x
_atom_site_fract_y
_atom_site_fract_z
Si Si1 0.608113 0.448700 0.817855
Si Si2 0.308214 0.206288 0.924223
Si Si3 0.007008 0.312232 0.692699
Si Si4 0.698696 0.369376 0.622872
Si Si5 0.201355 0.870336 0.698404
Si Si6 0.919888 0.871227 0.083796
Si Si7 0.039196 0.855894 0.445543
Si Si8 0.743008 0.707935 0.376956
O O1 0.627634 0.380982 0.760798
O O2 0.399042 0.401820 0.729980
O O3 0.641190 0.630518 0.840039
O O4 0.749520 0.355173 0.929670
O O5 0.197048 0.237736 0.929577
O O6 0.212400 0.296229 0.822115
O O7 0.321325 0.021595 0.925989
O O8 0.524910 0.249576 0.034819
O O9 0.871535 0.279614 0.680640
O O10 0.971678 0.469194 0.640302
O O11 0.971979 0.176330 0.629397
O O12 0.732738 0.430999 0.705723
O O13 0.116095 0.702311 0.664868
O O14 0.044338 0.973466 0.587970
O O15 0.801849 0.884743 0.965167
O O16 0.920918 0.732807 0.424170
#
# Coordination Sequence:
#
# PCOD8126356 Si02
#       8
#     4   4   4   4   4   4   4   4
#     4  11  24  41  67  95 125 172 215 263 320 381
#     4  10  21  40  62  95 124 165 213 260 316 379
#     4  11  24  37  65  96 127 167 215 266 317 370
#     4  10  21  39  67  88 125 170 212 258 314 383
#     4  11  19  42  68  87 124 175 210 251 326 383
#     4  11  22  40  67  92 128 168 211 266 319 378
#     4  11  23  43  65  89 131 174 212 261 321 389
#     4  11  24  43  65  96 128 170 216 262 320 383
#
# _framework density 22.342234999999999
#
# number of rings (size 3 to 8) (size 9 to 14) (size 15 to 20)
#    0.000    1.250    5.000    1.500    1.750    2.500 
#    0.000    0.625    0.000    0.000    0.000    0.000 
#    0.000    0.000    0.000    0.000    0.000    0.000 
#
# Total GULP energy -396687.419180 kJ/mol
# GULP energy per Si atom -12396.481849 kJ/mol
# Density = 2.229138 g / cm^3
# Si number density = 22.342235 Si / 1000 Ang^3
#
#
#
# Elastic Constant Matrix: (Units=GPa)
#
#
# Indices 1 2 3 4 5 6 
#
# 1 63.3445 8.6140 35.1134 0.0000 -12.6993 0.0000
# 2 8.6140 47.1693 26.7019 0.0000 8.7141 0.0000
# 3 35.1134 26.7019 135.4424 0.0000 -8.1772 0.0000
# 4 0.0000 0.0000 0.0000 36.8769 0.0000 -0.1831
# 5 -12.6993 8.7141 -8.1772 0.0000 33.3904 0.0000
# 6 0.0000 0.0000 0.0000 -0.1831 0.0000 26.6107
#
#
#
# Elastic Compliance Matrix: (Units=1/GPa)
#
#
# Indices 1 2 3 4 5 6 
#
# 1 0.019925 -0.002583 -0.004220 0.000000 0.007218 0.000000
# 2 -0.002583 0.026199 -0.005042 0.000000 -0.009055 0.000000
# 3 -0.004220 -0.005042 0.009596 0.000000 0.002061 0.000000
# 4 0.000000 0.000000 0.000000 0.027118 0.000000 0.000187
# 5 0.007218 -0.009055 0.002061 0.000000 0.035562 0.000000
# 6 0.000000 0.000000 0.000000 0.000187 0.000000 0.037580
#
#
# Mechanical properties :
#
#
# Convention : Reuss Voigt Hill
#
# Bulk Modulus (GPa) = 31.22230 42.97941 37.10086
# Shear Modulus (GPa) = 26.26791 31.07739 28.67265
#
# Velocity S-wave (km/s) = 3.43258 3.73362 3.58626
# Velocity P-wave (km/s) = 5.45115 6.15347 5.81292
#
# Compressibility (1/GPa) = 0.03202839
#
# Stress axis : x y z
#
# Youngs Moduli (GPa) = 50.18930 38.16950 104.21256
#
# Poissons Ratio (x) = 0.09859 0.43982
# Poissons Ratio (y) = 0.12964 0.52544
# Poissons Ratio (z) = 0.21182 0.19245
#
# Static dielectric constant tensor:
#      x y z
#    x 4.316090 0.000000 0.102280 
#    y 0.000000 3.600200 0.000000 
#    z 0.102280 0.000000 4.077840 
# 
# 
# High freq. dielectric constant tensor:
#      x y z
#    x 1.881350 0.000000 -0.003960 
#    y 0.000000 1.849570 0.000000 
#    z -0.003960 0.000000 1.892100 
# 
# From -- ./inp_files/73868.got.cif
#   From: 2010.03.12/outbox.cif.g09.slc.cpg/sg14_37_cif.got.tgz:73868.got - 2010.03.31 13:35:05.
