data_PCOD8126037
_publ_section_title
;
Structure prediction by ZEFSAII (Michael W. Deem and Ramdas Pophale) SiO2 
 PCOD8126037
Probable space group: P 21/C
;
_chemical_formula_sum "Si O2"
_cell_formula_units_Z 28
_cell_length_a 12.371812
_cell_length_b 7.864207
_cell_length_c 27.364568
_cell_angle_alpha 90.000000
_cell_angle_beta 150.745904
_cell_angle_gamma 90.000000
_cell_volume 1301.081859
_symmetry_space_group_name_H-M "P 21/C"
_symmetry_group_IT_number 14
_symmetry_cell_setting 'monoclinic'
loop_
_space_group_symop_operation_xyz
x,y,z
-x,1/2+y,1/2-z
-x,-y,-z
x,1/2-y,1/2+z
loop_
_atom_site_type_symbol
_atom_site_label
_atom_site_fract_x
_atom_site_fract_y
_atom_site_fract_z
Si Si1 0.778356 0.257151 0.239110
Si Si2 0.121751 0.375334 0.216288
Si Si3 0.819439 0.625641 0.653057
Si Si4 0.152978 0.655534 0.460140
Si Si5 0.439389 0.737057 0.661075
Si Si6 0.707887 0.462971 0.304550
Si Si7 0.526576 0.867152 0.955994
O O1 0.721518 0.309810 0.271346
O O2 0.547739 0.255082 0.117575
O O3 0.941122 0.395614 0.278150
O O4 0.909920 0.077855 0.290211
O O5 0.155127 0.289845 0.283368
O O6 0.339750 0.351853 0.270600
O O7 0.910993 0.290536 0.107262
O O8 0.701945 0.441925 0.611826
O O9 0.660450 0.730498 0.552026
O O10 0.266703 0.760645 0.548801
O O11 0.321704 0.517650 0.505615
O O12 0.934562 0.567047 0.395155
O O13 0.329533 0.614057 0.657255
O O14 0.499442 0.919288 0.707755
#
# Coordination Sequence:
#
# PCOD8126037 Si02
#       7
#     4   4   4   4   4   4   4
#     4  11  22  41  65  97 126 171 219 270 320 383
#     4  10  24  38  65  94 135 165 222 263 319 386
#     4  10  21  37  63  94 128 171 209 263 317 382
#     4  11  22  45  65  96 132 174 215 260 332 382
#     4  11  23  44  64  97 125 174 211 271 323 384
#     4  11  25  43  72  91 133 165 220 266 331 381
#     4  10  22  40  65  90 134 172 213 264 325 383
#
# _framework density 21.520551999999999
#
# number of rings (size 3 to 8) (size 9 to 14) (size 15 to 20)
#    0.000    1.429    4.286    1.286    6.000    1.143 
#    0.000    4.286    0.000    0.000    0.000    0.000 
#    0.000    0.000    0.000    0.000    0.000    0.000 
#
# Total GULP energy -347066.234502 kJ/mol
# GULP energy per Si atom -12395.222661 kJ/mol
# Density = 2.147157 g / cm^3
# Si number density = 21.520552 Si / 1000 Ang^3
#
#
#
# Elastic Constant Matrix: (Units=GPa)
#
#
# Indices 1 2 3 4 5 6 
#
# 1 105.5972 18.9362 43.4245 0.0000 -16.5300 0.0000
# 2 18.9362 54.8647 46.7535 0.0000 -6.9005 0.0000
# 3 43.4245 46.7535 158.0289 0.0000 -30.7929 0.0000
# 4 0.0000 0.0000 0.0000 32.7745 0.0000 -0.5078
# 5 -16.5300 -6.9005 -30.7929 0.0000 34.7262 0.0000
# 6 0.0000 0.0000 0.0000 -0.5078 0.0000 25.1848
#
#
#
# Elastic Compliance Matrix: (Units=1/GPa)
#
#
# Indices 1 2 3 4 5 6 
#
# 1 0.011075 -0.001818 -0.001872 0.000000 0.003250 0.000000
# 2 -0.001818 0.024771 -0.007300 0.000000 -0.002416 0.000000
# 3 -0.001872 -0.007300 0.010331 0.000000 0.006819 0.000000
# 4 0.000000 0.000000 0.000000 0.030521 0.000000 0.000615
# 5 0.003250 -0.002416 0.006819 0.000000 0.035911 0.000000
# 6 0.000000 0.000000 0.000000 0.000615 0.000000 0.039719
#
#
# Mechanical properties :
#
#
# Convention : Reuss Voigt Hill
#
# Bulk Modulus (GPa) = 41.32857 59.63546 50.48202
# Shear Modulus (GPa) = 27.41649 32.49552 29.95600
#
# Velocity S-wave (km/s) = 3.57314 3.89006 3.73496
# Velocity P-wave (km/s) = 6.02238 6.92444 6.48910
#
# Compressibility (1/GPa) = 0.02419634
#
# Stress axis : x y z
#
# Youngs Moduli (GPa) = 90.29671 40.36994 96.79913
#
# Poissons Ratio (x) = 0.07341 0.18119
# Poissons Ratio (y) = 0.16420 0.70660
# Poissons Ratio (z) = 0.16902 0.29469
#
# Static dielectric constant tensor:
#      x y z
#    x 3.983610 0.000000 -0.279610 
#    y 0.000000 3.571480 0.000000 
#    z -0.279610 0.000000 4.409430 
# 
# 
# High freq. dielectric constant tensor:
#      x y z
#    x 1.857380 0.000000 -0.012060 
#    y 0.000000 1.806780 0.000000 
#    z -0.012060 0.000000 1.862360 
# 
# From -- ./inp_files/77132.got.cif
#   From: 2010.03.12/outbox.cif.g09.slc.cpg/sg14_39_cif.got.tgz:77132.got - 2010.03.31 13:35:05.
