data_PCOD8126429
_publ_section_title
;
Structure prediction by ZEFSAII (Michael W. Deem and Ramdas Pophale) SiO2 
 PCOD8126429
Probable space group: P 21/C
;
_chemical_formula_sum "Si O2"
_cell_formula_units_Z 20
_cell_length_a 17.518123
_cell_length_b 6.417868
_cell_length_c 25.929823
_cell_angle_alpha 90.000000
_cell_angle_beta 20.240505
_cell_angle_gamma 90.000000
_cell_volume 1008.569362
_symmetry_space_group_name_H-M "P 21/C"
_symmetry_group_IT_number 14
_symmetry_cell_setting 'monoclinic'
loop_
_space_group_symop_operation_xyz
x,y,z
-x,1/2+y,1/2-z
-x,-y,-z
x,1/2-y,1/2+z
loop_
_atom_site_type_symbol
_atom_site_label
_atom_site_fract_x
_atom_site_fract_y
_atom_site_fract_z
Si Si1 0.818150 0.454604 0.657487
Si Si2 0.628295 0.433682 0.323697
Si Si3 0.339488 0.092347 0.559819
Si Si4 0.065055 0.259147 0.320939
Si Si5 0.388351 0.682743 0.932524
O O1 0.789353 0.208268 0.685994
O O2 0.883997 0.565709 0.669039
O O3 0.583454 0.540110 0.785778
O O4 0.000000 0.500000 0.500000
O O5 0.452271 0.296775 0.465522
O O6 0.783344 0.558238 0.265068
O O7 0.486544 0.587915 0.378301
O O8 0.114416 0.152317 0.732195
O O9 0.500000 0.000000 0.500000
O O10 0.293856 0.919817 0.545108
O O11 0.807915 0.195693 0.484825
#
# Coordination Sequence:
#
# PCOD8126429 Si02
#       5
#     4   4   4   4   4
#     4  10  23  46  62  85 123 163 214 260 308 365
#     4  10  21  40  63  81 128 163 196 255 312 358
#     4  11  20  37  59  88 127 162 201 247 307 382
#     4  11  23  38  61  94 122 163 209 253 312 370
#     4  10  24  38  59  98 120 159 212 246 316 375
#
# _framework density 19.830069000000002
#
# number of rings (size 3 to 8) (size 9 to 14) (size 15 to 20)
#    0.000    1.600    6.000    0.600    2.800    6.400 
#    7.200    0.000    0.000    0.000    0.000    0.000 
#    0.000    0.000    0.000    0.000    0.000    0.000 
#
# Total GULP energy -247989.398493 kJ/mol
# GULP energy per Si atom -12399.469925 kJ/mol
# Density = 1.978494 g / cm^3
# Si number density = 19.830069 Si / 1000 Ang^3
#
#
#
# Elastic Constant Matrix: (Units=GPa)
#
#
# Indices 1 2 3 4 5 6 
#
# 1 45.0073 29.8675 38.6313 0.0000 -8.5333 0.0000
# 2 29.8675 119.7319 31.4207 0.0000 5.3204 0.0000
# 3 38.6313 31.4207 119.0991 0.0000 8.4369 0.0000
# 4 0.0000 0.0000 0.0000 26.5076 0.0000 4.2292
# 5 -8.5333 5.3204 8.4369 0.0000 52.6810 0.0000
# 6 0.0000 0.0000 0.0000 4.2292 0.0000 10.3510
#
#
#
# Elastic Compliance Matrix: (Units=1/GPa)
#
#
# Indices 1 2 3 4 5 6 
#
# 1 0.037997 -0.006948 -0.011103 0.000000 0.008635 0.000000
# 2 -0.006948 0.010259 -0.000303 0.000000 -0.002113 0.000000
# 3 -0.011103 -0.000303 0.012343 0.000000 -0.003745 0.000000
# 4 0.000000 0.000000 0.000000 0.040356 0.000000 -0.016488
# 5 0.008635 -0.002113 -0.003745 0.000000 0.021194 0.000000
# 6 0.000000 0.000000 0.000000 -0.016488 0.000000 0.103346
#
#
# Mechanical properties :
#
#
# Convention : Reuss Voigt Hill
#
# Bulk Modulus (GPa) = 41.85947 53.74192 47.80070
# Shear Modulus (GPa) = 18.50702 30.16915 24.33809
#
# Velocity S-wave (km/s) = 3.05828 3.90472 3.50713
# Velocity P-wave (km/s) = 5.79876 6.89124 6.36847
#
# Compressibility (1/GPa) = 0.02388946
#
# Stress axis : x y z
#
# Youngs Moduli (GPa) = 26.31767 97.47824 81.01691
#
# Poissons Ratio (x) = 0.67732 0.89957
# Poissons Ratio (y) = 0.18287 0.02454
# Poissons Ratio (z) = 0.29222 0.02953
#
# Static dielectric constant tensor:
#      x y z
#    x 3.409120 0.000000 0.086170 
#    y 0.000000 3.638660 0.000000 
#    z 0.086170 0.000000 3.781730 
# 
# 
# High freq. dielectric constant tensor:
#      x y z
#    x 1.748170 0.000000 -0.006960 
#    y 0.000000 1.788240 0.000000 
#    z -0.006960 0.000000 1.775040 
# 
# From -- ./inp_files/42434.got.cif
#   From: 2010.03.12/outbox.cif.g09.slc.cpg/sg14_22_cif.got.tgz:42434.got - 2010.03.31 13:35:05.
