data_PCOD8126877
_publ_section_title
;
Structure prediction by ZEFSAII (Michael W. Deem and Ramdas Pophale) SiO2 
 PCOD8126877
Probable space group: P 21/C
;
_chemical_formula_sum "Si O2"
_cell_formula_units_Z 32
_cell_length_a 19.420561
_cell_length_b 9.332673
_cell_length_c 25.047309
_cell_angle_alpha 90.000000
_cell_angle_beta 160.926162
_cell_angle_gamma 90.000000
_cell_volume 1483.518113
_symmetry_space_group_name_H-M "P 21/C"
_symmetry_group_IT_number 14
_symmetry_cell_setting 'monoclinic'
loop_
_space_group_symop_operation_xyz
x,y,z
-x,1/2+y,1/2-z
-x,-y,-z
x,1/2-y,1/2+z
loop_
_atom_site_type_symbol
_atom_site_label
_atom_site_fract_x
_atom_site_fract_y
_atom_site_fract_z
Si Si1 0.181678 0.452632 0.901417
Si Si2 0.958735 0.232281 0.093349
Si Si3 0.256200 0.665313 0.258473
Si Si4 0.211901 0.786241 0.921196
Si Si5 0.050956 0.839814 0.025149
Si Si6 0.676193 0.885729 0.263389
Si Si7 0.847976 0.554542 0.002439
Si Si8 0.600583 0.638221 0.045253
O O1 0.159610 0.620514 0.872420
O O2 0.268305 0.419637 0.025353
O O3 0.335954 0.386296 0.970252
O O4 0.947612 0.384498 0.729248
O O5 0.855339 0.161823 0.965624
O O6 0.198831 0.180887 0.273427
O O7 0.819994 0.175651 0.040266
O O8 0.957508 0.401574 0.086550
O O9 0.287663 0.517237 0.250120
O O10 0.448241 0.721633 0.435723
O O11 0.043736 0.663006 0.138122
O O12 0.233053 0.790620 0.198063
O O13 0.451752 0.820763 0.083061
O O14 0.849443 0.735084 0.880244
O O15 0.000000 0.000000 0.000000
O O16 0.688931 0.934720 0.335243
O O17 0.500000 0.500000 0.000000
#
# Coordination Sequence:
#
# PCOD8126877 Si02
#       8
#     4   4   4   4   4   4   4   4
#     4  10  25  45  65  93 135 169 214 275 331 383
#     4  10  21  44  61  92 133 165 219 272 320 388
#     4  11  23  40  70  95 130 175 216 271 321 393
#     4  10  25  43  66  92 130 171 217 275 324 391
#     4  11  22  41  65  93 135 169 210 279 329 381
#     4  11  23  43  66  98 125 172 229 261 325 405
#     4  10  21  44  66  93 127 170 220 267 318 388
#     4  11  26  41  65 103 132 170 219 267 336 395
#
# _framework density 21.570345
#
# number of rings (size 3 to 8) (size 9 to 14) (size 15 to 20)
#    0.000    1.500    2.500    1.500   10.500    1.500 
#    4.500    0.000    0.000    0.000    0.000    0.000 
#    0.000    0.000    0.000    0.000    0.000    0.000 
#
# Total GULP energy -396675.697293 kJ/mol
# GULP energy per Si atom -12396.115540 kJ/mol
# Density = 2.152125 g / cm^3
# Si number density = 21.570345 Si / 1000 Ang^3
#
#
#
# Elastic Constant Matrix: (Units=GPa)
#
#
# Indices 1 2 3 4 5 6 
#
# 1 79.2475 8.4901 -0.2122 0.0000 -17.4463 0.0000
# 2 8.4901 103.2784 17.4576 0.0000 -4.4580 0.0000
# 3 -0.2122 17.4576 49.3569 0.0000 12.6151 0.0000
# 4 0.0000 0.0000 0.0000 35.0066 0.0000 -4.2699
# 5 -17.4463 -4.4580 12.6151 0.0000 24.2633 0.0000
# 6 0.0000 0.0000 0.0000 -4.2699 0.0000 26.3420
#
#
#
# Elastic Compliance Matrix: (Units=1/GPa)
#
#
# Indices 1 2 3 4 5 6 
#
# 1 0.015419 -0.000197 -0.003101 0.000000 0.012663 0.000000
# 2 -0.000197 0.010718 -0.004912 0.000000 0.004381 0.000000
# 3 -0.003101 -0.004912 0.026277 0.000000 -0.016794 0.000000
# 4 0.000000 0.000000 0.000000 0.029142 0.000000 0.004724
# 5 0.012663 0.004381 -0.016794 0.000000 0.059856 0.000000
# 6 0.000000 0.000000 0.000000 0.004724 0.000000 0.038728
#
#
# Mechanical properties :
#
#
# Convention : Reuss Voigt Hill
#
# Bulk Modulus (GPa) = 27.78096 31.48377 29.63236
# Shear Modulus (GPa) = 23.97422 30.86555 27.41988
#
# Velocity S-wave (km/s) = 3.33745 3.78686 3.56924
# Velocity P-wave (km/s) = 5.26864 5.80930 5.54556
#
# Compressibility (1/GPa) = 0.03599588
#
# Stress axis : x y z
#
# Youngs Moduli (GPa) = 64.85416 93.29998 38.05630
#
# Poissons Ratio (x) = 0.01837 0.11800
# Poissons Ratio (y) = 0.01277 0.18692
# Poissons Ratio (z) = 0.20109 0.45826
#
# Static dielectric constant tensor:
#      x y z
#    x 4.332330 0.000000 -0.196560 
#    y 0.000000 3.823050 0.000000 
#    z -0.196560 0.000000 3.845800 
# 
# 
# High freq. dielectric constant tensor:
#      x y z
#    x 1.863450 0.000000 -0.010930 
#    y 0.000000 1.848720 0.000000 
#    z -0.010930 0.000000 1.835900 
# 
# From -- ./inp_files/78021.got.cif
#   From: 2010.03.12/outbox.cif.g09.slc.cpg/sg14_40_cif.got.tgz:78021.got - 2010.03.31 13:35:05.
