data_PCOD8126832
_publ_section_title
;
Structure prediction by ZEFSAII (Michael W. Deem and Ramdas Pophale) SiO2 
 PCOD8126832
Probable space group: P 21/C
;
_chemical_formula_sum "Si O2"
_cell_formula_units_Z 32
_cell_length_a 8.683783
_cell_length_b 14.656240
_cell_length_c 11.929217
_cell_angle_alpha 90.000000
_cell_angle_beta 91.658658
_cell_angle_gamma 90.000000
_cell_volume 1517.614489
_symmetry_space_group_name_H-M "P 21/C"
_symmetry_group_IT_number 14
_symmetry_cell_setting 'monoclinic'
loop_
_space_group_symop_operation_xyz
x,y,z
-x,1/2+y,1/2-z
-x,-y,-z
x,1/2-y,1/2+z
loop_
_atom_site_type_symbol
_atom_site_label
_atom_site_fract_x
_atom_site_fract_y
_atom_site_fract_z
Si Si1 0.414454 0.175051 0.685086
Si Si2 0.496052 0.364840 0.747139
Si Si3 0.072043 0.466107 0.883470
Si Si4 0.094067 0.590136 0.533936
Si Si5 0.810109 0.440399 0.691177
Si Si6 0.201485 0.141800 0.872894
Si Si7 0.682699 0.457448 0.268478
Si Si8 0.690299 0.819557 0.550518
O O1 0.482071 0.276259 0.668027
O O2 0.256782 0.181459 0.754333
O O3 0.543319 0.110152 0.739649
O O4 0.360379 0.134369 0.566272
O O5 0.671124 0.397792 0.756695
O O6 0.382514 0.443297 0.701576
O O7 0.453653 0.336519 0.871858
O O8 0.199611 0.536613 0.835391
O O9 0.152782 0.368236 0.903725
O O10 0.945384 0.457577 0.782800
O O11 0.000000 0.500000 0.000000
O O12 0.144077 0.627676 0.411494
O O13 0.240230 0.575420 0.615390
O O14 0.000000 0.500000 0.500000
O O15 0.979827 0.655223 0.602833
O O16 0.754691 0.534546 0.628040
O O17 0.285329 0.209703 0.963366
#
# Coordination Sequence:
#
# PCOD8126832 Si02
#       8
#     4   4   4   4   4   4   4   4
#     4  11  24  43  67  98 136 176 221 274 337 400
#     4  10  25  42  66  98 134 172 228 269 334 398
#     4  11  24  41  66  95 133 182 219 265 340 398
#     4  10  22  39  67  97 128 165 221 271 332 391
#     4  11  22  43  68  98 133 173 222 280 333 391
#     4  10  21  43  65  92 130 174 219 268 336 388
#     4  11  23  42  67  98 131 173 222 280 326 398
#     4  10  25  41  67  97 134 178 220 270 328 416
#
# _framework density 21.085723999999999
#
# number of rings (size 3 to 8) (size 9 to 14) (size 15 to 20)
#    0.000    1.500    3.750    0.750    5.250    5.500 
#    2.250    0.000    0.000    0.000    0.000    0.000 
#    0.000    0.000    0.000    0.000    0.000    0.000 
#
# Total GULP energy -396438.991663 kJ/mol
# GULP energy per Si atom -12388.718489 kJ/mol
# Density = 2.103773 g / cm^3
# Si number density = 21.085724 Si / 1000 Ang^3
#
#
#
# Elastic Constant Matrix: (Units=GPa)
#
#
# Indices 1 2 3 4 5 6 
#
# 1 135.1727 52.6820 69.8669 0.0000 -8.4648 0.0000
# 2 52.6820 96.6269 34.8937 0.0000 -0.8863 0.0000
# 3 69.8669 34.8937 134.9128 0.0000 5.3453 0.0000
# 4 0.0000 0.0000 0.0000 20.1538 0.0000 -3.3621
# 5 -8.4648 -0.8863 5.3453 0.0000 37.2610 0.0000
# 6 0.0000 0.0000 0.0000 -3.3621 0.0000 22.0260
#
#
#
# Elastic Compliance Matrix: (Units=1/GPa)
#
#
# Indices 1 2 3 4 5 6 
#
# 1 0.012132 -0.004706 -0.005200 0.000000 0.003390 0.000000
# 2 -0.004706 0.013259 -0.000968 0.000000 -0.000615 0.000000
# 3 -0.005200 -0.000968 0.010463 0.000000 -0.002705 0.000000
# 4 0.000000 0.000000 0.000000 0.050915 0.000000 0.007772
# 5 0.003390 -0.000615 -0.002705 0.000000 0.027981 0.000000
# 6 0.000000 0.000000 0.000000 0.007772 0.000000 0.046587
#
#
# Mechanical properties :
#
#
# Convention : Reuss Voigt Hill
#
# Bulk Modulus (GPa) = 70.89157 75.73307 73.31232
# Shear Modulus (GPa) = 26.62611 29.83948 28.23279
#
# Velocity S-wave (km/s) = 3.55738 3.76593 3.66314
# Velocity P-wave (km/s) = 7.11104 7.40975 7.26193
#
# Compressibility (1/GPa) = 0.01410605
#
# Stress axis : x y z
#
# Youngs Moduli (GPa) = 82.42741 75.42327 95.57823
#
# Poissons Ratio (x) = 0.35491 0.49701
# Poissons Ratio (y) = 0.38786 0.09252
# Poissons Ratio (z) = 0.42862 0.07301
#
# Static dielectric constant tensor:
#      x y z
#    x 4.135840 0.000000 -0.518960 
#    y 0.000000 3.840260 0.000000 
#    z -0.518960 0.000000 4.114730 
# 
# 
# High freq. dielectric constant tensor:
#      x y z
#    x 1.832600 0.000000 -0.020420 
#    y 0.000000 1.809110 0.000000 
#    z -0.020420 0.000000 1.831140 
# 
# From -- ./inp_files/25265.got.cif
#   From: 2010.03.12/outbox.cif.g09.slc.cpg/sg14_13_cif.got.tgz:25265.got - 2010.03.31 13:35:05.
