data_PCOD8126420
_publ_section_title
;
Structure prediction by ZEFSAII (Michael W. Deem and Ramdas Pophale) SiO2 
 PCOD8126420
Probable space group: P 21/C
;
_chemical_formula_sum "Si O2"
_cell_formula_units_Z 28
_cell_length_a 8.621739
_cell_length_b 17.492774
_cell_length_c 9.399557
_cell_angle_alpha 90.000000
_cell_angle_beta 82.300257
_cell_angle_gamma 90.000000
_cell_volume 1404.842049
_symmetry_space_group_name_H-M "P 21/C"
_symmetry_group_IT_number 14
_symmetry_cell_setting 'monoclinic'
loop_
_space_group_symop_operation_xyz
x,y,z
-x,1/2+y,1/2-z
-x,-y,-z
x,1/2-y,1/2+z
loop_
_atom_site_type_symbol
_atom_site_label
_atom_site_fract_x
_atom_site_fract_y
_atom_site_fract_z
Si Si1 0.607122 0.920712 0.637402
Si Si2 0.815495 0.183081 0.463412
Si Si3 0.232826 0.383597 0.299059
Si Si4 0.735781 0.848846 0.889038
Si Si5 0.005688 0.735454 0.788045
Si Si6 0.728734 0.475243 0.881737
Si Si7 0.457536 0.199945 0.573469
O O1 0.691598 0.912690 0.778308
O O2 0.427755 0.945554 0.676680
O O3 0.615369 0.837893 0.559639
O O4 0.695850 0.984898 0.536547
O O5 0.839196 0.096658 0.403462
O O6 0.644239 0.196995 0.548533
O O7 0.940613 0.198391 0.571086
O O8 0.847482 0.239582 0.327037
O O9 0.253028 0.393736 0.464450
O O10 0.091147 0.326828 0.286416
O O11 0.189904 0.465982 0.237011
O O12 0.394846 0.350291 0.213879
O O13 0.899750 0.809414 0.831549
O O14 0.596797 0.786880 0.912264
#
# Coordination Sequence:
#
# PCOD8126420 Si02
#       7
#     4   4   4   4   4   4   4
#     4   9  19  38  62  91 122 158 212 245 301 364
#     4  11  24  41  63  90 125 156 209 255 306 354
#     4  10  21  40  62  90 124 162 209 244 308 370
#     4  11  21  37  63  92 121 163 204 257 298 356
#     4  11  24  41  60  93 126 161 203 255 303 367
#     4   9  21  41  62  87 120 167 200 249 302 372
#     4   9  20  36  64  89 120 163 210 255 300 358
#
# _framework density 19.931065
#
# number of rings (size 3 to 8) (size 9 to 14) (size 15 to 20)
#    0.000    2.000    1.429    2.571   10.000    1.143 
#    0.000    2.143    0.000    0.000    0.000    0.000 
#    0.000    0.000    0.000    0.000    0.000    0.000 
#
# Total GULP energy -347269.773928 kJ/mol
# GULP energy per Si atom -12402.491926 kJ/mol
# Density = 1.988570 g / cm^3
# Si number density = 19.931065 Si / 1000 Ang^3
#
#
#
# Elastic Constant Matrix: (Units=GPa)
#
#
# Indices 1 2 3 4 5 6 
#
# 1 78.0297 41.5076 42.2634 0.0000 -0.9186 0.0000
# 2 41.5076 100.2646 53.2654 0.0000 7.6310 0.0000
# 3 42.2634 53.2654 139.2921 0.0000 26.6461 0.0000
# 4 0.0000 0.0000 0.0000 26.6805 0.0000 5.0012
# 5 -0.9186 7.6310 26.6461 0.0000 22.2547 0.0000
# 6 0.0000 0.0000 0.0000 5.0012 0.0000 25.9857
#
#
#
# Elastic Compliance Matrix: (Units=1/GPa)
#
#
# Indices 1 2 3 4 5 6 
#
# 1 0.018784 -0.005671 -0.005255 0.000000 0.009012 0.000000
# 2 -0.005671 0.014288 -0.003582 0.000000 -0.000845 0.000000
# 3 -0.005255 -0.003582 0.012906 0.000000 -0.014441 0.000000
# 4 0.000000 0.000000 0.000000 0.038883 0.000000 -0.007483
# 5 0.009012 -0.000845 -0.014441 0.000000 0.062887 0.000000
# 6 0.000000 0.000000 0.000000 -0.007483 0.000000 0.039923
#
#
# Mechanical properties :
#
#
# Convention : Reuss Voigt Hill
#
# Bulk Modulus (GPa) = 58.94816 65.73992 62.34404
# Shear Modulus (GPa) = 22.48806 27.02084 24.75445
#
# Velocity S-wave (km/s) = 3.36265 3.68600 3.52803
# Velocity P-wave (km/s) = 6.68706 7.15337 6.92414
#
# Compressibility (1/GPa) = 0.01696406
#
# Stress axis : x y z
#
# Youngs Moduli (GPa) = 53.23569 69.98799 77.48494
#
# Poissons Ratio (x) = 0.39687 0.40718
# Poissons Ratio (y) = 0.30188 0.27752
# Poissons Ratio (z) = 0.27975 0.25067
#
# Static dielectric constant tensor:
#      x y z
#    x 3.426790 0.000000 -0.081920 
#    y 0.000000 3.627920 0.000000 
#    z -0.081920 0.000000 3.610470 
# 
# 
# High freq. dielectric constant tensor:
#      x y z
#    x 1.765300 0.000000 -0.001320 
#    y 0.000000 1.772740 0.000000 
#    z -0.001320 0.000000 1.778950 
# 
# From -- ./inp_files/9937.got.cif
#   From: 2010.03.12/outbox.cif.g09.slc.cpg/sg14_5_cif.got.tgz:9937.got - 2010.03.31 13:35:05.
