data_PCOD8126346
_publ_section_title
;
Structure prediction by ZEFSAII (Michael W. Deem and Ramdas Pophale) SiO2 
 PCOD8126346
Probable space group: P 21/C
;
_chemical_formula_sum "Si O2"
_cell_formula_units_Z 28
_cell_length_a 8.557835
_cell_length_b 15.160064
_cell_length_c 10.643488
_cell_angle_alpha 90.000000
_cell_angle_beta 73.998592
_cell_angle_gamma 90.000000
_cell_volume 1327.356237
_symmetry_space_group_name_H-M "P 21/C"
_symmetry_group_IT_number 14
_symmetry_cell_setting 'monoclinic'
loop_
_space_group_symop_operation_xyz
x,y,z
-x,1/2+y,1/2-z
-x,-y,-z
x,1/2-y,1/2+z
loop_
_atom_site_type_symbol
_atom_site_label
_atom_site_fract_x
_atom_site_fract_y
_atom_site_fract_z
Si Si1 0.394585 0.667097 0.090618
Si Si2 0.651694 0.851565 0.723258
Si Si3 0.305477 0.651474 0.696052
Si Si4 0.911805 0.493543 0.153281
Si Si5 0.617379 0.441737 0.558026
Si Si6 0.225230 0.999593 0.731066
Si Si7 0.417301 0.168183 0.689560
O O1 0.580563 0.659223 0.099517
O O2 0.285834 0.742392 0.185396
O O3 0.300380 0.576137 0.127239
O O4 0.429529 0.688295 0.937095
O O5 0.494444 0.878510 0.836656
O O6 0.698859 0.754022 0.764036
O O7 0.794671 0.922257 0.697646
O O8 0.182827 0.600298 0.817783
O O9 0.274529 0.612317 0.564448
O O10 0.491616 0.636651 0.702357
O O11 0.034589 0.497680 0.243330
O O12 0.000000 0.500000 0.000000
O O13 0.500000 0.500000 0.500000
O O14 0.741599 0.489814 0.626888
O O15 0.303173 0.090600 0.665434
#
# Coordination Sequence:
#
# PCOD8126346 Si02
#       7
#     4   4   4   4   4   4   4
#     4  10  21  39  66  95 117 160 221 265 303 365
#     4  10  22  38  65  92 121 162 213 264 309 360
#     4  11  22  39  68  91 122 164 211 268 313 358
#     4  12  25  43  60  91 139 172 198 253 326 391
#     4  11  19  42  66  92 121 159 221 272 302 358
#     4  11  24  37  62  94 132 171 203 247 327 388
#     4  11  20  38  67  94 116 163 219 265 305 360
#
# _framework density 21.094562
#
# number of rings (size 3 to 8) (size 9 to 14) (size 15 to 20)
#    0.000    1.143    4.286    3.000    0.000    1.714 
#    0.000    0.000    0.000    0.000    0.000    0.000 
#    0.000    0.000    0.000    0.000    0.000    0.000 
#
# Total GULP energy -346970.064928 kJ/mol
# GULP energy per Si atom -12391.788033 kJ/mol
# Density = 2.104655 g / cm^3
# Si number density = 21.094562 Si / 1000 Ang^3
#
#
#
# Elastic Constant Matrix: (Units=GPa)
#
#
# Indices 1 2 3 4 5 6 
#
# 1 110.0498 57.9517 20.7768 0.0000 5.8464 0.0000
# 2 57.9517 161.2459 33.3813 0.0000 -13.7087 0.0000
# 3 20.7768 33.3813 86.6911 0.0000 0.8322 0.0000
# 4 0.0000 0.0000 0.0000 29.4082 0.0000 -1.5430
# 5 5.8464 -13.7087 0.8322 0.0000 30.2298 0.0000
# 6 0.0000 0.0000 0.0000 -1.5430 0.0000 21.3292
#
#
#
# Elastic Compliance Matrix: (Units=1/GPa)
#
#
# Indices 1 2 3 4 5 6 
#
# 1 0.011829 -0.004383 -0.001107 0.000000 -0.004245 0.000000
# 2 -0.004383 0.008672 -0.002335 0.000000 0.004845 0.000000
# 3 -0.001107 -0.002335 0.012711 0.000000 -0.001195 0.000000
# 4 0.000000 0.000000 0.000000 0.034134 0.000000 0.002469
# 5 -0.004245 0.004845 -0.001195 0.000000 0.036131 0.000000
# 6 0.000000 0.000000 0.000000 0.002469 0.000000 0.047063
#
#
# Mechanical properties :
#
#
# Convention : Reuss Voigt Hill
#
# Bulk Modulus (GPa) = 56.93927 64.68961 60.81444
# Shear Modulus (GPa) = 29.06216 32.58523 30.82370
#
# Velocity S-wave (km/s) = 3.71578 3.93456 3.82673
# Velocity P-wave (km/s) = 6.74243 7.16757 6.95825
#
# Compressibility (1/GPa) = 0.01756257
#
# Stress axis : x y z
#
# Youngs Moduli (GPa) = 84.53462 115.30769 78.67117
#
# Poissons Ratio (x) = 0.50543 0.08705
# Poissons Ratio (y) = 0.37054 0.18373
# Poissons Ratio (z) = 0.09354 0.26929
#
# Static dielectric constant tensor:
#      x y z
#    x 3.538960 0.000000 0.136680 
#    y 0.000000 4.014770 0.000000 
#    z 0.136680 0.000000 3.602610 
# 
# 
# High freq. dielectric constant tensor:
#      x y z
#    x 1.802050 0.000000 0.028310 
#    y 0.000000 1.841410 0.000000 
#    z 0.028310 0.000000 1.824200 
# 
# From -- ./inp_files/25103.got.cif
#   From: 2010.03.12/outbox.cif.g09.slc.cpg/sg14_13_cif.got.tgz:25103.got - 2010.03.31 13:35:05.
