data_PCOD8126927
_publ_section_title
;
Structure prediction by ZEFSAII (Michael W. Deem and Ramdas Pophale) SiO2 
 PCOD8126927
Probable space group: P 21/C
;
_chemical_formula_sum "Si O2"
_cell_formula_units_Z 28
_cell_length_a 11.053629
_cell_length_b 10.759838
_cell_length_c 18.903307
_cell_angle_alpha 90.000000
_cell_angle_beta 29.211840
_cell_angle_gamma 90.000000
_cell_volume 1097.245616
_symmetry_space_group_name_H-M "P 21/C"
_symmetry_group_IT_number 14
_symmetry_cell_setting 'monoclinic'
loop_
_space_group_symop_operation_xyz
x,y,z
-x,1/2+y,1/2-z
-x,-y,-z
x,1/2-y,1/2+z
loop_
_atom_site_type_symbol
_atom_site_label
_atom_site_fract_x
_atom_site_fract_y
_atom_site_fract_z
Si Si1 0.208135 0.143322 0.840813
Si Si2 0.288850 0.323577 0.002776
Si Si3 0.077492 0.700813 0.919524
Si Si4 0.510100 0.307822 0.598617
Si Si5 0.006631 0.220465 0.265665
Si Si6 0.549988 0.573050 0.644969
Si Si7 0.201718 0.921493 0.748500
O O1 0.460260 0.216458 0.690500
O O2 0.254335 0.068107 0.890114
O O3 0.116976 0.054160 0.823767
O O4 0.989058 0.243793 0.968860
O O5 0.388744 0.181327 0.942739
O O6 0.501875 0.421550 0.913874
O O7 0.165824 0.364564 0.990971
O O8 0.090275 0.328343 0.168028
O O9 0.286068 0.596439 0.817011
O O10 0.148712 0.812586 0.830815
O O11 0.244052 0.306910 0.693397
O O12 0.562228 0.446000 0.597164
O O13 0.750431 0.261682 0.433432
O O14 0.940047 0.097751 0.253125
#
# Coordination Sequence:
#
# PCOD8126927 Si02
#       7
#     4   4   4   4   4   4   4
#     4  11  26  44  75 110 152 194 250 330 389 456
#     4   9  20  46  73 106 146 198 252 314 376 460
#     4   9  21  42  74 108 142 193 257 309 384 456
#     4  12  29  48  74 116 154 203 259 321 382 465
#     4  11  25  50  71 110 157 196 264 311 381 469
#     4  10  25  47  77 109 149 205 251 322 385 461
#     4  10  21  45  73 104 145 201 245 314 390 451
#
# _framework density 25.518443999999999
#
# number of rings (size 3 to 8) (size 9 to 14) (size 15 to 20)
#    0.000    1.714    1.429    0.429    8.000    6.286 
#   10.286    0.000    0.000    0.000    0.000    0.000 
#    0.000    0.000    0.000    0.000    0.000    0.000 
#
# Total GULP energy -347014.676225 kJ/mol
# GULP energy per Si atom -12393.381294 kJ/mol
# Density = 2.546036 g / cm^3
# Si number density = 25.518444 Si / 1000 Ang^3
#
#
#
# Elastic Constant Matrix: (Units=GPa)
#
#
# Indices 1 2 3 4 5 6 
#
# 1 74.3021 36.3257 59.2724 0.0000 -6.4660 0.0000
# 2 36.3257 66.8442 43.9407 0.0000 5.5464 0.0000
# 3 59.2724 43.9407 189.9573 0.0000 -0.2625 0.0000
# 4 0.0000 0.0000 0.0000 19.9265 0.0000 6.0126
# 5 -6.4660 5.5464 -0.2625 0.0000 44.2824 0.0000
# 6 0.0000 0.0000 0.0000 6.0126 0.0000 27.8672
#
#
#
# Elastic Compliance Matrix: (Units=1/GPa)
#
#
# Indices 1 2 3 4 5 6 
#
# 1 0.022181 -0.009283 -0.004768 0.000000 0.004373 0.000000
# 2 -0.009283 0.021751 -0.002141 0.000000 -0.004092 0.000000
# 3 -0.004768 -0.002141 0.007247 0.000000 -0.000385 0.000000
# 4 0.000000 0.000000 0.000000 0.053679 0.000000 -0.011582
# 5 0.004373 -0.004092 -0.000385 0.000000 0.023731 0.000000
# 6 0.000000 0.000000 0.000000 -0.011582 0.000000 0.038383
#
#
# Mechanical properties :
#
#
# Convention : Reuss Voigt Hill
#
# Bulk Modulus (GPa) = 53.20079 67.79790 60.49935
# Shear Modulus (GPa) = 24.31668 31.18619 27.75144
#
# Velocity S-wave (km/s) = 3.09027 3.49965 3.30131
# Velocity P-wave (km/s) = 5.79881 6.55408 6.18798
#
# Compressibility (1/GPa) = 0.01879671
#
# Stress axis : x y z
#
# Youngs Moduli (GPa) = 45.08432 45.97388 137.99397
#
# Poissons Ratio (x) = 0.42675 0.65792
# Poissons Ratio (y) = 0.41850 0.29541
# Poissons Ratio (z) = 0.21495 0.09842
#
# Static dielectric constant tensor:
#      x y z
#    x 4.768950 0.000000 -0.273410 
#    y 0.000000 4.221650 0.000000 
#    z -0.273410 0.000000 5.355670 
# 
# 
# High freq. dielectric constant tensor:
#      x y z
#    x 2.017370 0.000000 -0.003820 
#    y 0.000000 1.986920 0.000000 
#    z -0.003820 0.000000 2.049700 
# 
# From -- ./inp_files/67311.got.cif
#   From: 2010.03.12/outbox.cif.g09.slc.cpg/sg14_34_cif.got.tgz:67311.got - 2010.03.31 13:35:05.
