data_PCOD8126059
_publ_section_title
;
Structure prediction by ZEFSAII (Michael W. Deem and Ramdas Pophale) SiO2 
 PCOD8126059
Probable space group: P 21/C
;
_chemical_formula_sum "Si O2"
_cell_formula_units_Z 32
_cell_length_a 15.436989
_cell_length_b 18.217892
_cell_length_c 5.232835
_cell_angle_alpha 90.000000
_cell_angle_beta 89.447541
_cell_angle_gamma 90.000000
_cell_volume 1471.558629
_symmetry_space_group_name_H-M "P 21/C"
_symmetry_group_IT_number 14
_symmetry_cell_setting 'monoclinic'
loop_
_space_group_symop_operation_xyz
x,y,z
-x,1/2+y,1/2-z
-x,-y,-z
x,1/2-y,1/2+z
loop_
_atom_site_type_symbol
_atom_site_label
_atom_site_fract_x
_atom_site_fract_y
_atom_site_fract_z
Si Si1 0.681794 0.499748 0.305061
Si Si2 0.005801 0.065828 0.305422
Si Si3 0.915850 0.794973 0.515435
Si Si4 0.540949 0.420554 0.037878
Si Si5 0.238851 0.388606 0.080090
Si Si6 0.518774 0.204839 0.196075
Si Si7 0.855761 0.504463 0.554352
Si Si8 0.393455 0.375867 0.407985
O O1 0.633752 0.431627 0.173157
O O2 0.770435 0.469407 0.426189
O O3 0.617798 0.538363 0.512083
O O4 0.701498 0.567686 0.117886
O O5 0.010182 0.143362 0.447844
O O6 0.093481 0.058329 0.138574
O O7 0.000000 0.000000 0.500000
O O8 0.918941 0.062226 0.134359
O O9 0.929637 0.766938 0.227596
O O10 0.818510 0.826299 0.552448
O O11 0.474550 0.371241 0.207523
O O12 0.500000 0.500000 0.000000
O O13 0.559849 0.375315 0.772997
O O14 0.171341 0.445695 0.206449
O O15 0.302892 0.350585 0.284794
O O16 0.546537 0.258593 0.426890
O O17 0.417586 0.180825 0.140268
#
# Coordination Sequence:
#
# PCOD8126059 Si02
#       8
#     4   4   4   4   4   4   4   4
#     4  11  22  38  67 103 133 170 233 296 345 393
#     4  11  21  41  71  94 133 179 236 276 327 418
#     4  12  27  43  65 102 147 184 216 274 347 411
#     4  12  23  42  69 100 132 183 242 307 333 403
#     4  11  22  41  59 103 139 179 222 277 340 419
#     4  12  26  44  64  92 134 185 235 281 357 422
#     4  10  21  37  69  97 130 169 227 283 341 396
#     4  11  23  39  66  97 141 180 235 280 351 407
#
# _framework density 21.745652
#
# number of rings (size 3 to 8) (size 9 to 14) (size 15 to 20)
#    0.000    0.750    6.250    1.125    3.500    1.000 
#    0.000    0.000    0.000    1.500    0.000    0.000 
#    0.000    0.000    0.000    0.000    0.000    0.000 
#
# Total GULP energy -396528.672347 kJ/mol
# GULP energy per Si atom -12391.521011 kJ/mol
# Density = 2.169616 g / cm^3
# Si number density = 21.745652 Si / 1000 Ang^3
#
#
#
# Elastic Constant Matrix: (Units=GPa)
#
#
# Indices 1 2 3 4 5 6 
#
# 1 84.1184 17.3657 21.7672 0.0000 21.7314 0.0000
# 2 17.3657 75.1241 26.6851 0.0000 19.1827 0.0000
# 3 21.7672 26.6851 86.6201 0.0000 23.1915 0.0000
# 4 0.0000 0.0000 0.0000 47.5743 0.0000 14.3721
# 5 21.7314 19.1827 23.1915 0.0000 35.9805 0.0000
# 6 0.0000 0.0000 0.0000 14.3721 0.0000 29.7122
#
#
#
# Elastic Compliance Matrix: (Units=1/GPa)
#
#
# Indices 1 2 3 4 5 6 
#
# 1 0.014313 -0.000976 -0.001355 0.000000 -0.007251 0.000000
# 2 -0.000976 0.016186 -0.003129 0.000000 -0.006024 0.000000
# 3 -0.001355 -0.003129 0.014724 0.000000 -0.007004 0.000000
# 4 0.000000 0.000000 0.000000 0.024617 0.000000 -0.011907
# 5 -0.007251 -0.006024 -0.007004 0.000000 0.039899 0.000000
# 6 0.000000 0.000000 0.000000 -0.011907 0.000000 0.039416
#
#
# Mechanical properties :
#
#
# Convention : Reuss Voigt Hill
#
# Bulk Modulus (GPa) = 29.14964 41.94430 35.54697
# Shear Modulus (GPa) = 29.15297 34.65639 31.90468
#
# Velocity S-wave (km/s) = 3.66544 3.99647 3.83453
# Velocity P-wave (km/s) = 5.59891 6.37386 5.99892
#
# Compressibility (1/GPa) = 0.03430574
#
# Stress axis : x y z
#
# Youngs Moduli (GPa) = 69.86460 61.78063 67.91506
#
# Poissons Ratio (x) = 0.06029 0.09201
# Poissons Ratio (y) = 0.06817 0.21247
# Poissons Ratio (z) = 0.09465 0.19328
#
# Static dielectric constant tensor:
#      x y z
#    x 4.039910 0.000000 0.368070 
#    y 0.000000 3.863460 0.000000 
#    z 0.368070 0.000000 4.135890 
# 
# 
# High freq. dielectric constant tensor:
#      x y z
#    x 1.832210 0.000000 0.026570 
#    y 0.000000 1.829850 0.000000 
#    z 0.026570 0.000000 1.875370 
# 
# From -- ./inp_files/3803.got.cif
#   From: 2010.03.12/outbox.cif.g09.slc.cpg/sg14_2_cif.got.tgz:3803.got - 2010.03.31 13:35:05.
