data_PCOD8127618
_publ_section_title
;
Structure prediction by ZEFSAII (Michael W. Deem and Ramdas Pophale) SiO2 
 PCOD8127618
Probable space group: P 21/C
;
_chemical_formula_sum "Si O2"
_cell_formula_units_Z 28
_cell_length_a 25.895742
_cell_length_b 7.806926
_cell_length_c 9.394573
_cell_angle_alpha 90.000000
_cell_angle_beta 36.871538
_cell_angle_gamma 90.000000
_cell_volume 1139.602244
_symmetry_space_group_name_H-M "P 21/C"
_symmetry_group_IT_number 14
_symmetry_cell_setting 'monoclinic'
loop_
_space_group_symop_operation_xyz
x,y,z
-x,1/2+y,1/2-z
-x,-y,-z
x,1/2-y,1/2+z
loop_
_atom_site_type_symbol
_atom_site_label
_atom_site_fract_x
_atom_site_fract_y
_atom_site_fract_z
Si Si1 0.594145 0.187749 0.704558
Si Si2 0.042751 0.401303 0.088686
Si Si3 0.233367 0.398972 0.559881
Si Si4 0.038977 0.765005 0.976280
Si Si5 0.297691 0.395592 0.720121
Si Si6 0.465148 0.551947 0.382152
Si Si7 0.235047 0.712836 0.025741
O O1 0.558646 0.361411 0.714118
O O2 0.698016 0.179139 0.490875
O O3 0.561417 0.025455 0.681335
O O4 0.550227 0.186610 0.956680
O O5 0.013044 0.584955 0.102489
O O6 0.023893 0.395359 0.300536
O O7 0.141492 0.369501 0.835131
O O8 0.984599 0.253462 0.138520
O O9 0.298083 0.374794 0.548981
O O10 0.247674 0.257080 0.408058
O O11 0.242913 0.586144 0.464688
O O12 0.137233 0.821865 0.788908
O O13 0.397436 0.393574 0.550185
O O14 0.257664 0.583973 0.846763
#
# Coordination Sequence:
#
# PCOD8127618 Si02
#       7
#     4   4   4   4   4   4   4
#     4  10  22  45  67 100 139 173 233 279 347 416
#     4  10  23  40  61  99 127 180 221 283 342 405
#     4  11  24  46  68 102 145 179 237 292 349 417
#     4  10  23  39  65  92 136 169 232 276 344 401
#     4  11  25  44  70 105 137 188 234 286 359 411
#     4  10  23  44  68 103 135 180 231 283 349 417
#     4  10  24  44  69  99 136 188 231 286 344 420
#
# _framework density 24.569976
#
# number of rings (size 3 to 8) (size 9 to 14) (size 15 to 20)
#    0.000    1.714    1.429    0.857    6.000    5.714 
#    7.714    0.000    0.000    0.000    0.000    0.000 
#    0.000    0.000    0.000    0.000    0.000    0.000 
#
# Total GULP energy -347053.709459 kJ/mol
# GULP energy per Si atom -12394.775338 kJ/mol
# Density = 2.451405 g / cm^3
# Si number density = 24.569976 Si / 1000 Ang^3
#
#
#
# Elastic Constant Matrix: (Units=GPa)
#
#
# Indices 1 2 3 4 5 6 
#
# 1 77.3175 17.2536 7.4123 0.0000 -24.0437 0.0000
# 2 17.2536 83.9782 7.3589 0.0000 -0.1768 0.0000
# 3 7.4123 7.3589 28.6604 0.0000 -11.0807 0.0000
# 4 0.0000 0.0000 0.0000 25.6785 0.0000 -5.4217
# 5 -24.0437 -0.1768 -11.0807 0.0000 41.8235 0.0000
# 6 0.0000 0.0000 0.0000 -5.4217 0.0000 37.3870
#
#
#
# Elastic Compliance Matrix: (Units=1/GPa)
#
#
# Indices 1 2 3 4 5 6 
#
# 1 0.016671 -0.003431 0.000300 0.000000 0.009649 0.000000
# 2 -0.003431 0.012916 -0.003532 0.000000 -0.002854 0.000000
# 3 0.000300 -0.003532 0.039865 0.000000 0.010719 0.000000
# 4 0.000000 0.000000 0.000000 0.040173 0.000000 0.005826
# 5 0.009649 -0.002854 0.010719 0.000000 0.032285 0.000000
# 6 0.000000 0.000000 0.000000 0.005826 0.000000 0.027592
#
#
# Mechanical properties :
#
#
# Convention : Reuss Voigt Hill
#
# Bulk Modulus (GPa) = 17.81722 28.22285 23.02004
# Shear Modulus (GPa) = 24.80916 31.50655 28.15786
#
# Velocity S-wave (km/s) = 3.18108 3.58483 3.38897
# Velocity P-wave (km/s) = 4.55628 5.35223 4.97022
#
# Compressibility (1/GPa) = 0.05612548
#
# Stress axis : x y z
#
# Youngs Moduli (GPa) = 59.98383 77.42143 25.08456
#
# Poissons Ratio (x) = 0.26564 -0.00752
# Poissons Ratio (y) = 0.20581 0.08861
# Poissons Ratio (z) = -0.01799 0.27348
#
# Static dielectric constant tensor:
#      x y z
#    x 4.644720 0.000000 -0.137000 
#    y 0.000000 4.397120 0.000000 
#    z -0.137000 0.000000 4.147860 
# 
# 
# High freq. dielectric constant tensor:
#      x y z
#    x 1.989210 0.000000 -0.006120 
#    y 0.000000 1.973760 0.000000 
#    z -0.006120 0.000000 1.958210 
# 
# From -- ./inp_files/19711.got.cif
#   From: 2010.03.12/outbox.cif.g09.slc.cpg/sg14_10_cif.got.tgz:19711.got - 2010.03.31 13:35:05.
