data_PCOD8127937
_publ_section_title
;
Structure prediction by ZEFSAII (Michael W. Deem and Ramdas Pophale) SiO2 
 PCOD8127937
Probable space group: P 21/C
;
_chemical_formula_sum "Si O2"
_cell_formula_units_Z 16
_cell_length_a 4.838112
_cell_length_b 8.161588
_cell_length_c 15.051918
_cell_angle_alpha 90.000000
_cell_angle_beta 68.022374
_cell_angle_gamma 90.000000
_cell_volume 551.158832
_symmetry_space_group_name_H-M "P 21/C"
_symmetry_group_IT_number 14
_symmetry_cell_setting 'monoclinic'
loop_
_space_group_symop_operation_xyz
x,y,z
-x,1/2+y,1/2-z
-x,-y,-z
x,1/2-y,1/2+z
loop_
_atom_site_type_symbol
_atom_site_label
_atom_site_fract_x
_atom_site_fract_y
_atom_site_fract_z
Si Si1 0.220838 0.124620 0.135110
Si Si2 0.582275 0.823717 0.618037
Si Si3 0.262585 0.609265 0.788723
Si Si4 0.811613 0.178953 0.979834
O O1 0.018452 0.283085 0.150329
O O2 0.147616 0.028811 0.233869
O O3 0.145613 0.008087 0.059458
O O4 0.573224 0.176060 0.090013
O O5 0.529599 0.717263 0.714494
O O6 0.306446 0.795830 0.585640
O O7 0.873755 0.757900 0.530895
O O8 0.612645 0.015112 0.639061
#
# Coordination Sequence:
#
# PCOD8127937 Si02
#       4
#     4   4   4   4
#     4  10  23  43  69  97 138 179 225 277 342 405
#     4  11  24  42  68  97 135 177 228 278 338 401
#     4  11  23  42  71 103 137 182 231 283 338 406
#     4  10  24  45  66  98 136 180 222 280 342 402
#
# _framework density 29.029748000000001
#
# number of rings (size 3 to 8) (size 9 to 14) (size 15 to 20)
#    0.000    1.500    0.000    4.500    0.000   17.000 
#    0.000    0.000    0.000    0.000    0.000    0.000 
#    0.000    0.000    0.000    0.000    0.000    0.000 
#
# Total GULP energy -198583.234539 kJ/mol
# GULP energy per Si atom -12411.452159 kJ/mol
# Density = 2.896367 g / cm^3
# Si number density = 29.029748 Si / 1000 Ang^3
#
#
#
# Elastic Constant Matrix: (Units=GPa)
#
#
# Indices 1 2 3 4 5 6 
#
# 1 53.7906 31.1140 17.2734 0.0000 -18.0873 0.0000
# 2 31.1140 155.4050 43.7818 0.0000 -4.4904 0.0000
# 3 17.2734 43.7818 132.5903 0.0000 -30.0575 0.0000
# 4 0.0000 0.0000 0.0000 38.6143 0.0000 -12.2669
# 5 -18.0873 -4.4904 -30.0575 0.0000 36.7661 0.0000
# 6 0.0000 0.0000 0.0000 -12.2669 0.0000 57.8222
#
#
#
# Elastic Compliance Matrix: (Units=1/GPa)
#
#
# Indices 1 2 3 4 5 6 
#
# 1 0.025484 -0.005095 0.001305 0.000000 0.012982 0.000000
# 2 -0.005095 0.008163 -0.002914 0.000000 -0.003892 0.000000
# 3 0.001305 -0.002914 0.010310 0.000000 0.008715 0.000000
# 4 0.000000 0.000000 0.000000 0.027769 0.000000 0.005891
# 5 0.012982 -0.003892 0.008715 0.000000 0.040235 0.000000
# 6 0.000000 0.000000 0.000000 0.005891 0.000000 0.018544
#
#
# Mechanical properties :
#
#
# Convention : Reuss Voigt Hill
#
# Bulk Modulus (GPa) = 32.73366 58.45824 45.59595
# Shear Modulus (GPa) = 32.44762 43.28163 37.86463
#
# Velocity S-wave (km/s) = 3.34688 3.86546 3.61548
# Velocity P-wave (km/s) = 5.12210 6.33273 5.75931
#
# Compressibility (1/GPa) = 0.03054959
#
# Stress axis : x y z
#
# Youngs Moduli (GPa) = 39.24103 122.49868 96.99483
#
# Poissons Ratio (x) = 0.62410 -0.12660
# Poissons Ratio (y) = 0.19992 0.28265
# Poissons Ratio (z) = -0.05122 0.35697
#
# Static dielectric constant tensor:
#      x y z
#    x 5.009900 0.000000 -0.033810 
#    y 0.000000 5.472320 0.000000 
#    z -0.033810 0.000000 5.324300 
# 
# 
# High freq. dielectric constant tensor:
#      x y z
#    x 2.175990 0.000000 0.001960 
#    y 0.000000 2.193960 0.000000 
#    z 0.001960 0.000000 2.192550 
# 
# From -- ./inp_files/46228.got.cif
#   From: 2010.03.12/outbox.cif.g09.slc.cpg/sg14_24_cif.got.tgz:46228.got - 2010.03.31 13:35:05.
