data_PCOD8127348
_publ_section_title
;
Structure prediction by ZEFSAII (Michael W. Deem and Ramdas Pophale) SiO2 
 PCOD8127348
Probable space group: P 21/C
;
_chemical_formula_sum "Si O2"
_cell_formula_units_Z 28
_cell_length_a 9.000215
_cell_length_b 27.188878
_cell_length_c 9.572967
_cell_angle_alpha 90.000000
_cell_angle_beta 33.256218
_cell_angle_gamma 90.000000
_cell_volume 1284.622411
_symmetry_space_group_name_H-M "P 21/C"
_symmetry_group_IT_number 14
_symmetry_cell_setting 'monoclinic'
loop_
_space_group_symop_operation_xyz
x,y,z
-x,1/2+y,1/2-z
-x,-y,-z
x,1/2-y,1/2+z
loop_
_atom_site_type_symbol
_atom_site_label
_atom_site_fract_x
_atom_site_fract_y
_atom_site_fract_z
Si Si1 0.549877 0.159087 0.336135
Si Si2 0.335577 0.893567 0.015231
Si Si3 0.174513 0.744096 0.971400
Si Si4 0.986521 0.692901 0.866165
Si Si5 0.805197 0.901141 0.853765
Si Si6 0.184881 0.995516 0.219631
Si Si7 0.390996 0.852804 0.392236
O O1 0.691553 0.212095 0.222136
O O2 0.521611 0.140501 0.515645
O O3 0.268303 0.161644 0.477360
O O4 0.697731 0.118229 0.124020
O O5 0.234534 0.845517 0.180024
O O6 0.143550 0.941487 0.185336
O O7 0.640631 0.901111 0.835656
O O8 0.954514 0.718246 0.042593
O O9 0.024718 0.763708 0.224573
O O10 0.402293 0.704521 0.839123
O O11 0.889531 0.957968 0.821487
O O12 0.080516 0.870565 0.617969
O O13 0.612357 0.882399 0.129697
O O14 0.000000 0.000000 0.500000
O O15 0.500000 0.000000 0.000000
#
# Coordination Sequence:
#
# PCOD8127348 Si02
#       7
#     4   4   4   4   4   4   4
#     4  11  27  41  63  98 136 184 223 277 342 405
#     4  10  23  43  68  98 133 176 226 282 339 402
#     4  11  24  40  62  96 130 181 223 278 326 402
#     4  11  24  41  65  94 134 177 227 274 339 395
#     4  11  24  44  71 100 131 177 228 284 338 395
#     4  10  22  41  72 104 132 170 229 283 334 405
#     4  12  26  44  67  99 139 177 226 281 337 407
#
# _framework density 21.796289000000002
#
# number of rings (size 3 to 8) (size 9 to 14) (size 15 to 20)
#    0.000    1.143    2.857    2.571   12.000    0.000 
#    0.000    1.429    0.000    0.000    0.000    0.000 
#    0.000    0.000    0.000    0.000    0.000    0.000 
#
# Total GULP energy -347042.301957 kJ/mol
# GULP energy per Si atom -12394.367927 kJ/mol
# Density = 2.174668 g / cm^3
# Si number density = 21.796289 Si / 1000 Ang^3
#
#
#
# Elastic Constant Matrix: (Units=GPa)
#
#
# Indices 1 2 3 4 5 6 
#
# 1 68.7552 35.8318 20.2032 0.0000 10.1186 0.0000
# 2 35.8318 144.3259 59.2863 0.0000 24.8435 0.0000
# 3 20.2032 59.2863 123.8826 0.0000 9.7308 0.0000
# 4 0.0000 0.0000 0.0000 27.1680 0.0000 9.0381
# 5 10.1186 24.8435 9.7308 0.0000 37.2406 0.0000
# 6 0.0000 0.0000 0.0000 9.0381 0.0000 23.0228
#
#
#
# Elastic Compliance Matrix: (Units=1/GPa)
#
#
# Indices 1 2 3 4 5 6 
#
# 1 0.016927 -0.003464 -0.000942 0.000000 -0.002042 0.000000
# 2 -0.003464 0.010252 -0.003960 0.000000 -0.004864 0.000000
# 3 -0.000942 -0.003960 0.010100 0.000000 0.000258 0.000000
# 4 0.000000 0.000000 0.000000 0.042337 0.000000 -0.016620
# 5 -0.002042 -0.004864 0.000258 0.000000 0.030584 0.000000
# 6 0.000000 0.000000 0.000000 -0.016620 0.000000 0.049960
#
#
# Mechanical properties :
#
#
# Convention : Reuss Voigt Hill
#
# Bulk Modulus (GPa) = 48.66578 63.06737 55.86657
# Shear Modulus (GPa) = 27.21201 32.26245 29.73723
#
# Velocity S-wave (km/s) = 3.53720 3.85149 3.69768
# Velocity P-wave (km/s) = 6.24967 6.98400 6.62702
#
# Compressibility (1/GPa) = 0.02054832
#
# Stress axis : x y z
#
# Youngs Moduli (GPa) = 59.07729 97.53764 99.00506
#
# Poissons Ratio (x) = 0.33785 0.09331
# Poissons Ratio (y) = 0.20463 0.39202
# Poissons Ratio (z) = 0.05568 0.38621
#
# Static dielectric constant tensor:
#      x y z
#    x 3.704030 0.000000 0.071370 
#    y 0.000000 4.657700 0.000000 
#    z 0.071370 0.000000 3.979520 
# 
# 
# High freq. dielectric constant tensor:
#      x y z
#    x 1.832980 0.000000 0.006700 
#    y 0.000000 1.873570 0.000000 
#    z 0.006700 0.000000 1.859760 
# 
# From -- ./inp_files/11161.got.cif
#   From: 2010.03.12/outbox.cif.g09.slc.cpg/sg14_6_cif.got.tgz:11161.got - 2010.03.31 13:35:05.
