data_PCOD8127884
_publ_section_title
;
Structure prediction by ZEFSAII (Michael W. Deem and Ramdas Pophale) SiO2 
 PCOD8127884
Probable space group: P 21/C
;
_chemical_formula_sum "Si O2"
_cell_formula_units_Z 28
_cell_length_a 19.635946
_cell_length_b 8.324658
_cell_length_c 11.060526
_cell_angle_alpha 90.000000
_cell_angle_beta 135.858354
_cell_angle_gamma 90.000000
_cell_volume 1259.140937
_symmetry_space_group_name_H-M "P 21/C"
_symmetry_group_IT_number 14
_symmetry_cell_setting 'monoclinic'
loop_
_space_group_symop_operation_xyz
x,y,z
-x,1/2+y,1/2-z
-x,-y,-z
x,1/2-y,1/2+z
loop_
_atom_site_type_symbol
_atom_site_label
_atom_site_fract_x
_atom_site_fract_y
_atom_site_fract_z
Si Si1 0.026979 0.535374 0.692278
Si Si2 0.447525 0.939226 0.054733
Si Si3 0.523597 0.904997 0.652851
Si Si4 0.254311 0.409123 0.592402
Si Si5 0.893628 0.834343 0.513750
Si Si6 0.774773 0.038419 0.195009
Si Si7 0.848126 0.386312 0.355450
O O1 0.064516 0.498384 0.874266
O O2 0.123932 0.524340 0.733522
O O3 0.982133 0.710557 0.607558
O O4 0.946732 0.396821 0.562446
O O5 0.453207 0.747518 0.067425
O O6 0.492952 0.001954 0.240571
O O7 0.335062 0.990742 0.897740
O O8 0.500000 0.000000 0.000000
O O9 0.635672 0.849183 0.784148
O O10 0.500000 0.000000 0.500000
O O11 0.186424 0.251712 0.502885
O O12 0.223060 0.532904 0.446978
O O13 0.239610 0.510043 0.697186
O O14 0.842573 0.890864 0.325453
O O15 0.814822 0.205472 0.295091
#
# Coordination Sequence:
#
# PCOD8127884 Si02
#       7
#     4   4   4   4   4   4   4
#     4  10  24  42  65  94 129 176 218 267 325 385
#     4  11  24  45  68 103 133 177 227 276 343 406
#     4  11  23  45  70  99 136 181 221 281 340 408
#     4  10  25  43  64  98 132 168 222 268 330 391
#     4  11  24  42  65  93 132 170 223 268 328 384
#     4  11  25  42  67  94 131 171 215 274 328 387
#     4  10  23  43  62  94 130 167 222 261 322 381
#
# _framework density 22.237385
#
# number of rings (size 3 to 8) (size 9 to 14) (size 15 to 20)
#    0.000    1.429    0.000    3.429   12.000    2.857 
#    5.143    0.000    0.000    0.000    0.000    0.000 
#    0.000    0.000    0.000    0.000    0.000    0.000 
#
# Total GULP energy -347051.491176 kJ/mol
# GULP energy per Si atom -12394.696113 kJ/mol
# Density = 2.218677 g / cm^3
# Si number density = 22.237385 Si / 1000 Ang^3
#
#
#
# Elastic Constant Matrix: (Units=GPa)
#
#
# Indices 1 2 3 4 5 6 
#
# 1 98.4623 9.8287 30.2962 0.0000 -8.8615 0.0000
# 2 9.8287 94.4449 38.4529 0.0000 -3.9025 0.0000
# 3 30.2962 38.4529 93.7940 0.0000 -15.9771 0.0000
# 4 0.0000 0.0000 0.0000 40.7348 0.0000 -0.0060
# 5 -8.8615 -3.9025 -15.9771 0.0000 28.9289 0.0000
# 6 0.0000 0.0000 0.0000 -0.0060 0.0000 30.7524
#
#
#
# Elastic Compliance Matrix: (Units=1/GPa)
#
#
# Indices 1 2 3 4 5 6 
#
# 1 0.011352 0.000321 -0.003531 0.000000 0.001571 0.000000
# 2 0.000321 0.012762 -0.005548 0.000000 -0.001244 0.000000
# 3 -0.003531 -0.005548 0.015194 0.000000 0.006562 0.000000
# 4 0.000000 0.000000 0.000000 0.024549 0.000000 0.000005
# 5 0.001571 -0.001244 0.006562 0.000000 0.038505 0.000000
# 6 0.000000 0.000000 0.000000 0.000005 0.000000 0.032518
#
#
# Mechanical properties :
#
#
# Convention : Reuss Voigt Hill
#
# Bulk Modulus (GPa) = 45.88561 49.31743 47.60152
# Shear Modulus (GPa) = 31.31670 33.95812 32.63741
#
# Velocity S-wave (km/s) = 3.75679 3.91202 3.83519
# Velocity P-wave (km/s) = 6.28468 6.52924 6.40813
#
# Compressibility (1/GPa) = 0.02179332
#
# Stress axis : x y z
#
# Youngs Moduli (GPa) = 88.09100 78.35703 65.81418
#
# Poissons Ratio (x) = -0.02516 0.23238
# Poissons Ratio (y) = -0.02829 0.36512
# Poissons Ratio (z) = 0.31104 0.43470
#
# Static dielectric constant tensor:
#      x y z
#    x 4.156860 0.000000 -0.008070 
#    y 0.000000 3.883890 0.000000 
#    z -0.008070 0.000000 4.090310 
# 
# 
# High freq. dielectric constant tensor:
#      x y z
#    x 1.886870 0.000000 -0.000760 
#    y 0.000000 1.871300 0.000000 
#    z -0.000760 0.000000 1.875450 
# 
# From -- ./inp_files/35008.got.cif
#   From: 2010.03.12/outbox.cif.g09.slc.cpg/sg14_18_cif.got.tgz:35008.got - 2010.03.31 13:35:05.
