data_PCOD8127086
_publ_section_title
;
Structure prediction by ZEFSAII (Michael W. Deem and Ramdas Pophale) SiO2 
 PCOD8127086
Probable space group: P 21/C
;
_chemical_formula_sum "Si O2"
_cell_formula_units_Z 20
_cell_length_a 5.281524
_cell_length_b 7.708216
_cell_length_c 26.004157
_cell_angle_alpha 90.000000
_cell_angle_beta 57.023490
_cell_angle_gamma 90.000000
_cell_volume 888.102088
_symmetry_space_group_name_H-M "P 21/C"
_symmetry_group_IT_number 14
_symmetry_cell_setting 'monoclinic'
loop_
_space_group_symop_operation_xyz
x,y,z
-x,1/2+y,1/2-z
-x,-y,-z
x,1/2-y,1/2+z
loop_
_atom_site_type_symbol
_atom_site_label
_atom_site_fract_x
_atom_site_fract_y
_atom_site_fract_z
Si Si1 0.845822 0.294641 0.466572
Si Si2 0.880280 0.000031 0.631646
Si Si3 0.139131 0.310801 0.543379
Si Si4 0.345439 0.809770 0.724272
Si Si5 0.243139 0.443508 0.743811
O O1 0.489449 0.273962 0.516436
O O2 0.925206 0.487222 0.436724
O O3 0.919496 0.148405 0.416930
O O4 0.044055 0.263515 0.495723
O O5 0.526984 0.938841 0.666022
O O6 0.953263 0.005179 0.684448
O O7 0.933994 0.189185 0.602050
O O8 0.382171 0.612223 0.700335
O O9 0.487765 0.816666 0.766709
O O10 0.990547 0.851416 0.768331
#
# Coordination Sequence:
#
# PCOD8127086 Si02
#       5
#     4   4   4   4   4
#     4  10  22  39  61  93 126 155 199 253 305 372
#     4  10  24  38  68  88 120 168 204 248 314 372
#     4  10  22  39  61  93 126 155 199 253 305 372
#     4  10  23  41  61  89 123 163 211 260 311 365
#     4  10  23  41  61  89 123 163 211 260 311 365
#
# _framework density 22.519933000000002
#
# number of rings (size 3 to 8) (size 9 to 14) (size 15 to 20)
#    1.200    0.800    0.000    2.400    5.600    1.600 
#    0.000    0.000    0.000    0.000    0.000    0.000 
#    0.000    0.000    0.000    0.000    0.000    0.000 
#
# Total GULP energy -247774.931531 kJ/mol
# GULP energy per Si atom -12388.746577 kJ/mol
# Density = 2.246868 g / cm^3
# Si number density = 22.519933 Si / 1000 Ang^3
#
#
#
# Elastic Constant Matrix: (Units=GPa)
#
#
# Indices 1 2 3 4 5 6 
#
# 1 148.7158 11.0522 -6.2784 0.0000 -9.1289 0.0000
# 2 11.0522 62.6006 2.5991 0.0000 -2.7436 0.0000
# 3 -6.2784 2.5991 36.0028 0.0000 9.6774 0.0000
# 4 0.0000 0.0000 0.0000 30.8736 0.0000 -4.9420
# 5 -9.1289 -2.7436 9.6774 0.0000 9.2759 0.0000
# 6 0.0000 0.0000 0.0000 -4.9420 0.0000 31.0849
#
#
#
# Elastic Compliance Matrix: (Units=1/GPa)
#
#
# Indices 1 2 3 4 5 6 
#
# 1 0.007228 -0.000914 -0.000713 0.000000 0.007587 0.000000
# 2 -0.000914 0.016607 -0.003386 0.000000 0.007545 0.000000
# 3 -0.000713 -0.003386 0.039403 0.000000 -0.042812 0.000000
# 4 0.000000 0.000000 0.000000 0.033236 0.000000 0.005284
# 5 0.007587 0.007545 -0.042812 0.000000 0.162168 0.000000
# 6 0.000000 0.000000 0.000000 0.005284 0.000000 0.033010
#
#
# Mechanical properties :
#
#
# Convention : Reuss Voigt Hill
#
# Bulk Modulus (GPa) = 18.79292 29.11834 23.95563
# Shear Modulus (GPa) = 15.65356 30.24331 22.94844
#
# Velocity S-wave (km/s) = 2.63933 3.66861 3.19568
# Velocity P-wave (km/s) = 4.20134 5.55905 4.92718
#
# Compressibility (1/GPa) = 0.05321154
#
# Stress axis : x y z
#
# Youngs Moduli (GPa) = 138.35534 60.21579 25.37860
#
# Poissons Ratio (x) = 0.05504 0.01809
# Poissons Ratio (y) = 0.12645 0.08594
# Poissons Ratio (z) = 0.09862 0.20392
#
# Static dielectric constant tensor:
#      x y z
#    x 4.035850 0.000000 -0.025320 
#    y 0.000000 4.148170 0.000000 
#    z -0.025320 0.000000 3.551610 
# 
# 
# High freq. dielectric constant tensor:
#      x y z
#    x 1.894300 0.000000 -0.006030 
#    y 0.000000 1.902480 0.000000 
#    z -0.006030 0.000000 1.846470 
# 
# From -- ./inp_files/52699.got.cif
#   From: 2010.03.12/outbox.cif.g09.slc.cpg/sg14_27_cif.got.tgz:52699.got - 2010.03.31 13:35:05.
