data_PCOD8127649
_publ_section_title
;
Structure prediction by ZEFSAII (Michael W. Deem and Ramdas Pophale) SiO2 
 PCOD8127649
Probable space group: P 21/C
;
_chemical_formula_sum "Si O2"
_cell_formula_units_Z 28
_cell_length_a 11.924000
_cell_length_b 8.287704
_cell_length_c 24.847743
_cell_angle_alpha 90.000000
_cell_angle_beta 31.084485
_cell_angle_gamma 90.000000
_cell_volume 1267.787556
_symmetry_space_group_name_H-M "P 21/C"
_symmetry_group_IT_number 14
_symmetry_cell_setting 'monoclinic'
loop_
_space_group_symop_operation_xyz
x,y,z
-x,1/2+y,1/2-z
-x,-y,-z
x,1/2-y,1/2+z
loop_
_atom_site_type_symbol
_atom_site_label
_atom_site_fract_x
_atom_site_fract_y
_atom_site_fract_z
Si Si1 0.217663 0.206510 0.464140
Si Si2 0.766783 0.246414 0.097685
Si Si3 0.294918 0.435073 0.526293
Si Si4 0.121269 0.353966 0.289991
Si Si5 0.812118 0.375867 0.965962
Si Si6 0.576385 0.766138 0.925182
Si Si7 0.452324 0.519082 0.235326
O O1 0.250911 0.366394 0.485239
O O2 0.432071 0.170834 0.341250
O O3 0.020711 0.235045 0.504445
O O4 0.159129 0.057818 0.527184
O O5 0.634774 0.393162 0.179643
O O6 0.679257 0.078295 0.158109
O O7 0.733348 0.257121 0.047201
O O8 0.347559 0.284677 0.544273
O O9 0.499907 0.555274 0.437631
O O10 0.082613 0.527864 0.635902
O O11 0.224413 0.305105 0.190779
O O12 0.294713 0.437873 0.257028
O O13 0.042065 0.187500 0.349907
O O14 0.626065 0.358485 0.996653
#
# Coordination Sequence:
#
# PCOD8127649 Si02
#       7
#     4   4   4   4   4   4   4
#     4  11  23  42  62  98 131 163 218 269 317 384
#     4  11  24  40  63  95 131 168 214 267 319 391
#     4  10  24  44  68  97 128 168 219 267 323 378
#     4  11  22  44  63  96 127 171 220 254 324 390
#     4  10  23  39  65  92 130 172 210 268 325 376
#     4  10  22  46  65  93 130 168 214 268 320 384
#     4  11  24  41  63  94 129 173 215 261 328 387
#
# _framework density 22.085719000000001
#
# number of rings (size 3 to 8) (size 9 to 14) (size 15 to 20)
#    0.000    1.429    4.286    1.714    4.000    5.714 
#    7.714    0.000    0.000    0.000    0.000    0.000 
#    0.000    0.000    0.000    0.000    0.000    0.000 
#
# Total GULP energy -347228.877554 kJ/mol
# GULP energy per Si atom -12401.031341 kJ/mol
# Density = 2.203545 g / cm^3
# Si number density = 22.085719 Si / 1000 Ang^3
#
#
#
# Elastic Constant Matrix: (Units=GPa)
#
#
# Indices 1 2 3 4 5 6 
#
# 1 65.3574 -4.9017 8.8177 0.0000 -14.7460 0.0000
# 2 -4.9017 13.6862 2.8625 0.0000 -0.3813 0.0000
# 3 8.8177 2.8625 94.0618 0.0000 -12.1660 0.0000
# 4 0.0000 0.0000 0.0000 46.2051 0.0000 7.8303
# 5 -14.7460 -0.3813 -12.1660 0.0000 25.4547 0.0000
# 6 0.0000 0.0000 0.0000 7.8303 0.0000 36.6106
#
#
#
# Elastic Compliance Matrix: (Units=1/GPa)
#
#
# Indices 1 2 3 4 5 6 
#
# 1 0.018245 0.006945 -0.000577 0.000000 0.010398 0.000000
# 2 0.006945 0.076178 -0.002453 0.000000 0.003992 0.000000
# 3 -0.000577 -0.002453 0.011418 0.000000 0.005086 0.000000
# 4 0.000000 0.000000 0.000000 0.022457 0.000000 -0.004803
# 5 0.010398 0.003992 0.005086 0.000000 0.047800 0.000000
# 6 0.000000 0.000000 0.000000 -0.004803 0.000000 0.028342
#
#
# Mechanical properties :
#
#
# Convention : Reuss Voigt Hill
#
# Bulk Modulus (GPa) = 8.79733 20.74028 14.76881
# Shear Modulus (GPa) = 21.32203 32.74253 27.03228
#
# Velocity S-wave (km/s) = 3.11049 3.85453 3.50233
# Velocity P-wave (km/s) = 4.11001 5.40565 4.80173
#
# Compressibility (1/GPa) = 0.11367083
#
# Stress axis : x y z
#
# Youngs Moduli (GPa) = 54.80916 13.12718 87.58192
#
# Poissons Ratio (x) = -0.09117 0.05052
# Poissons Ratio (y) = -0.38064 0.21484
# Poissons Ratio (z) = 0.03162 0.03220
#
# Static dielectric constant tensor:
#      x y z
#    x 3.894780 0.000000 -0.111470 
#    y 0.000000 3.944220 0.000000 
#    z -0.111470 0.000000 4.108740 
# 
# 
# High freq. dielectric constant tensor:
#      x y z
#    x 1.865430 0.000000 -0.011150 
#    y 0.000000 1.867140 0.000000 
#    z -0.011150 0.000000 1.870080 
# 
# From -- ./inp_files/77088.got.cif
#   From: 2010.03.12/outbox.cif.g09.slc.cpg/sg14_39_cif.got.tgz:77088.got - 2010.03.31 13:35:05.
