data_PCOD8127642
_publ_section_title
;
Structure prediction by ZEFSAII (Michael W. Deem and Ramdas Pophale) SiO2 
 PCOD8127642
Probable space group: P 21/C
;
_chemical_formula_sum "Si O2"
_cell_formula_units_Z 28
_cell_length_a 15.196216
_cell_length_b 5.151384
_cell_length_c 23.986100
_cell_angle_alpha 90.000000
_cell_angle_beta 36.579175
_cell_angle_gamma 90.000000
_cell_volume 1118.964960
_symmetry_space_group_name_H-M "P 21/C"
_symmetry_group_IT_number 14
_symmetry_cell_setting 'monoclinic'
loop_
_space_group_symop_operation_xyz
x,y,z
-x,1/2+y,1/2-z
-x,-y,-z
x,1/2-y,1/2+z
loop_
_atom_site_type_symbol
_atom_site_label
_atom_site_fract_x
_atom_site_fract_y
_atom_site_fract_z
Si Si1 0.461556 0.020736 0.955077
Si Si2 0.149803 0.966764 0.390066
Si Si3 0.569609 0.196798 0.694729
Si Si4 0.161736 0.066510 0.724164
Si Si5 0.640949 0.791128 0.287075
Si Si6 0.975731 0.093487 0.661294
Si Si7 0.282170 0.988696 0.540377
O O1 0.335614 0.805478 0.007358
O O2 0.411586 0.306625 0.962287
O O3 0.604050 0.960768 0.844203
O O4 0.500000 0.000000 0.000000
O O5 0.239956 0.223446 0.323141
O O6 0.257604 0.802964 0.376658
O O7 0.098875 0.825228 0.359390
O O8 0.000000 0.000000 0.500000
O O9 0.513562 0.494275 0.722482
O O10 0.514454 0.101061 0.661033
O O11 0.289741 0.000939 0.705103
O O12 0.097293 0.347158 0.771709
O O13 0.227186 0.059715 0.629949
O O14 0.038570 0.841890 0.790934
O O15 0.148802 0.031581 0.564552
#
# Coordination Sequence:
#
# PCOD8127642 Si02
#       7
#     4   4   4   4   4   4   4
#     4  12  26  44  67 106 139 186 234 284 345 424
#     4  10  24  47  72 102 139 183 241 294 348 414
#     4  10  22  45  71 103 134 184 236 291 349 410
#     4  11  22  42  71 100 141 182 229 285 353 421
#     4  10  24  44  74  99 145 187 231 295 356 411
#     4  11  24  43  68 103 138 188 227 289 357 413
#     4  12  25  42  70 102 145 180 235 284 344 433
#
# _framework density 25.023123999999999
#
# number of rings (size 3 to 8) (size 9 to 14) (size 15 to 20)
#    0.000    1.143    1.429    3.857    4.000    2.286 
#    5.143    5.714    0.000    0.000    0.000    0.000 
#    0.000    0.000    0.000    0.000    0.000    0.000 
#
# Total GULP energy -346894.231463 kJ/mol
# GULP energy per Si atom -12389.079695 kJ/mol
# Density = 2.496617 g / cm^3
# Si number density = 25.023124 Si / 1000 Ang^3
#
#
#
# Elastic Constant Matrix: (Units=GPa)
#
#
# Indices 1 2 3 4 5 6 
#
# 1 134.3631 -1.2810 18.9678 0.0000 -24.5738 0.0000
# 2 -1.2810 76.8232 16.3734 0.0000 -0.8630 0.0000
# 3 18.9678 16.3734 109.9810 0.0000 -6.9989 0.0000
# 4 0.0000 0.0000 0.0000 31.8072 0.0000 -5.9466
# 5 -24.5738 -0.8630 -6.9989 0.0000 43.1019 0.0000
# 6 0.0000 0.0000 0.0000 -5.9466 0.0000 30.4975
#
#
#
# Elastic Compliance Matrix: (Units=1/GPa)
#
#
# Indices 1 2 3 4 5 6 
#
# 1 0.008469 0.000456 -0.001233 0.000000 0.004637 0.000000
# 2 0.000456 0.013468 -0.002071 0.000000 0.000193 0.000000
# 3 -0.001233 -0.002071 0.009666 0.000000 0.000825 0.000000
# 4 0.000000 0.000000 0.000000 0.032629 0.000000 0.006362
# 5 0.004637 0.000193 0.000825 0.000000 0.025983 0.000000
# 6 0.000000 0.000000 0.000000 0.006362 0.000000 0.034030
#
#
# Mechanical properties :
#
#
# Convention : Reuss Voigt Hill
#
# Bulk Modulus (GPa) = 38.60103 43.25418 40.92761
# Shear Modulus (GPa) = 36.08087 40.22179 38.15133
#
# Velocity S-wave (km/s) = 3.80136 4.01357 3.90890
# Velocity P-wave (km/s) = 5.89294 6.22909 6.06334
#
# Compressibility (1/GPa) = 0.02590604
#
# Stress axis : x y z
#
# Youngs Moduli (GPa) = 118.07597 74.24909 103.45450
#
# Poissons Ratio (x) = -0.03387 0.12760
# Poissons Ratio (y) = -0.05387 0.21430
# Poissons Ratio (z) = 0.14564 0.15380
#
# Static dielectric constant tensor:
#      x y z
#    x 5.354450 0.000000 -0.152980 
#    y 0.000000 4.247420 0.000000 
#    z -0.152980 0.000000 4.512730 
# 
# 
# High freq. dielectric constant tensor:
#      x y z
#    x 2.024800 0.000000 -0.009030 
#    y 0.000000 1.981510 0.000000 
#    z -0.009030 0.000000 1.988410 
# 
# From -- ./inp_files/77412.got.cif
#   From: 2010.03.12/outbox.cif.g09.slc.cpg/sg14_39_cif.got.tgz:77412.got - 2010.03.31 13:35:05.
