data_PCOD8127986
_publ_section_title
;
Structure prediction by ZEFSAII (Michael W. Deem and Ramdas Pophale) SiO2 
 PCOD8127986
Probable space group: P 21/C
;
_chemical_formula_sum "Si O2"
_cell_formula_units_Z 28
_cell_length_a 15.093767
_cell_length_b 8.501004
_cell_length_c 21.615142
_cell_angle_alpha 90.000000
_cell_angle_beta 28.620767
_cell_angle_gamma 90.000000
_cell_volume 1328.527607
_symmetry_space_group_name_H-M "P 21/C"
_symmetry_group_IT_number 14
_symmetry_cell_setting 'monoclinic'
loop_
_space_group_symop_operation_xyz
x,y,z
-x,1/2+y,1/2-z
-x,-y,-z
x,1/2-y,1/2+z
loop_
_atom_site_type_symbol
_atom_site_label
_atom_site_fract_x
_atom_site_fract_y
_atom_site_fract_z
Si Si1 0.338624 0.360258 0.791819
Si Si2 0.608858 0.417355 0.349026
Si Si3 0.033926 0.338453 0.419549
Si Si4 0.602039 0.416980 0.135842
Si Si5 0.780807 0.985958 0.869386
Si Si6 0.085269 0.775949 0.633640
Si Si7 0.266329 0.874567 0.806135
O O1 0.398242 0.427944 0.689070
O O2 0.149519 0.265014 0.897882
O O3 0.307058 0.501446 0.859724
O O4 0.498420 0.243903 0.719455
O O5 0.397062 0.385484 0.499070
O O6 0.740853 0.443644 0.326494
O O7 0.699233 0.274422 0.257359
O O8 0.109062 0.516458 0.371076
O O9 0.044972 0.275152 0.343436
O O10 0.819278 0.328950 0.573896
O O11 0.456652 0.533917 0.194292
O O12 0.754744 0.389701 0.989864
O O13 0.823286 0.126643 0.890110
O O14 0.957197 0.870624 0.760120
#
# Coordination Sequence:
#
# PCOD8127986 Si02
#       7
#     4   4   4   4   4   4   4
#     4  11  21  42  68  97 134 170 211 278 331 391
#     4  11  23  46  64  96 131 180 218 268 321 399
#     4  10  23  44  67  99 136 163 221 273 332 394
#     4  11  24  41  69  99 132 168 217 273 337 389
#     4  11  28  43  68  93 133 179 226 266 323 389
#     4  12  25  46  64  99 129 178 221 278 320 393
#     4  10  24  42  69 101 129 174 210 275 335 394
#
# _framework density 21.075963999999999
#
# number of rings (size 3 to 8) (size 9 to 14) (size 15 to 20)
#    0.000    1.143    2.857    2.571    6.000    1.143 
#    2.571    1.429    0.000    0.000    0.000    0.000 
#    0.000    0.000    0.000    0.000    0.000    0.000 
#
# Total GULP energy -347315.712677 kJ/mol
# GULP energy per Si atom -12404.132596 kJ/mol
# Density = 2.102799 g / cm^3
# Si number density = 21.075964 Si / 1000 Ang^3
#
#
#
# Elastic Constant Matrix: (Units=GPa)
#
#
# Indices 1 2 3 4 5 6 
#
# 1 89.0446 43.1706 21.3071 0.0000 -0.0484 0.0000
# 2 43.1706 105.9685 44.4422 0.0000 2.8803 0.0000
# 3 21.3071 44.4422 106.2292 0.0000 -3.6716 0.0000
# 4 0.0000 0.0000 0.0000 41.7452 0.0000 2.0703
# 5 -0.0484 2.8803 -3.6716 0.0000 28.6532 0.0000
# 6 0.0000 0.0000 0.0000 2.0703 0.0000 22.5616
#
#
#
# Elastic Compliance Matrix: (Units=1/GPa)
#
#
# Indices 1 2 3 4 5 6 
#
# 1 0.014025 -0.005525 -0.000484 0.000000 0.000517 0.000000
# 2 -0.005525 0.013711 -0.004697 0.000000 -0.001989 0.000000
# 3 -0.000484 -0.004697 0.011543 0.000000 0.001950 0.000000
# 4 0.000000 0.000000 0.000000 0.024064 0.000000 -0.002208
# 5 0.000517 -0.001989 0.001950 0.000000 0.035351 0.000000
# 6 0.000000 0.000000 0.000000 -0.002208 0.000000 0.044526
#
#
# Mechanical properties :
#
#
# Convention : Reuss Voigt Hill
#
# Bulk Modulus (GPa) = 55.96505 57.67581 56.82043
# Shear Modulus (GPa) = 29.31045 31.41350 30.36198
#
# Velocity S-wave (km/s) = 3.73326 3.86487 3.79964
# Velocity P-wave (km/s) = 6.72269 6.88051 6.80206
#
# Compressibility (1/GPa) = 0.01786829
#
# Stress axis : x y z
#
# Youngs Moduli (GPa) = 71.30179 72.93177 86.63184
#
# Poissons Ratio (x) = 0.40293 0.04192
# Poissons Ratio (y) = 0.39392 0.40691
# Poissons Ratio (z) = 0.03450 0.34256
#
# Static dielectric constant tensor:
#      x y z
#    x 3.710450 0.000000 -0.047440 
#    y 0.000000 3.853990 0.000000 
#    z -0.047440 0.000000 3.801340 
# 
# 
# High freq. dielectric constant tensor:
#      x y z
#    x 1.826650 0.000000 -0.009160 
#    y 0.000000 1.832790 0.000000 
#    z -0.009160 0.000000 1.832200 
# 
# From -- ./inp_files/68295.got.cif
#   From: 2010.03.12/outbox.cif.g09.slc.cpg/sg14_35_cif.got.tgz:68295.got - 2010.03.31 13:35:05.
