data_PCOD8127572
_publ_section_title
;
Structure prediction by ZEFSAII (Michael W. Deem and Ramdas Pophale) SiO2 
 PCOD8127572
Probable space group: P 21/C
;
_chemical_formula_sum "Si O2"
_cell_formula_units_Z 20
_cell_length_a 10.735288
_cell_length_b 11.710118
_cell_length_c 12.950601
_cell_angle_alpha 90.000000
_cell_angle_beta 145.492145
_cell_angle_gamma 90.000000
_cell_volume 922.315569
_symmetry_space_group_name_H-M "P 21/C"
_symmetry_group_IT_number 14
_symmetry_cell_setting 'monoclinic'
loop_
_space_group_symop_operation_xyz
x,y,z
-x,1/2+y,1/2-z
-x,-y,-z
x,1/2-y,1/2+z
loop_
_atom_site_type_symbol
_atom_site_label
_atom_site_fract_x
_atom_site_fract_y
_atom_site_fract_z
Si Si1 0.805691 0.984697 0.288522
Si Si2 0.297075 0.257621 0.391911
Si Si3 0.596963 0.097363 0.495416
Si Si4 0.009716 0.958363 0.789871
Si Si5 0.399760 0.078423 0.134845
O O1 0.795213 0.853425 0.246870
O O2 0.576294 0.020407 0.180758
O O3 0.000000 0.000000 0.500000
O O4 0.856623 0.064257 0.224437
O O5 0.533791 0.215555 0.508881
O O6 0.122829 0.153694 0.268558
O O7 0.329749 0.302566 0.531381
O O8 0.490253 0.100410 0.309401
O O9 0.500000 0.000000 0.500000
O O10 0.855683 0.070799 0.664029
O O11 0.187667 0.994254 0.998772
#
# Coordination Sequence:
#
# PCOD8127572 Si02
#       5
#     4   4   4   4   4
#     4  11  23  43  64  94 132 169 218 268 318 396
#     4  10  24  41  66  99 127 175 215 264 339 381
#     4  10  23  43  64  98 130 164 223 264 320 392
#     4  10  22  44  66  98 129 170 223 269 321 397
#     4  11  24  43  67  91 137 170 211 281 318 385
#
# _framework density 21.684552
#
# number of rings (size 3 to 8) (size 9 to 14) (size 15 to 20)
#    0.000    1.600    2.000    2.400    2.800    9.600 
#    7.200    0.000    0.000    0.000    0.000    0.000 
#    0.000    0.000    0.000    0.000    0.000    0.000 
#
# Total GULP energy -247903.851396 kJ/mol
# GULP energy per Si atom -12395.192570 kJ/mol
# Density = 2.163520 g / cm^3
# Si number density = 21.684552 Si / 1000 Ang^3
#
#
#
# Elastic Constant Matrix: (Units=GPa)
#
#
# Indices 1 2 3 4 5 6 
#
# 1 93.8908 37.3238 26.2412 0.0000 1.1976 0.0000
# 2 37.3238 100.7862 24.0115 0.0000 11.3239 0.0000
# 3 26.2412 24.0115 106.0159 0.0000 11.9335 0.0000
# 4 0.0000 0.0000 0.0000 20.0345 0.0000 6.7632
# 5 1.1976 11.3239 11.9335 0.0000 35.0831 0.0000
# 6 0.0000 0.0000 0.0000 6.7632 0.0000 37.4194
#
#
#
# Elastic Compliance Matrix: (Units=1/GPa)
#
#
# Indices 1 2 3 4 5 6 
#
# 1 0.013084 -0.004471 -0.002431 0.000000 0.001824 0.000000
# 2 -0.004471 0.012264 -0.001292 0.000000 -0.003366 0.000000
# 3 -0.002431 -0.001292 0.010680 0.000000 -0.003133 0.000000
# 4 0.000000 0.000000 0.000000 0.053157 0.000000 -0.009608
# 5 0.001824 -0.003366 -0.003133 0.000000 0.030594 0.000000
# 6 0.000000 0.000000 0.000000 -0.009608 0.000000 0.028461
#
#
# Mechanical properties :
#
#
# Convention : Reuss Voigt Hill
#
# Bulk Modulus (GPa) = 50.91923 52.87178 51.89550
# Shear Modulus (GPa) = 29.21002 32.71515 30.96258
#
# Velocity S-wave (km/s) = 3.67419 3.88839 3.78281
# Velocity P-wave (km/s) = 6.44456 6.67792 6.56228
#
# Compressibility (1/GPa) = 0.01963895
#
# Stress axis : x y z
#
# Youngs Moduli (GPa) = 76.42755 81.54076 93.63666
#
# Poissons Ratio (x) = 0.36458 0.22765
# Poissons Ratio (y) = 0.34172 0.12098
# Poissons Ratio (z) = 0.18581 0.10535
#
# Static dielectric constant tensor:
#      x y z
#    x 4.912680 0.000000 0.298690 
#    y 0.000000 4.346490 0.000000 
#    z 0.298690 0.000000 4.344890 
# 
# 
# High freq. dielectric constant tensor:
#      x y z
#    x 1.865240 0.000000 0.013310 
#    y 0.000000 1.843360 0.000000 
#    z 0.013310 0.000000 1.861050 
# 
# From -- ./inp_files/39155.got.cif
#   From: 2010.03.12/outbox.cif.g09.slc.cpg/sg14_20_cif.got.tgz:39155.got - 2010.03.31 13:35:05.
