data_PCOD8127709
_publ_section_title
;
Structure prediction by ZEFSAII (Michael W. Deem and Ramdas Pophale) SiO2 
 PCOD8127709
Probable space group: P 21/C
;
_chemical_formula_sum "Si O2"
_cell_formula_units_Z 24
_cell_length_a 13.606591
_cell_length_b 5.187640
_cell_length_c 14.604425
_cell_angle_alpha 90.000000
_cell_angle_beta 77.489999
_cell_angle_gamma 90.000000
_cell_volume 1006.394661
_symmetry_space_group_name_H-M "P 21/C"
_symmetry_group_IT_number 14
_symmetry_cell_setting 'monoclinic'
loop_
_space_group_symop_operation_xyz
x,y,z
-x,1/2+y,1/2-z
-x,-y,-z
x,1/2-y,1/2+z
loop_
_atom_site_type_symbol
_atom_site_label
_atom_site_fract_x
_atom_site_fract_y
_atom_site_fract_z
Si Si1 0.356410 0.646976 0.075842
Si Si2 0.852678 0.099411 0.321545
Si Si3 0.521053 0.730469 0.190110
Si Si4 0.031883 0.133865 0.851116
Si Si5 0.315795 0.134515 0.973932
Si Si6 0.094663 0.265239 0.022210
O O1 0.259725 0.712127 0.160660
O O2 0.456776 0.650644 0.114702
O O3 0.342450 0.359709 0.040448
O O4 0.364245 0.864169 0.996380
O O5 0.869715 0.905991 0.232870
O O6 0.870184 0.998217 0.421575
O O7 0.941365 0.310626 0.297453
O O8 0.527242 0.484718 0.255110
O O9 0.634219 0.796176 0.133940
O O10 0.058985 0.346816 0.925413
O O11 0.998980 0.879766 0.912527
O O12 0.195730 0.090929 0.988029
#
# Coordination Sequence:
#
# PCOD8127709 Si02
#       6
#     4   4   4   4   4   4
#     4  11  24  44  72  96 135 180 225 273 342 408
#     4  11  22  40  64  95 133 178 226 272 339 398
#     4  12  26  45  69 104 135 168 225 285 345 404
#     4  11  21  40  61  95 132 176 222 275 326 392
#     4  11  23  46  69  97 132 182 225 273 341 410
#     4  10  23  39  63  92 132 175 227 270 331 396
#
# _framework density 23.847504000000001
#
# number of rings (size 3 to 8) (size 9 to 14) (size 15 to 20)
#    0.000    1.000    3.333    3.500    2.333    0.000 
#    3.000    0.000    0.000    0.000    0.000    0.000 
#    0.000    0.000    0.000    0.000    0.000    0.000 
#
# Total GULP energy -297486.041095 kJ/mol
# GULP energy per Si atom -12395.251712 kJ/mol
# Density = 2.379323 g / cm^3
# Si number density = 23.847504 Si / 1000 Ang^3
#
#
#
# Elastic Constant Matrix: (Units=GPa)
#
#
# Indices 1 2 3 4 5 6 
#
# 1 72.6806 -8.6240 19.3319 0.0000 -9.7961 0.0000
# 2 -8.6240 67.3536 8.4745 0.0000 -4.2496 0.0000
# 3 19.3319 8.4745 103.5035 0.0000 -12.1442 0.0000
# 4 0.0000 0.0000 0.0000 28.4254 0.0000 3.5396
# 5 -9.7961 -4.2496 -12.1442 0.0000 36.2832 0.0000
# 6 0.0000 0.0000 0.0000 3.5396 0.0000 30.3374
#
#
#
# Elastic Compliance Matrix: (Units=1/GPa)
#
#
# Indices 1 2 3 4 5 6 
#
# 1 0.015232 0.002504 -0.002637 0.000000 0.003523 0.000000
# 2 0.002504 0.015482 -0.001502 0.000000 0.001987 0.000000
# 3 -0.002637 -0.001502 0.010589 0.000000 0.002656 0.000000
# 4 0.000000 0.000000 0.000000 0.035698 0.000000 -0.004165
# 5 0.003523 0.001987 0.002656 0.000000 0.029634 0.000000
# 6 0.000000 0.000000 0.000000 -0.004165 0.000000 0.033449
#
#
# Mechanical properties :
#
#
# Convention : Reuss Voigt Hill
#
# Bulk Modulus (GPa) = 26.29241 31.32251 28.80746
# Shear Modulus (GPa) = 32.04492 33.96620 33.00556
#
# Velocity S-wave (km/s) = 3.66969 3.77810 3.72429
# Velocity P-wave (km/s) = 5.38559 5.67407 5.53171
#
# Compressibility (1/GPa) = 0.03803379
#
# Stress axis : x y z
#
# Youngs Moduli (GPa) = 65.65041 64.59099 94.44085
#
# Poissons Ratio (x) = -0.16176 0.24901
# Poissons Ratio (y) = -0.16441 0.14188
# Poissons Ratio (z) = 0.17310 0.09703
#
# Static dielectric constant tensor:
#      x y z
#    x 4.721210 0.000000 -0.185890 
#    y 0.000000 4.003690 0.000000 
#    z -0.185890 0.000000 4.488730 
# 
# 
# High freq. dielectric constant tensor:
#      x y z
#    x 1.949570 0.000000 -0.013230 
#    y 0.000000 1.930240 0.000000 
#    z -0.013230 0.000000 1.948890 
# 
# From -- ./inp_files/45832.got.cif
#   From: 2010.03.12/outbox.cif.g09.slc.cpg/sg14_23_cif.got.tgz:45832.got - 2010.03.31 13:35:05.
