data_PCOD8127077
_publ_section_title
;
Structure prediction by ZEFSAII (Michael W. Deem and Ramdas Pophale) SiO2 
 PCOD8127077
Probable space group: P 21/C
;
_chemical_formula_sum "Si O2"
_cell_formula_units_Z 32
_cell_length_a 22.478228
_cell_length_b 7.052848
_cell_length_c 30.700765
_cell_angle_alpha 90.000000
_cell_angle_beta 162.875604
_cell_angle_gamma 90.000000
_cell_volume 1433.122518
_symmetry_space_group_name_H-M "P 21/C"
_symmetry_group_IT_number 14
_symmetry_cell_setting 'monoclinic'
loop_
_space_group_symop_operation_xyz
x,y,z
-x,1/2+y,1/2-z
-x,-y,-z
x,1/2-y,1/2+z
loop_
_atom_site_type_symbol
_atom_site_label
_atom_site_fract_x
_atom_site_fract_y
_atom_site_fract_z
Si Si1 0.703729 0.127062 0.551611
Si Si2 0.268004 0.757563 0.064355
Si Si3 0.475636 0.681740 0.936963
Si Si4 0.281591 0.410874 0.020174
Si Si5 0.415040 0.049172 0.839727
Si Si6 0.444170 0.581979 0.269996
Si Si7 0.874637 0.283206 0.754238
Si Si8 0.801735 0.689882 0.730173
O O1 0.611436 0.320570 0.468449
O O2 0.867057 0.178153 0.702438
O O3 0.514529 0.009777 0.438164
O O4 0.808852 0.995514 0.588438
O O5 0.370519 0.591308 0.107724
O O6 0.288824 0.683410 0.128563
O O7 0.396337 0.947309 0.144358
O O8 0.027852 0.780962 0.885205
O O9 0.245204 0.662716 0.793388
O O10 0.495979 0.859863 0.919356
O O11 0.632206 0.683110 0.087625
O O12 0.445933 0.251991 0.127465
O O13 0.109404 0.311278 0.929610
O O14 0.327886 0.017563 0.729395
O O15 0.250522 0.152166 0.755503
O O16 0.779220 0.493785 0.687332
#
# Coordination Sequence:
#
# PCOD8127077 Si02
#       8
#     4   4   4   4   4   4   4   4
#     4  12  22  36  64  96 129 169 206 245 316 379
#     4  11  25  43  70  88 119 169 217 261 319 370
#     4  11  21  40  63  93 133 170 201 250 313 378
#     4  11  25  40  61  97 125 169 214 255 314 375
#     4  11  22  40  65  93 132 164 202 265 311 368
#     4  12  24  45  67  87 126 164 214 273 312 364
#     4  10  22  39  60  92 136 165 206 247 306 379
#     4  10  22  42  64  95 129 167 208 250 316 376
#
# _framework density 22.328866999999999
#
# number of rings (size 3 to 8) (size 9 to 14) (size 15 to 20)
#    0.000    1.000    6.250    1.125    1.750    3.500 
#    0.000    0.000    0.000    1.500    0.000    0.000 
#    0.000    0.000    0.000    0.000    0.000    0.000 
#
# Total GULP energy -396486.543546 kJ/mol
# GULP energy per Si atom -12390.204486 kJ/mol
# Density = 2.227805 g / cm^3
# Si number density = 22.328867 Si / 1000 Ang^3
#
#
#
# Elastic Constant Matrix: (Units=GPa)
#
#
# Indices 1 2 3 4 5 6 
#
# 1 118.9148 20.7571 23.3861 0.0000 -11.0147 0.0000
# 2 20.7571 62.2853 13.7080 0.0000 -4.9863 0.0000
# 3 23.3861 13.7080 50.9828 0.0000 1.2279 0.0000
# 4 0.0000 0.0000 0.0000 23.8873 0.0000 -2.9243
# 5 -11.0147 -4.9863 1.2279 0.0000 27.0337 0.0000
# 6 0.0000 0.0000 0.0000 -2.9243 0.0000 39.5228
#
#
#
# Elastic Compliance Matrix: (Units=1/GPa)
#
#
# Indices 1 2 3 4 5 6 
#
# 1 0.009936 -0.002105 -0.004085 0.000000 0.003846 0.000000
# 2 -0.002105 0.017821 -0.003889 0.000000 0.002606 0.000000
# 3 -0.004085 -0.003889 0.022616 0.000000 -0.003409 0.000000
# 4 0.000000 0.000000 0.000000 0.042246 0.000000 0.003126
# 5 0.003846 0.002606 -0.003409 0.000000 0.039193 0.000000
# 6 0.000000 0.000000 0.000000 0.003126 0.000000 0.025533
#
#
# Mechanical properties :
#
#
# Convention : Reuss Voigt Hill
#
# Bulk Modulus (GPa) = 33.09413 38.65393 35.87403
# Shear Modulus (GPa) = 26.65612 29.71087 28.18349
#
# Velocity S-wave (km/s) = 3.45888 3.65170 3.55660
# Velocity P-wave (km/s) = 5.55025 5.92694 5.74169
#
# Compressibility (1/GPa) = 0.03021684
#
# Stress axis : x y z
#
# Youngs Moduli (GPa) = 100.64156 56.11337 44.21675
#
# Poissons Ratio (x) = 0.11809 0.18061
# Poissons Ratio (y) = 0.21180 0.17196
# Poissons Ratio (z) = 0.41108 0.21823
#
# Static dielectric constant tensor:
#      x y z
#    x 4.146010 0.000000 0.007560 
#    y 0.000000 4.215510 0.000000 
#    z 0.007560 0.000000 3.591360 
# 
# 
# High freq. dielectric constant tensor:
#      x y z
#    x 1.886050 0.000000 0.004880 
#    y 0.000000 1.899010 0.000000 
#    z 0.004880 0.000000 1.831800 
# 
# From -- ./inp_files/80531.got.cif
#   From: 2010.03.12/outbox.cif.g09.slc.cpg/sg14_41_cif.got.tgz:80531.got - 2010.03.31 13:35:05.
