data_PCOD8127927
_publ_section_title
;
Structure prediction by ZEFSAII (Michael W. Deem and Ramdas Pophale) SiO2 
 PCOD8127927
Probable space group: P 21/C
;
_chemical_formula_sum "Si O2"
_cell_formula_units_Z 20
_cell_length_a 8.488497
_cell_length_b 11.400817
_cell_length_c 9.292322
_cell_angle_alpha 90.000000
_cell_angle_beta 93.638275
_cell_angle_gamma 90.000000
_cell_volume 897.459475
_symmetry_space_group_name_H-M "P 21/C"
_symmetry_group_IT_number 14
_symmetry_cell_setting 'monoclinic'
loop_
_space_group_symop_operation_xyz
x,y,z
-x,1/2+y,1/2-z
-x,-y,-z
x,1/2-y,1/2+z
loop_
_atom_site_type_symbol
_atom_site_label
_atom_site_fract_x
_atom_site_fract_y
_atom_site_fract_z
Si Si1 0.348712 0.576335 0.959461
Si Si2 0.237877 0.973819 0.758272
Si Si3 0.924519 0.562703 0.135849
Si Si4 0.293151 0.226734 0.855919
Si Si5 0.507052 0.188053 0.129774
O O1 0.233266 0.511840 0.838139
O O2 0.389814 0.697267 0.888341
O O3 0.500000 0.500000 0.000000
O O4 0.263533 0.590274 0.107227
O O5 0.367831 0.919509 0.874127
O O6 0.051785 0.942716 0.775345
O O7 0.251210 0.114949 0.753556
O O8 0.863055 0.697492 0.113048
O O9 0.000000 0.500000 0.000000
O O10 0.423326 0.305864 0.781088
O O11 0.368658 0.175031 0.005471
#
# Coordination Sequence:
#
# PCOD8127927 Si02
#       5
#     4   4   4   4   4
#     4  11  19  42  69  96 131 190 223 269 341 417
#     4  11  24  41  66 102 137 176 229 287 341 398
#     4  10  23  43  68  97 137 181 223 273 349 410
#     4  12  24  44  71 100 137 180 232 284 333 415
#     4  12  23  42  70  98 140 178 232 281 339 401
#
# _framework density 22.285126999999999
#
# number of rings (size 3 to 8) (size 9 to 14) (size 15 to 20)
#    0.000    0.800    6.000    1.800    2.800    0.000 
#    0.000    1.000    0.000    0.000    0.000    0.000 
#    0.000    0.000    0.000    0.000    0.000    0.000 
#
# Total GULP energy -247802.848436 kJ/mol
# GULP energy per Si atom -12390.142422 kJ/mol
# Density = 2.223440 g / cm^3
# Si number density = 22.285127 Si / 1000 Ang^3
#
#
#
# Elastic Constant Matrix: (Units=GPa)
#
#
# Indices 1 2 3 4 5 6 
#
# 1 146.9200 66.5488 26.4279 0.0000 34.4231 0.0000
# 2 66.5488 131.2068 16.2232 0.0000 0.7561 0.0000
# 3 26.4279 16.2232 52.9776 0.0000 4.2619 0.0000
# 4 0.0000 0.0000 0.0000 27.3652 0.0000 1.9228
# 5 34.4231 0.7561 4.2619 0.0000 37.8420 0.0000
# 6 0.0000 0.0000 0.0000 1.9228 0.0000 55.6142
#
#
#
# Elastic Compliance Matrix: (Units=1/GPa)
#
#
# Indices 1 2 3 4 5 6 
#
# 1 0.012753 -0.005954 -0.003648 0.000000 -0.011071 0.000000
# 2 -0.005954 0.010701 -0.000732 0.000000 0.005284 0.000000
# 3 -0.003648 -0.000732 0.020841 0.000000 0.000986 0.000000
# 4 0.000000 0.000000 0.000000 0.036632 0.000000 -0.001266
# 5 -0.011071 0.005284 0.000986 0.000000 0.036280 0.000000
# 6 0.000000 0.000000 0.000000 -0.001266 0.000000 0.018025
#
#
# Mechanical properties :
#
#
# Convention : Reuss Voigt Hill
#
# Bulk Modulus (GPa) = 42.32387 61.05605 51.68996
# Shear Modulus (GPa) = 30.52945 38.95792 34.74368
#
# Velocity S-wave (km/s) = 3.70530 4.18563 3.95277
# Velocity P-wave (km/s) = 6.11055 7.12857 6.63910
#
# Compressibility (1/GPa) = 0.02362733
#
# Stress axis : x y z
#
# Youngs Moduli (GPa) = 78.41000 93.44573 47.98306
#
# Poissons Ratio (x) = 0.55635 0.17505
# Poissons Ratio (y) = 0.46683 0.03513
# Poissons Ratio (z) = 0.28606 0.06842
#
# Static dielectric constant tensor:
#      x y z
#    x 5.212340 0.000000 0.435700 
#    y 0.000000 3.595020 0.000000 
#    z 0.435700 0.000000 3.656060 
# 
# 
# High freq. dielectric constant tensor:
#      x y z
#    x 1.897540 0.000000 0.024320 
#    y 0.000000 1.877960 0.000000 
#    z 0.024320 0.000000 1.844090 
# 
# From -- ./inp_files/7881.got.cif
#   From: 2010.03.12/outbox.cif.g09.slc.cpg/sg14_4_cif.got.tgz:7881.got - 2010.03.31 13:35:05.
