data_PCOD8127752
_publ_section_title
;
Structure prediction by ZEFSAII (Michael W. Deem and Ramdas Pophale) SiO2 
 PCOD8127752
Probable space group: P 21/C
;
_chemical_formula_sum "Si O2"
_cell_formula_units_Z 16
_cell_length_a 8.052978
_cell_length_b 4.742653
_cell_length_c 26.188824
_cell_angle_alpha 90.000000
_cell_angle_beta 33.105426
_cell_angle_gamma 90.000000
_cell_volume 546.299346
_symmetry_space_group_name_H-M "P 21/C"
_symmetry_group_IT_number 14
_symmetry_cell_setting 'monoclinic'
loop_
_space_group_symop_operation_xyz
x,y,z
-x,1/2+y,1/2-z
-x,-y,-z
x,1/2-y,1/2+z
loop_
_atom_site_type_symbol
_atom_site_label
_atom_site_fract_x
_atom_site_fract_y
_atom_site_fract_z
Si Si1 0.345296 0.548297 0.710555
Si Si2 0.334480 0.608362 0.119389
Si Si3 0.184560 0.811716 0.360265
Si Si4 0.235392 0.816127 0.034966
O O1 0.484949 0.731002 0.628448
O O2 0.562820 0.277589 0.663751
O O3 0.318815 0.741765 0.768575
O O4 0.018286 0.435645 0.777741
O O5 0.362972 0.798825 0.060393
O O6 0.502281 0.305562 0.069825
O O7 0.872706 0.633040 0.449510
O O8 0.077011 0.135263 0.391969
#
# Coordination Sequence:
#
# PCOD8127752 Si02
#       4
#     4   4   4   4
#     4  11  23  42  70 102 135 180 228 279 334 400
#     4  10  23  40  68  98 134 175 226 275 334 398
#     4  11  24  43  67  94 137 177 220 273 337 397
#     4  10  24  45  65  97 136 177 218 277 337 399
#
# _framework density 29.287970999999999
#
# number of rings (size 3 to 8) (size 9 to 14) (size 15 to 20)
#    0.000    1.500    0.000    4.500    0.000   15.000 
#    0.000    0.000    0.000    0.000    0.000    0.000 
#    0.000    0.000    0.000    0.000    0.000    0.000 
#
# Total GULP energy -198537.032560 kJ/mol
# GULP energy per Si atom -12408.564535 kJ/mol
# Density = 2.922131 g / cm^3
# Si number density = 29.287971 Si / 1000 Ang^3
#
#
#
# Elastic Constant Matrix: (Units=GPa)
#
#
# Indices 1 2 3 4 5 6 
#
# 1 118.1439 18.4149 39.5368 0.0000 6.6692 0.0000
# 2 18.4149 65.4884 -10.5921 0.0000 10.4066 0.0000
# 3 39.5368 -10.5921 87.1268 0.0002 -12.8059 0.0000
# 4 0.0000 0.0000 0.0002 35.9369 -0.0001 0.5849
# 5 6.6692 10.4066 -12.8059 -0.0001 48.0203 0.0000
# 6 0.0000 0.0000 0.0000 0.5849 0.0000 61.6642
#
#
#
# Elastic Compliance Matrix: (Units=1/GPa)
#
#
# Indices 1 2 3 4 5 6 
#
# 1 0.011125 -0.003707 -0.005837 0.000000 -0.002298 0.000000
# 2 -0.003707 0.017234 0.003439 0.000000 -0.002303 0.000000
# 3 -0.005837 0.003439 0.015148 0.000000 0.004105 0.000000
# 4 0.000000 0.000000 0.000000 0.027831 0.000000 -0.000264
# 5 -0.002298 -0.002303 0.004105 0.000000 0.022738 0.000000
# 6 0.000000 0.000000 0.000000 -0.000264 0.000000 0.016219
#
#
# Mechanical properties :
#
#
# Convention : Reuss Voigt Hill
#
# Bulk Modulus (GPa) = 31.95185 40.60871 36.28028
# Shear Modulus (GPa) = 37.61163 44.01755 40.81459
#
# Velocity S-wave (km/s) = 3.58746 3.88096 3.73709
# Velocity P-wave (km/s) = 5.30029 5.82906 5.57095
#
# Compressibility (1/GPa) = 0.03129709
#
# Stress axis : x y z
#
# Youngs Moduli (GPa) = 89.88645 58.02316 66.01687
#
# Poissons Ratio (x) = 0.21510 0.38533
# Poissons Ratio (y) = 0.33322 -0.22703
# Poissons Ratio (z) = 0.52466 -0.19954
#
# Static dielectric constant tensor:
#      x y z
#    x 5.254890 0.000000 -0.092240 
#    y 0.000000 5.205420 0.000000 
#    z -0.092240 0.000000 5.291850 
# 
# 
# High freq. dielectric constant tensor:
#      x y z
#    x 2.195070 0.000000 -0.020300 
#    y 0.000000 2.193740 0.000000 
#    z -0.020300 0.000000 2.207170 
# 
# From -- ./inp_files/38419.got.cif
#   From: 2010.03.12/outbox.cif.g09.slc.cpg/sg14_20_cif.got.tgz:38419.got - 2010.03.31 13:35:05.
