data_PCOD8127948
_publ_section_title
;
Structure prediction by ZEFSAII (Michael W. Deem and Ramdas Pophale) SiO2 
 PCOD8127948
Probable space group: P 21/C
;
_chemical_formula_sum "Si O2"
_cell_formula_units_Z 28
_cell_length_a 6.019160
_cell_length_b 28.034735
_cell_length_c 8.357422
_cell_angle_alpha 90.000000
_cell_angle_beta 59.246915
_cell_angle_gamma 90.000000
_cell_volume 1211.962973
_symmetry_space_group_name_H-M "P 21/C"
_symmetry_group_IT_number 14
_symmetry_cell_setting 'monoclinic'
loop_
_space_group_symop_operation_xyz
x,y,z
-x,1/2+y,1/2-z
-x,-y,-z
x,1/2-y,1/2+z
loop_
_atom_site_type_symbol
_atom_site_label
_atom_site_fract_x
_atom_site_fract_y
_atom_site_fract_z
Si Si1 0.814957 0.198000 0.448457
Si Si2 0.983828 0.613934 0.633910
Si Si3 0.307693 0.988032 0.412690
Si Si4 0.470957 0.896949 0.476970
Si Si5 0.544260 0.070934 0.168308
Si Si6 0.246262 0.353451 0.594925
Si Si7 0.253832 0.701430 0.669144
O O1 0.593768 0.157961 0.527147
O O2 0.883796 0.206089 0.608304
O O3 0.702907 0.246977 0.422460
O O4 0.058435 0.183174 0.253221
O O5 0.218386 0.575492 0.544698
O O6 0.072405 0.668267 0.628052
O O7 0.780911 0.596508 0.842646
O O8 0.871788 0.613481 0.497908
O O9 0.329393 0.930497 0.394436
O O10 0.500000 0.000000 0.500000
O O11 0.441586 0.016511 0.215879
O O12 0.000000 0.000000 0.500000
O O13 0.370171 0.912279 0.686805
O O14 0.327287 0.108763 0.199223
O O15 0.466688 0.322831 0.427400
#
# Coordination Sequence:
#
# PCOD8127948 Si02
#       7
#     4   4   4   4   4   4   4
#     4  12  24  42  68  93 134 180 228 287 358 413
#     4  11  23  44  65 101 137 175 235 282 352 422
#     4  10  23  44  73 107 142 188 244 289 358 431
#     4  11  23  43  71  97 140 183 231 292 355 420
#     4  10  23  43  71  97 138 182 229 288 354 416
#     4  11  23  43  67  93 137 177 224 292 348 422
#     4  11  27  41  64  99 129 180 231 286 343 431
#
# _framework density 23.103016
#
# number of rings (size 3 to 8) (size 9 to 14) (size 15 to 20)
#    0.000    1.143    2.857    2.571    6.000    2.857 
#    0.000    0.714    0.000    0.000    0.000    0.000 
#    0.000    0.000    0.000    0.000    0.000    0.000 
#
# Total GULP energy -346877.755759 kJ/mol
# GULP energy per Si atom -12388.491277 kJ/mol
# Density = 2.305043 g / cm^3
# Si number density = 23.103016 Si / 1000 Ang^3
#
#
#
# Elastic Constant Matrix: (Units=GPa)
#
#
# Indices 1 2 3 4 5 6 
#
# 1 77.8364 -1.0057 8.4865 0.0000 -16.7918 0.0000
# 2 -1.0057 33.7394 -17.4835 0.0000 -10.5653 0.0000
# 3 8.4865 -17.4835 86.0563 0.0000 -20.1817 0.0000
# 4 0.0000 0.0000 0.0000 14.5242 0.0000 0.1241
# 5 -16.7918 -10.5653 -20.1817 0.0000 35.2477 0.0000
# 6 0.0000 0.0000 0.0000 0.1241 0.0000 17.6726
#
#
#
# Elastic Compliance Matrix: (Units=1/GPa)
#
#
# Indices 1 2 3 4 5 6 
#
# 1 0.014695 0.004061 0.001505 0.000000 0.009080 0.000000
# 2 0.004061 0.044339 0.014067 0.000000 0.023280 0.000000
# 3 0.001505 0.014067 0.017889 0.000000 0.015176 0.000000
# 4 0.000000 0.000000 0.000000 0.068855 0.000000 -0.000484
# 5 0.009080 0.023280 0.015176 0.000000 0.048364 0.000000
# 6 0.000000 0.000000 0.000000 -0.000484 0.000000 0.056588
#
#
# Mechanical properties :
#
#
# Convention : Reuss Voigt Hill
#
# Bulk Modulus (GPa) = 8.60656 19.73629 14.17142
# Shear Modulus (GPa) = 19.98468 27.33123 23.65796
#
# Velocity S-wave (km/s) = 2.94432 3.44323 3.20350
# Velocity P-wave (km/s) = 3.91051 4.93650 4.45315
#
# Compressibility (1/GPa) = 0.11619043
#
# Stress axis : x y z
#
# Youngs Moduli (GPa) = 68.05232 22.55330 55.90069
#
# Poissons Ratio (x) = -0.09160 -0.08415
# Poissons Ratio (y) = -0.27638 -0.78636
# Poissons Ratio (z) = -0.10244 -0.31726
#
# Static dielectric constant tensor:
#      x y z
#    x 4.292420 0.000000 -0.065070 
#    y 0.000000 4.486980 0.000000 
#    z -0.065070 0.000000 4.124120 
# 
# 
# High freq. dielectric constant tensor:
#      x y z
#    x 1.910470 0.000000 -0.004270 
#    y 0.000000 1.920100 0.000000 
#    z -0.004270 0.000000 1.917210 
# 
# From -- ./inp_files/6728.got.cif
#   From: 2010.03.12/outbox.cif.g09.slc.cpg/sg14_4_cif.got.tgz:6728.got - 2010.03.31 13:35:05.
