data_PCOD8127092
_publ_section_title
;
Structure prediction by ZEFSAII (Michael W. Deem and Ramdas Pophale) SiO2 
 PCOD8127092
Probable space group: P 21/C
;
_chemical_formula_sum "Si O2"
_cell_formula_units_Z 28
_cell_length_a 16.613743
_cell_length_b 9.214639
_cell_length_c 13.664708
_cell_angle_alpha 90.000000
_cell_angle_beta 41.518010
_cell_angle_gamma 90.000000
_cell_volume 1386.644051
_symmetry_space_group_name_H-M "P 21/C"
_symmetry_group_IT_number 14
_symmetry_cell_setting 'monoclinic'
loop_
_space_group_symop_operation_xyz
x,y,z
-x,1/2+y,1/2-z
-x,-y,-z
x,1/2-y,1/2+z
loop_
_atom_site_type_symbol
_atom_site_label
_atom_site_fract_x
_atom_site_fract_y
_atom_site_fract_z
Si Si1 0.367900 0.053305 0.648346
Si Si2 0.996304 0.350693 0.629969
Si Si3 0.811890 0.315144 0.636261
Si Si4 0.217448 0.242535 0.151353
Si Si5 0.969992 0.360152 0.316366
Si Si6 0.850788 0.510475 0.133217
Si Si7 0.249965 0.245635 0.898527
O O1 0.298777 0.128040 0.620950
O O2 0.365712 0.176252 0.736818
O O3 0.500000 0.000000 0.500000
O O4 0.310605 0.902272 0.735746
O O5 0.914255 0.387657 0.612310
O O6 0.956080 0.198394 0.717981
O O7 0.993983 0.470188 0.718893
O O8 0.134213 0.347640 0.464572
O O9 0.848865 0.329733 0.488914
O O10 0.793724 0.148792 0.683099
O O11 0.212886 0.093226 0.217184
O O12 0.077158 0.281337 0.275751
O O13 0.271413 0.221610 0.993658
O O14 0.792992 0.590586 0.089647
O O15 0.000000 0.500000 0.000000
#
# Coordination Sequence:
#
# PCOD8127092 Si02
#       7
#     4   4   4   4   4   4   4
#     4  11  24  46  64  82 119 177 223 258 290 341
#     4  11  22  34  58  92 128 154 189 247 321 383
#     4  12  22  36  58  91 121 156 202 250 301 380
#     4  10  22  39  62  90 128 157 200 254 317 373
#     4  11  22  34  58  92 128 154 189 247 321 383
#     4  11  21  35  58  96 128 157 185 244 323 389
#     4  10  22  39  62  90 128 157 200 254 317 373
#
# _framework density 20.192639
#
# number of rings (size 3 to 8) (size 9 to 14) (size 15 to 20)
#    0.000    1.143    5.714    1.286    8.000    0.000 
#    0.000    7.143    0.000    0.000    0.000    0.000 
#    0.000    0.000    0.000    0.000    0.000    0.000 
#
# Total GULP energy -346925.430912 kJ/mol
# GULP energy per Si atom -12390.193961 kJ/mol
# Density = 2.014668 g / cm^3
# Si number density = 20.192639 Si / 1000 Ang^3
#
#
#
# Elastic Constant Matrix: (Units=GPa)
#
#
# Indices 1 2 3 4 5 6 
#
# 1 39.3339 2.4252 33.1505 0.0000 10.9788 0.0000
# 2 2.4252 109.1281 33.4687 0.0000 -5.8323 0.0000
# 3 33.1505 33.4687 123.7142 0.0000 -1.0549 0.0000
# 4 0.0000 0.0000 0.0000 32.9084 0.0000 0.8037
# 5 10.9788 -5.8323 -1.0549 0.0000 27.4871 0.0000
# 6 0.0000 0.0000 0.0000 0.8037 0.0000 26.2408
#
#
#
# Elastic Compliance Matrix: (Units=1/GPa)
#
#
# Indices 1 2 3 4 5 6 
#
# 1 0.038984 0.001682 -0.011035 0.000000 -0.015638 0.000000
# 2 0.001682 0.010178 -0.003193 0.000000 0.001365 0.000000
# 3 -0.011035 -0.003193 0.011939 0.000000 0.004188 0.000000
# 4 0.000000 0.000000 0.000000 0.030410 0.000000 -0.000931
# 5 -0.015638 0.001365 0.004188 0.000000 0.043077 0.000000
# 6 0.000000 0.000000 0.000000 -0.000931 0.000000 0.038137
#
#
# Mechanical properties :
#
#
# Convention : Reuss Voigt Hill
#
# Bulk Modulus (GPa) = 27.76880 45.58501 36.67690
# Shear Modulus (GPa) = 23.82989 30.86938 27.34963
#
# Velocity S-wave (km/s) = 3.43903 3.91416 3.68426
# Velocity P-wave (km/s) = 5.43608 6.56137 6.02505
#
# Compressibility (1/GPa) = 0.03601164
#
# Stress axis : x y z
#
# Youngs Moduli (GPa) = 25.65136 98.24839 83.75612
#
# Poissons Ratio (x) = -0.16527 0.92422
# Poissons Ratio (y) = -0.04315 0.26740
# Poissons Ratio (z) = 0.28305 0.31367
#
# Static dielectric constant tensor:
#      x y z
#    x 3.431150 0.000000 0.322730 
#    y 0.000000 4.080030 0.000000 
#    z 0.322730 0.000000 3.527160 
# 
# 
# High freq. dielectric constant tensor:
#      x y z
#    x 1.755650 0.000000 0.038320 
#    y 0.000000 1.809370 0.000000 
#    z 0.038320 0.000000 1.769610 
# 
# From -- ./inp_files/48545.got.cif
#   From: 2010.03.12/outbox.cif.g09.slc.cpg/sg14_25_cif.got.tgz:48545.got - 2010.03.31 13:35:05.
