data_PCOD8127034
_publ_section_title
;
Structure prediction by ZEFSAII (Michael W. Deem and Ramdas Pophale) SiO2 
 PCOD8127034
Probable space group: P 21/C
;
_chemical_formula_sum "Si O2"
_cell_formula_units_Z 24
_cell_length_a 25.331204
_cell_length_b 7.424733
_cell_length_c 9.230564
_cell_angle_alpha 90.000000
_cell_angle_beta 148.988147
_cell_angle_gamma 90.000000
_cell_volume 894.445200
_symmetry_space_group_name_H-M "P 21/C"
_symmetry_group_IT_number 14
_symmetry_cell_setting 'monoclinic'
loop_
_space_group_symop_operation_xyz
x,y,z
-x,1/2+y,1/2-z
-x,-y,-z
x,1/2-y,1/2+z
loop_
_atom_site_type_symbol
_atom_site_label
_atom_site_fract_x
_atom_site_fract_y
_atom_site_fract_z
Si Si1 0.930402 0.358233 0.246820
Si Si2 0.263927 0.601898 0.029915
Si Si3 0.524471 0.215284 0.035548
Si Si4 0.095583 0.095152 0.572135
Si Si5 0.392995 0.278037 0.475141
Si Si6 0.799283 0.605471 0.377179
O O1 0.817977 0.322216 0.047961
O O2 0.922178 0.411702 0.057374
O O3 0.000000 0.500000 0.500000
O O4 0.986685 0.166078 0.375875
O O5 0.195419 0.555598 0.726827
O O6 0.352147 0.743427 0.189782
O O7 0.319944 0.433237 0.238668
O O8 0.468888 0.314320 0.037695
O O9 0.475159 0.329581 0.789636
O O10 0.500000 0.000000 0.000000
O O11 0.146348 0.225178 0.571184
O O12 0.162715 0.061854 0.872032
O O13 0.321482 0.134153 0.386286
#
# Coordination Sequence:
#
# PCOD8127034 Si02
#       6
#     4   4   4   4   4   4
#     4  12  24  46  70 100 143 177 235 291 347 413
#     4  11  23  43  68  97 137 179 224 290 342 416
#     4  10  22  38  63  95 129 168 222 282 329 404
#     4  12  24  42  71 106 130 187 230 290 346 415
#     4  11  18  38  67  92 129 175 225 267 341 404
#     4  12  19  38  71  98 126 180 236 266 351 421
#
# _framework density 26.832276
#
# number of rings (size 3 to 8) (size 9 to 14) (size 15 to 20)
#    0.000    0.667   10.000    0.000    0.000    0.667 
#    3.000    5.000    0.000    0.000    0.000    0.000 
#    0.000    0.000    0.000    0.000    0.000    0.000 
#
# Total GULP energy -297344.438489 kJ/mol
# GULP energy per Si atom -12389.351604 kJ/mol
# Density = 2.677120 g / cm^3
# Si number density = 26.832276 Si / 1000 Ang^3
#
#
#
# Elastic Constant Matrix: (Units=GPa)
#
#
# Indices 1 2 3 4 5 6 
#
# 1 194.4329 12.4624 50.6413 0.0000 32.2805 0.0000
# 2 12.4624 36.9097 0.0215 0.0000 9.7627 0.0000
# 3 50.6413 0.0215 132.1530 0.0000 -8.8557 0.0000
# 4 0.0000 0.0000 0.0000 17.6580 0.0000 3.1072
# 5 32.2805 9.7627 -8.8557 0.0000 75.7432 0.0000
# 6 0.0000 0.0000 0.0000 3.1072 0.0000 22.1842
#
#
#
# Elastic Compliance Matrix: (Units=1/GPa)
#
#
# Indices 1 2 3 4 5 6 
#
# 1 0.006395 -0.001403 -0.002641 0.000000 -0.002853 0.000000
# 2 -0.001403 0.028365 0.000331 0.000000 -0.003019 0.000000
# 3 -0.002641 0.000331 0.008720 0.000000 0.002103 0.000000
# 4 0.000000 0.000000 0.000000 0.058063 0.000000 -0.008132
# 5 -0.002853 -0.003019 0.002103 0.000000 0.015054 0.000000
# 6 0.000000 0.000000 0.000000 -0.008132 0.000000 0.046216
#
#
# Mechanical properties :
#
#
# Convention : Reuss Voigt Hill
#
# Bulk Modulus (GPa) = 27.73718 54.41621 41.07670
# Shear Modulus (GPa) = 27.43370 43.14178 35.28774
#
# Velocity S-wave (km/s) = 3.20099 4.01413 3.63040
# Velocity P-wave (km/s) = 4.90117 6.46595 5.73716
#
# Compressibility (1/GPa) = 0.03605269
#
# Stress axis : x y z
#
# Youngs Moduli (GPa) = 156.37700 35.25432 114.67817
#
# Poissons Ratio (x) = 0.04946 0.30292
# Poissons Ratio (y) = 0.21938 -0.03792
# Poissons Ratio (z) = 0.41307 -0.01166
#
# Static dielectric constant tensor:
#      x y z
#    x 5.776390 0.000000 0.290300 
#    y 0.000000 4.300460 0.000000 
#    z 0.290300 0.000000 5.032270 
# 
# 
# High freq. dielectric constant tensor:
#      x y z
#    x 2.117580 0.000000 0.002290 
#    y 0.000000 2.033680 0.000000 
#    z 0.002290 0.000000 2.093540 
# 
# From -- ./inp_files/19816.got.cif
#   From: 2010.03.12/outbox.cif.g09.slc.cpg/sg14_10_cif.got.tgz:19816.got - 2010.03.31 13:35:05.
