data_PCOD8127111
_publ_section_title
;
Structure prediction by ZEFSAII (Michael W. Deem and Ramdas Pophale) SiO2 
 PCOD8127111
Probable space group: P 21/C
;
_chemical_formula_sum "Si O2"
_cell_formula_units_Z 28
_cell_length_a 17.695067
_cell_length_b 9.360596
_cell_length_c 16.411021
_cell_angle_alpha 90.000000
_cell_angle_beta 31.266866
_cell_angle_gamma 90.000000
_cell_volume 1410.845647
_symmetry_space_group_name_H-M "P 21/C"
_symmetry_group_IT_number 14
_symmetry_cell_setting 'monoclinic'
loop_
_space_group_symop_operation_xyz
x,y,z
-x,1/2+y,1/2-z
-x,-y,-z
x,1/2-y,1/2+z
loop_
_atom_site_type_symbol
_atom_site_label
_atom_site_fract_x
_atom_site_fract_y
_atom_site_fract_z
Si Si1 0.233913 0.332808 0.941072
Si Si2 0.434630 0.141382 0.103470
Si Si3 0.268985 0.691890 0.605080
Si Si4 0.829124 0.578693 0.396618
Si Si5 0.821998 0.719689 0.754488
Si Si6 0.852241 0.023365 0.340631
Si Si7 0.013232 0.847442 0.448223
O O1 0.336144 0.386590 0.773786
O O2 0.260609 0.171890 0.952749
O O3 0.247786 0.447433 0.999768
O O4 0.067530 0.338795 0.063946
O O5 0.338201 0.231443 0.128507
O O6 0.569510 0.231895 0.013873
O O7 0.500000 0.000000 0.000000
O O8 0.269590 0.548889 0.548676
O O9 0.181189 0.676124 0.771175
O O10 0.203395 0.815986 0.610606
O O11 0.874072 0.683326 0.281687
O O12 0.976118 0.515195 0.299461
O O13 0.820288 0.555002 0.783840
O O14 0.944333 0.729829 0.571579
O O15 0.000000 0.000000 0.500000
#
# Coordination Sequence:
#
# PCOD8127111 Si02
#       7
#     4   4   4   4   4   4   4
#     4  10  22  39  64  88 127 160 207 262 317 360
#     4  11  23  43  64  88 124 172 211 250 314 388
#     4  12  22  36  66  89 122 163 216 246 307 387
#     4  11  19  40  64  92 118 163 209 261 306 367
#     4  10  22  39  65  87 128 160 203 267 312 363
#     4  11  22  39  63  96 126 158 209 270 313 363
#     4  11  18  36  63  92 114 165 213 252 306 367
#
# _framework density 19.846252
#
# number of rings (size 3 to 8) (size 9 to 14) (size 15 to 20)
#    0.000    1.143    5.714    1.714    0.000    2.286 
#    0.000    0.000    0.000    0.000    0.000    0.000 
#    0.000    0.000    0.000    0.000    0.000    0.000 
#
# Total GULP energy -347100.436618 kJ/mol
# GULP energy per Si atom -12396.444165 kJ/mol
# Density = 1.980108 g / cm^3
# Si number density = 19.846252 Si / 1000 Ang^3
#
#
#
# Elastic Constant Matrix: (Units=GPa)
#
#
# Indices 1 2 3 4 5 6 
#
# 1 96.2773 35.5974 38.0908 0.0000 0.4644 0.0000
# 2 35.5974 96.1722 28.2862 0.0000 14.5718 0.0000
# 3 38.0908 28.2862 94.3826 0.0000 4.1607 0.0000
# 4 0.0000 0.0000 0.0000 17.6253 0.0000 3.0293
# 5 0.4644 14.5718 4.1607 0.0000 36.7683 0.0000
# 6 0.0000 0.0000 0.0000 3.0293 0.0000 40.8862
#
#
#
# Elastic Compliance Matrix: (Units=1/GPa)
#
#
# Indices 1 2 3 4 5 6 
#
# 1 0.013597 -0.004042 -0.004361 0.000000 0.001923 0.000000
# 2 -0.004042 0.013273 -0.002128 0.000000 -0.004968 0.000000
# 3 -0.004361 -0.002128 0.013018 0.000000 -0.000575 0.000000
# 4 0.000000 0.000000 0.000000 0.057468 0.000000 -0.004258
# 5 0.001923 -0.004968 -0.000575 0.000000 0.029207 0.000000
# 6 0.000000 0.000000 0.000000 -0.004258 0.000000 0.024774
#
#
# Mechanical properties :
#
#
# Convention : Reuss Voigt Hill
#
# Bulk Modulus (GPa) = 53.11443 54.53122 53.82282
# Shear Modulus (GPa) = 27.98406 31.37982 29.68194
#
# Velocity S-wave (km/s) = 3.75913 3.98068 3.87149
# Velocity P-wave (km/s) = 6.75740 6.97597 6.86756
#
# Compressibility (1/GPa) = 0.01882728
#
# Stress axis : x y z
#
# Youngs Moduli (GPa) = 73.54506 75.34339 76.81574
#
# Poissons Ratio (x) = 0.30451 0.33500
# Poissons Ratio (y) = 0.29724 0.16343
# Poissons Ratio (z) = 0.32073 0.16030
#
# Static dielectric constant tensor:
#      x y z
#    x 3.859010 0.000000 0.081090 
#    y 0.000000 3.625090 0.000000 
#    z 0.081090 0.000000 3.643310 
# 
# 
# High freq. dielectric constant tensor:
#      x y z
#    x 1.785610 0.000000 0.005900 
#    y 0.000000 1.766010 0.000000 
#    z 0.005900 0.000000 1.759680 
# 
# From -- ./inp_files/54867.got.cif
#   From: 2010.03.12/outbox.cif.g09.slc.cpg/sg14_28_cif.got.tgz:54867.got - 2010.03.31 13:35:05.
