data_PCOD8127512
_publ_section_title
;
Structure prediction by ZEFSAII (Michael W. Deem and Ramdas Pophale) SiO2 
 PCOD8127512
Probable space group: P 21/C
;
_chemical_formula_sum "Si O2"
_cell_formula_units_Z 28
_cell_length_a 8.168833
_cell_length_b 15.415615
_cell_length_c 13.178721
_cell_angle_alpha 90.000000
_cell_angle_beta 38.659605
_cell_angle_gamma 90.000000
_cell_volume 1036.717129
_symmetry_space_group_name_H-M "P 21/C"
_symmetry_group_IT_number 14
_symmetry_cell_setting 'monoclinic'
loop_
_space_group_symop_operation_xyz
x,y,z
-x,1/2+y,1/2-z
-x,-y,-z
x,1/2-y,1/2+z
loop_
_atom_site_type_symbol
_atom_site_label
_atom_site_fract_x
_atom_site_fract_y
_atom_site_fract_z
Si Si1 0.655179 0.327900 0.841262
Si Si2 0.143752 0.491052 0.236284
Si Si3 0.143836 0.253024 0.056900
Si Si4 0.412541 0.495059 0.429167
Si Si5 0.929736 0.432843 0.121378
Si Si6 0.787590 0.679006 0.684767
Si Si7 0.630619 0.184085 0.114863
O O1 0.928640 0.282263 0.742461
O O2 0.653137 0.307216 0.723463
O O3 0.648787 0.429706 0.873588
O O4 0.389971 0.281324 0.009641
O O5 0.897361 0.527479 0.423191
O O6 0.051748 0.461132 0.170357
O O7 0.283160 0.415792 0.235337
O O8 0.040755 0.337431 0.043181
O O9 0.219142 0.180643 0.935945
O O10 0.500000 0.500000 0.500000
O O11 0.610301 0.426741 0.279370
O O12 0.475396 0.588346 0.352136
O O13 0.000000 0.500000 0.000000
O O14 0.086777 0.699899 0.575351
O O15 0.572912 0.746046 0.832260
#
# Coordination Sequence:
#
# PCOD8127512 Si02
#       7
#     4   4   4   4   4   4   4
#     4  10  22  43  68 103 138 185 241 292 363 419
#     4  10  23  44  73 103 140 191 242 298 350 443
#     4  10  23  42  66 102 142 185 240 290 359 434
#     4   9  20  40  69  97 132 185 240 285 359 426
#     4  11  23  45  69 104 143 182 237 298 370 424
#     4   9  19  40  65 100 138 182 237 286 354 417
#     4   9  18  38  64  99 134 179 234 287 350 425
#
# _framework density 27.008327999999999
#
# number of rings (size 3 to 8) (size 9 to 14) (size 15 to 20)
#    0.000    2.286    0.000    1.714    2.000    5.714 
#   23.143    1.429    0.000    0.000    0.000    0.000 
#    0.000    0.000    0.000    0.000    0.000    0.000 
#
# Total GULP energy -346989.099512 kJ/mol
# GULP energy per Si atom -12392.467840 kJ/mol
# Density = 2.694686 g / cm^3
# Si number density = 27.008328 Si / 1000 Ang^3
#
#
#
# Elastic Constant Matrix: (Units=GPa)
#
#
# Indices 1 2 3 4 5 6 
#
# 1 64.2021 41.4897 28.5042 0.0000 -8.6869 0.0000
# 2 41.4897 109.2046 26.3075 0.0000 -13.2162 0.0000
# 3 28.5042 26.3075 56.5411 0.0000 -33.9596 0.0000
# 4 0.0000 0.0000 0.0000 38.0121 0.0000 -20.8986
# 5 -8.6869 -13.2162 -33.9596 0.0000 48.2527 0.0000
# 6 0.0000 0.0000 0.0000 -20.8986 0.0000 40.9156
#
#
#
# Elastic Compliance Matrix: (Units=1/GPa)
#
#
# Indices 1 2 3 4 5 6 
#
# 1 0.025322 -0.007185 -0.013627 0.000000 -0.006999 0.000000
# 2 -0.007185 0.012377 -0.001520 0.000000 0.001027 0.000000
# 3 -0.013627 -0.001520 0.040776 0.000000 0.025828 0.000000
# 4 0.000000 0.000000 0.000000 0.036580 0.000000 0.018684
# 5 -0.006999 0.001027 0.025828 0.000000 0.037923 0.000000
# 6 0.000000 0.000000 0.000000 0.018684 0.000000 0.033984
#
#
# Mechanical properties :
#
#
# Convention : Reuss Voigt Hill
#
# Bulk Modulus (GPa) = 29.57531 46.95007 38.26269
# Shear Modulus (GPa) = 20.58504 34.34581 27.46542
#
# Velocity S-wave (km/s) = 2.76374 3.56992 3.19238
# Velocity P-wave (km/s) = 4.59985 5.86632 5.27126
#
# Compressibility (1/GPa) = 0.03381199
#
# Stress axis : x y z
#
# Youngs Moduli (GPa) = 39.49177 80.79306 24.52428
#
# Poissons Ratio (x) = 0.58049 0.33418
# Poissons Ratio (y) = 0.28374 0.03728
# Poissons Ratio (z) = 0.53814 0.12282
#
# Static dielectric constant tensor:
#      x y z
#    x 4.915530 0.000000 -0.919170 
#    y 0.000000 4.723610 0.000000 
#    z -0.919170 0.000000 6.225640 
# 
# 
# High freq. dielectric constant tensor:
#      x y z
#    x 2.076160 0.000000 -0.016590 
#    y 0.000000 2.081280 0.000000 
#    z -0.016590 0.000000 2.102110 
# 
# From -- ./inp_files/34292.got.cif
#   From: 2010.03.12/outbox.cif.g09.slc.cpg/sg14_18_cif.got.tgz:34292.got - 2010.03.31 13:35:05.
