data_PCOD8127329
_publ_section_title
;
Structure prediction by ZEFSAII (Michael W. Deem and Ramdas Pophale) SiO2 
 PCOD8127329
Probable space group: P 21/C
;
_chemical_formula_sum "Si O2"
_cell_formula_units_Z 28
_cell_length_a 8.819576
_cell_length_b 18.783984
_cell_length_c 9.931480
_cell_angle_alpha 90.000000
_cell_angle_beta 48.370222
_cell_angle_gamma 90.000000
_cell_volume 1229.796459
_symmetry_space_group_name_H-M "P 21/C"
_symmetry_group_IT_number 14
_symmetry_cell_setting 'monoclinic'
loop_
_space_group_symop_operation_xyz
x,y,z
-x,1/2+y,1/2-z
-x,-y,-z
x,1/2-y,1/2+z
loop_
_atom_site_type_symbol
_atom_site_label
_atom_site_fract_x
_atom_site_fract_y
_atom_site_fract_z
Si Si1 0.410162 0.460642 0.183440
Si Si2 0.511034 0.704406 0.340240
Si Si3 0.933683 0.676998 0.997395
Si Si4 0.729090 0.222078 0.288131
Si Si5 0.390810 0.949586 0.958837
Si Si6 0.810330 0.102961 0.428650
Si Si7 0.934170 0.556156 0.796055
O O1 0.369740 0.514147 0.327235
O O2 0.580712 0.403016 0.125885
O O3 0.195522 0.426945 0.263161
O O4 0.500000 0.500000 0.000000
O O5 0.353778 0.718882 0.313562
O O6 0.445219 0.750729 0.507328
O O7 0.521491 0.621549 0.373327
O O8 0.740396 0.723350 0.160219
O O9 0.855005 0.608874 0.959150
O O10 0.075380 0.726772 0.821700
O O11 0.058568 0.651139 0.051690
O O12 0.797900 0.142823 0.292081
O O13 0.168642 0.927296 0.138020
O O14 0.500000 0.000000 0.000000
O O15 0.910278 0.025674 0.354735
#
# Coordination Sequence:
#
# PCOD8127329 Si02
#       7
#     4   4   4   4   4   4   4
#     4  10  22  41  69 102 142 189 230 303 371 429
#     4  12  27  48  73 103 149 190 246 304 368 446
#     4  12  25  47  75 104 146 197 245 305 372 436
#     4  12  27  49  70 106 148 196 246 297 374 459
#     4  12  24  44  73 112 143 188 257 310 373 446
#     4  11  23  46  70 108 142 188 243 304 368 437
#     4  11  22  43  74 107 147 188 249 308 372 429
#
# _framework density 22.767994999999999
#
# number of rings (size 3 to 8) (size 9 to 14) (size 15 to 20)
#    0.000    0.571    2.857    6.857    2.000    0.000 
#    5.143    0.000    0.000    0.000    0.000    0.000 
#    0.000    0.000    0.000    0.000    0.000    0.000 
#
# Total GULP energy -347304.241096 kJ/mol
# GULP energy per Si atom -12403.722896 kJ/mol
# Density = 2.271617 g / cm^3
# Si number density = 22.767995 Si / 1000 Ang^3
#
#
#
# Elastic Constant Matrix: (Units=GPa)
#
#
# Indices 1 2 3 4 5 6 
#
# 1 82.6125 12.1922 15.2181 0.0000 -6.4768 0.0000
# 2 12.1922 86.9167 27.4138 0.0000 -0.8542 0.0000
# 3 15.2181 27.4138 102.4804 0.0000 -10.2191 0.0000
# 4 0.0000 0.0000 0.0000 35.0406 0.0000 -1.2953
# 5 -6.4768 -0.8542 -10.2191 0.0000 46.6051 0.0000
# 6 0.0000 0.0000 0.0000 -1.2953 0.0000 32.2165
#
#
#
# Elastic Compliance Matrix: (Units=1/GPa)
#
#
# Indices 1 2 3 4 5 6 
#
# 1 0.012668 -0.001327 -0.001383 0.000000 0.001433 0.000000
# 2 -0.001327 0.012717 -0.003271 0.000000 -0.000669 0.000000
# 3 -0.001383 -0.003271 0.011055 0.000000 0.002172 0.000000
# 4 0.000000 0.000000 0.000000 0.028581 0.000000 0.001149
# 5 0.001433 -0.000669 0.002172 0.000000 0.022120 0.000000
# 6 0.000000 0.000000 0.000000 0.001149 0.000000 0.031086
#
#
# Mechanical properties :
#
#
# Convention : Reuss Voigt Hill
#
# Bulk Modulus (GPa) = 40.85524 42.40639 41.63081
# Shear Modulus (GPa) = 36.14079 37.25147 36.69613
#
# Velocity S-wave (km/s) = 3.98848 4.04930 4.01901
# Velocity P-wave (km/s) = 6.26049 6.36619 6.31356
#
# Compressibility (1/GPa) = 0.02447666
#
# Stress axis : x y z
#
# Youngs Moduli (GPa) = 78.94123 78.63744 90.45617
#
# Poissons Ratio (x) = 0.10432 0.12514
# Poissons Ratio (y) = 0.10472 0.29592
# Poissons Ratio (z) = 0.10921 0.25725
#
# Static dielectric constant tensor:
#      x y z
#    x 5.229350 0.000000 0.227640 
#    y 0.000000 4.148910 0.000000 
#    z 0.227640 0.000000 4.410940 
# 
# 
# High freq. dielectric constant tensor:
#      x y z
#    x 1.914080 0.000000 -0.003830 
#    y 0.000000 1.898130 0.000000 
#    z -0.003830 0.000000 1.897960 
# 
# From -- ./inp_files/10392.got.cif
#   From: 2010.03.12/outbox.cif.g09.slc.cpg/sg14_6_cif.got.tgz:10392.got - 2010.03.31 13:35:05.
