data_PCOD8127935
_publ_section_title
;
Structure prediction by ZEFSAII (Michael W. Deem and Ramdas Pophale) SiO2 
 PCOD8127935
Probable space group: P 21/C
;
_chemical_formula_sum "Si O2"
_cell_formula_units_Z 32
_cell_length_a 12.050924
_cell_length_b 11.512230
_cell_length_c 12.374291
_cell_angle_alpha 90.000000
_cell_angle_beta 113.581835
_cell_angle_gamma 90.000000
_cell_volume 1573.358446
_symmetry_space_group_name_H-M "P 21/C"
_symmetry_group_IT_number 14
_symmetry_cell_setting 'monoclinic'
loop_
_space_group_symop_operation_xyz
x,y,z
-x,1/2+y,1/2-z
-x,-y,-z
x,1/2-y,1/2+z
loop_
_atom_site_type_symbol
_atom_site_label
_atom_site_fract_x
_atom_site_fract_y
_atom_site_fract_z
Si Si1 0.533985 0.782418 0.631399
Si Si2 0.286806 0.338988 0.982444
Si Si3 0.951526 0.949879 0.655247
Si Si4 0.018489 0.402576 0.595927
Si Si5 0.085622 0.658831 0.012047
Si Si6 0.721246 0.863026 0.873801
Si Si7 0.654896 0.444961 0.858971
Si Si8 0.523898 0.477895 0.385832
O O1 0.598944 0.799005 0.542682
O O2 0.626144 0.795087 0.764688
O O3 0.430311 0.879358 0.589441
O O4 0.472064 0.659334 0.627910
O O5 0.184341 0.404751 0.873597
O O6 0.234888 0.220707 0.012790
O O7 0.325106 0.424915 0.093070
O O8 0.019850 0.946063 0.797983
O O9 0.006970 0.863278 0.588171
O O10 0.954290 0.079221 0.605767
O O11 0.162326 0.385130 0.654096
O O12 0.000000 0.500000 0.500000
O O13 0.936807 0.290764 0.534383
O O14 0.222340 0.630084 0.101884
O O15 0.655732 0.977320 0.897131
O O16 0.586680 0.456530 0.717865
O O17 0.500000 0.500000 0.500000
#
# Coordination Sequence:
#
# PCOD8127935 Si02
#       8
#     4   4   4   4   4   4   4   4
#     4  11  22  40  64  91 132 169 213 268 324 399
#     4  11  19  41  67  90 126 177 214 264 328 404
#     4  10  23  43  69  96 130 179 228 277 340 404
#     4  12  27  43  68 103 134 176 229 286 341 402
#     4  10  24  46  68  95 137 178 225 278 345 408
#     4  11  23  40  64  95 131 165 219 277 324 403
#     4  10  24  41  61  97 131 173 219 265 335 395
#     4  11  23  39  63  97 129 170 218 273 332 385
#
# _framework density 20.338657000000001
#
# number of rings (size 3 to 8) (size 9 to 14) (size 15 to 20)
#    0.000    1.250    5.000    0.375    3.500    1.000 
#    0.000    0.000    0.000    0.000    0.000    0.000 
#    0.000    0.000    0.000    0.000    0.000    0.000 
#
# Total GULP energy -396688.462678 kJ/mol
# GULP energy per Si atom -12396.514459 kJ/mol
# Density = 2.029237 g / cm^3
# Si number density = 20.338657 Si / 1000 Ang^3
#
#
#
# Elastic Constant Matrix: (Units=GPa)
#
#
# Indices 1 2 3 4 5 6 
#
# 1 82.2951 36.9657 27.0955 0.0000 -6.7977 0.0000
# 2 36.9657 122.2336 48.6826 0.0000 -2.9298 0.0000
# 3 27.0955 48.6826 112.6881 0.0000 -15.0017 0.0000
# 4 0.0000 0.0000 0.0000 2.9611 0.0000 -22.4392
# 5 -6.7977 -2.9298 -15.0017 0.0000 28.2532 0.0000
# 6 0.0000 0.0000 0.0000 -22.4392 0.0000 15.5669
#
#
#
# Elastic Compliance Matrix: (Units=1/GPa)
#
#
# Indices 1 2 3 4 5 6 
#
# 1 0.014527 -0.003705 -0.001590 0.000000 0.002266 0.000000
# 2 -0.003705 0.010873 -0.004062 0.000000 -0.001921 0.000000
# 3 -0.001590 -0.004062 0.011734 0.000000 0.005426 0.000000
# 4 0.000000 0.000000 0.000000 -0.034032 0.000000 -0.049056
# 5 0.002266 -0.001921 0.005426 0.000000 0.038622 0.000000
# 6 0.000000 0.000000 0.000000 -0.049056 0.000000 -0.006474
#
#
# Mechanical properties :
#
#
# Convention : Reuss Voigt Hill
#
# Bulk Modulus (GPa) = 54.29512 60.30049 57.29781
# Shear Modulus (GPa) = 83.18742 22.98780 53.08761
#
# Velocity S-wave (km/s) = 6.40234 3.36557 5.11454
# Velocity P-wave (km/s) = 9.02257 6.69442 7.94424
#
# Compressibility (1/GPa) = 0.01841786
#
# Stress axis : x y z
#
# Youngs Moduli (GPa) = 68.83907 91.96685 85.22389
#
# Poissons Ratio (x) = 0.34077 0.13554
# Poissons Ratio (y) = 0.25508 0.34620
# Poissons Ratio (z) = 0.10948 0.37359
#
# Static dielectric constant tensor:
#      x y z
#    x 2.748050 0.000000 -0.114960 
#    y 0.000000 3.660950 0.000000 
#    z -0.114960 0.000000 3.615230 
# 
# 
# High freq. dielectric constant tensor:
#      x y z
#    x 1.796250 0.000000 -0.004340 
#    y 0.000000 1.798740 0.000000 
#    z -0.004340 0.000000 1.796680 
# 
# From -- ./inp_files/29411.got.cif
#   From: 2010.03.12/outbox.cif.g09.slc.cpg/sg14_15_cif.got.tgz:29411.got - 2010.03.31 13:35:05.
