data_PCOD8127099
_publ_section_title
;
Structure prediction by ZEFSAII (Michael W. Deem and Ramdas Pophale) SiO2 
 PCOD8127099
Probable space group: P 21/C
;
_chemical_formula_sum "Si O2"
_cell_formula_units_Z 24
_cell_length_a 18.901591
_cell_length_b 10.413594
_cell_length_c 13.247347
_cell_angle_alpha 90.000000
_cell_angle_beta 28.123703
_cell_angle_gamma 90.000000
_cell_volume 1229.125119
_symmetry_space_group_name_H-M "P 21/C"
_symmetry_group_IT_number 14
_symmetry_cell_setting 'monoclinic'
loop_
_space_group_symop_operation_xyz
x,y,z
-x,1/2+y,1/2-z
-x,-y,-z
x,1/2-y,1/2+z
loop_
_atom_site_type_symbol
_atom_site_label
_atom_site_fract_x
_atom_site_fract_y
_atom_site_fract_z
Si Si1 0.720220 0.750712 0.605755
Si Si2 0.200280 0.043083 0.654212
Si Si3 0.484137 0.068446 0.746107
Si Si4 0.555023 0.871696 0.982172
Si Si5 0.870387 0.541605 0.533124
Si Si6 0.399012 0.604084 0.188414
O O1 0.780277 0.832522 0.438091
O O2 0.562750 0.683828 0.770544
O O3 0.842622 0.643869 0.479450
O O4 0.698695 0.832847 0.734802
O O5 0.191905 0.090792 0.780268
O O6 0.335318 0.940734 0.468513
O O7 0.047121 0.976293 0.813976
O O8 0.404430 0.094389 0.953700
O O9 0.424587 0.933046 0.774551
O O10 0.438211 0.752896 0.124193
O O11 0.500000 0.000000 0.000000
O O12 0.775341 0.413159 0.624826
O O13 0.500000 0.500000 0.000000
#
# Coordination Sequence:
#
# PCOD8127099 Si02
#       6
#     4   4   4   4   4   4
#     4  11  21  40  61  88 126 159 205 260 306 364
#     4  11  21  38  60  91 119 161 204 253 308 373
#     4  11  21  37  65  91 120 161 208 252 312 365
#     4  12  23  35  63  96 121 154 215 268 300 360
#     4  10  22  39  63  86 121 167 202 247 314 380
#     4  11  20  40  64  87 122 164 210 250 312 371
#
# _framework density 19.526083
#
# number of rings (size 3 to 8) (size 9 to 14) (size 15 to 20)
#    0.000    1.000    6.667    2.000    0.000    1.333 
#    0.000    0.000    3.667    5.000    0.000    0.000 
#    0.000    0.000    0.000    0.000    0.000    0.000 
#
# Total GULP energy -297427.642959 kJ/mol
# GULP energy per Si atom -12392.818457 kJ/mol
# Density = 1.948164 g / cm^3
# Si number density = 19.526083 Si / 1000 Ang^3
#
#
#
# Elastic Constant Matrix: (Units=GPa)
#
#
# Indices 1 2 3 4 5 6 
#
# 1 125.3278 54.1517 52.6160 0.0000 3.1655 0.0000
# 2 54.1517 118.7825 39.6383 0.0000 18.6832 0.0000
# 3 52.6160 39.6383 76.1080 0.0000 1.8854 0.0000
# 4 0.0000 0.0000 0.0000 25.0710 0.0000 11.8767
# 5 3.1655 18.6832 1.8854 0.0000 22.9851 0.0000
# 6 0.0000 0.0000 0.0000 11.8767 0.0000 27.1375
#
#
#
# Elastic Compliance Matrix: (Units=1/GPa)
#
#
# Indices 1 2 3 4 5 6 
#
# 1 0.012313 -0.003689 -0.006637 0.000000 0.001847 0.000000
# 2 -0.003689 0.012943 -0.003950 0.000000 -0.009688 0.000000
# 3 -0.006637 -0.003950 0.019723 0.000000 0.002507 0.000000
# 4 0.000000 0.000000 0.000000 0.050319 0.000000 -0.022022
# 5 0.001847 -0.009688 0.002507 0.000000 0.050921 0.000000
# 6 0.000000 0.000000 0.000000 -0.022022 0.000000 0.046487
#
#
# Mechanical properties :
#
#
# Convention : Reuss Voigt Hill
#
# Bulk Modulus (GPa) = 60.87956 68.11448 64.49702
# Shear Modulus (GPa) = 22.05237 26.62621 24.33929
#
# Velocity S-wave (km/s) = 3.36427 3.69673 3.53441
# Velocity P-wave (km/s) = 6.80716 7.29251 7.05401
#
# Compressibility (1/GPa) = 0.01642588
#
# Stress axis : x y z
#
# Youngs Moduli (GPa) = 81.21756 77.26378 50.70336
#
# Poissons Ratio (x) = 0.28504 0.33649
# Poissons Ratio (y) = 0.29962 0.20030
# Poissons Ratio (z) = 0.53900 0.30522
#
# Static dielectric constant tensor:
#      x y z
#    x 3.985130 0.000000 0.298940 
#    y 0.000000 3.737510 0.000000 
#    z 0.298940 0.000000 3.780280 
# 
# 
# High freq. dielectric constant tensor:
#      x y z
#    x 1.779130 0.000000 0.019370 
#    y 0.000000 1.752110 0.000000 
#    z 0.019370 0.000000 1.738310 
# 
# From -- ./inp_files/33857.got.cif
#   From: 2010.03.12/outbox.cif.g09.slc.cpg/sg14_17_cif.got.tgz:33857.got - 2010.03.31 13:35:05.
