data_PCOD8127917
_publ_section_title
;
Structure prediction by ZEFSAII (Michael W. Deem and Ramdas Pophale) SiO2 
 PCOD8127917
Probable space group: P 21/C
;
_chemical_formula_sum "Si O2"
_cell_formula_units_Z 24
_cell_length_a 7.144602
_cell_length_b 18.889715
_cell_length_c 9.224436
_cell_angle_alpha 90.000000
_cell_angle_beta 60.523590
_cell_angle_gamma 90.000000
_cell_volume 1083.780072
_symmetry_space_group_name_H-M "P 21/C"
_symmetry_group_IT_number 14
_symmetry_cell_setting 'monoclinic'
loop_
_space_group_symop_operation_xyz
x,y,z
-x,1/2+y,1/2-z
-x,-y,-z
x,1/2-y,1/2+z
loop_
_atom_site_type_symbol
_atom_site_label
_atom_site_fract_x
_atom_site_fract_y
_atom_site_fract_z
Si Si1 0.607472 0.949901 0.072744
Si Si2 0.083074 0.078525 0.498409
Si Si3 0.995912 0.109966 0.220925
Si Si4 0.559911 0.067740 0.309757
Si Si5 0.756862 0.303240 0.603157
Si Si6 0.732566 0.168027 0.787951
O O1 0.489047 0.874737 0.120482
O O2 0.587535 0.989627 0.232865
O O3 0.854648 0.941969 0.930377
O O4 0.500000 0.000000 0.000000
O O5 0.094958 0.123262 0.342270
O O6 0.324951 0.074977 0.472112
O O7 0.930737 0.117754 0.669341
O O8 0.000000 0.000000 0.500000
O O9 0.759986 0.074946 0.344907
O O10 0.963829 0.178561 0.128124
O O11 0.584189 0.132593 0.184703
O O12 0.677058 0.227477 0.689860
O O13 0.802351 0.296897 0.414547
#
# Coordination Sequence:
#
# PCOD8127917 Si02
#       6
#     4   4   4   4   4   4
#     4  12  19  42  75 102 135 183 229 296 342 408
#     4  12  23  41  68 102 142 173 229 294 342 408
#     4  10  23  43  67 100 137 178 233 278 351 413
#     4  10  23  43  68 104 135 182 235 283 348 412
#     4  10  25  45  66 101 137 186 234 280 352 435
#     4  12  24  44  71 101 143 183 234 289 359 410
#
# _framework density 22.144714
#
# number of rings (size 3 to 8) (size 9 to 14) (size 15 to 20)
#    1.000    0.000    5.000    1.500    0.000    2.000 
#    3.000    3.333    0.000    0.000    0.000    0.000 
#    0.000    0.000    0.000    0.000    0.000    0.000 
#
# Total GULP energy -297353.650338 kJ/mol
# GULP energy per Si atom -12389.735431 kJ/mol
# Density = 2.209431 g / cm^3
# Si number density = 22.144714 Si / 1000 Ang^3
#
#
#
# Elastic Constant Matrix: (Units=GPa)
#
#
# Indices 1 2 3 4 5 6 
#
# 1 97.2344 26.0502 34.8589 0.0000 -28.2983 0.0000
# 2 26.0502 114.6887 43.5495 0.0000 2.9855 0.0000
# 3 34.8589 43.5495 99.8172 0.0000 -3.5207 0.0000
# 4 0.0000 0.0000 0.0000 48.1145 0.0000 -0.6650
# 5 -28.2983 2.9855 -3.5207 0.0000 43.1267 0.0000
# 6 0.0000 0.0000 0.0000 -0.6650 0.0000 27.9114
#
#
#
# Elastic Compliance Matrix: (Units=1/GPa)
#
#
# Indices 1 2 3 4 5 6 
#
# 1 0.015139 -0.002176 -0.003993 0.000000 0.009758 0.000000
# 2 -0.002176 0.010816 -0.004047 0.000000 -0.002507 0.000000
# 3 -0.003993 -0.004047 0.013134 0.000000 -0.001268 0.000000
# 4 0.000000 0.000000 0.000000 0.020791 0.000000 0.000495
# 5 0.009758 -0.002507 -0.001268 0.000000 0.029661 0.000000
# 6 0.000000 0.000000 0.000000 0.000495 0.000000 0.035839
#
#
# Mechanical properties :
#
#
# Convention : Reuss Voigt Hill
#
# Bulk Modulus (GPa) = 53.60477 57.85082 55.72780
# Shear Modulus (GPa) = 32.88795 37.64932 35.26864
#
# Velocity S-wave (km/s) = 3.85793 4.12776 3.99512
# Velocity P-wave (km/s) = 6.64108 6.99275 6.81918
#
# Compressibility (1/GPa) = 0.01865505
#
# Stress axis : x y z
#
# Youngs Moduli (GPa) = 66.05401 92.45871 76.13881
#
# Poissons Ratio (x) = 0.20122 0.30404
# Poissons Ratio (y) = 0.14376 0.30815
# Poissons Ratio (z) = 0.26377 0.37420
#
# Static dielectric constant tensor:
#      x y z
#    x 4.612110 0.000000 0.130760 
#    y 0.000000 5.956880 0.000000 
#    z 0.130760 0.000000 3.729830 
# 
# 
# High freq. dielectric constant tensor:
#      x y z
#    x 1.866290 0.000000 -0.001640 
#    y 0.000000 1.865550 0.000000 
#    z -0.001640 0.000000 1.866590 
# 
# From -- ./inp_files/10138.got.cif
#   From: 2010.03.12/outbox.cif.g09.slc.cpg/sg14_6_cif.got.tgz:10138.got - 2010.03.31 13:35:05.
