data_PCOD8127519
_publ_section_title
;
Structure prediction by ZEFSAII (Michael W. Deem and Ramdas Pophale) SiO2 
 PCOD8127519
Probable space group: P 21/C
;
_chemical_formula_sum "Si O2"
_cell_formula_units_Z 28
_cell_length_a 27.055884
_cell_length_b 5.479589
_cell_length_c 9.060233
_cell_angle_alpha 90.000000
_cell_angle_beta 57.893340
_cell_angle_gamma 90.000000
_cell_volume 1137.793187
_symmetry_space_group_name_H-M "P 21/C"
_symmetry_group_IT_number 14
_symmetry_cell_setting 'monoclinic'
loop_
_space_group_symop_operation_xyz
x,y,z
-x,1/2+y,1/2-z
-x,-y,-z
x,1/2-y,1/2+z
loop_
_atom_site_type_symbol
_atom_site_label
_atom_site_fract_x
_atom_site_fract_y
_atom_site_fract_z
Si Si1 0.716439 0.553710 0.129423
Si Si2 0.885951 0.708584 0.191117
Si Si3 0.300613 0.827065 0.638230
Si Si4 0.808524 0.906361 0.061193
Si Si5 0.388154 0.347027 0.151678
Si Si6 0.036277 0.422671 0.190267
Si Si7 0.535787 0.592167 0.697116
O O1 0.695633 0.454796 0.322895
O O2 0.781590 0.652336 0.043059
O O3 0.667195 0.750462 0.166532
O O4 0.714492 0.344375 0.008935
O O5 0.842764 0.867886 0.158679
O O6 0.851923 0.520706 0.356908
O O7 0.922161 0.899717 0.233509
O O8 0.927232 0.547698 0.019571
O O9 0.245564 0.916874 0.824791
O O10 0.362355 0.953861 0.578200
O O11 0.430966 0.469095 0.202733
O O12 0.421103 0.134732 0.008726
O O13 0.999790 0.669593 0.266115
O O14 0.498905 0.348169 0.723093
#
# Coordination Sequence:
#
# PCOD8127519 Si02
#       7
#     4   4   4   4   4   4   4
#     4  11  25  42  70  99 140 184 233 290 347 444
#     4  10  22  43  68  96 140 183 228 302 352 416
#     4  11  25  42  70  99 140 184 233 290 347 444
#     4  10  22  46  60 102 142 172 236 284 360 418
#     4  11  26  45  70  98 140 187 234 287 360 424
#     4  11  24  47  70 102 138 187 246 293 350 416
#     4  12  28  47  72 104 142 183 238 300 352 418
#
# _framework density 24.609041999999999
#
# number of rings (size 3 to 8) (size 9 to 14) (size 15 to 20)
#    0.000    1.143    2.857    1.714    8.000    0.000 
#   15.429    0.000    0.000    0.000    0.000    0.000 
#    0.000    0.000    0.000    0.000    0.000    0.000 
#
# Total GULP energy -346985.938348 kJ/mol
# GULP energy per Si atom -12392.354941 kJ/mol
# Density = 2.455303 g / cm^3
# Si number density = 24.609042 Si / 1000 Ang^3
#
#
#
# Elastic Constant Matrix: (Units=GPa)
#
#
# Indices 1 2 3 4 5 6 
#
# 1 153.7908 28.7085 39.5485 0.0000 11.2917 0.0000
# 2 28.7085 62.2240 -2.4135 0.0000 -7.0183 0.0000
# 3 39.5485 -2.4135 108.3398 0.0000 5.2542 0.0000
# 4 0.0000 0.0000 0.0000 27.3149 0.0000 4.5522
# 5 11.2917 -7.0183 5.2542 0.0000 44.0243 0.0000
# 6 0.0000 0.0000 0.0000 4.5522 0.0000 16.0266
#
#
#
# Elastic Compliance Matrix: (Units=1/GPa)
#
#
# Indices 1 2 3 4 5 6 
#
# 1 0.008227 -0.004185 -0.002979 0.000000 -0.002422 0.000000
# 2 -0.004185 0.018500 0.001755 0.000000 0.003813 0.000000
# 3 -0.002979 0.001755 0.010366 0.000000 -0.000193 0.000000
# 4 0.000000 0.000000 0.000000 0.038429 0.000000 -0.010915
# 5 -0.002422 0.003813 -0.000193 0.000000 0.023967 0.000000
# 6 0.000000 0.000000 0.000000 -0.010915 0.000000 0.065497
#
#
# Mechanical properties :
#
#
# Convention : Reuss Voigt Hill
#
# Bulk Modulus (GPa) = 38.05835 50.67128 44.36482
# Shear Modulus (GPa) = 27.09109 34.70723 30.89916
#
# Velocity S-wave (km/s) = 3.32152 3.75953 3.54729
# Velocity P-wave (km/s) = 5.49625 6.28336 5.90294
#
# Compressibility (1/GPa) = 0.02627544
#
# Stress axis : x y z
#
# Youngs Moduli (GPa) = 121.54498 54.05464 96.46752
#
# Poissons Ratio (x) = 0.22620 0.28739
# Poissons Ratio (y) = 0.50862 -0.16928
# Poissons Ratio (z) = 0.36210 -0.09485
#
# Static dielectric constant tensor:
#      x y z
#    x 4.658270 0.000000 -0.099860 
#    y 0.000000 3.992040 0.000000 
#    z -0.099860 0.000000 4.579140 
# 
# 
# High freq. dielectric constant tensor:
#      x y z
#    x 2.001800 0.000000 0.001080 
#    y 0.000000 1.946550 0.000000 
#    z 0.001080 0.000000 1.995030 
# 
# From -- ./inp_files/19875.got.cif
#   From: 2010.03.12/outbox.cif.g09.slc.cpg/sg14_10_cif.got.tgz:19875.got - 2010.03.31 13:35:05.
