data_PCOD8127103
_publ_section_title
;
Structure prediction by ZEFSAII (Michael W. Deem and Ramdas Pophale) SiO2 
 PCOD8127103
Probable space group: P 21/C
;
_chemical_formula_sum "Si O2"
_cell_formula_units_Z 32
_cell_length_a 16.492071
_cell_length_b 12.146551
_cell_length_c 21.745082
_cell_angle_alpha 90.000000
_cell_angle_beta 20.500770
_cell_angle_gamma 90.000000
_cell_volume 1525.562937
_symmetry_space_group_name_H-M "P 21/C"
_symmetry_group_IT_number 14
_symmetry_cell_setting 'monoclinic'
loop_
_space_group_symop_operation_xyz
x,y,z
-x,1/2+y,1/2-z
-x,-y,-z
x,1/2-y,1/2+z
loop_
_atom_site_type_symbol
_atom_site_label
_atom_site_fract_x
_atom_site_fract_y
_atom_site_fract_z
Si Si1 0.077016 0.819817 0.406080
Si Si2 0.090195 0.200781 0.265632
Si Si3 0.987138 0.049073 0.663852
Si Si4 0.607642 0.693372 0.748103
Si Si5 0.231370 0.746255 0.609288
Si Si6 0.505105 0.051734 0.347443
Si Si7 0.286849 0.745658 0.872003
Si Si8 0.563834 0.180182 0.421503
O O1 0.187465 0.847019 0.394712
O O2 0.285936 0.762164 0.224325
O O3 0.997879 0.921341 0.419756
O O4 0.864771 0.738115 0.568706
O O5 0.002819 0.213473 0.257386
O O6 0.910329 0.264187 0.437140
O O7 0.331077 0.258196 0.105507
O O8 0.117501 0.072103 0.259930
O O9 0.242223 0.051898 0.511171
O O10 0.817355 0.129909 0.822532
O O11 0.618895 0.566429 0.758516
O O12 0.516117 0.700403 0.742782
O O13 0.441713 0.764174 0.911151
O O14 0.299714 0.840576 0.611212
O O15 0.656846 0.139934 0.202037
O O16 0.512137 0.073654 0.416361
#
# Coordination Sequence:
#
# PCOD8127103 Si02
#       8
#     4   4   4   4   4   4   4   4
#     4  10  23  40  65  91 123 161 205 251 300 365
#     4  11  22  42  62  90 127 157 204 250 305 361
#     4  11  21  41  64  86 124 164 197 252 308 354
#     4  11  22  42  62  90 127 157 204 250 305 361
#     4  10  22  39  63  93 118 162 202 250 302 359
#     4  11  21  41  64  86 124 164 197 252 308 354
#     4  10  22  39  63  93 118 162 202 250 302 359
#     4  10  23  40  65  91 123 161 205 251 300 365
#
# _framework density 20.975864000000001
#
# number of rings (size 3 to 8) (size 9 to 14) (size 15 to 20)
#    0.000    1.500    5.000    0.750    0.000    5.000 
#    0.000   15.000    0.000    0.000    0.000    0.000 
#    0.000    0.000    0.000    0.000    0.000    0.000 
#
# Total GULP energy -396615.121386 kJ/mol
# GULP energy per Si atom -12394.222543 kJ/mol
# Density = 2.092812 g / cm^3
# Si number density = 20.975864 Si / 1000 Ang^3
#
#
#
# Elastic Constant Matrix: (Units=GPa)
#
#
# Indices 1 2 3 4 5 6 
#
# 1 121.4918 5.2865 -7.2600 0.0000 2.0633 0.0000
# 2 5.2865 94.9309 8.0048 0.0000 16.3174 0.0000
# 3 -7.2600 8.0048 35.0778 0.0000 9.3588 0.0000
# 4 0.0000 0.0000 0.0000 18.9098 0.0000 5.9221
# 5 2.0633 16.3174 9.3588 0.0000 24.7044 0.0000
# 6 0.0000 0.0000 0.0000 5.9221 0.0000 4.4274
#
#
#
# Elastic Compliance Matrix: (Units=1/GPa)
#
#
# Indices 1 2 3 4 5 6 
#
# 1 0.008401 -0.000439 0.002168 0.000000 -0.001233 0.000000
# 2 -0.000439 0.011921 -0.000801 0.000000 -0.007534 0.000000
# 3 0.002168 -0.000801 0.032313 0.000000 -0.011893 0.000000
# 4 0.000000 0.000000 0.000000 0.091006 0.000000 -0.121730
# 5 -0.001233 -0.007534 -0.011893 0.000000 0.050063 0.000000
# 6 0.000000 0.000000 0.000000 -0.121730 0.000000 0.388692
#
#
# Mechanical properties :
#
#
# Convention : Reuss Voigt Hill
#
# Bulk Modulus (GPa) = 18.35202 29.28479 23.81841
# Shear Modulus (GPa) = 8.35139 25.97292 17.16216
#
# Velocity S-wave (km/s) = 1.99752 3.52267 2.86350
# Velocity P-wave (km/s) = 3.75343 5.52603 4.72362
#
# Compressibility (1/GPa) = 0.05448991
#
# Stress axis : x y z
#
# Youngs Moduli (GPa) = 119.03949 83.88619 30.94772
#
# Poissons Ratio (x) = 0.03680 -0.06709
# Poissons Ratio (y) = 0.05222 0.02479
# Poissons Ratio (z) = -0.25805 0.06721
#
# Static dielectric constant tensor:
#      x y z
#    x 4.832610 0.000000 0.037410 
#    y 0.000000 3.567780 0.000000 
#    z 0.037410 0.000000 3.768010 
# 
# 
# High freq. dielectric constant tensor:
#      x y z
#    x 1.852610 0.000000 -0.003560 
#    y 0.000000 1.793540 0.000000 
#    z -0.003560 0.000000 1.825640 
# 
# From -- ./inp_files/74400.got.cif
#   From: 2010.03.12/outbox.cif.g09.slc.cpg/sg14_38_cif.got.tgz:74400.got - 2010.03.31 13:35:05.
