data_PCOD8127318
_publ_section_title
;
Structure prediction by ZEFSAII (Michael W. Deem and Ramdas Pophale) SiO2 
 PCOD8127318
Probable space group: P 21/C
;
_chemical_formula_sum "Si O2"
_cell_formula_units_Z 16
_cell_length_a 16.231821
_cell_length_b 7.174246
_cell_length_c 15.559159
_cell_angle_alpha 90.000000
_cell_angle_beta 16.823387
_cell_angle_gamma 90.000000
_cell_volume 524.399134
_symmetry_space_group_name_H-M "P 21/C"
_symmetry_group_IT_number 14
_symmetry_cell_setting 'monoclinic'
loop_
_space_group_symop_operation_xyz
x,y,z
-x,1/2+y,1/2-z
-x,-y,-z
x,1/2-y,1/2+z
loop_
_atom_site_type_symbol
_atom_site_label
_atom_site_fract_x
_atom_site_fract_y
_atom_site_fract_z
Si Si1 0.665261 0.799002 0.808402
Si Si2 0.904680 0.983386 0.728392
Si Si3 0.235596 0.971670 0.676686
Si Si4 0.766212 0.109404 0.046852
O O1 0.349838 0.734831 0.090001
O O2 0.666123 0.939779 0.890630
O O3 0.854469 0.876523 0.543471
O O4 0.816584 0.602562 0.686686
O O5 0.073470 0.799690 0.589263
O O6 0.732002 0.077528 0.979029
O O7 0.959595 0.942539 0.892942
O O8 0.457918 0.094618 0.397400
#
# Coordination Sequence:
#
# PCOD8127318 Si02
#       4
#     4   4   4   4
#     4   9  21  43  70  99 134 180 235 286 345 414
#     4  10  22  41  68 101 138 183 232 287 348 415
#     4  10  23  44  68  97 136 182 232 289 347 411
#     4  11  24  42  66  99 140 182 229 286 350 415
#
# _framework density 30.511111
#
# number of rings (size 3 to 8) (size 9 to 14) (size 15 to 20)
#    0.000    2.000    0.000    1.500    0.000   16.000 
#    0.000   10.000    0.000    0.000    0.000    0.000 
#    0.000    0.000    0.000    0.000    0.000    0.000 
#
# Total GULP energy -198508.757922 kJ/mol
# GULP energy per Si atom -12406.797370 kJ/mol
# Density = 3.044167 g / cm^3
# Si number density = 30.511111 Si / 1000 Ang^3
#
#
#
# Elastic Constant Matrix: (Units=GPa)
#
#
# Indices 1 2 3 4 5 6 
#
# 1 190.2621 56.1637 39.3446 0.0000 8.9055 0.0000
# 2 56.1637 153.3726 46.9072 0.0000 26.0451 0.0000
# 3 39.3446 46.9072 59.5104 0.0000 -13.7653 0.0000
# 4 0.0000 0.0000 0.0000 54.9450 0.0000 14.6134
# 5 8.9055 26.0451 -13.7653 0.0000 44.2488 0.0000
# 6 0.0000 0.0000 0.0000 14.6134 0.0000 38.8403
#
#
#
# Elastic Compliance Matrix: (Units=1/GPa)
#
#
# Indices 1 2 3 4 5 6 
#
# 1 0.006436 -0.000694 -0.004217 0.000000 -0.002199 0.000000
# 2 -0.000694 0.012087 -0.011510 0.000000 -0.010555 0.000000
# 3 -0.004217 -0.011510 0.032786 0.000000 0.017823 0.000000
# 4 0.000000 0.000000 0.000000 0.020224 0.000000 -0.007609
# 5 -0.002199 -0.010555 0.017823 0.000000 0.034799 0.000000
# 6 0.000000 0.000000 0.000000 -0.007609 0.000000 0.028609
#
#
# Mechanical properties :
#
#
# Convention : Reuss Voigt Hill
#
# Bulk Modulus (GPa) = 54.14650 76.44177 65.29414
# Shear Modulus (GPa) = 28.74594 44.98880 36.86737
#
# Velocity S-wave (km/s) = 3.07277 3.84409 3.47987
# Velocity P-wave (km/s) = 5.51128 6.69409 6.13128
#
# Compressibility (1/GPa) = 0.01846841
#
# Stress axis : x y z
#
# Youngs Moduli (GPa) = 155.38713 82.73548 30.50040
#
# Poissons Ratio (x) = 0.05739 0.12861
# Poissons Ratio (y) = 0.10779 0.35106
# Poissons Ratio (z) = 0.65520 0.95228
#
# Static dielectric constant tensor:
#      x y z
#    x 6.187370 0.000000 -0.191020 
#    y 0.000000 6.286390 0.000000 
#    z -0.191020 0.000000 5.578820 
# 
# 
# High freq. dielectric constant tensor:
#      x y z
#    x 2.256650 0.000000 0.001790 
#    y 0.000000 2.301580 0.000000 
#    z 0.001790 0.000000 2.261780 
# 
# From -- ./inp_files/46232.got.cif
#   From: 2010.03.12/outbox.cif.g09.slc.cpg/sg14_24_cif.got.tgz:46232.got - 2010.03.31 13:35:05.
