data_PCOD8127284
_publ_section_title
;
Structure prediction by ZEFSAII (Michael W. Deem and Ramdas Pophale) SiO2 
 PCOD8127284
Probable space group: P 21/C
;
_chemical_formula_sum "Si O2"
_cell_formula_units_Z 32
_cell_length_a 8.130750
_cell_length_b 22.309571
_cell_length_c 9.139162
_cell_angle_alpha 90.000000
_cell_angle_beta 114.023367
_cell_angle_gamma 90.000000
_cell_volume 1514.186827
_symmetry_space_group_name_H-M "P 21/C"
_symmetry_group_IT_number 14
_symmetry_cell_setting 'monoclinic'
loop_
_space_group_symop_operation_xyz
x,y,z
-x,1/2+y,1/2-z
-x,-y,-z
x,1/2-y,1/2+z
loop_
_atom_site_type_symbol
_atom_site_label
_atom_site_fract_x
_atom_site_fract_y
_atom_site_fract_z
Si Si1 0.578741 0.355945 0.222937
Si Si2 0.849789 0.778081 0.946215
Si Si3 0.553834 0.216263 0.181575
Si Si4 0.292078 0.630894 0.030303
Si Si5 0.352371 0.079874 0.875150
Si Si6 0.075348 0.322836 0.232820
Si Si7 0.692561 0.056031 0.190899
Si Si8 0.169574 0.844268 0.934682
O O1 0.532913 0.286693 0.187021
O O2 0.585186 0.385004 0.064271
O O3 0.432896 0.395249 0.253934
O O4 0.767628 0.360049 0.378244
O O5 0.652848 0.807380 0.904015
O O6 0.827983 0.711918 0.866868
O O7 0.973079 0.814419 0.873332
O O8 0.954020 0.776482 0.141126
O O9 0.640308 0.189326 0.358927
O O10 0.675576 0.197844 0.085229
O O11 0.100997 0.648109 0.895911
O O12 0.293075 0.572133 0.132718
O O13 0.187838 0.123575 0.849755
O O14 0.274547 0.013612 0.820775
O O15 0.498464 0.078549 0.058875
O O16 0.847222 0.093923 0.163045
#
# Coordination Sequence:
#
# PCOD8127284 Si02
#       8
#     4   4   4   4   4   4   4   4
#     4  11  19  38  61  92 130 166 209 273 330 380
#     4  12  25  40  63  98 133 168 215 262 330 400
#     4  11  23  40  63  95 133 173 215 264 332 400
#     4  11  24  38  64  95 131 170 215 271 331 388
#     4  10  22  45  71  90 127 177 225 272 326 392
#     4  12  25  41  63  99 134 169 216 271 329 401
#     4   9  22  45  70  90 126 179 227 269 327 387
#     4  10  22  41  64  90 129 172 213 267 325 391
#
# _framework density 21.133457
#
# number of rings (size 3 to 8) (size 9 to 14) (size 15 to 20)
#    0.000    1.250    2.500    4.500    5.250    1.000 
#    0.000    0.625    5.500    0.000    0.000    0.000 
#    0.000    0.000    0.000    0.000    0.000    0.000 
#
# Total GULP energy -396601.350415 kJ/mol
# GULP energy per Si atom -12393.792200 kJ/mol
# Density = 2.108536 g / cm^3
# Si number density = 21.133457 Si / 1000 Ang^3
#
#
#
# Elastic Constant Matrix: (Units=GPa)
#
#
# Indices 1 2 3 4 5 6 
#
# 1 88.7856 17.7084 32.5257 0.0000 0.8955 0.0000
# 2 17.7084 99.0057 40.0358 0.0000 0.9838 0.0000
# 3 32.5257 40.0358 120.7618 0.0000 -15.0392 0.0000
# 4 0.0000 0.0000 0.0000 1.2939 0.0000 7.7190
# 5 0.8955 0.9838 -15.0392 0.0000 33.4484 0.0000
# 6 0.0000 0.0000 0.0000 7.7190 0.0000 22.3329
#
#
#
# Elastic Compliance Matrix: (Units=1/GPa)
#
#
# Indices 1 2 3 4 5 6 
#
# 1 0.012686 -0.000898 -0.003345 0.000000 -0.001817 0.000000
# 2 -0.000898 0.011883 -0.003960 0.000000 -0.002106 0.000000
# 3 -0.003345 -0.003960 0.011144 0.000000 0.005217 0.000000
# 4 0.000000 0.000000 0.000000 -0.727782 0.000000 0.251544
# 5 -0.001817 -0.002106 0.005217 0.000000 0.032353 0.000000
# 6 0.000000 0.000000 0.000000 0.251544 0.000000 -0.042165
#
#
# Mechanical properties :
#
#
# Convention : Reuss Voigt Hill
#
# Bulk Modulus (GPa) = 51.79580 54.34367 53.06973
# Shear Modulus (GPa) = -7.36337 25.96725 9.30194
#
# Velocity S-wave (km/s) = -1.86863 3.50912 2.10026
# Velocity P-wave (km/s) = 4.46166 6.49530 5.57204
#
# Compressibility (1/GPa) = 0.01930659
#
# Stress axis : x y z
#
# Youngs Moduli (GPa) = 78.82630 84.15138 89.73178
#
# Poissons Ratio (x) = 0.07559 0.30019
# Poissons Ratio (y) = 0.07080 0.35534
# Poissons Ratio (z) = 0.26371 0.33324
#
# Static dielectric constant tensor:
#      x y z
#    x 3.788040 0.000000 -0.171820 
#    y 0.000000 4.123320 0.000000 
#    z -0.171820 0.000000 4.041980 
# 
# 
# High freq. dielectric constant tensor:
#      x y z
#    x 1.819720 0.000000 -0.007850 
#    y 0.000000 1.811100 0.000000 
#    z -0.007850 0.000000 1.840060 
# 
# From -- ./inp_files/10821.got.cif
#   From: 2010.03.12/outbox.cif.g09.slc.cpg/sg14_6_cif.got.tgz:10821.got - 2010.03.31 13:35:05.
