data_PCOD8128614
_publ_section_title
;
Structure prediction by ZEFSAII (Michael W. Deem and Ramdas Pophale) SiO2 
 PCOD8128614
Probable space group: P 21/C
;
_chemical_formula_sum "Si O2"
_cell_formula_units_Z 24
_cell_length_a 19.736339
_cell_length_b 9.424633
_cell_length_c 14.165765
_cell_angle_alpha 90.000000
_cell_angle_beta 23.405648
_cell_angle_gamma 90.000000
_cell_volume 1046.700072
_symmetry_space_group_name_H-M "P 21/C"
_symmetry_group_IT_number 14
_symmetry_cell_setting 'monoclinic'
loop_
_space_group_symop_operation_xyz
x,y,z
-x,1/2+y,1/2-z
-x,-y,-z
x,1/2-y,1/2+z
loop_
_atom_site_type_symbol
_atom_site_label
_atom_site_fract_x
_atom_site_fract_y
_atom_site_fract_z
Si Si1 0.352191 0.970817 0.501504
Si Si2 0.039246 0.333387 0.127578
Si Si3 0.252052 0.718837 0.745497
Si Si4 0.188505 0.898860 0.520767
Si Si5 0.859454 0.747765 0.702257
Si Si6 0.289767 0.982236 0.028922
O O1 0.354892 0.860539 0.585361
O O2 0.299040 0.884370 0.474685
O O3 0.213346 0.090214 0.700347
O O4 0.538827 0.036970 0.250987
O O5 0.991814 0.184607 0.237788
O O6 0.862071 0.412029 0.334344
O O7 0.151389 0.434229 0.051563
O O8 0.147273 0.305035 0.895829
O O9 0.293073 0.670964 0.800084
O O10 0.309648 0.589923 0.605493
O O11 0.052173 0.751971 0.992182
O O12 0.746239 0.851072 0.911389
#
# Coordination Sequence:
#
# PCOD8128614 Si02
#       6
#     4   4   4   4   4   4
#     4  12  26  40  70 102 135 176 224 280 336 394
#     4  11  24  43  69  96 133 180 226 273 326 403
#     4  11  22  45  66  95 135 178 224 275 328 401
#     4  12  24  42  70 104 130 175 237 270 324 408
#     4  11  21  43  69  92 131 184 220 264 338 399
#     4  11  22  46  64  94 140 179 212 280 345 378
#
# _framework density 22.929203999999999
#
# number of rings (size 3 to 8) (size 9 to 14) (size 15 to 20)
#    0.000    0.667    6.667    3.500    2.333    0.667 
#    0.000    0.833    0.000    0.000    0.000    0.000 
#    0.000    0.000    0.000    0.000    0.000    0.000 
#
# Total GULP energy -297704.818697 kJ/mol
# GULP energy per Si atom -12404.367446 kJ/mol
# Density = 2.287702 g / cm^3
# Si number density = 22.929204 Si / 1000 Ang^3
#
#
#
# Elastic Constant Matrix: (Units=GPa)
#
#
# Indices 1 2 3 4 5 6 
#
# 1 43.8294 12.8465 8.6863 0.0000 10.0319 0.0000
# 2 12.8465 91.5695 34.3909 0.0000 3.8973 0.0000
# 3 8.6863 34.3909 109.8403 0.0000 2.5771 0.0000
# 4 0.0000 0.0000 0.0000 44.2462 0.0000 10.1861
# 5 10.0319 3.8973 2.5771 0.0000 8.3279 0.0000
# 6 0.0000 0.0000 0.0000 10.1861 0.0000 25.6129
#
#
#
# Elastic Compliance Matrix: (Units=1/GPa)
#
#
# Indices 1 2 3 4 5 6 
#
# 1 0.032324 -0.002619 -0.000858 0.000000 -0.037447 0.000000
# 2 -0.002619 0.012768 -0.003752 0.000000 -0.001659 0.000000
# 3 -0.000858 -0.003752 0.010356 0.000000 -0.000416 0.000000
# 4 0.000000 0.000000 0.000000 0.024879 0.000000 -0.009894
# 5 -0.037447 -0.001659 -0.000416 0.000000 0.166092 0.000000
# 6 0.000000 0.000000 0.000000 -0.009894 0.000000 0.042978
#
#
# Mechanical properties :
#
#
# Convention : Reuss Voigt Hill
#
# Bulk Modulus (GPa) = 24.39496 39.67629 32.03563
# Shear Modulus (GPa) = 15.74719 28.25844 22.00281
#
# Velocity S-wave (km/s) = 2.62348 3.51439 3.10110
# Velocity P-wave (km/s) = 4.45412 5.81458 5.17922
#
# Compressibility (1/GPa) = 0.04099207
#
# Stress axis : x y z
#
# Youngs Moduli (GPa) = 30.93638 78.32277 96.55952
#
# Poissons Ratio (x) = 0.20513 0.08281
# Poissons Ratio (y) = 0.08102 0.36224
# Poissons Ratio (z) = 0.02653 0.29383
#
# Static dielectric constant tensor:
#      x y z
#    x 3.881400 0.000000 0.326220 
#    y 0.000000 4.329560 0.000000 
#    z 0.326220 0.000000 4.104990 
# 
# 
# High freq. dielectric constant tensor:
#      x y z
#    x 1.882920 0.000000 0.023430 
#    y 0.000000 1.922410 0.000000 
#    z 0.023430 0.000000 1.898650 
# 
# From -- ./inp_files/62215.got.cif
#   From: 2010.03.12/outbox.cif.g09.slc.cpg/sg14_32_cif.got.tgz:62215.got - 2010.03.31 13:35:05.
