data_PCOD8128102
_publ_section_title
;
Structure prediction by ZEFSAII (Michael W. Deem and Ramdas Pophale) SiO2 
 PCOD8128102
Probable space group: P 21/C
;
_chemical_formula_sum "Si O2"
_cell_formula_units_Z 28
_cell_length_a 7.779571
_cell_length_b 21.984735
_cell_length_c 12.581379
_cell_angle_alpha 90.000000
_cell_angle_beta 33.155299
_cell_angle_gamma 90.000000
_cell_volume 1176.850175
_symmetry_space_group_name_H-M "P 21/C"
_symmetry_group_IT_number 14
_symmetry_cell_setting 'monoclinic'
loop_
_space_group_symop_operation_xyz
x,y,z
-x,1/2+y,1/2-z
-x,-y,-z
x,1/2-y,1/2+z
loop_
_atom_site_type_symbol
_atom_site_label
_atom_site_fract_x
_atom_site_fract_y
_atom_site_fract_z
Si Si1 0.179497 0.727465 0.356824
Si Si2 0.599304 0.790009 0.284222
Si Si3 0.431661 0.800571 0.038730
Si Si4 0.897695 0.887360 0.251010
Si Si5 0.579223 0.466063 0.603668
Si Si6 0.775627 0.916599 0.907289
Si Si7 0.570993 0.400515 0.823910
O O1 0.815426 0.716572 0.567587
O O2 0.262808 0.774477 0.408981
O O3 0.225470 0.757196 0.219513
O O4 0.374578 0.664332 0.260795
O O5 0.656090 0.741056 0.349311
O O6 0.626616 0.858887 0.315253
O O7 0.652305 0.847878 0.988759
O O8 0.173195 0.836982 0.104863
O O9 0.752516 0.901039 0.441637
O O10 0.065263 0.946983 0.117210
O O11 0.302230 0.436892 0.674120
O O12 0.580980 0.539079 0.587571
O O13 0.525972 0.450173 0.754326
O O14 0.145062 0.917825 0.743210
#
# Coordination Sequence:
#
# PCOD8128102 Si02
#       7
#     4   4   4   4   4   4   4
#     4  12  24  37  64  93 130 172 220 263 343 399
#     4  12  23  40  60  93 131 174 210 277 329 400
#     4  11  24  42  60  96 133 168 219 271 333 402
#     4  11  24  42  64  95 133 171 224 280 327 398
#     4  10  23  50  67  99 137 175 228 277 334 392
#     4  10  24  44  74  95 136 182 220 280 333 396
#     4  12  23  43  68 100 130 175 223 279 332 392
#
# _framework density 23.792325000000002
#
# number of rings (size 3 to 8) (size 9 to 14) (size 15 to 20)
#    0.000    0.857    4.286    3.000    4.000    0.571 
#    0.000    7.857    0.000    0.000    0.000    0.000 
#    0.000    0.000    0.000    0.000    0.000    0.000 
#
# Total GULP energy -347117.593003 kJ/mol
# GULP energy per Si atom -12397.056893 kJ/mol
# Density = 2.373817 g / cm^3
# Si number density = 23.792325 Si / 1000 Ang^3
#
#
#
# Elastic Constant Matrix: (Units=GPa)
#
#
# Indices 1 2 3 4 5 6 
#
# 1 88.6934 3.8728 10.6064 0.0000 -4.2349 0.0000
# 2 3.8728 53.9265 9.9942 0.0000 12.6754 0.0000
# 3 10.6064 9.9942 108.0777 0.0000 31.4781 0.0000
# 4 0.0000 0.0000 0.0000 23.6274 0.0000 1.1711
# 5 -4.2349 12.6754 31.4781 0.0000 32.2154 0.0000
# 6 0.0000 0.0000 0.0000 1.1711 0.0000 36.4066
#
#
#
# Elastic Compliance Matrix: (Units=1/GPa)
#
#
# Indices 1 2 3 4 5 6 
#
# 1 0.011822 -0.001450 -0.002299 0.000000 0.004371 0.000000
# 2 -0.001450 0.020642 0.000915 0.000000 -0.009207 0.000000
# 3 -0.002299 0.000915 0.013400 0.000000 -0.013756 0.000000
# 4 0.000000 0.000000 0.000000 0.042391 0.000000 -0.001364
# 5 0.004371 -0.009207 -0.013756 0.000000 0.048679 0.000000
# 6 0.000000 0.000000 0.000000 -0.001364 0.000000 0.027511
#
#
# Mechanical properties :
#
#
# Convention : Reuss Voigt Hill
#
# Bulk Modulus (GPa) = 24.87875 33.29381 29.08628
# Shear Modulus (GPa) = 27.24600 33.53149 30.38874
#
# Velocity S-wave (km/s) = 3.38769 3.75819 3.57774
# Velocity P-wave (km/s) = 5.07753 5.73201 5.41466
#
# Compressibility (1/GPa) = 0.04019495
#
# Stress axis : x y z
#
# Youngs Moduli (GPa) = 84.58955 48.44412 74.62693
#
# Poissons Ratio (x) = 0.07026 0.17158
# Poissons Ratio (y) = 0.12268 -0.06828
# Poissons Ratio (z) = 0.19449 -0.04432
#
# Static dielectric constant tensor:
#      x y z
#    x 4.199640 0.000000 -0.027860 
#    y 0.000000 4.447810 0.000000 
#    z -0.027860 0.000000 4.074360 
# 
# 
# High freq. dielectric constant tensor:
#      x y z
#    x 1.947240 0.000000 0.004510 
#    y 0.000000 1.942200 0.000000 
#    z 0.004510 0.000000 1.925010 
# 
# From -- ./inp_files/42094.got.cif
#   From: 2010.03.12/outbox.cif.g09.slc.cpg/sg14_22_cif.got.tgz:42094.got - 2010.03.31 13:35:05.
