data_PCOD8128256
_publ_section_title
;
Structure prediction by ZEFSAII (Michael W. Deem and Ramdas Pophale) SiO2 
 PCOD8128256
Probable space group: P 21/C
;
_chemical_formula_sum "Si O2"
_cell_formula_units_Z 28
_cell_length_a 20.538356
_cell_length_b 8.694216
_cell_length_c 14.162738
_cell_angle_alpha 90.000000
_cell_angle_beta 30.398584
_cell_angle_gamma 90.000000
_cell_volume 1279.689259
_symmetry_space_group_name_H-M "P 21/C"
_symmetry_group_IT_number 14
_symmetry_cell_setting 'monoclinic'
loop_
_space_group_symop_operation_xyz
x,y,z
-x,1/2+y,1/2-z
-x,-y,-z
x,1/2-y,1/2+z
loop_
_atom_site_type_symbol
_atom_site_label
_atom_site_fract_x
_atom_site_fract_y
_atom_site_fract_z
Si Si1 0.797467 0.006873 0.198285
Si Si2 0.576680 0.827212 0.797242
Si Si3 0.656185 0.970067 0.880039
Si Si4 0.129994 0.477465 0.746972
Si Si5 0.577329 0.660492 0.078597
Si Si6 0.003841 0.741442 0.472199
Si Si7 0.673258 0.999818 0.164672
O O1 0.872452 0.138428 0.160128
O O2 0.669418 0.962610 0.414611
O O3 0.754418 0.069602 0.149792
O O4 0.888769 0.857998 0.071357
O O5 0.667067 0.924682 0.755865
O O6 0.614476 0.852824 0.641836
O O7 0.594100 0.648120 0.801059
O O8 0.429810 0.876773 0.000859
O O9 0.795928 0.005910 0.745957
O O10 0.593622 0.832609 0.020220
O O11 0.225390 0.450353 0.541808
O O12 0.042994 0.630532 0.844697
O O13 0.045276 0.323754 0.869416
O O14 0.427200 0.621803 0.250978
#
# Coordination Sequence:
#
# PCOD8128256 Si02
#       7
#     4   4   4   4   4   4   4
#     4  11  24  43  65  96 130 172 218 273 326 388
#     4  11  22  38  63  95 134 171 206 260 335 396
#     4  11  23  38  62  95 136 171 208 262 330 393
#     4  11  22  44  65  93 129 173 221 271 320 390
#     4  12  22  41  64  99 135 168 211 273 335 394
#     4  10  24  44  66  87 129 179 221 271 318 384
#     4  12  24  40  69  98 130 170 214 276 335 390
#
# _framework density 21.880310000000001
#
# number of rings (size 3 to 8) (size 9 to 14) (size 15 to 20)
#    0.000    0.857    5.714    0.429    2.000    3.429 
#    0.000    5.714    0.000    0.000    0.000    0.000 
#    0.000    0.000    0.000    0.000    0.000    0.000 
#
# Total GULP energy -347222.143059 kJ/mol
# GULP energy per Si atom -12400.790824 kJ/mol
# Density = 2.183051 g / cm^3
# Si number density = 21.880310 Si / 1000 Ang^3
#
#
#
# Elastic Constant Matrix: (Units=GPa)
#
#
# Indices 1 2 3 4 5 6 
#
# 1 107.3590 -7.4701 16.1979 0.0000 17.4089 0.0000
# 2 -7.4701 65.3374 20.8487 0.0000 1.9332 0.0000
# 3 16.1979 20.8487 76.4288 0.0000 2.0067 0.0000
# 4 0.0000 0.0000 0.0000 25.8802 0.0000 -5.1143
# 5 17.4089 1.9332 2.0067 0.0000 22.5034 0.0000
# 6 0.0000 0.0000 0.0000 -5.1143 0.0000 24.4782
#
#
#
# Elastic Compliance Matrix: (Units=1/GPa)
#
#
# Indices 1 2 3 4 5 6 
#
# 1 0.011329 0.002461 -0.002843 0.000000 -0.008722 0.000000
# 2 0.002461 0.017323 -0.005170 0.000000 -0.002931 0.000000
# 3 -0.002843 -0.005170 0.015063 0.000000 0.001301 0.000000
# 4 0.000000 0.000000 0.000000 0.040304 0.000000 0.008421
# 5 -0.008722 -0.002931 0.001301 0.000000 0.051321 0.000000
# 6 0.000000 0.000000 0.000000 0.008421 0.000000 0.042612
#
#
# Mechanical properties :
#
#
# Convention : Reuss Voigt Hill
#
# Bulk Modulus (GPa) = 30.66586 34.25314 32.45950
# Shear Modulus (GPa) = 25.00916 29.20893 27.10905
#
# Velocity S-wave (km/s) = 3.38449 3.65765 3.52372
# Velocity P-wave (km/s) = 5.41468 5.79022 5.60560
#
# Compressibility (1/GPa) = 0.03260955
#
# Stress axis : x y z
#
# Youngs Moduli (GPa) = 88.26851 57.72696 66.38870
#
# Poissons Ratio (x) = -0.14204 0.18876
# Poissons Ratio (y) = -0.21719 0.34323
# Poissons Ratio (z) = 0.25097 0.29845
#
# Static dielectric constant tensor:
#      x y z
#    x 4.129670 0.000000 -0.153470 
#    y 0.000000 3.974620 0.000000 
#    z -0.153470 0.000000 3.833500 
# 
# 
# High freq. dielectric constant tensor:
#      x y z
#    x 1.857870 0.000000 -0.009650 
#    y 0.000000 1.862790 0.000000 
#    z -0.009650 0.000000 1.856130 
# 
# From -- ./inp_files/43475.got.cif
#   From: 2010.03.12/outbox.cif.g09.slc.cpg/sg14_22_cif.got.tgz:43475.got - 2010.03.31 13:35:05.
