data_PCOD8128018
_publ_section_title
;
Structure prediction by ZEFSAII (Michael W. Deem and Ramdas Pophale) SiO2 
 PCOD8128018
Probable space group: P 21/C
;
_chemical_formula_sum "Si O2"
_cell_formula_units_Z 20
_cell_length_a 16.279112
_cell_length_b 11.975837
_cell_length_c 13.942128
_cell_angle_alpha 90.000000
_cell_angle_beta 18.014075
_cell_angle_gamma 90.000000
_cell_volume 840.574532
_symmetry_space_group_name_H-M "P 21/C"
_symmetry_group_IT_number 14
_symmetry_cell_setting 'monoclinic'
loop_
_space_group_symop_operation_xyz
x,y,z
-x,1/2+y,1/2-z
-x,-y,-z
x,1/2-y,1/2+z
loop_
_atom_site_type_symbol
_atom_site_label
_atom_site_fract_x
_atom_site_fract_y
_atom_site_fract_z
Si Si1 0.524037 0.275511 0.584397
Si Si2 0.129208 0.191580 0.162300
Si Si3 0.452397 0.668226 0.655380
Si Si4 0.297217 0.968897 0.641200
Si Si5 0.582772 0.021411 0.137789
O O1 0.479679 0.332910 0.531614
O O2 0.698457 0.163538 0.385388
O O3 0.670885 0.359857 0.495617
O O4 0.231458 0.248068 0.950933
O O5 0.829585 0.229728 0.514358
O O6 0.315557 0.233411 0.044327
O O7 0.162765 0.055647 0.115728
O O8 0.425711 0.542720 0.726060
O O9 0.500000 0.000000 0.500000
O O10 0.385771 0.035363 0.447343
O O11 0.000000 0.000000 0.000000
#
# Coordination Sequence:
#
# PCOD8128018 Si02
#       5
#     4   4   4   4   4
#     4  11  24  45  75  98 138 191 221 289 355 398
#     4   9  24  43  63 103 137 172 232 287 334 416
#     4  10  23  45  65 102 137 176 238 283 339 410
#     4  11  28  46  68 103 142 179 228 283 345 417
#     4   9  24  46  68 103 136 178 237 287 331 428
#
# _framework density 23.793248999999999
#
# number of rings (size 3 to 8) (size 9 to 14) (size 15 to 20)
#    1.200    0.800    0.000    0.600   11.200    2.400 
#    7.200    0.000    0.000    0.000    0.000    0.000 
#    0.000    0.000    0.000    0.000    0.000    0.000 
#
# Total GULP energy -247827.048503 kJ/mol
# GULP energy per Si atom -12391.352425 kJ/mol
# Density = 2.373909 g / cm^3
# Si number density = 23.793249 Si / 1000 Ang^3
#
#
#
# Elastic Constant Matrix: (Units=GPa)
#
#
# Indices 1 2 3 4 5 6 
#
# 1 134.1798 57.6174 82.6868 0.0000 33.6376 0.0000
# 2 57.6174 87.9839 23.6000 0.0000 18.5994 0.0000
# 3 82.6868 23.6000 121.2008 0.0000 3.0415 0.0000
# 4 0.0000 0.0000 0.0000 22.1471 0.0000 15.1497
# 5 33.6376 18.5994 3.0415 0.0000 52.2823 0.0000
# 6 0.0000 0.0000 0.0000 15.1497 0.0000 25.8603
#
#
#
# Elastic Compliance Matrix: (Units=1/GPa)
#
#
# Indices 1 2 3 4 5 6 
#
# 1 0.021491 -0.008529 -0.012749 0.000000 -0.010051 0.000000
# 2 -0.008529 0.016342 0.002649 0.000000 -0.000480 0.000000
# 3 -0.012749 0.002649 0.016274 0.000000 0.006313 0.000000
# 4 0.000000 0.000000 0.000000 0.075346 0.000000 -0.044140
# 5 -0.010051 -0.000480 0.006313 0.000000 0.025397 0.000000
# 6 0.000000 0.000000 0.000000 -0.044140 0.000000 0.064528
#
#
# Mechanical properties :
#
#
# Convention : Reuss Voigt Hill
#
# Bulk Modulus (GPa) = 59.35073 74.57476 66.96274
# Shear Modulus (GPa) = 19.06542 32.02197 25.54370
#
# Velocity S-wave (km/s) = 2.83379 3.67255 3.28009
# Velocity P-wave (km/s) = 5.97542 7.02811 6.52304
#
# Compressibility (1/GPa) = 0.01684899
#
# Stress axis : x y z
#
# Youngs Moduli (GPa) = 46.53003 61.19076 61.44655
#
# Poissons Ratio (x) = 0.52193 0.78339
# Poissons Ratio (y) = 0.39688 -0.16277
# Poissons Ratio (z) = 0.59321 -0.16209
#
# Static dielectric constant tensor:
#      x y z
#    x 4.294710 0.000000 0.306020 
#    y 0.000000 4.177850 0.000000 
#    z 0.306020 0.000000 4.013760 
# 
# 
# High freq. dielectric constant tensor:
#      x y z
#    x 1.944110 0.000000 0.023840 
#    y 0.000000 1.936550 0.000000 
#    z 0.023840 0.000000 1.927830 
# 
# From -- ./inp_files/48738.got.cif
#   From: 2010.03.12/outbox.cif.g09.slc.cpg/sg14_25_cif.got.tgz:48738.got - 2010.03.31 13:35:05.
