data_PCOD8128819
_publ_section_title
;
Structure prediction by ZEFSAII (Michael W. Deem and Ramdas Pophale) SiO2 
 PCOD8128819
Probable space group: P 21/C
;
_chemical_formula_sum "Si O2"
_cell_formula_units_Z 20
_cell_length_a 25.377649
_cell_length_b 8.028995
_cell_length_c 27.668329
_cell_angle_alpha 90.000000
_cell_angle_beta 9.541739
_cell_angle_gamma 90.000000
_cell_volume 934.525390
_symmetry_space_group_name_H-M "P 21/C"
_symmetry_group_IT_number 14
_symmetry_cell_setting 'monoclinic'
loop_
_space_group_symop_operation_xyz
x,y,z
-x,1/2+y,1/2-z
-x,-y,-z
x,1/2-y,1/2+z
loop_
_atom_site_type_symbol
_atom_site_label
_atom_site_fract_x
_atom_site_fract_y
_atom_site_fract_z
Si Si1 0.422743 0.114630 0.978153
Si Si2 0.263710 0.619639 0.240185
Si Si3 0.530652 0.298073 0.689595
Si Si4 0.173956 0.142163 0.096586
Si Si5 0.927106 0.890426 0.480281
O O1 0.304901 0.164351 0.031863
O O2 0.551557 0.283534 0.884843
O O3 0.139407 0.037397 0.265812
O O4 0.698691 0.976028 0.726217
O O5 0.000000 0.500000 0.500000
O O6 0.133549 0.752271 0.319710
O O7 0.500000 0.500000 0.000000
O O8 0.736711 0.465275 0.506896
O O9 0.275483 0.299012 0.877633
O O10 0.790830 0.154354 0.443879
O O11 0.340788 0.278675 0.911393
#
# Coordination Sequence:
#
# PCOD8128819 Si02
#       5
#     4   4   4   4   4
#     4  11  23  44  66  88 123 171 208 242 304 383
#     4  12  26  42  64  98 124 154 206 268 314 348
#     4  11  23  40  63  93 125 163 205 250 304 364
#     4  11  23  40  63  93 125 163 205 250 304 364
#     4  11  23  44  66  88 123 171 208 242 304 383
#
# _framework density 21.401239
#
# number of rings (size 3 to 8) (size 9 to 14) (size 15 to 20)
#    0.000    0.800    0.000    9.600    0.000    4.800 
#    0.000    0.000    0.000    0.000    0.000    0.000 
#    0.000    0.000    0.000    0.000    0.000    0.000 
#
# Total GULP energy -248115.968931 kJ/mol
# GULP energy per Si atom -12405.798447 kJ/mol
# Density = 2.135253 g / cm^3
# Si number density = 21.401239 Si / 1000 Ang^3
#
#
#
# Elastic Constant Matrix: (Units=GPa)
#
#
# Indices 1 2 3 4 5 6 
#
# 1 76.7548 24.0020 19.4895 0.0000 8.4925 0.0000
# 2 24.0020 41.5192 -4.0751 0.0000 1.8311 0.0000
# 3 19.4895 -4.0751 97.5898 0.0000 15.2465 0.0000
# 4 0.0000 0.0000 0.0000 64.0983 0.0000 5.1928
# 5 8.4925 1.8311 15.2465 0.0000 28.7543 0.0000
# 6 0.0000 0.0000 0.0000 5.1928 0.0000 45.8359
#
#
#
# Elastic Compliance Matrix: (Units=1/GPa)
#
#
# Indices 1 2 3 4 5 6 
#
# 1 0.017431 -0.010304 -0.003499 0.000000 -0.002636 0.000000
# 2 -0.010304 0.030411 0.003440 0.000000 -0.000717 0.000000
# 3 -0.003499 0.003440 0.011952 0.000000 -0.005523 0.000000
# 4 0.000000 0.000000 0.000000 0.015746 0.000000 -0.001784
# 5 -0.002636 -0.000717 -0.005523 0.000000 0.038530 0.000000
# 6 0.000000 0.000000 0.000000 -0.001784 0.000000 0.022019
#
#
# Mechanical properties :
#
#
# Convention : Reuss Voigt Hill
#
# Bulk Modulus (GPa) = 25.59701 32.74407 29.17054
# Shear Modulus (GPa) = 29.43965 39.50087 34.47026
#
# Velocity S-wave (km/s) = 3.71294 4.30085 4.01767
# Velocity P-wave (km/s) = 5.51069 6.32427 5.93145
#
# Compressibility (1/GPa) = 0.03906706
#
# Stress axis : x y z
#
# Youngs Moduli (GPa) = 57.36923 32.88269 83.66559
#
# Poissons Ratio (x) = 0.33882 0.29279
# Poissons Ratio (y) = 0.59113 -0.28779
# Poissons Ratio (z) = 0.20076 -0.11311
#
# Static dielectric constant tensor:
#      x y z
#    x 3.907580 0.000000 0.093350 
#    y 0.000000 3.932610 0.000000 
#    z 0.093350 0.000000 4.223390 
# 
# 
# High freq. dielectric constant tensor:
#      x y z
#    x 1.846840 0.000000 0.007490 
#    y 0.000000 1.846320 0.000000 
#    z 0.007490 0.000000 1.864690 
# 
# From -- ./inp_files/80771.got.cif
#   From: 2010.03.12/outbox.cif.g09.slc.cpg/sg14_41_cif.got.tgz:80771.got - 2010.03.31 13:35:05.
