data_PCOD8128044
_publ_section_title
;
Structure prediction by ZEFSAII (Michael W. Deem and Ramdas Pophale) SiO2 
 PCOD8128044
Probable space group: P 21/C
;
_chemical_formula_sum "Si O2"
_cell_formula_units_Z 20
_cell_length_a 17.381885
_cell_length_b 7.234622
_cell_length_c 13.499005
_cell_angle_alpha 90.000000
_cell_angle_beta 149.704538
_cell_angle_gamma 90.000000
_cell_volume 856.328810
_symmetry_space_group_name_H-M "P 21/C"
_symmetry_group_IT_number 14
_symmetry_cell_setting 'monoclinic'
loop_
_space_group_symop_operation_xyz
x,y,z
-x,1/2+y,1/2-z
-x,-y,-z
x,1/2-y,1/2+z
loop_
_atom_site_type_symbol
_atom_site_label
_atom_site_fract_x
_atom_site_fract_y
_atom_site_fract_z
Si Si1 0.110073 0.221018 0.087610
Si Si2 0.345988 0.777402 0.136871
Si Si3 0.137778 0.380764 0.398994
Si Si4 0.314741 0.415381 0.983923
Si Si5 0.132502 0.625047 0.051779
O O1 0.092364 0.118119 0.963671
O O2 0.229258 0.103935 0.284455
O O3 0.943989 0.229820 0.956027
O O4 0.171105 0.431679 0.148033
O O5 0.328667 0.627912 0.030434
O O6 0.520217 0.827257 0.345558
O O7 0.248871 0.952579 0.993885
O O8 0.287493 0.706728 0.179000
O O9 0.221225 0.189705 0.465915
O O10 0.983448 0.410967 0.167618
#
# Coordination Sequence:
#
# PCOD8128044 Si02
#       5
#     4   4   4   4   4
#     4  10  23  46  69 103 139 179 237 281 344 420
#     4  12  24  45  70 100 141 189 222 291 343 403
#     4  11  23  46  70 100 146 175 231 289 343 406
#     4  11  25  46  67 101 141 183 233 275 348 416
#     4  10  23  45  72 104 137 183 227 294 344 406
#
# _framework density 23.355516999999999
#
# number of rings (size 3 to 8) (size 9 to 14) (size 15 to 20)
#    0.000    1.200    4.000    1.200    2.800    2.400 
#   10.800    0.000    0.000    0.000    0.000    0.000 
#    0.000    0.000    0.000    0.000    0.000    0.000 
#
# Total GULP energy -248118.859352 kJ/mol
# GULP energy per Si atom -12405.942968 kJ/mol
# Density = 2.330236 g / cm^3
# Si number density = 23.355517 Si / 1000 Ang^3
#
#
#
# Elastic Constant Matrix: (Units=GPa)
#
#
# Indices 1 2 3 4 5 6 
#
# 1 130.6907 27.3169 64.7328 0.0000 -12.5916 0.0000
# 2 27.3169 92.7121 45.4104 0.0000 -2.7300 0.0000
# 3 64.7328 45.4104 72.9896 0.0000 -14.6419 0.0000
# 4 0.0000 0.0000 0.0000 21.9974 0.0000 0.6735
# 5 -12.5916 -2.7300 -14.6419 0.0000 36.7713 0.0000
# 6 0.0000 0.0000 0.0000 0.6735 0.0000 46.8588
#
#
#
# Elastic Compliance Matrix: (Units=1/GPa)
#
#
# Indices 1 2 3 4 5 6 
#
# 1 0.014166 0.002918 -0.014522 0.000000 -0.000715 0.000000
# 2 0.002918 0.016410 -0.013425 0.000000 -0.003128 0.000000
# 3 -0.014522 -0.013425 0.036663 0.000000 0.008629 0.000000
# 4 0.000000 0.000000 0.000000 0.045480 0.000000 -0.000654
# 5 -0.000715 -0.003128 0.008629 0.000000 0.030154 0.000000
# 6 0.000000 0.000000 0.000000 -0.000654 0.000000 0.021350
#
#
# Mechanical properties :
#
#
# Convention : Reuss Voigt Hill
#
# Bulk Modulus (GPa) = 58.20407 63.47920 60.84164
# Shear Modulus (GPa) = 22.72643 31.72098 27.22370
#
# Velocity S-wave (km/s) = 3.12278 3.68935 3.41782
# Velocity P-wave (km/s) = 6.16258 6.73698 6.45617
#
# Compressibility (1/GPa) = 0.01718093
#
# Stress axis : x y z
#
# Youngs Moduli (GPa) = 70.59180 60.93992 27.27512
#
# Poissons Ratio (x) = -0.17783 0.39610
# Poissons Ratio (y) = -0.20600 0.36616
# Poissons Ratio (z) = 1.02517 0.81810
#
# Static dielectric constant tensor:
#      x y z
#    x 4.513350 0.000000 0.071460 
#    y 0.000000 4.364480 0.000000 
#    z 0.071460 0.000000 3.909490 
# 
# 
# High freq. dielectric constant tensor:
#      x y z
#    x 1.938330 0.000000 -0.001510 
#    y 0.000000 1.943790 0.000000 
#    z -0.001510 0.000000 1.903190 
# 
# From -- ./inp_files/33706.got.cif
#   From: 2010.03.12/outbox.cif.g09.slc.cpg/sg14_17_cif.got.tgz:33706.got - 2010.03.31 13:35:05.
