data_PCOD8128573
_publ_section_title
;
Structure prediction by ZEFSAII (Michael W. Deem and Ramdas Pophale) SiO2 
 PCOD8128573
Probable space group: P 21/C
;
_chemical_formula_sum "Si O2"
_cell_formula_units_Z 28
_cell_length_a 25.803549
_cell_length_b 11.306733
_cell_length_c 14.246494
_cell_angle_alpha 90.000000
_cell_angle_beta 19.294513
_cell_angle_gamma 90.000000
_cell_volume 1373.397246
_symmetry_space_group_name_H-M "P 21/C"
_symmetry_group_IT_number 14
_symmetry_cell_setting 'monoclinic'
loop_
_space_group_symop_operation_xyz
x,y,z
-x,1/2+y,1/2-z
-x,-y,-z
x,1/2-y,1/2+z
loop_
_atom_site_type_symbol
_atom_site_label
_atom_site_fract_x
_atom_site_fract_y
_atom_site_fract_z
Si Si1 0.247671 0.248823 0.564128
Si Si2 0.062401 0.632660 0.892917
Si Si3 0.364750 0.148415 0.686806
Si Si4 0.486018 0.042690 0.129044
Si Si5 0.267383 0.796266 0.208828
Si Si6 0.704666 0.379611 0.679307
Si Si7 0.457009 0.307809 0.366402
O O1 0.239485 0.303498 0.474660
O O2 0.327103 0.118182 0.423142
O O3 0.353797 0.331089 0.450109
O O4 0.067925 0.264575 0.906673
O O5 0.121922 0.655497 0.897713
O O6 0.189595 0.639188 0.592902
O O7 0.000000 0.500000 0.000000
O O8 0.534537 0.170986 0.443308
O O9 0.351760 0.228645 0.616415
O O10 0.320007 0.013556 0.742833
O O11 0.478625 0.931083 0.208333
O O12 0.651118 0.106483 0.864970
O O13 0.500000 0.000000 0.000000
O O14 0.222134 0.688464 0.356019
O O15 0.389020 0.764727 0.919748
#
# Coordination Sequence:
#
# PCOD8128573 Si02
#       7
#     4   4   4   4   4   4   4
#     4  11  24  41  65 103 127 173 230 267 346 403
#     4  12  25  46  65  96 144 179 220 283 343 409
#     4  11  21  40  69  98 122 175 228 273 327 402
#     4  11  22  41  68 100 131 167 224 282 326 394
#     4  11  25  41  68  99 131 180 220 267 354 389
#     4  11  23  41  69  95 133 171 228 279 325 408
#     4  11  22  40  70  95 132 170 225 285 325 403
#
# _framework density 20.3874
#
# number of rings (size 3 to 8) (size 9 to 14) (size 15 to 20)
#    0.000    0.857    7.143    0.857    4.000    1.143 
#    2.571    0.714    0.000    0.000    0.000    0.000 
#    0.000    0.000    0.000    0.000    0.000    0.000 
#
# Total GULP energy -347041.967118 kJ/mol
# GULP energy per Si atom -12394.355968 kJ/mol
# Density = 2.034100 g / cm^3
# Si number density = 20.387400 Si / 1000 Ang^3
#
#
#
# Elastic Constant Matrix: (Units=GPa)
#
#
# Indices 1 2 3 4 5 6 
#
# 1 124.7040 68.9453 36.8364 0.0000 6.1244 0.0000
# 2 68.9453 98.3707 31.9753 0.0000 -10.3647 0.0000
# 3 36.8364 31.9753 86.1104 0.0000 -1.1821 0.0000
# 4 0.0000 0.0000 0.0000 18.7757 0.0000 -0.2656
# 5 6.1244 -10.3647 -1.1821 0.0000 32.8967 0.0000
# 6 0.0000 0.0000 0.0000 -0.2656 0.0000 42.9737
#
#
#
# Elastic Compliance Matrix: (Units=1/GPa)
#
#
# Indices 1 2 3 4 5 6 
#
# 1 0.014634 -0.010037 -0.002615 0.000000 -0.005981 0.000000
# 2 -0.010037 0.018860 -0.002604 0.000000 0.007717 0.000000
# 3 -0.002615 -0.002604 0.013701 0.000000 0.000159 0.000000
# 4 0.000000 0.000000 0.000000 0.053265 0.000000 0.000329
# 5 -0.005981 0.007717 0.000159 0.000000 0.033949 0.000000
# 6 0.000000 0.000000 0.000000 0.000329 0.000000 0.023272
#
#
# Mechanical properties :
#
#
# Convention : Reuss Voigt Hill
#
# Bulk Modulus (GPa) = 59.94128 64.96656 62.45392
# Shear Modulus (GPa) = 25.80602 30.35776 28.08189
#
# Velocity S-wave (km/s) = 3.56164 3.86300 3.71538
# Velocity P-wave (km/s) = 6.81019 7.19946 7.00753
#
# Compressibility (1/GPa) = 0.01668299
#
# Stress axis : x y z
#
# Youngs Moduli (GPa) = 68.33227 53.02351 72.98834
#
# Poissons Ratio (x) = 0.53219 0.19090
# Poissons Ratio (y) = 0.68584 0.19003
# Poissons Ratio (z) = 0.17872 0.13805
#
# Static dielectric constant tensor:
#      x y z
#    x 3.794660 0.000000 0.068490 
#    y 0.000000 3.805110 0.000000 
#    z 0.068490 0.000000 3.714420 
# 
# 
# High freq. dielectric constant tensor:
#      x y z
#    x 1.809220 0.000000 0.014810 
#    y 0.000000 1.797880 0.000000 
#    z 0.014810 0.000000 1.783220 
# 
# From -- ./inp_files/51981.got.cif
#   From: 2010.03.12/outbox.cif.g09.slc.cpg/sg14_26_cif.got.tgz:51981.got - 2010.03.31 13:35:05.
