data_PCOD8128940
_publ_section_title
;
Structure prediction by ZEFSAII (Michael W. Deem and Ramdas Pophale) SiO2 
 PCOD8128940
Probable space group: P 21/C
;
_chemical_formula_sum "Si O2"
_cell_formula_units_Z 24
_cell_length_a 18.733116
_cell_length_b 7.432681
_cell_length_c 9.253143
_cell_angle_alpha 90.000000
_cell_angle_beta 115.603077
_cell_angle_gamma 90.000000
_cell_volume 1161.875275
_symmetry_space_group_name_H-M "P 21/C"
_symmetry_group_IT_number 14
_symmetry_cell_setting 'monoclinic'
loop_
_space_group_symop_operation_xyz
x,y,z
-x,1/2+y,1/2-z
-x,-y,-z
x,1/2-y,1/2+z
loop_
_atom_site_type_symbol
_atom_site_label
_atom_site_fract_x
_atom_site_fract_y
_atom_site_fract_z
Si Si1 0.695597 0.774051 0.611060
Si Si2 0.839146 0.358221 0.063901
Si Si3 0.409531 0.551932 0.435607
Si Si4 0.195650 0.243475 0.542275
Si Si5 0.909814 0.446014 0.436687
Si Si6 0.659858 0.144080 0.435791
O O1 0.631197 0.621447 0.530056
O O2 0.722182 0.777479 0.800736
O O3 0.777894 0.730288 0.600338
O O4 0.659118 0.963317 0.530307
O O5 0.836768 0.540310 0.966490
O O6 0.897048 0.220132 0.034165
O O7 0.749779 0.279849 0.001090
O O8 0.872491 0.397600 0.251215
O O9 0.500000 0.500000 0.500000
O O10 0.373068 0.605984 0.251037
O O11 0.397522 0.714888 0.536690
O O12 0.128218 0.379658 0.525509
O O13 0.000000 0.500000 0.500000
#
# Coordination Sequence:
#
# PCOD8128940 Si02
#       6
#     4   4   4   4   4   4
#     4  11  23  44  71  97 131 177 227 267 325 400
#     4  11  25  46  70  97 131 181 224 267 330 401
#     4  12  28  43  67 102 137 172 217 283 334 387
#     4  11  23  44  71  97 131 177 227 267 325 400
#     4  12  28  43  67 102 137 172 217 283 334 387
#     4  11  25  46  70  97 131 181 224 267 330 401
#
# _framework density 20.656262000000002
#
# number of rings (size 3 to 8) (size 9 to 14) (size 15 to 20)
#    0.000    0.667    6.667    2.000    9.333    1.333 
#    0.000    0.000    0.000    0.000    0.000    0.000 
#    0.000    0.000    0.000    0.000    0.000    0.000 
#
# Total GULP energy -297655.237033 kJ/mol
# GULP energy per Si atom -12402.301543 kJ/mol
# Density = 2.060925 g / cm^3
# Si number density = 20.656262 Si / 1000 Ang^3
#
#
#
# Elastic Constant Matrix: (Units=GPa)
#
#
# Indices 1 2 3 4 5 6 
#
# 1 145.2497 83.0408 24.4400 0.0000 20.5310 0.0000
# 2 83.0408 127.9483 3.1275 0.0000 -4.8590 0.0000
# 3 24.4400 3.1275 58.1642 0.0000 10.8534 0.0000
# 4 0.0000 0.0000 0.0000 26.5293 0.0000 -16.1031
# 5 20.5310 -4.8590 10.8534 0.0000 27.4443 0.0000
# 6 0.0000 0.0000 0.0000 -16.1031 0.0000 40.9152
#
#
#
# Elastic Compliance Matrix: (Units=1/GPa)
#
#
# Indices 1 2 3 4 5 6 
#
# 1 0.014774 -0.009935 -0.003545 0.000000 -0.011410 0.000000
# 2 -0.009935 0.014579 0.001643 0.000000 0.009364 0.000000
# 3 -0.003545 0.001643 0.019482 0.000000 -0.004762 0.000000
# 4 0.000000 0.000000 0.000000 0.049526 0.000000 0.019492
# 5 -0.011410 0.009364 -0.004762 0.000000 0.048514 0.000000
# 6 0.000000 0.000000 0.000000 0.019492 0.000000 0.032112
#
#
# Mechanical properties :
#
#
# Convention : Reuss Voigt Hill
#
# Bulk Modulus (GPa) = 39.74123 61.39761 50.56942
# Shear Modulus (GPa) = 23.69129 33.69466 28.69298
#
# Velocity S-wave (km/s) = 3.39031 4.04320 3.73107
# Velocity P-wave (km/s) = 5.88274 7.18225 6.56473
#
# Compressibility (1/GPa) = 0.02516279
#
# Stress axis : x y z
#
# Youngs Moduli (GPa) = 67.68677 68.59072 51.32854
#
# Poissons Ratio (x) = 0.68146 0.18194
# Poissons Ratio (y) = 0.67248 -0.08436
# Poissons Ratio (z) = 0.23992 -0.11273
#
# Static dielectric constant tensor:
#      x y z
#    x 4.431040 0.000000 0.396630 
#    y 0.000000 3.881650 0.000000 
#    z 0.396630 0.000000 4.135710 
# 
# 
# High freq. dielectric constant tensor:
#      x y z
#    x 1.804000 0.000000 -0.010240 
#    y 0.000000 1.822430 0.000000 
#    z -0.010240 0.000000 1.818310 
# 
# From -- ./inp_files/17477.got.cif
#   From: 2010.03.12/outbox.cif.g09.slc.cpg/sg14_9_cif.got.tgz:17477.got - 2010.03.31 13:35:05.
