data_PCOD8128411
_publ_section_title
;
Structure prediction by ZEFSAII (Michael W. Deem and Ramdas Pophale) SiO2 
 PCOD8128411
Probable space group: P 21/C
;
_chemical_formula_sum "Si O2"
_cell_formula_units_Z 20
_cell_length_a 17.385645
_cell_length_b 4.928587
_cell_length_c 9.814225
_cell_angle_alpha 90.000000
_cell_angle_beta 125.041709
_cell_angle_gamma 90.000000
_cell_volume 688.513124
_symmetry_space_group_name_H-M "P 21/C"
_symmetry_group_IT_number 14
_symmetry_cell_setting 'monoclinic'
loop_
_space_group_symop_operation_xyz
x,y,z
-x,1/2+y,1/2-z
-x,-y,-z
x,1/2-y,1/2+z
loop_
_atom_site_type_symbol
_atom_site_label
_atom_site_fract_x
_atom_site_fract_y
_atom_site_fract_z
Si Si1 0.800874 0.571935 0.435106
Si Si2 0.824136 0.357977 0.742623
Si Si3 0.489753 0.777052 0.330168
Si Si4 0.979631 0.570815 0.139314
Si Si5 0.648631 0.621152 0.689200
O O1 0.822318 0.355777 0.575788
O O2 0.802871 0.428849 0.288740
O O3 0.874330 0.822686 0.498892
O O4 0.694098 0.686188 0.351551
O O5 0.742222 0.569483 0.695708
O O6 0.935660 0.425325 0.894201
O O7 0.523970 0.581031 0.240908
O O8 0.568627 0.787223 0.527163
O O9 0.392546 0.657667 0.290600
O O10 0.977087 0.274762 0.202663
#
# Coordination Sequence:
#
# PCOD8128411 Si02
#       5
#     4   4   4   4   4
#     4  11  27  47  78 113 158 206 265 316 386 457
#     4  11  27  47  78 112 158 205 261 318 381 462
#     4  11  28  51  77 110 157 199 257 322 400 468
#     4  10  25  47  75 113 161 210 257 318 380 454
#     4  11  28  45  80 112 152 205 258 325 391 468
#
# _framework density 29.048103000000001
#
# number of rings (size 3 to 8) (size 9 to 14) (size 15 to 20)
#    0.000    1.200    0.000    1.800   19.600    2.400 
#    0.000    0.000    0.000    0.000    0.000    0.000 
#    0.000    0.000    0.000    0.000    0.000    0.000 
#
# Total GULP energy -247932.873284 kJ/mol
# GULP energy per Si atom -12396.643664 kJ/mol
# Density = 2.898199 g / cm^3
# Si number density = 29.048103 Si / 1000 Ang^3
#
#
#
# Elastic Constant Matrix: (Units=GPa)
#
#
# Indices 1 2 3 4 5 6 
#
# 1 137.4358 -0.8989 62.2518 0.0000 23.8011 0.0000
# 2 -0.8989 32.9081 20.3612 0.0000 2.3026 0.0000
# 3 62.2518 20.3612 163.4350 0.0000 33.2836 0.0000
# 4 0.0000 0.0000 0.0000 55.8008 0.0000 -1.9862
# 5 23.8011 2.3026 33.2836 0.0000 50.6343 0.0000
# 6 0.0000 0.0000 0.0000 -1.9862 0.0000 40.6257
#
#
#
# Elastic Compliance Matrix: (Units=1/GPa)
#
#
# Indices 1 2 3 4 5 6 
#
# 1 0.009200 0.002486 -0.003360 0.000000 -0.002229 0.000000
# 2 0.002486 0.033682 -0.005303 0.000000 0.000786 0.000000
# 3 -0.003360 -0.005303 0.008877 0.000000 -0.004014 0.000000
# 4 0.000000 0.000000 0.000000 0.017952 0.000000 0.000878
# 5 -0.002229 0.000786 -0.004014 0.000000 0.023400 0.000000
# 6 0.000000 0.000000 0.000000 0.000878 0.000000 0.024658
#
#
# Mechanical properties :
#
#
# Convention : Reuss Voigt Hill
#
# Bulk Modulus (GPa) = 25.37756 55.24524 40.31140
# Shear Modulus (GPa) = 34.90194 46.21645 40.55920
#
# Velocity S-wave (km/s) = 3.47006 3.99310 3.74073
# Velocity P-wave (km/s) = 4.98101 6.34977 5.70658
#
# Compressibility (1/GPa) = 0.03940490
#
# Stress axis : x y z
#
# Youngs Moduli (GPa) = 108.69056 29.68953 112.65388
#
# Poissons Ratio (x) = -0.07382 0.37854
# Poissons Ratio (y) = -0.27024 0.59743
# Poissons Ratio (z) = 0.36523 0.15745
#
# Static dielectric constant tensor:
#      x y z
#    x 5.694090 0.000000 0.285640 
#    y 0.000000 4.888980 0.000000 
#    z 0.285640 0.000000 5.732330 
# 
# 
# High freq. dielectric constant tensor:
#      x y z
#    x 2.215600 0.000000 0.020960 
#    y 0.000000 2.176830 0.000000 
#    z 0.020960 0.000000 2.212230 
# 
# From -- ./inp_files/33246.got.cif
#   From: 2010.03.12/outbox.cif.g09.slc.cpg/sg14_17_cif.got.tgz:33246.got - 2010.03.31 13:35:05.
