data_PCOD8128763
_publ_section_title
;
Structure prediction by ZEFSAII (Michael W. Deem and Ramdas Pophale) SiO2 
 PCOD8128763
Probable space group: P 21/C
;
_chemical_formula_sum "Si O2"
_cell_formula_units_Z 28
_cell_length_a 7.537144
_cell_length_b 12.950790
_cell_length_c 14.951045
_cell_angle_alpha 90.000000
_cell_angle_beta 49.598059
_cell_angle_gamma 90.000000
_cell_volume 1111.357681
_symmetry_space_group_name_H-M "P 21/C"
_symmetry_group_IT_number 14
_symmetry_cell_setting 'monoclinic'
loop_
_space_group_symop_operation_xyz
x,y,z
-x,1/2+y,1/2-z
-x,-y,-z
x,1/2-y,1/2+z
loop_
_atom_site_type_symbol
_atom_site_label
_atom_site_fract_x
_atom_site_fract_y
_atom_site_fract_z
Si Si1 0.148111 0.171162 0.758490
Si Si2 0.376075 0.698079 0.838678
Si Si3 0.202514 0.405418 0.539343
Si Si4 0.173893 0.884500 0.985332
Si Si5 0.971055 0.117979 0.300380
Si Si6 0.065399 0.407320 0.092816
Si Si7 0.489134 0.212564 0.393733
O O1 0.412114 0.131687 0.688585
O O2 0.064750 0.158654 0.684172
O O3 0.990029 0.105186 0.875226
O O4 0.129112 0.292035 0.791407
O O5 0.463139 0.758601 0.723491
O O6 0.162460 0.621703 0.889927
O O7 0.329969 0.782548 0.932197
O O8 0.315841 0.507563 0.453360
O O9 0.397166 0.315537 0.475620
O O10 0.976475 0.373957 0.555771
O O11 0.105764 0.426840 0.670284
O O12 0.720662 0.168542 0.362647
O O13 0.936287 0.028754 0.385295
O O14 0.292812 0.376804 0.961632
#
# Coordination Sequence:
#
# PCOD8128763 Si02
#       7
#     4   4   4   4   4   4   4
#     4  12  25  45  75 107 145 193 248 300 373 432
#     4  12  25  47  73 103 155 188 244 312 361 440
#     4  11  22  44  77 105 144 193 247 302 370 437
#     4  11  23  44  72 110 146 190 250 302 364 446
#     4  12  26  48  74 110 147 199 248 303 380 448
#     4  12  26  50  71 106 152 196 243 310 374 437
#     4  12  22  48  73 104 154 190 234 322 366 431
#
# _framework density 25.194410999999999
#
# number of rings (size 3 to 8) (size 9 to 14) (size 15 to 20)
#    0.000    0.286    8.571    0.429    2.000    1.143 
#    2.571    3.571    0.000    0.000    0.000    0.000 
#    0.000    0.000    0.000    0.000    0.000    0.000 
#
# Total GULP energy -347169.732771 kJ/mol
# GULP energy per Si atom -12398.919028 kJ/mol
# Density = 2.513707 g / cm^3
# Si number density = 25.194411 Si / 1000 Ang^3
#
#
#
# Elastic Constant Matrix: (Units=GPa)
#
#
# Indices 1 2 3 4 5 6 
#
# 1 88.0040 32.3615 27.6982 0.0000 -23.1241 0.0000
# 2 32.3615 110.6039 -6.4037 0.0000 -12.6514 0.0000
# 3 27.6982 -6.4037 70.3410 0.0000 -13.4007 0.0000
# 4 0.0000 0.0000 0.0000 29.8631 0.0000 3.9797
# 5 -23.1241 -12.6514 -13.4007 0.0000 29.0211 0.0000
# 6 0.0000 0.0000 0.0000 3.9797 0.0000 30.2143
#
#
#
# Elastic Compliance Matrix: (Units=1/GPa)
#
#
# Indices 1 2 3 4 5 6 
#
# 1 0.017030 -0.004231 -0.005326 0.000000 0.009266 0.000000
# 2 -0.004231 0.010784 0.003181 0.000000 0.002798 0.000000
# 3 -0.005326 0.003181 0.017608 0.000000 0.005274 0.000000
# 4 0.000000 0.000000 0.000000 0.034084 0.000000 -0.004489
# 5 0.009266 0.002798 0.005274 0.000000 0.045496 0.000000
# 6 0.000000 0.000000 0.000000 -0.004489 0.000000 0.033688
#
#
# Mechanical properties :
#
#
# Convention : Reuss Voigt Hill
#
# Bulk Modulus (GPa) = 30.61004 41.80675 36.20840
# Shear Modulus (GPa) = 27.42252 32.17256 29.79754
#
# Velocity S-wave (km/s) = 3.30273 3.57735 3.44278
# Velocity P-wave (km/s) = 5.16913 5.80456 5.49604
#
# Compressibility (1/GPa) = 0.03266902
#
# Stress axis : x y z
#
# Youngs Moduli (GPa) = 58.71983 92.73373 56.79262
#
# Poissons Ratio (x) = 0.39238 0.30247
# Poissons Ratio (y) = 0.24846 -0.18066
# Poissons Ratio (z) = 0.31274 -0.29498
#
# Static dielectric constant tensor:
#      x y z
#    x 4.398750 0.000000 -0.093440 
#    y 0.000000 4.556330 0.000000 
#    z -0.093440 0.000000 4.685040 
# 
# 
# High freq. dielectric constant tensor:
#      x y z
#    x 1.999680 0.000000 0.002280 
#    y 0.000000 2.009540 0.000000 
#    z 0.002280 0.000000 2.010360 
# 
# From -- ./inp_files/55919.got.cif
#   From: 2010.03.12/outbox.cif.g09.slc.cpg/sg14_28_cif.got.tgz:55919.got - 2010.03.31 13:35:05.
