data_PCOD8128208
_publ_section_title
;
Structure prediction by ZEFSAII (Michael W. Deem and Ramdas Pophale) SiO2 
 PCOD8128208
Probable space group: P 21/C
;
_chemical_formula_sum "Si O2"
_cell_formula_units_Z 28
_cell_length_a 13.975110
_cell_length_b 9.543577
_cell_length_c 13.762928
_cell_angle_alpha 90.000000
_cell_angle_beta 45.650836
_cell_angle_gamma 90.000000
_cell_volume 1312.622638
_symmetry_space_group_name_H-M "P 21/C"
_symmetry_group_IT_number 14
_symmetry_cell_setting 'monoclinic'
loop_
_space_group_symop_operation_xyz
x,y,z
-x,1/2+y,1/2-z
-x,-y,-z
x,1/2-y,1/2+z
loop_
_atom_site_type_symbol
_atom_site_label
_atom_site_fract_x
_atom_site_fract_y
_atom_site_fract_z
Si Si1 0.491284 0.814403 0.082134
Si Si2 0.214923 0.679377 0.258017
Si Si3 0.340680 0.096964 0.206467
Si Si4 0.902014 0.552312 0.798893
Si Si5 0.888715 0.031204 0.998912
Si Si6 0.926653 0.468418 0.150614
Si Si7 0.271945 0.254833 0.452393
O O1 0.369228 0.716730 0.137937
O O2 0.578630 0.772384 0.113108
O O3 0.437487 0.965383 0.153514
O O4 0.581356 0.801159 0.921367
O O5 0.185191 0.555560 0.202691
O O6 0.210534 0.635803 0.375286
O O7 0.108173 0.803019 0.314440
O O8 0.292589 0.164590 0.340771
O O9 0.209142 0.053567 0.240801
O O10 0.030311 0.607259 0.645428
O O11 0.969724 0.476797 0.842645
O O12 0.812041 0.677598 0.903802
O O13 0.805779 0.897319 0.019290
O O14 0.000000 0.000000 0.000000
O O15 0.000000 0.500000 0.000000
#
# Coordination Sequence:
#
# PCOD8128208 Si02
#       7
#     4   4   4   4   4   4   4
#     4  10  25  46  66  96 138 179 232 276 342 407
#     4  10  25  45  66 103 135 181 224 292 334 408
#     4  10  24  45  66  95 136 181 224 282 336 419
#     4  11  23  41  67 102 134 174 226 277 352 402
#     4  10  24  43  65 100 139 167 229 287 344 407
#     4  11  22  43  69  99 138 174 226 280 352 406
#     4  12  25  42  73 101 130 189 222 284 353 401
#
# _framework density 21.331339
#
# number of rings (size 3 to 8) (size 9 to 14) (size 15 to 20)
#    0.000    1.429    1.429    2.571    6.000    4.000 
#    0.000    0.000    0.000    0.000    0.000    0.000 
#    0.000    0.000    0.000    0.000    0.000    0.000 
#
# Total GULP energy -346946.010537 kJ/mol
# GULP energy per Si atom -12390.928948 kJ/mol
# Density = 2.128279 g / cm^3
# Si number density = 21.331339 Si / 1000 Ang^3
#
#
#
# Elastic Constant Matrix: (Units=GPa)
#
#
# Indices 1 2 3 4 5 6 
#
# 1 122.7177 39.9812 23.6212 0.0000 -2.3768 0.0000
# 2 39.9812 79.5386 49.5044 0.0000 -0.9696 0.0000
# 3 23.6212 49.5044 127.7674 0.0000 10.2392 0.0000
# 4 0.0000 0.0000 0.0000 40.8396 0.0000 5.0099
# 5 -2.3768 -0.9696 10.2392 0.0000 34.9604 0.0000
# 6 0.0000 0.0000 0.0000 5.0099 0.0000 26.7296
#
#
#
# Elastic Compliance Matrix: (Units=1/GPa)
#
#
# Indices 1 2 3 4 5 6 
#
# 1 0.009755 -0.004941 0.000071 0.000000 0.000505 0.000000
# 2 -0.004941 0.019269 -0.006726 0.000000 0.002168 0.000000
# 3 0.000071 -0.006726 0.010685 0.000000 -0.003311 0.000000
# 4 0.000000 0.000000 0.000000 0.025062 0.000000 -0.004697
# 5 0.000505 0.002168 -0.003311 0.000000 0.029668 0.000000
# 6 0.000000 0.000000 0.000000 -0.004697 0.000000 0.038292
#
#
# Mechanical properties :
#
#
# Convention : Reuss Voigt Hill
#
# Bulk Modulus (GPa) = 60.54957 61.80414 61.17686
# Shear Modulus (GPa) = 30.97312 34.96703 32.97008
#
# Velocity S-wave (km/s) = 3.81465 4.05314 3.93570
# Velocity P-wave (km/s) = 6.91729 7.13724 7.02813
#
# Compressibility (1/GPa) = 0.01651539
#
# Stress axis : x y z
#
# Youngs Moduli (GPa) = 102.51361 51.89675 93.58778
#
# Poissons Ratio (x) = 0.25643 -0.00660
# Poissons Ratio (y) = 0.50653 0.62949
# Poissons Ratio (z) = -0.00723 0.34907
#
# Static dielectric constant tensor:
#      x y z
#    x 4.267720 0.000000 0.589440 
#    y 0.000000 3.951140 0.000000 
#    z 0.589440 0.000000 5.614180 
# 
# 
# High freq. dielectric constant tensor:
#      x y z
#    x 1.850040 0.000000 -0.001690 
#    y 0.000000 1.820400 0.000000 
#    z -0.001690 0.000000 1.860020 
# 
# From -- ./inp_files/46700.got.cif
#   From: 2010.03.12/outbox.cif.g09.slc.cpg/sg14_24_cif.got.tgz:46700.got - 2010.03.31 13:35:05.
