data_PCOD8128676
_publ_section_title
;
Structure prediction by ZEFSAII (Michael W. Deem and Ramdas Pophale) SiO2 
 PCOD8128676
Probable space group: P 21/C
;
_chemical_formula_sum "Si O2"
_cell_formula_units_Z 32
_cell_length_a 27.122804
_cell_length_b 8.214997
_cell_length_c 20.481676
_cell_angle_alpha 90.000000
_cell_angle_beta 160.888622
_cell_angle_gamma 90.000000
_cell_volume 1494.147648
_symmetry_space_group_name_H-M "P 21/C"
_symmetry_group_IT_number 14
_symmetry_cell_setting 'monoclinic'
loop_
_space_group_symop_operation_xyz
x,y,z
-x,1/2+y,1/2-z
-x,-y,-z
x,1/2-y,1/2+z
loop_
_atom_site_type_symbol
_atom_site_label
_atom_site_fract_x
_atom_site_fract_y
_atom_site_fract_z
Si Si1 0.821259 0.443070 0.656346
Si Si2 0.361433 0.938306 0.448023
Si Si3 0.161428 0.061719 0.584657
Si Si4 0.689552 0.061597 0.855478
Si Si5 0.821259 0.443070 0.156346
Si Si6 0.638568 0.438307 0.551977
Si Si7 0.689552 0.061597 0.355478
Si Si8 0.838572 0.561718 0.415343
O O1 0.743953 0.507092 0.493441
O O2 0.822235 0.250000 0.658227
O O3 0.726626 0.509268 0.599389
O O4 0.991738 0.507793 0.874448
O O5 0.273375 0.009268 0.400613
O O6 0.404513 0.750000 0.511472
O O7 0.511055 0.042568 0.625508
O O8 0.258631 0.954933 0.255749
O O9 0.168179 0.250000 0.613936
O O10 0.258630 0.954933 0.755749
O O11 0.225670 0.043735 0.592493
O O12 0.732514 0.250000 0.900181
O O13 0.774332 0.956266 0.907508
O O14 0.991737 0.507793 0.374448
O O15 0.743954 0.507093 0.993442
O O16 0.488946 0.542569 0.374491
#
# Coordination Sequence:
#
# PCOD8128676 Si02
#       8
#     4   4   4   4   4   4   4   4
#     4   9  21  39  61  86 115 147 190 239 286 336
#     4  11  22  39  60  86 116 151 190 235 284 338
#     4  11  22  39  60  86 116 151 190 235 284 338
#     4  11  22  39  60  86 116 151 190 235 284 338
#     4   9  21  39  61  86 115 147 190 239 286 336
#     4  11  22  39  60  86 116 151 190 235 284 338
#     4  11  22  39  60  86 116 151 190 235 284 338
#     4  11  22  39  60  86 116 151 190 235 284 338
#
# _framework density 21.416895
#
# number of rings (size 3 to 8) (size 9 to 14) (size 15 to 20)
#    0.000    1.500    0.000    5.250    0.000    0.000 
#    0.000   11.250    0.000    0.000    0.000    0.000 
#    0.000    0.000    0.000    0.000    0.000    0.000 
#
# Total GULP energy -397037.071928 kJ/mol
# GULP energy per Si atom -12407.408498 kJ/mol
# Density = 2.136815 g / cm^3
# Si number density = 21.416895 Si / 1000 Ang^3
#
#
#
# Elastic Constant Matrix: (Units=GPa)
#
#
# Indices 1 2 3 4 5 6 
#
# 1 90.9987 13.0133 -4.0831 0.0000 9.4928 0.0000
# 2 13.0133 36.6790 13.6856 0.0000 -0.9498 0.0000
# 3 -4.0831 13.6856 84.6889 0.0000 8.1368 0.0000
# 4 0.0000 0.0000 0.0000 0.8113 0.0000 -3.3453
# 5 9.4928 -0.9498 8.1368 0.0000 48.2053 0.0000
# 6 0.0000 0.0000 0.0000 -3.3453 0.0000 6.8237
#
#
#
# Elastic Compliance Matrix: (Units=1/GPa)
#
#
# Indices 1 2 3 4 5 6 
#
# 1 0.012060 -0.004965 0.001648 0.000000 -0.002751 0.000000
# 2 -0.004965 0.031148 -0.005515 0.000000 0.002522 0.000000
# 3 0.001648 -0.005515 0.013032 0.000000 -0.002633 0.000000
# 4 0.000000 0.000000 0.000000 -1.206704 0.000000 -0.591579
# 5 -0.002751 0.002522 -0.002633 0.000000 0.021780 0.000000
# 6 0.000000 0.000000 0.000000 -0.591579 0.000000 -0.143471
#
#
# Mechanical properties :
#
#
# Convention : Reuss Voigt Hill
#
# Bulk Modulus (GPa) = 25.92305 28.62203 27.27254
# Shear Modulus (GPa) = -4.02696 23.81811 9.89558
#
# Velocity S-wave (km/s) = -1.37272 3.33846 2.15186
# Velocity P-wave (km/s) = 3.10126 5.31542 4.35152
#
# Compressibility (1/GPa) = 0.03857571
#
# Stress axis : x y z
#
# Youngs Moduli (GPa) = 82.91799 32.10458 76.73647
#
# Poissons Ratio (x) = 0.15940 -0.12647
# Poissons Ratio (y) = 0.41168 0.42322
# Poissons Ratio (z) = -0.13666 0.17706
#
# Static dielectric constant tensor:
#      x y z
#    x 4.047000 0.000000 0.037730 
#    y 0.000000 3.455320 0.000000 
#    z 0.037730 0.000000 3.950470 
# 
# 
# High freq. dielectric constant tensor:
#      x y z
#    x 1.855400 0.000000 0.000700 
#    y 0.000000 1.819680 0.000000 
#    z 0.000700 0.000000 1.853660 
# 
# From -- ./inp_files/70532.got.cif
#   From: 2010.03.12/outbox.cif.g09.slc.cpg/sg14_36_cif.got.tgz:70532.got - 2010.03.31 13:35:05.
