data_PCOD8128625
_publ_section_title
;
Structure prediction by ZEFSAII (Michael W. Deem and Ramdas Pophale) SiO2 
 PCOD8128625
Probable space group: P 21/C
;
_chemical_formula_sum "Si O2"
_cell_formula_units_Z 24
_cell_length_a 15.187018
_cell_length_b 16.187198
_cell_length_c 9.764996
_cell_angle_alpha 90.000000
_cell_angle_beta 28.906932
_cell_angle_gamma 90.000000
_cell_volume 1160.412477
_symmetry_space_group_name_H-M "P 21/C"
_symmetry_group_IT_number 14
_symmetry_cell_setting 'monoclinic'
loop_
_space_group_symop_operation_xyz
x,y,z
-x,1/2+y,1/2-z
-x,-y,-z
x,1/2-y,1/2+z
loop_
_atom_site_type_symbol
_atom_site_label
_atom_site_fract_x
_atom_site_fract_y
_atom_site_fract_z
Si Si1 0.980742 0.936373 0.647832
Si Si2 0.502829 0.427995 0.772244
Si Si3 0.834536 0.005126 0.128277
Si Si4 0.366320 0.664819 0.157715
Si Si5 0.614556 0.886931 0.095608
Si Si6 0.632876 0.147658 0.829891
O O1 0.177732 0.902662 0.426655
O O2 0.833553 0.868191 0.789243
O O3 0.000000 0.000000 0.500000
O O4 0.886430 0.979428 0.905612
O O5 0.611671 0.362024 0.715112
O O6 0.606775 0.514229 0.621325
O O7 0.494116 0.386539 0.634326
O O8 0.311841 0.442688 0.107023
O O9 0.773582 0.100669 0.220149
O O10 0.000000 0.000000 0.000000
O O11 0.300125 0.758769 0.240162
O O12 0.552418 0.658717 0.818109
O O13 0.486593 0.858217 0.145004
#
# Coordination Sequence:
#
# PCOD8128625 Si02
#       6
#     4   4   4   4   4   4
#     4  12  23  42  69 101 130 171 231 276 320 405
#     4  11  21  44  68  89 132 180 217 269 333 405
#     4  11  23  42  70  95 130 181 231 266 329 414
#     4  11  22  46  64  93 139 175 215 285 338 385
#     4  11  22  43  70  92 131 179 222 264 334 405
#     4  12  26  41  68 102 135 168 227 285 336 386
#
# _framework density 20.682299
#
# number of rings (size 3 to 8) (size 9 to 14) (size 15 to 20)
#    0.000    0.667    5.000    4.500    2.333    0.000 
#    6.000    0.000    0.000    0.000    0.000    0.000 
#    0.000    0.000    0.000    0.000    0.000    0.000 
#
# Total GULP energy -297365.732204 kJ/mol
# GULP energy per Si atom -12390.238842 kJ/mol
# Density = 2.063523 g / cm^3
# Si number density = 20.682299 Si / 1000 Ang^3
#
#
#
# Elastic Constant Matrix: (Units=GPa)
#
#
# Indices 1 2 3 4 5 6 
#
# 1 105.6269 18.0847 37.0436 0.0000 -13.8593 0.0000
# 2 18.0847 96.4009 40.7900 0.0000 4.2808 0.0000
# 3 37.0436 40.7900 104.7776 0.0000 0.1620 0.0000
# 4 0.0000 0.0000 0.0000 19.8259 0.0000 4.7941
# 5 -13.8593 4.2808 0.1620 0.0000 40.0659 0.0000
# 6 0.0000 0.0000 0.0000 4.7941 0.0000 28.3290
#
#
#
# Elastic Compliance Matrix: (Units=1/GPa)
#
#
# Indices 1 2 3 4 5 6 
#
# 1 0.011446 -0.000733 -0.003768 0.000000 0.004053 0.000000
# 2 -0.000733 0.012535 -0.004618 0.000000 -0.001574 0.000000
# 3 -0.003768 -0.004618 0.012675 0.000000 -0.000861 0.000000
# 4 0.000000 0.000000 0.000000 0.052591 0.000000 -0.008900
# 5 0.004053 -0.001574 -0.000861 0.000000 0.026532 0.000000
# 6 0.000000 0.000000 0.000000 -0.008900 0.000000 0.036806
#
#
# Mechanical properties :
#
#
# Convention : Reuss Voigt Hill
#
# Bulk Modulus (GPa) = 54.29371 55.40467 54.84919
# Shear Modulus (GPa) = 28.25461 31.70330 29.97895
#
# Velocity S-wave (km/s) = 3.70012 3.91944 3.81136
# Velocity P-wave (km/s) = 6.67554 6.87963 6.77835
#
# Compressibility (1/GPa) = 0.01841834
#
# Stress axis : x y z
#
# Youngs Moduli (GPa) = 87.36810 79.77740 78.89403
#
# Poissons Ratio (x) = 0.05848 0.29723
# Poissons Ratio (y) = 0.06405 0.36435
# Poissons Ratio (z) = 0.32916 0.36843
#
# Static dielectric constant tensor:
#      x y z
#    x 4.468340 0.000000 0.024930 
#    y 0.000000 4.453370 0.000000 
#    z 0.024930 0.000000 4.055380 
# 
# 
# High freq. dielectric constant tensor:
#      x y z
#    x 1.824780 0.000000 0.009430 
#    y 0.000000 1.789550 0.000000 
#    z 0.009430 0.000000 1.820310 
# 
# From -- ./inp_files/16617.got.cif
#   From: 2010.03.12/outbox.cif.g09.slc.cpg/sg14_9_cif.got.tgz:16617.got - 2010.03.31 13:35:05.
