data_PCOD8128890
_publ_section_title
;
Structure prediction by ZEFSAII (Michael W. Deem and Ramdas Pophale) SiO2 
 PCOD8128890
Probable space group: P 21/C
;
_chemical_formula_sum "Si O2"
_cell_formula_units_Z 28
_cell_length_a 16.593574
_cell_length_b 6.655717
_cell_length_c 14.114143
_cell_angle_alpha 90.000000
_cell_angle_beta 63.813236
_cell_angle_gamma 90.000000
_cell_volume 1398.801754
_symmetry_space_group_name_H-M "P 21/C"
_symmetry_group_IT_number 14
_symmetry_cell_setting 'monoclinic'
loop_
_space_group_symop_operation_xyz
x,y,z
-x,1/2+y,1/2-z
-x,-y,-z
x,1/2-y,1/2+z
loop_
_atom_site_type_symbol
_atom_site_label
_atom_site_fract_x
_atom_site_fract_y
_atom_site_fract_z
Si Si1 0.105253 0.230983 0.120535
Si Si2 0.599080 0.202742 0.899173
Si Si3 0.817812 0.777578 0.123788
Si Si4 0.792711 0.452040 0.290169
Si Si5 0.624309 0.541046 0.741216
Si Si6 0.514630 0.369965 0.633860
Si Si7 0.092035 0.939863 0.781649
O O1 0.101217 0.439302 0.178997
O O2 0.006235 0.148322 0.156453
O O3 0.164922 0.067162 0.143185
O O4 0.149425 0.279167 0.997255
O O5 0.686861 0.064171 0.863418
O O6 0.621805 0.414938 0.839636
O O7 0.523825 0.084735 0.878524
O O8 0.560776 0.248699 0.023324
O O9 0.808249 0.569341 0.184479
O O10 0.725031 0.896449 0.166560
O O11 0.891295 0.915884 0.137656
O O12 0.834525 0.233485 0.258189
O O13 0.590303 0.402241 0.673526
O O14 0.564550 0.738543 0.781404
#
# Coordination Sequence:
#
# PCOD8128890 Si02
#       7
#     4   4   4   4   4   4   4
#     4  11  24  44  65  96 126 168 211 257 318 379
#     4  11  23  43  63  89 129 167 209 253 316 366
#     4  11  25  41  68  95 127 165 212 265 314 370
#     4  11  23  44  64  94 131 163 211 264 309 383
#     4  12  22  44  62  95 127 160 216 258 306 377
#     4  11  24  40  66  91 124 170 204 262 311 367
#     4  11  23  44  67  92 132 165 208 263 311 382
#
# _framework density 20.017133000000001
#
# number of rings (size 3 to 8) (size 9 to 14) (size 15 to 20)
#    0.000    0.857    5.714    1.714    0.000    1.714 
#    5.143    0.000    0.000    0.000    0.000    0.000 
#    0.000    0.000    0.000    0.000    0.000    0.000 
#
# Total GULP energy -347408.381433 kJ/mol
# GULP energy per Si atom -12407.442194 kJ/mol
# Density = 1.997157 g / cm^3
# Si number density = 20.017133 Si / 1000 Ang^3
#
#
#
# Elastic Constant Matrix: (Units=GPa)
#
#
# Indices 1 2 3 4 5 6 
#
# 1 92.2329 20.0317 38.1436 0.0000 -6.3242 0.0000
# 2 20.0317 68.0222 24.0542 0.0000 -6.3933 0.0000
# 3 38.1436 24.0542 125.0407 0.0000 3.0748 0.0000
# 4 0.0000 0.0000 0.0000 19.5622 0.0000 -2.0162
# 5 -6.3242 -6.3933 3.0748 0.0000 23.8633 0.0000
# 6 0.0000 0.0000 0.0000 -2.0162 0.0000 35.7844
#
#
#
# Elastic Compliance Matrix: (Units=1/GPa)
#
#
# Indices 1 2 3 4 5 6 
#
# 1 0.013061 -0.002249 -0.003634 0.000000 0.003327 0.000000
# 2 -0.002249 0.016689 -0.002628 0.000000 0.004214 0.000000
# 3 -0.003634 -0.002628 0.009683 0.000000 -0.002915 0.000000
# 4 0.000000 0.000000 0.000000 0.051417 0.000000 0.002897
# 5 0.003327 0.004214 -0.002915 0.000000 0.044292 0.000000
# 6 0.000000 0.000000 0.000000 0.002897 0.000000 0.028108
#
#
# Mechanical properties :
#
#
# Convention : Reuss Voigt Hill
#
# Bulk Modulus (GPa) = 44.61837 49.97275 47.29556
# Shear Modulus (GPa) = 26.63228 29.37974 28.00601
#
# Velocity S-wave (km/s) = 3.65152 3.83525 3.74452
# Velocity P-wave (km/s) = 6.33377 6.68067 6.50953
#
# Compressibility (1/GPa) = 0.02241229
#
# Stress axis : x y z
#
# Youngs Moduli (GPa) = 76.56176 59.92079 103.27323
#
# Poissons Ratio (x) = 0.13475 0.37525
# Poissons Ratio (y) = 0.17217 0.27141
# Poissons Ratio (z) = 0.27819 0.15747
#
# Static dielectric constant tensor:
#      x y z
#    x 3.859110 0.000000 0.066350 
#    y 0.000000 3.570880 0.000000 
#    z 0.066350 0.000000 3.632050 
# 
# 
# High freq. dielectric constant tensor:
#      x y z
#    x 1.800460 0.000000 0.000460 
#    y 0.000000 1.784400 0.000000 
#    z 0.000460 0.000000 1.782810 
# 
# From -- ./inp_files/47956.got.cif
#   From: 2010.03.12/outbox.cif.g09.slc.cpg/sg14_24_cif.got.tgz:47956.got - 2010.03.31 13:35:05.
