data_PCOD8128824
_publ_section_title
;
Structure prediction by ZEFSAII (Michael W. Deem and Ramdas Pophale) SiO2 
 PCOD8128824
Probable space group: P 21/C
;
_chemical_formula_sum "Si O2"
_cell_formula_units_Z 20
_cell_length_a 12.707722
_cell_length_b 7.464459
_cell_length_c 9.521202
_cell_angle_alpha 90.000000
_cell_angle_beta 80.592565
_cell_angle_gamma 90.000000
_cell_volume 890.999263
_symmetry_space_group_name_H-M "P 21/C"
_symmetry_group_IT_number 14
_symmetry_cell_setting 'monoclinic'
loop_
_space_group_symop_operation_xyz
x,y,z
-x,1/2+y,1/2-z
-x,-y,-z
x,1/2-y,1/2+z
loop_
_atom_site_type_symbol
_atom_site_label
_atom_site_fract_x
_atom_site_fract_y
_atom_site_fract_z
Si Si1 0.887397 0.403308 0.012288
Si Si2 0.244257 0.293395 0.110209
Si Si3 0.620149 0.746214 0.177727
Si Si4 0.810866 0.101638 0.840377
Si Si5 0.421198 0.581194 0.633198
O O1 0.817340 0.543958 0.942304
O O2 0.889543 0.217062 0.923601
O O3 0.840670 0.355401 0.173773
O O4 0.000000 0.500000 0.000000
O O5 0.297159 0.363562 0.245406
O O6 0.172031 0.112944 0.138765
O O7 0.344994 0.241528 0.990715
O O8 0.632525 0.553525 0.244766
O O9 0.494274 0.790300 0.213043
O O10 0.688071 0.167290 0.904626
O O11 0.500000 0.500000 0.500000
#
# Coordination Sequence:
#
# PCOD8128824 Si02
#       5
#     4   4   4   4   4
#     4  12  30  49  76 104 137 195 241 304 364 405
#     4  11  24  48  69 103 148 184 239 294 353 427
#     4  11  23  40  68 100 144 191 228 286 353 436
#     4  11  28  48  71 110 143 183 245 294 352 440
#     4  11  23  40  65 104 141 185 227 281 360 424
#
# _framework density 22.446707
#
# number of rings (size 3 to 8) (size 9 to 14) (size 15 to 20)
#    0.000    0.800    8.000    0.000   11.200    1.600 
#    0.000    0.000    0.000    0.000    0.000    0.000 
#    0.000    0.000    0.000    0.000    0.000    0.000 
#
# Total GULP energy -247818.113084 kJ/mol
# GULP energy per Si atom -12390.905654 kJ/mol
# Density = 2.239562 g / cm^3
# Si number density = 22.446707 Si / 1000 Ang^3
#
#
#
# Elastic Constant Matrix: (Units=GPa)
#
#
# Indices 1 2 3 4 5 6 
#
# 1 97.3939 3.2555 4.5185 0.0000 -5.0746 0.0000
# 2 3.2555 58.9106 18.9450 0.0000 4.4740 0.0000
# 3 4.5185 18.9450 85.9181 0.0000 -2.4596 0.0000
# 4 0.0000 0.0000 0.0000 31.5554 0.0000 11.6657
# 5 -5.0746 4.4740 -2.4596 0.0000 24.1928 0.0000
# 6 0.0000 0.0000 0.0000 11.6657 0.0000 44.0289
#
#
#
# Elastic Compliance Matrix: (Units=1/GPa)
#
#
# Indices 1 2 3 4 5 6 
#
# 1 0.010423 -0.000638 -0.000342 0.000000 0.002270 0.000000
# 2 -0.000638 0.018665 -0.004197 0.000000 -0.004012 0.000000
# 3 -0.000342 -0.004197 0.012639 0.000000 0.001989 0.000000
# 4 0.000000 0.000000 0.000000 0.035131 0.000000 -0.009308
# 5 0.002270 -0.004012 0.001989 0.000000 0.042755 0.000000
# 6 0.000000 0.000000 0.000000 -0.009308 0.000000 0.025179
#
#
# Mechanical properties :
#
#
# Convention : Reuss Voigt Hill
#
# Bulk Modulus (GPa) = 31.87566 32.85116 32.36341
# Shear Modulus (GPa) = 30.19246 34.32232 32.25739
#
# Velocity S-wave (km/s) = 3.67150 3.91456 3.79498
# Velocity P-wave (km/s) = 5.67492 5.92441 5.80101
#
# Compressibility (1/GPa) = 0.03137190
#
# Stress axis : x y z
#
# Youngs Moduli (GPa) = 95.94114 53.57758 79.11792
#
# Poissons Ratio (x) = 0.03419 0.02709
# Poissons Ratio (y) = 0.06123 0.33205
# Poissons Ratio (z) = 0.03286 0.22486
#
# Static dielectric constant tensor:
#      x y z
#    x 5.090180 0.000000 0.469970 
#    y 0.000000 3.880960 0.000000 
#    z 0.469970 0.000000 4.266370 
# 
# 
# High freq. dielectric constant tensor:
#      x y z
#    x 1.887930 0.000000 0.010860 
#    y 0.000000 1.869920 0.000000 
#    z 0.010860 0.000000 1.894070 
# 
# From -- ./inp_files/11798.got.cif
#   From: 2010.03.12/outbox.cif.g09.slc.cpg/sg14_6_cif.got.tgz:11798.got - 2010.03.31 13:35:05.
