data_PCOD8128064
_publ_section_title
;
Structure prediction by ZEFSAII (Michael W. Deem and Ramdas Pophale) SiO2 
 PCOD8128064
Probable space group: P 21/C
;
_chemical_formula_sum "Si O2"
_cell_formula_units_Z 20
_cell_length_a 18.851559
_cell_length_b 4.826720
_cell_length_c 13.621716
_cell_angle_alpha 90.000000
_cell_angle_beta 145.416738
_cell_angle_gamma 90.000000
_cell_volume 703.519398
_symmetry_space_group_name_H-M "P 21/C"
_symmetry_group_IT_number 14
_symmetry_cell_setting 'monoclinic'
loop_
_space_group_symop_operation_xyz
x,y,z
-x,1/2+y,1/2-z
-x,-y,-z
x,1/2-y,1/2+z
loop_
_atom_site_type_symbol
_atom_site_label
_atom_site_fract_x
_atom_site_fract_y
_atom_site_fract_z
Si Si1 0.189022 0.163510 0.148419
Si Si2 0.848671 0.007855 0.568586
Si Si3 0.388243 0.054053 0.527084
Si Si4 0.343691 0.559240 0.605693
Si Si5 0.981709 0.769950 0.386430
O O1 0.324084 0.118716 0.350636
O O2 0.099845 0.383298 0.111575
O O3 0.225194 0.270159 0.079888
O O4 0.107055 0.887354 0.062028
O O5 0.881489 0.935223 0.718071
O O6 0.778007 0.305224 0.480313
O O7 0.979297 0.011178 0.653907
O O8 0.328393 0.242374 0.548688
O O9 0.536780 0.106327 0.687226
O O10 0.365893 0.737153 0.531733
#
# Coordination Sequence:
#
# PCOD8128064 Si02
#       5
#     4   4   4   4   4
#     4  11  25  42  68  98 140 178 232 276 347 404
#     4  12  24  40  68  98 137 184 226 285 335 417
#     4  10  23  46  70 100 137 182 226 287 337 403
#     4  10  24  44  72  99 137 181 229 282 345 391
#     4  11  25  42  63 103 139 179 227 282 345 402
#
# _framework density 28.428495999999999
#
# number of rings (size 3 to 8) (size 9 to 14) (size 15 to 20)
#    0.000    1.200    4.000    0.600    8.400    0.800 
#    0.000    1.000    0.000    0.000    0.000    0.000 
#    0.000    0.000    0.000    0.000    0.000    0.000 
#
# Total GULP energy -247955.264627 kJ/mol
# GULP energy per Si atom -12397.763231 kJ/mol
# Density = 2.836379 g / cm^3
# Si number density = 28.428496 Si / 1000 Ang^3
#
#
#
# Elastic Constant Matrix: (Units=GPa)
#
#
# Indices 1 2 3 4 5 6 
#
# 1 105.1192 -21.7026 6.0615 0.0000 -14.0593 0.0000
# 2 -21.7026 64.4963 11.6429 0.0000 -5.9205 0.0000
# 3 6.0615 11.6429 189.0916 0.0000 -6.7489 0.0000
# 4 0.0000 0.0000 0.0000 25.3710 0.0000 10.4969
# 5 -14.0593 -5.9205 -6.7489 0.0000 36.1547 0.0000
# 6 0.0000 0.0000 0.0000 10.4969 0.0000 22.8870
#
#
#
# Elastic Compliance Matrix: (Units=1/GPa)
#
#
# Indices 1 2 3 4 5 6 
#
# 1 0.011076 0.004259 -0.000442 0.000000 0.004922 0.000000
# 2 0.004259 0.017527 -0.001061 0.000000 0.004328 0.000000
# 3 -0.000442 -0.001061 0.005392 0.000000 0.000661 0.000000
# 4 0.000000 0.000000 0.000000 0.048646 0.000000 -0.022311
# 5 0.004922 0.004328 0.000661 0.000000 0.030405 0.000000
# 6 0.000000 0.000000 0.000000 -0.022311 0.000000 0.053926
#
#
# Mechanical properties :
#
#
# Convention : Reuss Voigt Hill
#
# Bulk Modulus (GPa) = 25.31290 38.96787 32.14038
# Shear Modulus (GPa) = 28.63234 41.06290 34.84762
#
# Velocity S-wave (km/s) = 3.17704 3.80469 3.50494
# Velocity P-wave (km/s) = 4.73091 5.74786 5.26400
#
# Compressibility (1/GPa) = 0.03950555
#
# Stress axis : x y z
#
# Youngs Moduli (GPa) = 90.28552 57.05620 185.47615
#
# Poissons Ratio (x) = -0.24298 0.08190
# Poissons Ratio (y) = -0.38448 0.19683
# Poissons Ratio (z) = 0.03987 0.06055
#
# Static dielectric constant tensor:
#      x y z
#    x 5.473960 0.000000 0.041570 
#    y 0.000000 5.188200 0.000000 
#    z 0.041570 0.000000 5.267400 
# 
# 
# High freq. dielectric constant tensor:
#      x y z
#    x 2.165130 0.000000 0.004640 
#    y 0.000000 2.153480 0.000000 
#    z 0.004640 0.000000 2.165610 
# 
# From -- ./inp_files/42498.got.cif
#   From: 2010.03.12/outbox.cif.g09.slc.cpg/sg14_22_cif.got.tgz:42498.got - 2010.03.31 13:35:05.
