data_PCOD8128969
_publ_section_title
;
Structure prediction by ZEFSAII (Michael W. Deem and Ramdas Pophale) SiO2 
 PCOD8128969
Probable space group: P 21/C
;
_chemical_formula_sum "Si O2"
_cell_formula_units_Z 32
_cell_length_a 18.270105
_cell_length_b 13.872851
_cell_length_c 10.610961
_cell_angle_alpha 90.000000
_cell_angle_beta 30.122494
_cell_angle_gamma 90.000000
_cell_volume 1349.695241
_symmetry_space_group_name_H-M "P 21/C"
_symmetry_group_IT_number 14
_symmetry_cell_setting 'monoclinic'
loop_
_space_group_symop_operation_xyz
x,y,z
-x,1/2+y,1/2-z
-x,-y,-z
x,1/2-y,1/2+z
loop_
_atom_site_type_symbol
_atom_site_label
_atom_site_fract_x
_atom_site_fract_y
_atom_site_fract_z
Si Si1 0.449611 0.523506 0.434061
Si Si2 0.901055 0.173083 0.365190
Si Si3 0.293562 0.598625 0.047700
Si Si4 0.879563 0.015247 0.575350
Si Si5 0.477002 0.750122 0.374032
Si Si6 0.352596 0.265756 0.126850
Si Si7 0.910551 0.846362 0.362068
Si Si8 0.851035 0.589392 0.673916
O O1 0.500000 0.500000 0.500000
O O2 0.566690 0.470879 0.172363
O O3 0.286850 0.485964 0.641739
O O4 0.448326 0.637226 0.412541
O O5 0.748859 0.155498 0.518309
O O6 0.944216 0.283890 0.324778
O O7 0.884080 0.127025 0.528812
O O8 0.019102 0.113454 0.111532
O O9 0.328987 0.684615 0.093537
O O10 0.161835 0.527476 0.290262
O O11 0.934352 0.954373 0.373654
O O12 0.000000 0.000000 0.500000
O O13 0.553011 0.781030 0.389319
O O14 0.561427 0.781828 0.119349
O O15 0.219582 0.196770 0.360859
O O16 0.297471 0.370974 0.166678
O O17 0.870544 0.850929 0.274996
#
# Coordination Sequence:
#
# PCOD8128969 Si02
#       8
#     4   4   4   4   4   4   4   4
#     4  12  24  50  76 103 158 206 251 309 395 461
#     4  11  27  44  73 107 145 198 252 315 376 462
#     4  12  24  46  73 107 149 196 250 320 389 445
#     4  12  28  47  72 111 149 202 255 315 378 462
#     4  12  26  43  77 112 147 194 259 316 375 456
#     4  11  23  45  72 110 142 199 249 307 376 465
#     4  11  24  45  76 101 153 200 253 298 392 464
#     4  11  23  47  73 102 153 200 243 314 398 453
#
# _framework density 23.709054999999999
#
# number of rings (size 3 to 8) (size 9 to 14) (size 15 to 20)
#    0.000    0.500    5.000    2.625    5.250    2.500 
#    2.250    0.000    0.000    0.000    0.000    0.000 
#    0.000    0.000    0.000    0.000    0.000    0.000 
#
# Total GULP energy -396670.123223 kJ/mol
# GULP energy per Si atom -12395.941351 kJ/mol
# Density = 2.365509 g / cm^3
# Si number density = 23.709055 Si / 1000 Ang^3
#
#
#
# Elastic Constant Matrix: (Units=GPa)
#
#
# Indices 1 2 3 4 5 6 
#
# 1 153.7153 24.6399 24.9976 0.0000 -24.4768 0.0000
# 2 24.6399 116.3770 3.8605 0.0000 -21.0079 0.0000
# 3 24.9976 3.8605 75.1662 0.0000 -9.4947 0.0000
# 4 0.0000 0.0000 0.0000 30.5291 0.0000 -8.9392
# 5 -24.4768 -21.0079 -9.4947 0.0000 40.7985 0.0000
# 6 0.0000 0.0000 0.0000 -8.9392 0.0000 38.8855
#
#
#
# Elastic Compliance Matrix: (Units=1/GPa)
#
#
# Indices 1 2 3 4 5 6 
#
# 1 0.007548 -0.000880 -0.002009 0.000000 0.003607 0.000000
# 2 -0.000880 0.009577 0.000368 0.000000 0.004489 0.000000
# 3 -0.002009 0.000368 0.014244 0.000000 0.002299 0.000000
# 4 0.000000 0.000000 0.000000 0.035120 0.000000 0.008073
# 5 0.003607 0.004489 0.002299 0.000000 0.029521 0.000000
# 6 0.000000 0.000000 0.000000 0.008073 0.000000 0.027573
#
#
# Mechanical properties :
#
#
# Convention : Reuss Voigt Hill
#
# Bulk Modulus (GPa) = 37.98606 50.25052 44.11829
# Shear Modulus (GPa) = 36.38997 41.49331 38.94164
#
# Velocity S-wave (km/s) = 3.92197 4.18796 4.05715
# Velocity P-wave (km/s) = 6.04696 6.68027 6.37149
#
# Compressibility (1/GPa) = 0.02632545
#
# Stress axis : x y z
#
# Youngs Moduli (GPa) = 132.48888 104.41392 70.20728
#
# Poissons Ratio (x) = 0.09191 0.14106
# Poissons Ratio (y) = 0.11662 -0.02583
# Poissons Ratio (z) = 0.26620 -0.03841
#
# Static dielectric constant tensor:
#      x y z
#    x 4.391940 0.000000 -0.067550 
#    y 0.000000 4.202940 0.000000 
#    z -0.067550 0.000000 4.506350 
# 
# 
# High freq. dielectric constant tensor:
#      x y z
#    x 1.932070 0.000000 -0.005880 
#    y 0.000000 1.950310 0.000000 
#    z -0.005880 0.000000 1.946190 
# 
# From -- ./inp_files/34214.got.cif
#   From: 2010.03.12/outbox.cif.g09.slc.cpg/sg14_18_cif.got.tgz:34214.got - 2010.03.31 13:35:05.
