data_PCOD8128707
_publ_section_title
;
Structure prediction by ZEFSAII (Michael W. Deem and Ramdas Pophale) SiO2 
 PCOD8128707
Probable space group: P 21/C
;
_chemical_formula_sum "Si O2"
_cell_formula_units_Z 32
_cell_length_a 6.371995
_cell_length_b 8.537772
_cell_length_c 26.287239
_cell_angle_alpha 90.000000
_cell_angle_beta 81.230375
_cell_angle_gamma 90.000000
_cell_volume 1413.376466
_symmetry_space_group_name_H-M "P 21/C"
_symmetry_group_IT_number 14
_symmetry_cell_setting 'monoclinic'
loop_
_space_group_symop_operation_xyz
x,y,z
-x,1/2+y,1/2-z
-x,-y,-z
x,1/2-y,1/2+z
loop_
_atom_site_type_symbol
_atom_site_label
_atom_site_fract_x
_atom_site_fract_y
_atom_site_fract_z
Si Si1 0.314026 0.539603 0.706898
Si Si2 0.510069 0.534331 0.880162
Si Si3 0.849338 0.762244 0.411709
Si Si4 0.062325 0.503290 0.339760
Si Si5 0.488303 0.181509 0.991495
Si Si6 0.581279 0.237568 0.204765
Si Si7 0.397964 0.196807 0.878306
Si Si8 0.181159 0.612289 0.970645
O O1 0.390520 0.655102 0.747586
O O2 0.361122 0.358370 0.720148
O O3 0.441681 0.569325 0.649670
O O4 0.067298 0.567974 0.703246
O O5 0.754230 0.591164 0.881980
O O6 0.409902 0.661217 0.846444
O O7 0.483166 0.365223 0.854359
O O8 0.377057 0.519206 0.938004
O O9 0.678556 0.745735 0.462299
O O10 0.889364 0.604466 0.378207
O O11 0.077101 0.795382 0.427715
O O12 0.234571 0.610731 0.306513
O O13 0.162409 0.359041 0.368637
O O14 0.401184 0.206097 0.938611
O O15 0.717631 0.268206 0.991355
O O16 0.500000 0.000000 0.000000
O O17 0.000000 0.500000 0.000000
#
# Coordination Sequence:
#
# PCOD8128707 Si02
#       8
#     4   4   4   4   4   4   4   4
#     4  11  25  46  69  97 134 170 221 282 342 406
#     4  11  23  42  66  95 135 175 222 277 343 399
#     4  11  22  41  66  92 133 184 219 277 335 398
#     4  11  24  44  68  96 134 175 227 277 343 411
#     4  11  24  39  63  94 136 178 229 272 336 394
#     4  11  24  45  70  96 129 173 218 279 344 407
#     4  11  25  42  64 101 135 174 225 282 331 407
#     4  11  23  39  62  96 133 178 227 275 329 402
#
# _framework density 22.640816000000001
#
# number of rings (size 3 to 8) (size 9 to 14) (size 15 to 20)
#    0.000    1.000    2.500    3.750    3.500   11.000 
#    2.250    0.000    0.000    0.000    0.000    0.000 
#    0.000    0.000    0.000    0.000    0.000    0.000 
#
# Total GULP energy -396603.096203 kJ/mol
# GULP energy per Si atom -12393.846756 kJ/mol
# Density = 2.258928 g / cm^3
# Si number density = 22.640816 Si / 1000 Ang^3
#
#
#
# Elastic Constant Matrix: (Units=GPa)
#
#
# Indices 1 2 3 4 5 6 
#
# 1 118.4316 50.4252 34.6573 0.0000 32.7789 0.0000
# 2 50.4252 139.0120 36.1685 0.0000 25.5607 0.0000
# 3 34.6573 36.1685 74.4616 0.0000 17.4556 0.0000
# 4 0.0000 0.0000 0.0000 33.5301 0.0000 6.5905
# 5 32.7789 25.5607 17.4556 0.0000 38.4170 0.0000
# 6 0.0000 0.0000 0.0000 6.5905 0.0000 44.3048
#
#
#
# Elastic Compliance Matrix: (Units=1/GPa)
#
#
# Indices 1 2 3 4 5 6 
#
# 1 0.012412 -0.002343 -0.002822 0.000000 -0.007749 0.000000
# 2 -0.002343 0.009296 -0.002735 0.000000 -0.002943 0.000000
# 3 -0.002822 -0.002735 0.016879 0.000000 -0.003441 0.000000
# 4 0.000000 0.000000 0.000000 0.030722 0.000000 -0.004570
# 5 -0.007749 -0.002943 -0.003441 0.000000 0.036164 0.000000
# 6 0.000000 0.000000 0.000000 -0.004570 0.000000 0.023251
#
#
# Mechanical properties :
#
#
# Convention : Reuss Voigt Hill
#
# Bulk Modulus (GPa) = 43.88655 63.82302 53.85478
# Shear Modulus (GPa) = 32.86876 37.29397 35.08137
#
# Velocity S-wave (km/s) = 3.81431 4.06298 3.94061
# Velocity P-wave (km/s) = 6.23094 7.08949 6.67403
#
# Compressibility (1/GPa) = 0.02278603
#
# Stress axis : x y z
#
# Youngs Moduli (GPa) = 80.56716 107.56870 59.24677
#
# Poissons Ratio (x) = 0.25205 0.16721
# Poissons Ratio (y) = 0.18878 0.16204
# Poissons Ratio (z) = 0.22739 0.29420
#
# Static dielectric constant tensor:
#      x y z
#    x 4.207290 0.000000 0.360770 
#    y 0.000000 4.624530 0.000000 
#    z 0.360770 0.000000 4.012210 
# 
# 
# High freq. dielectric constant tensor:
#      x y z
#    x 1.894600 0.000000 0.015740 
#    y 0.000000 1.901200 0.000000 
#    z 0.015740 0.000000 1.891240 
# 
# From -- ./inp_files/78812.got.cif
#   From: 2010.03.12/outbox.cif.g09.slc.cpg/sg14_40_cif.got.tgz:78812.got - 2010.03.31 13:35:05.
