data_PCOD8128249
_publ_section_title
;
Structure prediction by ZEFSAII (Michael W. Deem and Ramdas Pophale) SiO2 
 PCOD8128249
Probable space group: P 21/C
;
_chemical_formula_sum "Si O2"
_cell_formula_units_Z 28
_cell_length_a 5.172325
_cell_length_b 29.536756
_cell_length_c 8.933549
_cell_angle_alpha 90.000000
_cell_angle_beta 57.881767
_cell_angle_gamma 90.000000
_cell_volume 1155.930757
_symmetry_space_group_name_H-M "P 21/C"
_symmetry_group_IT_number 14
_symmetry_cell_setting 'monoclinic'
loop_
_space_group_symop_operation_xyz
x,y,z
-x,1/2+y,1/2-z
-x,-y,-z
x,1/2-y,1/2+z
loop_
_atom_site_type_symbol
_atom_site_label
_atom_site_fract_x
_atom_site_fract_y
_atom_site_fract_z
Si Si1 0.196173 0.955131 0.101509
Si Si2 0.497172 0.733609 0.939474
Si Si3 0.460710 0.136451 0.454128
Si Si4 0.053393 0.884887 0.918692
Si Si5 0.859560 0.410420 0.078359
Si Si6 0.823425 0.545362 0.273928
Si Si7 0.115592 0.284478 0.455656
O O1 0.300246 0.933158 0.228481
O O2 0.011587 0.001990 0.194340
O O3 0.999639 0.917518 0.076924
O O4 0.467353 0.966832 0.900709
O O5 0.600029 0.719510 0.743354
O O6 0.452168 0.689203 0.056041
O O7 0.773494 0.762719 0.923712
O O8 0.185082 0.761546 0.020975
O O9 0.599914 0.120022 0.251592
O O10 0.596092 0.108723 0.552769
O O11 0.095985 0.129048 0.558036
O O12 0.866561 0.906095 0.839186
O O13 0.924923 0.837121 0.005402
O O14 0.057331 0.449456 0.932325
#
# Coordination Sequence:
#
# PCOD8128249 Si02
#       7
#     4   4   4   4   4   4   4
#     4  11  23  42  70  95 136 181 230 278 345 402
#     4  12  26  47  68 107 131 186 221 291 336 421
#     4  11  24  45  69  99 141 172 229 277 343 398
#     4  11  24  43  69  97 136 180 222 287 336 409
#     4  11  24  43  69 102 137 183 223 286 332 411
#     4  10  24  44  64 101 135 179 228 286 335 407
#     4  12  27  44  74  97 142 175 234 275 355 400
#
# _framework density 24.222902999999999
#
# number of rings (size 3 to 8) (size 9 to 14) (size 15 to 20)
#    0.000    0.857    1.429    5.143    6.000    1.143 
#    0.000    2.143    0.000    0.000    0.000    0.000 
#    0.000    0.000    0.000    0.000    0.000    0.000 
#
# Total GULP energy -347126.455607 kJ/mol
# GULP energy per Si atom -12397.373415 kJ/mol
# Density = 2.416777 g / cm^3
# Si number density = 24.222903 Si / 1000 Ang^3
#
#
#
# Elastic Constant Matrix: (Units=GPa)
#
#
# Indices 1 2 3 4 5 6 
#
# 1 79.4886 19.3927 9.7797 0.0000 9.6044 0.0000
# 2 19.3927 134.1369 12.8356 0.0000 3.6545 0.0000
# 3 9.7797 12.8356 75.7695 0.0000 9.3255 0.0000
# 4 0.0000 0.0000 0.0000 29.6974 0.0000 4.7996
# 5 9.6044 3.6545 9.3255 0.0000 26.2410 0.0000
# 6 0.0000 0.0000 0.0000 4.7996 0.0000 31.8883
#
#
#
# Elastic Compliance Matrix: (Units=1/GPa)
#
#
# Indices 1 2 3 4 5 6 
#
# 1 0.013659 -0.001766 -0.000919 0.000000 -0.004427 0.000000
# 2 -0.001766 0.007816 -0.001089 0.000000 -0.000055 0.000000
# 3 -0.000919 -0.001089 0.014056 0.000000 -0.004507 0.000000
# 4 0.000000 0.000000 0.000000 0.034512 0.000000 -0.005195
# 5 -0.004427 -0.000055 -0.004507 0.000000 0.041338 0.000000
# 6 0.000000 0.000000 0.000000 -0.005195 0.000000 0.032141
#
#
# Mechanical properties :
#
#
# Convention : Reuss Voigt Hill
#
# Bulk Modulus (GPa) = 35.73708 41.49009 38.61359
# Shear Modulus (GPa) = 31.17218 34.05783 32.61501
#
# Velocity S-wave (km/s) = 3.59122 3.75376 3.67339
# Velocity P-wave (km/s) = 5.65519 5.99610 5.82814
#
# Compressibility (1/GPa) = 0.02798214
#
# Stress axis : x y z
#
# Youngs Moduli (GPa) = 73.21035 127.94010 71.14506
#
# Poissons Ratio (x) = 0.22597 0.06538
# Poissons Ratio (y) = 0.12931 0.07750
# Poissons Ratio (z) = 0.06728 0.13937
#
# Static dielectric constant tensor:
#      x y z
#    x 3.968580 0.000000 0.111210 
#    y 0.000000 4.640470 0.000000 
#    z 0.111210 0.000000 4.606470 
# 
# 
# High freq. dielectric constant tensor:
#      x y z
#    x 1.939570 0.000000 0.007030 
#    y 0.000000 1.974290 0.000000 
#    z 0.007030 0.000000 1.976880 
# 
# From -- ./inp_files/6720.got.cif
#   From: 2010.03.12/outbox.cif.g09.slc.cpg/sg14_4_cif.got.tgz:6720.got - 2010.03.31 13:35:05.
