data_PCOD8128157
_publ_section_title
;
Structure prediction by ZEFSAII (Michael W. Deem and Ramdas Pophale) SiO2 
 PCOD8128157
Probable space group: P 21/C
;
_chemical_formula_sum "Si O2"
_cell_formula_units_Z 24
_cell_length_a 21.979634
_cell_length_b 11.322363
_cell_length_c 7.794699
_cell_angle_alpha 90.000000
_cell_angle_beta 144.359423
_cell_angle_gamma 90.000000
_cell_volume 1130.318673
_symmetry_space_group_name_H-M "P 21/C"
_symmetry_group_IT_number 14
_symmetry_cell_setting 'monoclinic'
loop_
_space_group_symop_operation_xyz
x,y,z
-x,1/2+y,1/2-z
-x,-y,-z
x,1/2-y,1/2+z
loop_
_atom_site_type_symbol
_atom_site_label
_atom_site_fract_x
_atom_site_fract_y
_atom_site_fract_z
Si Si1 0.923318 0.530308 0.675245
Si Si2 0.707132 0.589684 0.605519
Si Si3 0.876476 0.093380 0.535126
Si Si4 0.378987 0.508054 0.260269
Si Si5 0.719719 0.849458 0.755607
Si Si6 0.801413 0.333812 0.222678
O O1 0.844198 0.633427 0.546227
O O2 0.854844 0.412181 0.492064
O O3 0.000000 0.500000 0.000000
O O4 0.998539 0.580230 0.698153
O O5 0.821600 0.530415 0.860225
O O6 0.635187 0.509123 0.566038
O O7 0.704812 0.711125 0.703412
O O8 0.667745 0.605314 0.317449
O O9 0.818910 0.195463 0.291525
O O10 0.864033 0.124520 0.702097
O O11 0.500000 0.500000 0.500000
O O12 0.325803 0.410326 0.018183
O O13 0.322716 0.633443 0.081554
#
# Coordination Sequence:
#
# PCOD8128157 Si02
#       6
#     4   4   4   4   4   4
#     4  11  22  38  64  93 131 180 219 261 331 394
#     4  11  23  43  68  98 131 173 220 276 329 400
#     4  11  23  40  63  96 134 174 218 267 334 387
#     4  10  24  48  69  96 127 172 228 280 336 390
#     4  11  23  42  68  96 135 171 222 274 328 400
#     4  10  24  42  61  94 134 169 221 277 321 400
#
# _framework density 21.232951
#
# number of rings (size 3 to 8) (size 9 to 14) (size 15 to 20)
#    0.000    1.333    3.333    1.500    4.667    2.000 
#    6.000    0.000    0.000    0.000    0.000    0.000 
#    0.000    0.000    0.000    0.000    0.000    0.000 
#
# Total GULP energy -297369.057318 kJ/mol
# GULP energy per Si atom -12390.377388 kJ/mol
# Density = 2.118462 g / cm^3
# Si number density = 21.232951 Si / 1000 Ang^3
#
#
#
# Elastic Constant Matrix: (Units=GPa)
#
#
# Indices 1 2 3 4 5 6 
#
# 1 100.8699 2.5710 35.6203 0.0000 4.0434 0.0000
# 2 2.5710 57.4673 6.8839 0.0000 -1.5138 0.0000
# 3 35.6203 6.8839 81.6969 0.0000 16.9596 0.0000
# 4 0.0000 0.0000 0.0000 359.1992 0.0000 -37.9695
# 5 4.0434 -1.5138 16.9596 0.0000 45.3723 0.0000
# 6 0.0000 0.0000 0.0000 -37.9695 0.0000 32.2477
#
#
#
# Elastic Compliance Matrix: (Units=1/GPa)
#
#
# Indices 1 2 3 4 5 6 
#
# 1 0.011756 0.000138 -0.005335 0.000000 0.000951 0.000000
# 2 0.000138 0.017644 -0.001807 0.000000 0.001252 0.000000
# 3 -0.005335 -0.001807 0.015863 0.000000 -0.005514 0.000000
# 4 0.000000 0.000000 0.000000 0.003180 0.000000 0.003744
# 5 0.000951 0.001252 -0.005514 0.000000 0.024058 0.000000
# 6 0.000000 0.000000 0.000000 0.003744 0.000000 0.035418
#
#
# Mechanical properties :
#
#
# Convention : Reuss Voigt Hill
#
# Bulk Modulus (GPa) = 31.99293 36.68716 34.34004
# Shear Modulus (GPa) = 37.77990 100.36110 69.07050
#
# Velocity S-wave (km/s) = 4.22276 6.88254 5.70968
# Velocity P-wave (km/s) = 6.23505 8.97078 7.72499
#
# Compressibility (1/GPa) = 0.03125690
#
# Stress axis : x y z
#
# Youngs Moduli (GPa) = 85.06315 56.67511 63.03857
#
# Poissons Ratio (x) = -0.00783 0.33629
# Poissons Ratio (y) = -0.01175 0.11390
# Poissons Ratio (z) = 0.45379 0.10240
#
# Static dielectric constant tensor:
#      x y z
#    x 7.984900 0.000000 4.444000 
#    y 0.000000 8.128610 0.000000 
#    z 4.444000 0.000000 9.303870 
# 
# 
# High freq. dielectric constant tensor:
#      x y z
#    x 1.852600 0.000000 -0.015890 
#    y 0.000000 1.828310 0.000000 
#    z -0.015890 0.000000 1.811070 
# 
# From -- ./inp_files/12384.got.cif
#   From: 2010.03.12/outbox.cif.g09.slc.cpg/sg14_7_cif.got.tgz:12384.got - 2010.03.31 13:35:05.
