data_PCOD8128498
_publ_section_title
;
Structure prediction by ZEFSAII (Michael W. Deem and Ramdas Pophale) SiO2 
 PCOD8128498
Probable space group: P 21/C
;
_chemical_formula_sum "Si O2"
_cell_formula_units_Z 32
_cell_length_a 14.425065
_cell_length_b 17.569714
_cell_length_c 12.051280
_cell_angle_alpha 90.000000
_cell_angle_beta 149.479110
_cell_angle_gamma 90.000000
_cell_volume 1551.147954
_symmetry_space_group_name_H-M "P 21/C"
_symmetry_group_IT_number 14
_symmetry_cell_setting 'monoclinic'
loop_
_space_group_symop_operation_xyz
x,y,z
-x,1/2+y,1/2-z
-x,-y,-z
x,1/2-y,1/2+z
loop_
_atom_site_type_symbol
_atom_site_label
_atom_site_fract_x
_atom_site_fract_y
_atom_site_fract_z
Si Si1 0.554333 0.859268 0.875769
Si Si2 0.022541 0.020539 0.240615
Si Si3 0.476242 0.794373 0.191944
Si Si4 0.742192 0.852243 0.292034
Si Si5 0.392295 0.421857 0.012611
Si Si6 0.256854 0.529501 0.166658
Si Si7 0.314959 0.053877 0.190995
Si Si8 0.860072 0.375470 0.746006
O O1 0.443148 0.788595 0.709873
O O2 0.424055 0.924942 0.787340
O O3 0.682632 0.890439 0.911044
O O4 0.681148 0.829662 0.105904
O O5 0.087127 0.963806 0.406309
O O6 0.900269 0.086293 0.169436
O O7 0.891142 0.979628 0.016255
O O8 0.198851 0.056291 0.365476
O O9 0.645183 0.797543 0.281000
O O10 0.514788 0.850498 0.333525
O O11 0.296252 0.813669 0.935127
O O12 0.957825 0.835459 0.520201
O O13 0.690862 0.940286 0.267266
O O14 0.356271 0.401139 0.846928
O O15 0.529295 0.491571 0.166366
O O16 0.204787 0.561272 0.232920
#
# Coordination Sequence:
#
# PCOD8128498 Si02
#       8
#     4   4   4   4   4   4   4   4
#     4  12  25  42  69  96 135 175 213 272 330 392
#     4  11  20  40  67 102 122 163 226 280 321 375
#     4  12  25  43  62  93 142 172 210 259 342 401
#     4  11  23  45  72  96 127 172 226 278 326 380
#     4  11  23  41  65  92 131 174 217 259 321 392
#     4  11  21  40  72 102 125 162 233 283 319 372
#     4  11  23  41  67  93 127 174 220 267 311 381
#     4  11  22  40  70  98 127 167 215 281 329 380
#
# _framework density 20.629884000000001
#
# number of rings (size 3 to 8) (size 9 to 14) (size 15 to 20)
#    0.000    0.750    6.250    3.750    1.750    0.000 
#    4.500    0.000    0.000    0.000    0.000    0.000 
#    0.000    0.000    0.000    0.000    0.000    0.000 
#
# Total GULP energy -396819.313740 kJ/mol
# GULP energy per Si atom -12400.603554 kJ/mol
# Density = 2.058293 g / cm^3
# Si number density = 20.629884 Si / 1000 Ang^3
#
#
#
# Elastic Constant Matrix: (Units=GPa)
#
#
# Indices 1 2 3 4 5 6 
#
# 1 95.1994 22.4186 34.8677 0.0000 -4.5414 0.0000
# 2 22.4186 42.5656 13.7017 0.0000 6.1041 0.0000
# 3 34.8677 13.7017 94.8164 0.0000 1.0363 0.0000
# 4 0.0000 0.0000 0.0000 25.7256 0.0000 -9.8071
# 5 -4.5414 6.1041 1.0363 0.0000 40.0903 0.0000
# 6 0.0000 0.0000 0.0000 -9.8071 0.0000 13.7624
#
#
#
# Elastic Compliance Matrix: (Units=1/GPa)
#
#
# Indices 1 2 3 4 5 6 
#
# 1 0.013604 -0.006206 -0.004134 0.000000 0.002593 0.000000
# 2 -0.006206 0.028019 -0.001713 0.000000 -0.004925 0.000000
# 3 -0.004134 -0.001713 0.012320 0.000000 -0.000526 0.000000
# 4 0.000000 0.000000 0.000000 0.053370 0.000000 0.038031
# 5 0.002593 -0.004925 -0.000526 0.000000 0.026001 0.000000
# 6 0.000000 0.000000 0.000000 0.038031 0.000000 0.099762
#
#
# Mechanical properties :
#
#
# Convention : Reuss Voigt Hill
#
# Bulk Modulus (GPa) = 33.51523 41.61749 37.56636
# Shear Modulus (GPa) = 18.71763 26.68857 22.70310
#
# Velocity S-wave (km/s) = 3.01542 3.60069 3.32097
# Velocity P-wave (km/s) = 5.32963 6.12403 5.74059
#
# Compressibility (1/GPa) = 0.02983718
#
# Stress axis : x y z
#
# Youngs Moduli (GPa) = 73.51040 35.68964 81.16704
#
# Poissons Ratio (x) = 0.22148 0.33555
# Poissons Ratio (y) = 0.45619 0.13904
# Poissons Ratio (z) = 0.30390 0.06114
#
# Static dielectric constant tensor:
#      x y z
#    x 3.892230 0.000000 -0.158310 
#    y 0.000000 3.408830 0.000000 
#    z -0.158310 0.000000 4.076050 
# 
# 
# High freq. dielectric constant tensor:
#      x y z
#    x 1.818310 0.000000 -0.007220 
#    y 0.000000 1.770610 0.000000 
#    z -0.007220 0.000000 1.825130 
# 
# From -- ./inp_files/33071.got.cif
#   From: 2010.03.12/outbox.cif.g09.slc.cpg/sg14_17_cif.got.tgz:33071.got - 2010.03.31 13:35:05.
