data_PCOD8128792
_publ_section_title
;
Structure prediction by ZEFSAII (Michael W. Deem and Ramdas Pophale) SiO2 
 PCOD8128792
Probable space group: P 21/C
;
_chemical_formula_sum "Si O2"
_cell_formula_units_Z 32
_cell_length_a 11.443042
_cell_length_b 9.177137
_cell_length_c 22.756593
_cell_angle_alpha 90.000000
_cell_angle_beta 143.173484
_cell_angle_gamma 90.000000
_cell_volume 1432.413539
_symmetry_space_group_name_H-M "P 21/C"
_symmetry_group_IT_number 14
_symmetry_cell_setting 'monoclinic'
loop_
_space_group_symop_operation_xyz
x,y,z
-x,1/2+y,1/2-z
-x,-y,-z
x,1/2-y,1/2+z
loop_
_atom_site_type_symbol
_atom_site_label
_atom_site_fract_x
_atom_site_fract_y
_atom_site_fract_z
Si Si1 0.731094 0.642827 0.006194
Si Si2 0.181260 0.552352 0.371107
Si Si3 0.530056 0.130646 0.373444
Si Si4 0.650825 0.143074 0.831091
Si Si5 0.124613 0.820230 0.727957
Si Si6 0.525736 0.840954 0.835533
Si Si7 0.849614 0.473775 0.312166
Si Si8 0.573531 0.777789 0.050976
O O1 0.679411 0.492436 0.953976
O O2 0.684914 0.783260 0.946505
O O3 0.599596 0.654073 0.012082
O O4 0.958403 0.639161 0.113992
O O5 0.068487 0.619074 0.269573
O O6 0.241856 0.385609 0.382720
O O7 0.369316 0.644915 0.460560
O O8 0.042347 0.565976 0.373264
O O9 0.663952 0.240297 0.388904
O O10 0.422363 0.210814 0.383180
O O11 0.348792 0.067215 0.263577
O O12 0.503967 0.210080 0.723113
O O13 0.855710 0.111452 0.878086
O O14 0.587280 0.988724 0.830007
O O15 0.328445 0.889668 0.789512
O O16 0.160134 0.645504 0.744437
#
# Coordination Sequence:
#
# PCOD8128792 Si02
#       8
#     4   4   4   4   4   4   4   4
#     4  12  23  45  72 105 142 180 226 303 351 410
#     4  11  23  43  66 104 138 184 231 289 355 424
#     4  12  24  44  71 102 136 186 233 282 358 414
#     4  11  23  46  75  97 138 195 229 285 350 415
#     4  11  23  42  70 101 142 183 231 288 353 412
#     4  11  22  47  72  97 144 185 233 287 351 413
#     4  11  23  43  69  98 137 183 234 281 343 416
#     4  11  24  42  71 101 142 181 228 297 361 409
#
# _framework density 22.339918000000001
#
# number of rings (size 3 to 8) (size 9 to 14) (size 15 to 20)
#    0.000    0.750    6.250    1.875    1.750    1.000 
#    2.250   11.250    0.000    0.000    0.000    0.000 
#    0.000    0.000    0.000    0.000    0.000    0.000 
#
# Total GULP energy -396661.114535 kJ/mol
# GULP energy per Si atom -12395.659829 kJ/mol
# Density = 2.228907 g / cm^3
# Si number density = 22.339918 Si / 1000 Ang^3
#
#
#
# Elastic Constant Matrix: (Units=GPa)
#
#
# Indices 1 2 3 4 5 6 
#
# 1 152.8449 64.9581 43.1516 0.0000 -7.0317 0.0000
# 2 64.9581 90.5735 38.7818 0.0000 -2.6577 0.0000
# 3 43.1516 38.7818 69.0176 0.0000 5.3354 0.0000
# 4 0.0000 0.0000 0.0000 10.8158 0.0000 -8.6929
# 5 -7.0317 -2.6577 5.3354 0.0000 34.8759 0.0000
# 6 0.0000 0.0000 0.0000 -8.6929 0.0000 46.4344
#
#
#
# Elastic Compliance Matrix: (Units=1/GPa)
#
#
# Indices 1 2 3 4 5 6 
#
# 1 0.009968 -0.005731 -0.003171 0.000000 0.002058 0.000000
# 2 -0.005731 0.018032 -0.006645 0.000000 0.001235 0.000000
# 3 -0.003171 -0.006645 0.020537 0.000000 -0.004288 0.000000
# 4 0.000000 0.000000 0.000000 0.108832 0.000000 0.020374
# 5 0.002058 0.001235 -0.004288 0.000000 0.029838 0.000000
# 6 0.000000 0.000000 0.000000 0.020374 0.000000 0.025350
#
#
# Mechanical properties :
#
#
# Convention : Reuss Voigt Hill
#
# Bulk Modulus (GPa) = 57.32793 67.35767 62.34280
# Shear Modulus (GPa) = 20.04275 29.46155 24.75215
#
# Velocity S-wave (km/s) = 2.99853 3.63545 3.33224
# Velocity P-wave (km/s) = 6.14049 6.91655 6.54004
#
# Compressibility (1/GPa) = 0.01744351
#
# Stress axis : x y z
#
# Youngs Moduli (GPa) = 100.31999 55.45610 48.69216
#
# Poissons Ratio (x) = 0.31780 0.15442
# Poissons Ratio (y) = 0.57491 0.32356
# Poissons Ratio (z) = 0.31814 0.36851
#
# Static dielectric constant tensor:
#      x y z
#    x 4.502380 0.000000 -0.129510 
#    y 0.000000 4.190690 0.000000 
#    z -0.129510 0.000000 3.854940 
# 
# 
# High freq. dielectric constant tensor:
#      x y z
#    x 1.894510 0.000000 -0.007210 
#    y 0.000000 1.883680 0.000000 
#    z -0.007210 0.000000 1.859580 
# 
# From -- ./inp_files/73121.got.cif
#   From: 2010.03.12/outbox.cif.g09.slc.cpg/sg14_37_cif.got.tgz:73121.got - 2010.03.31 13:35:05.
