data_PCOD8128054
_publ_section_title
;
Structure prediction by ZEFSAII (Michael W. Deem and Ramdas Pophale) SiO2 
 PCOD8128054
Probable space group: P 21/C
;
_chemical_formula_sum "Si O2"
_cell_formula_units_Z 28
_cell_length_a 7.852761
_cell_length_b 13.205340
_cell_length_c 13.471177
_cell_angle_alpha 90.000000
_cell_angle_beta 129.031518
_cell_angle_gamma 90.000000
_cell_volume 1085.141908
_symmetry_space_group_name_H-M "P 21/C"
_symmetry_group_IT_number 14
_symmetry_cell_setting 'monoclinic'
loop_
_space_group_symop_operation_xyz
x,y,z
-x,1/2+y,1/2-z
-x,-y,-z
x,1/2-y,1/2+z
loop_
_atom_site_type_symbol
_atom_site_label
_atom_site_fract_x
_atom_site_fract_y
_atom_site_fract_z
Si Si1 0.305628 0.698799 0.394256
Si Si2 0.852983 0.413117 0.167621
Si Si3 0.429946 0.508880 0.764608
Si Si4 0.198059 0.314626 0.436099
Si Si5 0.148158 0.633197 0.530956
Si Si6 0.282105 0.668633 0.160134
Si Si7 0.157774 0.092176 0.487203
O O1 0.295461 0.817661 0.422786
O O2 0.549975 0.651738 0.483393
O O3 0.144747 0.634260 0.409445
O O4 0.212934 0.687236 0.249595
O O5 0.719348 0.481350 0.194906
O O6 0.890097 0.490736 0.092771
O O7 0.072625 0.365636 0.297031
O O8 0.278004 0.533882 0.613934
O O9 0.495460 0.392526 0.772765
O O10 0.647252 0.577703 0.860850
O O11 0.204838 0.192219 0.438402
O O12 0.085474 0.352340 0.499374
O O13 0.316134 0.722902 0.623345
O O14 0.070096 0.610770 0.035729
#
# Coordination Sequence:
#
# PCOD8128054 Si02
#       7
#     4   4   4   4   4   4   4
#     4  12  23  47  72  93 145 184 223 285 350 408
#     4  11  23  43  67 104 133 178 233 280 347 409
#     4  11  22  42  67  96 139 174 227 289 333 401
#     4  10  23  46  65 101 143 174 231 284 336 415
#     4  10  24  45  66  97 140 183 225 283 350 397
#     4  11  24  44  64 108 134 175 240 279 339 418
#     4  11  21  41  70 100 135 176 233 286 333 406
#
# _framework density 25.803076000000001
#
# number of rings (size 3 to 8) (size 9 to 14) (size 15 to 20)
#    0.000    1.143    5.714    1.714    4.000    1.714 
#    5.143    1.429    0.000    0.000    0.000    0.000 
#    0.000    0.000    0.000    0.000    0.000    0.000 
#
# Total GULP energy -346979.101452 kJ/mol
# GULP energy per Si atom -12392.110766 kJ/mol
# Density = 2.574435 g / cm^3
# Si number density = 25.803076 Si / 1000 Ang^3
#
#
#
# Elastic Constant Matrix: (Units=GPa)
#
#
# Indices 1 2 3 4 5 6 
#
# 1 60.7663 1.4666 -5.4504 0.0000 16.1782 0.0000
# 2 1.4666 51.3518 -13.6690 0.0000 10.9723 0.0000
# 3 -5.4504 -13.6690 36.8786 0.0000 6.2188 0.0000
# 4 0.0000 0.0000 0.0000 14.3135 0.0000 16.0235
# 5 16.1782 10.9723 6.2188 0.0000 39.7756 0.0000
# 6 0.0000 0.0000 0.0000 16.0235 0.0000 32.0922
#
#
#
# Elastic Compliance Matrix: (Units=1/GPa)
#
#
# Indices 1 2 3 4 5 6 
#
# 1 0.019445 0.002989 0.005602 0.000000 -0.009610 0.000000
# 2 0.002989 0.024421 0.011128 0.000000 -0.009692 0.000000
# 3 0.005602 0.011128 0.033863 0.000000 -0.010643 0.000000
# 4 0.000000 0.000000 0.000000 0.158402 0.000000 -0.079089
# 5 -0.009610 -0.009692 -0.010643 0.000000 0.033387 0.000000
# 6 0.000000 0.000000 0.000000 -0.079089 0.000000 0.070649
#
#
# Mechanical properties :
#
#
# Convention : Reuss Voigt Hill
#
# Bulk Modulus (GPa) = 8.53476 12.63235 10.58355
# Shear Modulus (GPa) = 14.71517 28.34623 21.53070
#
# Velocity S-wave (km/s) = 2.39066 3.31805 2.89177
# Velocity P-wave (km/s) = 3.30684 4.42556 3.90645
#
# Compressibility (1/GPa) = 0.11716794
#
# Stress axis : x y z
#
# Youngs Moduli (GPa) = 51.42648 40.94811 29.53065
#
# Poissons Ratio (x) = -0.12240 -0.16544
# Poissons Ratio (y) = -0.15372 -0.32861
# Poissons Ratio (z) = -0.28810 -0.45566
#
# Static dielectric constant tensor:
#      x y z
#    x 4.594100 0.000000 0.012530 
#    y 0.000000 4.840930 0.000000 
#    z 0.012530 0.000000 4.744080 
# 
# 
# High freq. dielectric constant tensor:
#      x y z
#    x 2.027960 0.000000 0.005210 
#    y 0.000000 2.038660 0.000000 
#    z 0.005210 0.000000 2.024280 
# 
# From -- ./inp_files/41277.got.cif
#   From: 2010.03.12/outbox.cif.g09.slc.cpg/sg14_21_cif.got.tgz:41277.got - 2010.03.31 13:35:05.
