data_PCOD8128432
_publ_section_title
;
Structure prediction by ZEFSAII (Michael W. Deem and Ramdas Pophale) SiO2 
 PCOD8128432
Probable space group: P 21/C
;
_chemical_formula_sum "Si O2"
_cell_formula_units_Z 20
_cell_length_a 5.135828
_cell_length_b 18.037905
_cell_length_c 9.595803
_cell_angle_alpha 90.000000
_cell_angle_beta 117.110957
_cell_angle_gamma 90.000000
_cell_volume 791.278227
_symmetry_space_group_name_H-M "P 21/C"
_symmetry_group_IT_number 14
_symmetry_cell_setting 'monoclinic'
loop_
_space_group_symop_operation_xyz
x,y,z
-x,1/2+y,1/2-z
-x,-y,-z
x,1/2-y,1/2+z
loop_
_atom_site_type_symbol
_atom_site_label
_atom_site_fract_x
_atom_site_fract_y
_atom_site_fract_z
Si Si1 0.348929 0.654366 0.456844
Si Si2 0.626760 0.422008 0.073093
Si Si3 0.961626 0.575198 0.576509
Si Si4 0.260551 0.687189 0.141038
Si Si5 0.349611 0.280680 0.089589
O O1 0.144766 0.637333 0.537792
O O2 0.167846 0.649380 0.267326
O O3 0.469843 0.740694 0.494926
O O4 0.624888 0.598363 0.509886
O O5 0.915651 0.433181 0.236998
O O6 0.404056 0.369258 0.105945
O O7 0.500000 0.500000 0.000000
O O8 0.679626 0.382198 0.940980
O O9 0.000000 0.500000 0.500000
O O10 0.538856 0.742091 0.240232
O O11 0.992677 0.735313 0.013336
#
# Coordination Sequence:
#
# PCOD8128432 Si02
#       5
#     4   4   4   4   4
#     4  10  27  48  83 112 154 214 271 329 398 486
#     4  12  29  47  78 116 160 212 267 338 404 484
#     4  12  27  52  78 117 166 211 265 331 414 481
#     4  10  26  48  83 110 158 205 280 328 407 480
#     4  10  26  45  82 110 155 206 276 330 399 477
#
# _framework density 25.275559999999999
#
# number of rings (size 3 to 8) (size 9 to 14) (size 15 to 20)
#    1.200    0.000    0.000    3.000   14.000    2.400 
#    0.000    0.000    0.000    0.000    0.000    0.000 
#    0.000    0.000    0.000    0.000    0.000    0.000 
#
# Total GULP energy -247840.265071 kJ/mol
# GULP energy per Si atom -12392.013254 kJ/mol
# Density = 2.521803 g / cm^3
# Si number density = 25.275560 Si / 1000 Ang^3
#
#
#
# Elastic Constant Matrix: (Units=GPa)
#
#
# Indices 1 2 3 4 5 6 
#
# 1 68.7885 10.7461 32.7577 0.0000 3.2914 0.0000
# 2 10.7461 165.4330 53.6645 0.0000 -3.8575 0.0000
# 3 32.7577 53.6645 202.6978 0.0000 5.6270 0.0000
# 4 0.0000 0.0000 0.0000 42.2251 0.0000 -6.8558
# 5 3.2914 -3.8575 5.6270 0.0000 45.9502 0.0000
# 6 0.0000 0.0000 0.0000 -6.8558 0.0000 39.9568
#
#
#
# Elastic Compliance Matrix: (Units=1/GPa)
#
#
# Indices 1 2 3 4 5 6 
#
# 1 0.015789 -0.000247 -0.002463 0.000000 -0.000850 0.000000
# 2 -0.000247 0.006644 -0.001741 0.000000 0.000789 0.000000
# 3 -0.002463 -0.001741 0.005811 0.000000 -0.000681 0.000000
# 4 0.000000 0.000000 0.000000 0.024361 0.000000 0.004180
# 5 -0.000850 0.000789 -0.000681 0.000000 0.021973 0.000000
# 6 0.000000 0.000000 0.000000 0.004180 0.000000 0.025744
#
#
# Mechanical properties :
#
#
# Convention : Reuss Voigt Hill
#
# Bulk Modulus (GPa) = 51.69628 70.13956 60.91792
# Shear Modulus (GPa) = 43.22569 48.27649 45.75109
#
# Velocity S-wave (km/s) = 4.13992 4.37510 4.25913
# Velocity P-wave (km/s) = 6.58402 7.30289 6.95275
#
# Compressibility (1/GPa) = 0.01934375
#
# Stress axis : x y z
#
# Youngs Moduli (GPa) = 63.33401 150.51355 172.07797
#
# Poissons Ratio (x) = 0.03711 0.42380
# Poissons Ratio (y) = 0.01562 0.29959
# Poissons Ratio (z) = 0.15598 0.26205
#
# Static dielectric constant tensor:
#      x y z
#    x 4.537480 0.000000 -0.285750 
#    y 0.000000 4.532960 0.000000 
#    z -0.285750 0.000000 4.992480 
# 
# 
# High freq. dielectric constant tensor:
#      x y z
#    x 1.993590 0.000000 -0.012110 
#    y 0.000000 2.017270 0.000000 
#    z -0.012110 0.000000 2.036930 
# 
# From -- ./inp_files/21337.got.cif
#   From: 2010.03.12/outbox.cif.g09.slc.cpg/sg14_11_cif.got.tgz:21337.got - 2010.03.31 13:35:05.
