data_PCOD8128431
_publ_section_title
;
Structure prediction by ZEFSAII (Michael W. Deem and Ramdas Pophale) SiO2 
 PCOD8128431
Probable space group: P 21/C
;
_chemical_formula_sum "Si O2"
_cell_formula_units_Z 20
_cell_length_a 6.966453
_cell_length_b 22.636550
_cell_length_c 7.899616
_cell_angle_alpha 90.000000
_cell_angle_beta 141.827835
_cell_angle_gamma 90.000000
_cell_volume 769.901308
_symmetry_space_group_name_H-M "P 21/C"
_symmetry_group_IT_number 14
_symmetry_cell_setting 'monoclinic'
loop_
_space_group_symop_operation_xyz
x,y,z
-x,1/2+y,1/2-z
-x,-y,-z
x,1/2-y,1/2+z
loop_
_atom_site_type_symbol
_atom_site_label
_atom_site_fract_x
_atom_site_fract_y
_atom_site_fract_z
Si Si1 0.156240 0.731481 0.202996
Si Si2 0.428291 0.198698 0.293788
Si Si3 0.672478 0.448355 0.317740
Si Si4 0.018422 0.104611 0.361823
Si Si5 0.380685 0.572679 0.088020
O O1 0.246283 0.707853 0.081354
O O2 0.484818 0.761418 0.484266
O O3 0.044780 0.673554 0.231558
O O4 0.887181 0.779842 0.010372
O O5 0.391956 0.128530 0.294221
O O6 0.926589 0.434834 0.636787
O O7 0.590829 0.517051 0.282041
O O8 0.803065 0.438850 0.216667
O O9 0.379872 0.405575 0.149359
O O10 0.846213 0.084447 0.412971
#
# Coordination Sequence:
#
# PCOD8128431 Si02
#       5
#     4   4   4   4   4
#     4  11  25  42  67  99 132 183 227 284 352 407
#     4  11  25  43  67  98 139 175 231 287 343 412
#     4  11  25  44  75 101 138 187 228 285 360 406
#     4  11  25  45  70 100 141 180 235 286 350 414
#     4  10  26  45  69 107 139 180 237 289 341 424
#
# _framework density 25.977356
#
# number of rings (size 3 to 8) (size 9 to 14) (size 15 to 20)
#    0.000    1.200    0.000    3.600    8.400   11.200 
#    0.000    0.000    0.000    0.000    0.000    0.000 
#    0.000    0.000    0.000    0.000    0.000    0.000 
#
# Total GULP energy -247954.824019 kJ/mol
# GULP energy per Si atom -12397.741201 kJ/mol
# Density = 2.591823 g / cm^3
# Si number density = 25.977356 Si / 1000 Ang^3
#
#
#
# Elastic Constant Matrix: (Units=GPa)
#
#
# Indices 1 2 3 4 5 6 
#
# 1 50.5566 29.1275 30.1427 0.0000 -24.2754 0.0000
# 2 29.1275 131.4886 2.8048 0.0000 5.6265 0.0000
# 3 30.1427 2.8048 78.7729 0.0000 0.9548 0.0000
# 4 0.0000 0.0000 0.0000 34.4452 0.0000 1.7200
# 5 -24.2754 5.6265 0.9548 0.0000 23.4831 0.0000
# 6 0.0000 0.0000 0.0000 1.7200 0.0000 39.4102
#
#
#
# Elastic Compliance Matrix: (Units=1/GPa)
#
#
# Indices 1 2 3 4 5 6 
#
# 1 0.232310 -0.060598 -0.089868 0.000000 0.258322 0.000000
# 2 -0.060598 0.023496 0.023191 0.000000 -0.069216 0.000000
# 3 -0.089868 0.023191 0.047474 0.000000 -0.100387 0.000000
# 4 0.000000 0.000000 0.000000 0.029095 0.000000 -0.001270
# 5 0.258322 -0.069216 -0.100387 0.000000 0.330288 0.000000
# 6 0.000000 0.000000 0.000000 -0.001270 0.000000 0.025430
#
#
# Mechanical properties :
#
#
# Convention : Reuss Voigt Hill
#
# Bulk Modulus (GPa) = 20.52161 42.77423 31.64792
# Shear Modulus (GPa) = 5.21438 32.71722 18.96580
#
# Velocity S-wave (km/s) = 1.41832 3.55273 2.70495
# Velocity P-wave (km/s) = 3.25563 5.77329 4.68668
#
# Compressibility (1/GPa) = 0.04872911
#
# Stress axis : x y z
#
# Youngs Moduli (GPa) = 4.30459 42.56008 21.06419
#
# Poissons Ratio (x) = 2.57908 1.89299
# Poissons Ratio (y) = 0.26085 -0.48849
# Poissons Ratio (z) = 0.38684 -0.98699
#
# Static dielectric constant tensor:
#      x y z
#    x 4.827570 0.000000 -0.243240 
#    y 0.000000 5.220560 0.000000 
#    z -0.243240 0.000000 4.165640 
# 
# 
# High freq. dielectric constant tensor:
#      x y z
#    x 2.060730 0.000000 -0.006000 
#    y 0.000000 2.061870 0.000000 
#    z -0.006000 0.000000 2.022910 
# 
# From -- ./inp_files/6049.got.cif
#   From: 2010.03.12/outbox.cif.g09.slc.cpg/sg14_4_cif.got.tgz:6049.got - 2010.03.31 13:35:05.
