data_PCOD8128951
_publ_section_title
;
Structure prediction by ZEFSAII (Michael W. Deem and Ramdas Pophale) SiO2 
 PCOD8128951
Probable space group: P 21/C
;
_chemical_formula_sum "Si O2"
_cell_formula_units_Z 24
_cell_length_a 15.496074
_cell_length_b 4.976641
_cell_length_c 22.434091
_cell_angle_alpha 90.000000
_cell_angle_beta 33.491463
_cell_angle_gamma 90.000000
_cell_volume 954.680800
_symmetry_space_group_name_H-M "P 21/C"
_symmetry_group_IT_number 14
_symmetry_cell_setting 'monoclinic'
loop_
_space_group_symop_operation_xyz
x,y,z
-x,1/2+y,1/2-z
-x,-y,-z
x,1/2-y,1/2+z
loop_
_atom_site_type_symbol
_atom_site_label
_atom_site_fract_x
_atom_site_fract_y
_atom_site_fract_z
Si Si1 0.468516 0.012412 0.229562
Si Si2 0.645205 0.316888 0.910348
Si Si3 0.918098 0.721252 0.824322
Si Si4 0.597869 0.905195 0.029061
Si Si5 0.867073 0.522368 0.125170
Si Si6 0.089026 0.970888 0.823455
O O1 0.550763 0.253597 0.217502
O O2 0.297171 0.114775 0.308225
O O3 0.580529 0.938837 0.109692
O O4 0.578784 0.119153 0.895828
O O5 0.797635 0.478748 0.800309
O O6 0.500000 0.500000 0.000000
O O7 0.680244 0.165502 0.951933
O O8 0.017272 0.443591 0.761171
O O9 0.933763 0.848462 0.882711
O O10 0.726634 0.673084 0.935029
O O11 0.842778 0.227035 0.166128
O O12 0.926394 0.733625 0.140684
O O13 0.000000 0.500000 0.000000
#
# Coordination Sequence:
#
# PCOD8128951 Si02
#       6
#     4   4   4   4   4   4
#     4  12  29  49  74 106 144 190 246 302 361 430
#     4  11  23  44  76 104 141 190 234 303 368 440
#     4  12  26  44  68 111 146 183 230 294 365 436
#     4  11  26  44  72 106 144 189 241 297 372 435
#     4  12  28  50  74 103 142 197 249 295 362 435
#     4  12  25  47  73 105 146 186 242 298 362 436
#
# _framework density 25.139291
#
# number of rings (size 3 to 8) (size 9 to 14) (size 15 to 20)
#    0.000    0.333    3.333    4.500    9.333    0.000 
#    0.000    0.000    0.000    0.000    0.000    0.000 
#    0.000    0.000    0.000    0.000    0.000    0.000 
#
# Total GULP energy -297516.689579 kJ/mol
# GULP energy per Si atom -12396.528732 kJ/mol
# Density = 2.508207 g / cm^3
# Si number density = 25.139291 Si / 1000 Ang^3
#
#
#
# Elastic Constant Matrix: (Units=GPa)
#
#
# Indices 1 2 3 4 5 6 
#
# 1 73.3038 -17.0426 15.8349 0.0000 5.1645 0.0000
# 2 -17.0426 74.6195 3.2656 0.0000 16.0109 0.0000
# 3 15.8349 3.2656 131.5875 0.0000 3.1647 0.0000
# 4 0.0000 0.0000 0.0000 35.7953 0.0000 1.1255
# 5 5.1645 16.0109 3.1647 0.0000 52.6038 0.0000
# 6 0.0000 0.0000 0.0000 1.1255 0.0000 36.1886
#
#
#
# Elastic Compliance Matrix: (Units=1/GPa)
#
#
# Indices 1 2 3 4 5 6 
#
# 1 0.015187 0.004115 -0.001866 0.000000 -0.002631 0.000000
# 2 0.004115 0.015461 -0.000757 0.000000 -0.005064 0.000000
# 3 -0.001866 -0.000757 0.007844 0.000000 -0.000058 0.000000
# 4 0.000000 0.000000 0.000000 0.027964 0.000000 -0.000870
# 5 -0.002631 -0.005064 -0.000058 0.000000 0.020813 0.000000
# 6 0.000000 0.000000 0.000000 -0.000870 0.000000 0.027660
#
#
# Mechanical properties :
#
#
# Convention : Reuss Voigt Hill
#
# Bulk Modulus (GPa) = 24.11089 31.51408 27.81248
# Shear Modulus (GPa) = 39.75455 43.41440 41.58447
#
# Velocity S-wave (km/s) = 3.98096 4.16017 4.07155
# Velocity P-wave (km/s) = 5.54459 5.96984 5.76114
#
# Compressibility (1/GPa) = 0.04147504
#
# Stress axis : x y z
#
# Youngs Moduli (GPa) = 65.84544 64.67937 127.48122
#
# Poissons Ratio (x) = -0.26615 0.23793
# Poissons Ratio (y) = -0.27095 0.09651
# Poissons Ratio (z) = 0.12289 0.04897
#
# Static dielectric constant tensor:
#      x y z
#    x 2.522340 0.000000 0.689020 
#    y 0.000000 3.393590 0.000000 
#    z 0.689020 0.000000 4.241720 
# 
# 
# High freq. dielectric constant tensor:
#      x y z
#    x 2.021410 0.000000 -0.002950 
#    y 0.000000 2.009770 0.000000 
#    z -0.002950 0.000000 2.001440 
# 
# From -- ./inp_files/67801.got.cif
#   From: 2010.03.12/outbox.cif.g09.slc.cpg/sg14_34_cif.got.tgz:67801.got - 2010.03.31 13:35:05.
