data_PCOD8128793
_publ_section_title
;
Structure prediction by ZEFSAII (Michael W. Deem and Ramdas Pophale) SiO2 
 PCOD8128793
Probable space group: P 21/C
;
_chemical_formula_sum "Si O2"
_cell_formula_units_Z 32
_cell_length_a 24.249586
_cell_length_b 8.392779
_cell_length_c 15.066312
_cell_angle_alpha 90.000000
_cell_angle_beta 152.444712
_cell_angle_gamma 90.000000
_cell_volume 1418.491580
_symmetry_space_group_name_H-M "P 21/C"
_symmetry_group_IT_number 14
_symmetry_cell_setting 'monoclinic'
loop_
_space_group_symop_operation_xyz
x,y,z
-x,1/2+y,1/2-z
-x,-y,-z
x,1/2-y,1/2+z
loop_
_atom_site_type_symbol
_atom_site_label
_atom_site_fract_x
_atom_site_fract_y
_atom_site_fract_z
Si Si1 0.768792 0.164029 0.490890
Si Si2 0.468184 0.743365 0.287920
Si Si3 0.264638 0.519319 0.227205
Si Si4 0.029412 0.042823 0.139957
Si Si5 0.842868 0.025183 0.022813
Si Si6 0.490982 0.871548 0.130665
Si Si7 0.998248 0.914013 0.402397
Si Si8 0.631787 0.795624 0.672843
O O1 0.675314 0.269976 0.414811
O O2 0.700953 0.046127 0.326895
O O3 0.834440 0.284146 0.516214
O O4 0.850137 0.053108 0.667937
O O5 0.519378 0.790230 0.265418
O O6 0.478466 0.556492 0.321598
O O7 0.532353 0.848328 0.457334
O O8 0.349069 0.632735 0.407396
O O9 0.289379 0.330694 0.271770
O O10 0.128098 0.558859 0.048513
O O11 0.042574 0.231604 0.156852
O O12 0.930551 0.980137 0.067714
O O13 0.000000 0.000000 0.000000
O O14 0.897702 0.987859 0.196868
O O15 0.715687 0.940391 0.823983
O O16 0.565512 0.776891 0.163509
O O17 0.000000 0.000000 0.500000
#
# Coordination Sequence:
#
# PCOD8128793 Si02
#       8
#     4   4   4   4   4   4   4   4
#     4  12  24  46  72  98 146 186 234 296 358 427
#     4  11  26  46  71 103 142 187 242 300 367 431
#     4  11  22  47  73  94 141 188 235 292 359 423
#     4  12  27  46  70 106 146 190 235 296 366 430
#     4  12  27  44  74 106 141 190 238 295 360 434
#     4  11  25  45  72 101 139 189 238 301 364 429
#     4  12  28  46  73 108 144 187 243 294 359 438
#     4  11  25  47  73 103 141 191 241 298 367 433
#
# _framework density 22.559176999999998
#
# number of rings (size 3 to 8) (size 9 to 14) (size 15 to 20)
#    0.000    0.500    5.000    2.250    8.750    3.500 
#    0.000    0.000    0.000    0.000    0.000    0.000 
#    0.000    0.000    0.000    0.000    0.000    0.000 
#
# Total GULP energy -396555.242286 kJ/mol
# GULP energy per Si atom -12392.351321 kJ/mol
# Density = 2.250783 g / cm^3
# Si number density = 22.559177 Si / 1000 Ang^3
#
#
#
# Elastic Constant Matrix: (Units=GPa)
#
#
# Indices 1 2 3 4 5 6 
#
# 1 111.6418 21.3620 56.2438 0.0000 -21.1336 0.0000
# 2 21.3620 81.6373 48.0483 0.0000 1.2086 0.0000
# 3 56.2438 48.0483 149.7779 0.0000 -9.1618 0.0000
# 4 0.0000 0.0000 0.0000 34.8047 0.0000 -7.4492
# 5 -21.1336 1.2086 -9.1618 0.0000 39.8945 0.0000
# 6 0.0000 0.0000 0.0000 -7.4492 0.0000 34.7986
#
#
#
# Elastic Compliance Matrix: (Units=1/GPa)
#
#
# Indices 1 2 3 4 5 6 
#
# 1 0.012172 -0.000959 -0.003922 0.000000 0.005576 0.000000
# 2 -0.000959 0.015276 -0.004665 0.000000 -0.002042 0.000000
# 3 -0.003922 -0.004665 0.009663 0.000000 0.000283 0.000000
# 4 0.000000 0.000000 0.000000 0.030111 0.000000 0.006446
# 5 0.005576 -0.002042 0.000283 0.000000 0.028147 0.000000
# 6 0.000000 0.000000 0.000000 0.006446 0.000000 0.030117
#
#
# Mechanical properties :
#
#
# Convention : Reuss Voigt Hill
#
# Bulk Modulus (GPa) = 55.49824 66.04057 60.76940
# Shear Modulus (GPa) = 33.20357 36.39310 34.79833
#
# Velocity S-wave (km/s) = 3.84062 4.02086 3.93177
# Velocity P-wave (km/s) = 6.65746 7.13403 6.89986
#
# Compressibility (1/GPa) = 0.01801859
#
# Stress axis : x y z
#
# Youngs Moduli (GPa) = 82.15408 65.46058 103.48495
#
# Poissons Ratio (x) = 0.06280 0.40587
# Poissons Ratio (y) = 0.07881 0.48279
# Poissons Ratio (z) = 0.32221 0.30539
#
# Static dielectric constant tensor:
#      x y z
#    x 4.117610 0.000000 -0.090130 
#    y 0.000000 3.889630 0.000000 
#    z -0.090130 0.000000 4.265380 
# 
# 
# High freq. dielectric constant tensor:
#      x y z
#    x 1.894480 0.000000 -0.003560 
#    y 0.000000 1.891340 0.000000 
#    z -0.003560 0.000000 1.903860 
# 
# From -- ./inp_files/51386.got.cif
#   From: 2010.03.12/outbox.cif.g09.slc.cpg/sg14_26_cif.got.tgz:51386.got - 2010.03.31 13:35:05.
