data_PCOD8128077
_publ_section_title
;
Structure prediction by ZEFSAII (Michael W. Deem and Ramdas Pophale) SiO2 
 PCOD8128077
Probable space group: P 21/C
;
_chemical_formula_sum "Si O2"
_cell_formula_units_Z 32
_cell_length_a 6.436895
_cell_length_b 20.812483
_cell_length_c 10.942297
_cell_angle_alpha 90.000000
_cell_angle_beta 64.236897
_cell_angle_gamma 90.000000
_cell_volume 1320.201474
_symmetry_space_group_name_H-M "P 21/C"
_symmetry_group_IT_number 14
_symmetry_cell_setting 'monoclinic'
loop_
_space_group_symop_operation_xyz
x,y,z
-x,1/2+y,1/2-z
-x,-y,-z
x,1/2-y,1/2+z
loop_
_atom_site_type_symbol
_atom_site_label
_atom_site_fract_x
_atom_site_fract_y
_atom_site_fract_z
Si Si1 0.974034 0.475374 0.870548
Si Si2 0.907762 0.339799 0.948599
Si Si3 0.811259 0.680322 0.345491
Si Si4 0.776870 0.929492 0.229090
Si Si5 0.305762 0.709710 0.530926
Si Si6 0.104605 0.896986 0.940639
Si Si7 0.518122 0.510821 0.350126
Si Si8 0.970266 0.817364 0.319994
O O1 0.227773 0.465259 0.747504
O O2 0.832903 0.407935 0.910664
O O3 0.819722 0.521797 0.828476
O O4 0.000000 0.500000 0.000000
O O5 0.130078 0.314262 0.814075
O O6 0.701995 0.286861 0.989809
O O7 0.979744 0.355280 0.068472
O O8 0.544948 0.673272 0.446288
O O9 0.942770 0.617018 0.364741
O O10 0.873432 0.749154 0.386975
O O11 0.786390 0.857473 0.283471
O O12 0.540510 0.946205 0.215566
O O13 0.979449 0.938626 0.077445
O O14 0.140002 0.676203 0.475451
O O15 0.215401 0.692008 0.688901
O O16 0.337172 0.935187 0.848561
O O17 0.500000 0.500000 0.500000
#
# Coordination Sequence:
#
# PCOD8128077 Si02
#       8
#     4   4   4   4   4   4   4   4
#     4  12  26  47  70 104 156 195 240 300 371 456
#     4  11  23  46  68 102 147 182 243 300 353 450
#     4  11  24  44  75 105 139 187 244 312 360 433
#     4  11  25  46  71 102 148 193 241 307 372 441
#     4  10  24  44  72 101 135 192 232 300 373 424
#     4  11  23  45  74 105 140 176 255 309 354 431
#     4  12  27  45  78 111 139 201 256 308 373 430
#     4  10  23  47  65 103 147 184 238 296 373 448
#
# _framework density 24.238727000000001
#
# number of rings (size 3 to 8) (size 9 to 14) (size 15 to 20)
#    0.000    1.000    3.750    1.875    3.500    2.500 
#    6.750    0.000    0.000    0.000    0.000    0.000 
#    0.000    0.000    0.000    0.000    0.000    0.000 
#
# Total GULP energy -396587.432640 kJ/mol
# GULP energy per Si atom -12393.357270 kJ/mol
# Density = 2.418356 g / cm^3
# Si number density = 24.238727 Si / 1000 Ang^3
#
#
#
# Elastic Constant Matrix: (Units=GPa)
#
#
# Indices 1 2 3 4 5 6 
#
# 1 81.2824 22.2916 36.6964 0.0000 15.3256 0.0000
# 2 22.2916 98.2490 18.4111 0.0000 12.1667 0.0000
# 3 36.6964 18.4111 116.2984 0.0000 24.0778 0.0000
# 4 0.0000 0.0000 0.0000 30.6578 0.0000 8.6278
# 5 15.3256 12.1667 24.0778 0.0000 34.8582 0.0000
# 6 0.0000 0.0000 0.0000 8.6278 0.0000 44.2705
#
#
#
# Elastic Compliance Matrix: (Units=1/GPa)
#
#
# Indices 1 2 3 4 5 6 
#
# 1 0.015267 -0.002351 -0.003764 0.000000 -0.003292 0.000000
# 2 -0.002351 0.011115 -0.000500 0.000000 -0.002500 0.000000
# 3 -0.003764 -0.000500 0.011070 0.000000 -0.005817 0.000000
# 4 0.000000 0.000000 0.000000 0.034511 0.000000 -0.006726
# 5 -0.003292 -0.002500 -0.005817 0.000000 0.035026 0.000000
# 6 0.000000 0.000000 0.000000 -0.006726 0.000000 0.023899
#
#
# Mechanical properties :
#
#
# Convention : Reuss Voigt Hill
#
# Bulk Modulus (GPa) = 41.28400 50.06976 45.67688
# Shear Modulus (GPa) = 32.85331 36.51935 34.68633
#
# Velocity S-wave (km/s) = 3.68558 3.88577 3.78700
# Velocity P-wave (km/s) = 5.93132 6.39016 6.16501
#
# Compressibility (1/GPa) = 0.02422246
#
# Stress axis : x y z
#
# Youngs Moduli (GPa) = 65.49879 89.96845 90.33736
#
# Poissons Ratio (x) = 0.21152 0.34000
# Poissons Ratio (y) = 0.15399 0.04518
# Poissons Ratio (z) = 0.24652 0.04499
#
# Static dielectric constant tensor:
#      x y z
#    x 4.039390 0.000000 0.111010 
#    y 0.000000 4.643950 0.000000 
#    z 0.111010 0.000000 4.508340 
# 
# 
# High freq. dielectric constant tensor:
#      x y z
#    x 1.927270 0.000000 0.015170 
#    y 0.000000 1.982610 0.000000 
#    z 0.015170 0.000000 1.974140 
# 
# From -- ./inp_files/22083.got.cif
#   From: 2010.03.12/outbox.cif.g09.slc.cpg/sg14_12_cif.got.tgz:22083.got - 2010.03.31 13:35:05.
