data_PCOD8129746
_publ_section_title
;
Structure prediction by ZEFSAII (Michael W. Deem and Ramdas Pophale) SiO2 
 PCOD8129746
Probable space group: C 2/C
;
_chemical_formula_sum "Si O2"
_cell_formula_units_Z 64
_cell_length_a 17.380832
_cell_length_b 11.049717
_cell_length_c 22.764076
_cell_angle_alpha 90.000000
_cell_angle_beta 127.939060
_cell_angle_gamma 90.000000
_cell_volume 3447.977173
_symmetry_space_group_name_H-M "C 2/C"
_symmetry_group_IT_number 15
_symmetry_cell_setting 'monoclinic'
loop_
_space_group_symop_operation_xyz
x,y,z
-x,y,1/2-z
-x,-y,-z
x,-y,1/2+z
1/2+x,1/2+y,z
1/2-x,1/2+y,1/2-z
1/2-x,1/2-y,-z
1/2+x,1/2-y,1/2+z
loop_
_atom_site_type_symbol
_atom_site_label
_atom_site_fract_x
_atom_site_fract_y
_atom_site_fract_z
Si Si1 0.895403 0.611162 0.553170
Si Si2 0.854888 0.525606 0.200609
Si Si3 0.850594 0.821237 0.049311
Si Si4 0.638579 0.440924 0.572447
Si Si5 0.676071 0.430003 0.922432
Si Si6 0.052311 0.845834 0.970992
Si Si7 0.899575 0.273248 0.179225
Si Si8 0.527393 0.105142 0.356931
O O1 0.780130 0.591356 0.500530
O O2 0.929275 0.700333 0.516003
O O3 0.923703 0.667061 0.628543
O O4 0.951676 0.482360 0.577013
O O5 0.743425 0.569175 0.152606
O O6 0.858108 0.378158 0.203251
O O7 0.898416 0.571954 0.160129
O O8 0.915768 0.586931 0.282716
O O9 0.945599 0.740959 0.110211
O O10 0.840275 0.926246 0.094548
O O11 0.750000 0.750000 0.000000
O O12 0.867145 0.879400 0.993748
O O13 0.562870 0.374068 0.579894
O O14 0.608767 0.582368 0.549553
O O15 0.591874 0.385440 0.926464
O O16 0.669847 0.345868 0.860821
O O17 0.000000 0.220162 0.250000
#
# Coordination Sequence:
#
# PCOD8129746 Si02
#       8
#     8   8   8   8   8   8   8   8
#     4  10  16  31  53  78  99 129 166 217 256 294
#     4  10  17  31  52  76  98 129 174 212 256 311
#     4  11  18  33  51  75 102 134 173 207 253 305
#     4  10  19  32  53  74 101 135 170 214 250 311
#     4  10  19  30  54  76 103 129 166 219 255 303
#     4   9  18  31  52  77  99 128 171 207 264 299
#     4  10  16  28  47  79 101 119 163 218 264 290
#     4  10  18  30  53  76  98 133 175 209 254 308
#
# _framework density 18.561608
#
# number of rings (size 3 to 8) (size 9 to 14) (size 15 to 20)
#    0.000    2.000    5.000    4.500    0.000    0.000 
#    2.250    0.625    8.250    0.000    0.000    0.000 
#    0.000    0.000    0.000    0.000    0.000    0.000 
#
# Total GULP energy -396458.409413 kJ/mol
# GULP energy per Si atom -12389.325294 kJ/mol
# Density = 1.851936 g / cm^3
# Si number density = 18.561608 Si / 1000 Ang^3
#
#
#
# Elastic Constant Matrix: (Units=GPa)
#
#
# Indices 1 2 3 4 5 6 
#
# 1 64.3339 24.1637 33.8395 0.0000 26.4490 0.0000
# 2 24.1637 125.4113 56.3249 0.0000 10.6892 0.0000
# 3 33.8395 56.3249 120.7138 0.0000 33.1902 0.0000
# 4 0.0000 0.0000 0.0000 29.4923 0.0000 4.7214
# 5 26.4490 10.6892 33.1902 0.0000 26.7037 0.0000
# 6 0.0000 0.0000 0.0000 4.7214 0.0000 17.7979
#
#
#
# Elastic Compliance Matrix: (Units=1/GPa)
#
#
# Indices 1 2 3 4 5 6 
#
# 1 0.027485 -0.003668 0.001652 0.000000 -0.027808 0.000000
# 2 -0.003668 0.010712 -0.005758 0.000000 0.006501 0.000000
# 3 0.001652 -0.005758 0.015683 0.000000 -0.018825 0.000000
# 4 0.000000 0.000000 0.000000 0.035411 0.000000 -0.009394
# 5 -0.027808 0.006501 -0.018825 0.000000 0.085786 0.000000
# 6 0.000000 0.000000 0.000000 -0.009394 0.000000 0.058678
#
#
# Mechanical properties :
#
#
# Convention : Reuss Voigt Hill
#
# Bulk Modulus (GPa) = 26.08599 59.90171 42.99385
# Shear Modulus (GPa) = 19.07818 27.87417 23.47617
#
# Velocity S-wave (km/s) = 3.20946 3.87940 3.56022
# Velocity P-wave (km/s) = 5.27431 7.23935 6.33350
#
# Compressibility (1/GPa) = 0.03833476
#
# Stress axis : x y z
#
# Youngs Moduli (GPa) = 36.38365 93.35180 63.76286
#
# Poissons Ratio (x) = 0.34238 -0.10536
# Poissons Ratio (y) = 0.13344 0.36712
# Poissons Ratio (z) = -0.06012 0.53747
#
# Static dielectric constant tensor:
#      x y z
#    x 3.078850 0.000000 0.170960 
#    y 0.000000 4.312780 0.000000 
#    z 0.170960 0.000000 3.392290 
# 
# 
# High freq. dielectric constant tensor:
#      x y z
#    x 1.670100 0.000000 0.029800 
#    y 0.000000 1.732180 0.000000 
#    z 0.029800 0.000000 1.707780 
# 
# From -- ./inp_files/298694.got.cif
#   From: 2010.06.25/outbox.cif.g09.slc.cpg/sg15_150_cif.got.tgz:298694.got - 2010.06.28 07:06:18.
