data_PCOD8129700
_publ_section_title
;
Structure prediction by ZEFSAII (Michael W. Deem and Ramdas Pophale) SiO2 
 PCOD8129700
Probable space group: C 2/C
;
_chemical_formula_sum "Si O2"
_cell_formula_units_Z 36
_cell_length_a 7.359695
_cell_length_b 17.795862
_cell_length_c 14.284786
_cell_angle_alpha 90.000000
_cell_angle_beta 48.326009
_cell_angle_gamma 90.000000
_cell_volume 1397.456666
_symmetry_space_group_name_H-M "C 2/C"
_symmetry_group_IT_number 15
_symmetry_cell_setting 'monoclinic'
loop_
_space_group_symop_operation_xyz
x,y,z
-x,y,1/2-z
-x,-y,-z
x,-y,1/2+z
1/2+x,1/2+y,z
1/2-x,1/2+y,1/2-z
1/2-x,1/2-y,-z
1/2+x,1/2-y,1/2+z
loop_
_atom_site_type_symbol
_atom_site_label
_atom_site_fract_x
_atom_site_fract_y
_atom_site_fract_z
Si Si1 0.389431 0.766413 0.047947
Si Si2 0.500000 0.626397 0.750000
Si Si3 0.285879 0.613824 0.161499
Si Si4 0.173930 0.028342 0.531583
Si Si5 0.809720 0.396425 0.602185
O O1 0.439849 0.686785 0.079082
O O2 0.235752 0.820520 0.169128
O O3 0.250000 0.750000 0.000000
O O4 0.643794 0.809088 0.939775
O O5 0.484012 0.573907 0.662338
O O6 0.351301 0.597802 0.247531
O O7 0.000000 0.632203 0.250000
O O8 0.363551 0.541674 0.069007
O O9 0.434454 0.064358 0.463946
O O10 0.181706 0.939745 0.558179
#
# Coordination Sequence:
#
# PCOD8129700 Si02
#       5
#     8   4   8   8   8
#     4  11  15  26  47  73  99 124 154 205 253 282
#     4  10  16  26  44  66 100 128 158 194 248 284
#     4  10  16  27  47  71 101 124 157 197 247 282
#     4   9  18  29  43  68 102 134 153 196 246 298
#     4   9  18  29  44  71 105 123 162 193 252 293
#
# _framework density 25.761085999999999
#
# number of rings (size 3 to 8) (size 9 to 14) (size 15 to 20)
#    0.000    2.222    7.778    0.000    0.000    0.000 
#    0.000    1.111    0.000    0.000    0.000    1.556 
#    6.667    2.444    0.000    0.000    0.000    0.000 
#
# Total GULP energy -223246.220515 kJ/mol
# GULP energy per Si atom -12402.567806 kJ/mol
# Density = 2.570245 g / cm^3
# Si number density = 25.761086 Si / 1000 Ang^3
#
#
#
# Elastic Constant Matrix: (Units=GPa)
#
#
# Indices 1 2 3 4 5 6 
#
# 1 135.3575 42.9279 55.6580 0.0000 38.1767 0.0000
# 2 42.9279 214.5819 99.1794 0.0000 10.9797 0.0000
# 3 55.6580 99.1794 183.4815 0.0000 30.7673 0.0000
# 4 0.0000 0.0000 0.0000 57.6526 0.0000 -9.5642
# 5 38.1767 10.9797 30.7673 0.0000 35.5358 0.0000
# 6 0.0000 0.0000 0.0000 -9.5642 0.0000 30.2095
#
#
#
# Elastic Compliance Matrix: (Units=1/GPa)
#
#
# Indices 1 2 3 4 5 6 
#
# 1 0.011234 -0.001279 -0.000888 0.000000 -0.010905 0.000000
# 2 -0.001279 0.006399 -0.003474 0.000000 0.002405 0.000000
# 3 -0.000888 -0.003474 0.008490 0.000000 -0.005324 0.000000
# 4 0.000000 0.000000 0.000000 0.018307 0.000000 0.005796
# 5 -0.010905 0.002405 -0.005324 0.000000 0.043723 0.000000
# 6 0.000000 0.000000 0.000000 0.005796 0.000000 0.034937
#
#
# Mechanical properties :
#
#
# Convention : Reuss Voigt Hill
#
# Bulk Modulus (GPa) = 67.38001 103.21685 85.29843
# Shear Modulus (GPa) = 35.88892 47.05662 41.47277
#
# Velocity S-wave (km/s) = 3.73653 4.27858 4.01671
# Velocity P-wave (km/s) = 6.69538 8.03506 7.39562
#
# Compressibility (1/GPa) = 0.01484120
#
# Stress axis : x y z
#
# Youngs Moduli (GPa) = 89.01260 156.28001 117.78551
#
# Poissons Ratio (x) = 0.19991 0.10456
# Poissons Ratio (y) = 0.11386 0.40920
# Poissons Ratio (z) = 0.07902 0.54293
#
# Static dielectric constant tensor:
#      x y z
#    x 4.680710 0.000000 0.114080 
#    y 0.000000 5.114630 0.000000 
#    z 0.114080 0.000000 5.289890 
# 
# 
# High freq. dielectric constant tensor:
#      x y z
#    x 2.042460 0.000000 -0.005860 
#    y 0.000000 2.042650 0.000000 
#    z -0.005860 0.000000 2.053470 
# 
# From -- ./inp_files/58056.got.cif
#   From: 2010.06.25/outbox.cif.g09.slc.cpg/sg15_30_cif.got.tgz:58056.got - 2010.06.28 07:06:18.
