data_PCOD8129261
_publ_section_title
;
Structure prediction by ZEFSAII (Michael W. Deem and Ramdas Pophale) SiO2 
 PCOD8129261
Probable space group: P 21/C
;
_chemical_formula_sum "Si O2"
_cell_formula_units_Z 20
_cell_length_a 12.937557
_cell_length_b 12.278472
_cell_length_c 13.760937
_cell_angle_alpha 90.000000
_cell_angle_beta 21.081901
_cell_angle_gamma 90.000000
_cell_volume 786.298702
_symmetry_space_group_name_H-M "P 21/C"
_symmetry_group_IT_number 14
_symmetry_cell_setting 'monoclinic'
loop_
_space_group_symop_operation_xyz
x,y,z
-x,1/2+y,1/2-z
-x,-y,-z
x,1/2-y,1/2+z
loop_
_atom_site_type_symbol
_atom_site_label
_atom_site_fract_x
_atom_site_fract_y
_atom_site_fract_z
Si Si1 0.116393 0.056615 0.302099
Si Si2 0.950760 0.497233 0.429753
Si Si3 0.465143 0.869178 0.920291
Si Si4 0.983131 0.193805 0.252138
Si Si5 0.631782 0.886211 0.574276
O O1 0.898554 0.126040 0.425080
O O2 0.237532 0.967769 0.120160
O O3 0.373083 0.136142 0.117749
O O4 0.000000 0.000000 0.500000
O O5 0.000000 0.500000 0.500000
O O6 0.878343 0.618531 0.454882
O O7 0.713991 0.402243 0.621461
O O8 0.238524 0.471361 0.115670
O O9 0.296030 0.757287 0.043628
O O10 0.703577 0.899427 0.627195
O O11 0.248490 0.267655 0.056773
#
# Coordination Sequence:
#
# PCOD8129261 Si02
#       5
#     4   4   4   4   4
#     4  11  25  49  78 113 162 207 268 330 396 474
#     4  12  29  50  79 113 164 204 264 336 396 467
#     4  11  25  46  77 114 153 211 265 324 398 470
#     4  12  26  47  81 114 159 212 268 326 401 477
#     4  12  26  52  71 117 155 206 265 325 394 477
#
# _framework density 25.435627
#
# number of rings (size 3 to 8) (size 9 to 14) (size 15 to 20)
#    0.000    0.400    4.000    3.000    5.600    6.400 
#    0.000    0.000    0.000    0.000    0.000    0.000 
#    0.000    0.000    0.000    0.000    0.000    0.000 
#
# Total GULP energy -247787.359509 kJ/mol
# GULP energy per Si atom -12389.367975 kJ/mol
# Density = 2.537773 g / cm^3
# Si number density = 25.435627 Si / 1000 Ang^3
#
#
#
# Elastic Constant Matrix: (Units=GPa)
#
#
# Indices 1 2 3 4 5 6 
#
# 1 136.2772 75.8100 38.4050 0.0000 20.5231 0.0000
# 2 75.8100 119.2440 38.8572 0.0000 13.0730 0.0000
# 3 38.4050 38.8572 122.1006 0.0000 24.6100 0.0000
# 4 0.0000 0.0000 0.0000 36.0629 0.0000 -1.2592
# 5 20.5231 13.0730 24.6100 0.0000 41.1164 0.0000
# 6 0.0000 0.0000 0.0000 -1.2592 0.0000 52.5692
#
#
#
# Elastic Compliance Matrix: (Units=1/GPa)
#
#
# Indices 1 2 3 4 5 6 
#
# 1 0.011938 -0.006945 -0.000897 0.000000 -0.003214 0.000000
# 2 -0.006945 0.013464 -0.002202 0.000000 0.000504 0.000000
# 3 -0.000897 -0.002202 0.010168 0.000000 -0.004938 0.000000
# 4 0.000000 0.000000 0.000000 0.027753 0.000000 0.000665
# 5 -0.003214 0.000504 -0.004938 0.000000 0.028721 0.000000
# 6 0.000000 0.000000 0.000000 0.000665 0.000000 0.019038
#
#
# Mechanical properties :
#
#
# Convention : Reuss Voigt Hill
#
# Bulk Modulus (GPa) = 64.58949 75.97402 70.28175
# Shear Modulus (GPa) = 36.67541 40.91968 38.79754
#
# Velocity S-wave (km/s) = 3.80134 4.01528 3.90978
# Velocity P-wave (km/s) = 6.68696 7.17151 6.93347
#
# Compressibility (1/GPa) = 0.01548240
#
# Stress axis : x y z
#
# Youngs Moduli (GPa) = 83.76362 74.27281 98.34649
#
# Poissons Ratio (x) = 0.51584 0.08822
# Poissons Ratio (y) = 0.58176 0.21653
# Poissons Ratio (z) = 0.07514 0.16353
#
# Static dielectric constant tensor:
#      x y z
#    x 4.847910 0.000000 0.113150 
#    y 0.000000 4.877490 0.000000 
#    z 0.113150 0.000000 4.570080 
# 
# 
# High freq. dielectric constant tensor:
#      x y z
#    x 2.029430 0.000000 0.017080 
#    y 0.000000 2.011380 0.000000 
#    z 0.017080 0.000000 2.015420 
# 
# From -- ./inp_files/28865.got.cif
#   From: 2010.03.12/outbox.cif.g09.slc.cpg/sg14_15_cif.got.tgz:28865.got - 2010.03.31 13:35:05.
