data_PCOD8129043
_publ_section_title
;
Structure prediction by ZEFSAII (Michael W. Deem and Ramdas Pophale) SiO2 
 PCOD8129043
Probable space group: P 21/C
;
_chemical_formula_sum "Si O2"
_cell_formula_units_Z 24
_cell_length_a 12.717031
_cell_length_b 8.455603
_cell_length_c 10.592387
_cell_angle_alpha 90.000000
_cell_angle_beta 65.388396
_cell_angle_gamma 90.000000
_cell_volume 1035.524904
_symmetry_space_group_name_H-M "P 21/C"
_symmetry_group_IT_number 14
_symmetry_cell_setting 'monoclinic'
loop_
_space_group_symop_operation_xyz
x,y,z
-x,1/2+y,1/2-z
-x,-y,-z
x,1/2-y,1/2+z
loop_
_atom_site_type_symbol
_atom_site_label
_atom_site_fract_x
_atom_site_fract_y
_atom_site_fract_z
Si Si1 0.697630 0.952586 0.031546
Si Si2 0.046175 0.924481 0.101479
Si Si3 0.302370 0.952586 0.229175
Si Si4 0.368591 0.106338 0.449039
Si Si5 0.368591 0.893662 0.682370
Si Si6 0.953825 0.924481 0.647654
O O1 0.712012 0.761595 0.026133
O O2 0.629735 0.003721 0.190529
O O3 0.631076 1.000000 0.934462
O O4 0.816510 0.051225 0.967894
O O5 0.000000 0.750000 0.123975
O O6 0.991035 0.000000 0.254482
O O7 0.000000 0.000000 0.000000
O O8 0.370265 0.003721 0.320264
O O9 0.183490 0.051225 0.284404
O O10 0.287988 0.761595 0.238145
O O11 0.500000 0.160943 0.411197
O O12 0.321910 1.000000 0.589045
O O13 0.000000 0.000000 0.500000
#
# Coordination Sequence:
#
# PCOD8129043 Si02
#       6
#     4   4   4   4   4   4
#     4  11  24  42  65  97 131 173 220 269 327 387
#     4  11  24  43  67  97 130 170 218 271 329 390
#     4  11  24  42  65  97 131 173 220 269 327 387
#     4  11  24  42  67  99 135 175 219 268 324 389
#     4  11  24  42  67  99 135 175 219 268 324 389
#     4  11  24  43  67  97 130 170 218 271 329 390
#
# _framework density 23.176653999999999
#
# number of rings (size 3 to 8) (size 9 to 14) (size 15 to 20)
#    0.000    1.000    0.000    6.000    0.000   12.000 
#    0.000    0.000    0.000    0.000    0.000    0.000 
#    0.000    0.000    0.000    0.000    0.000    0.000 
#
# Total GULP energy -297510.714562 kJ/mol
# GULP energy per Si atom -12396.279773 kJ/mol
# Density = 2.312390 g / cm^3
# Si number density = 23.176654 Si / 1000 Ang^3
#
#
#
# Elastic Constant Matrix: (Units=GPa)
#
#
# Indices 1 2 3 4 5 6 
#
# 1 78.3675 52.0850 41.6168 0.0000 5.9733 0.0000
# 2 52.0850 211.5141 74.1550 0.0000 12.6473 0.0000
# 3 41.6168 74.1550 183.7491 0.0000 54.4160 0.0000
# 4 0.0000 0.0000 0.0000 50.4209 0.0000 6.9508
# 5 5.9733 12.6473 54.4160 0.0000 51.3473 0.0000
# 6 0.0000 0.0000 0.0000 6.9508 0.0000 38.2915
#
#
#
# Elastic Compliance Matrix: (Units=1/GPa)
#
#
# Indices 1 2 3 4 5 6 
#
# 1 0.016263 -0.003052 -0.003081 0.000000 0.002125 0.000000
# 2 -0.003052 0.006155 -0.002112 0.000000 0.001077 0.000000
# 3 -0.003081 -0.002112 0.009811 0.000000 -0.009519 0.000000
# 4 0.000000 0.000000 0.000000 0.020342 0.000000 -0.003693
# 5 0.002125 0.001077 -0.009519 0.000000 0.029051 0.000000
# 6 0.000000 0.000000 0.000000 -0.003693 0.000000 0.026786
#
#
# Mechanical properties :
#
#
# Convention : Reuss Voigt Hill
#
# Bulk Modulus (GPa) = 63.53109 89.92713 76.72911
# Shear Modulus (GPa) = 38.41906 48.39686 43.40796
#
# Velocity S-wave (km/s) = 4.07586 4.57461 4.33242
# Velocity P-wave (km/s) = 7.04424 8.17238 7.62919
#
# Compressibility (1/GPa) = 0.01574032
#
# Stress axis : x y z
#
# Youngs Moduli (GPa) = 61.49015 162.46290 101.92303
#
# Poissons Ratio (x) = 0.49576 0.31404
# Poissons Ratio (y) = 0.18764 0.21525
# Poissons Ratio (z) = 0.18946 0.34310
#
# Static dielectric constant tensor:
#      x y z
#    x 3.894830 0.000000 0.435340 
#    y 0.000000 4.059690 0.000000 
#    z 0.435340 0.000000 4.654520 
# 
# 
# High freq. dielectric constant tensor:
#      x y z
#    x 1.903500 0.000000 0.023050 
#    y 0.000000 1.924730 0.000000 
#    z 0.023050 0.000000 1.943730 
# 
# From -- ./inp_files/28003.got.cif
#   From: 2010.03.12/outbox.cif.g09.slc.cpg/sg14_15_cif.got.tgz:28003.got - 2010.03.31 13:35:05.
