data_PCOD8129011
_publ_section_title
;
Structure prediction by ZEFSAII (Michael W. Deem and Ramdas Pophale) SiO2 
 PCOD8129011
Probable space group: P 21/C
;
_chemical_formula_sum "Si O2"
_cell_formula_units_Z 32
_cell_length_a 11.333967
_cell_length_b 15.336654
_cell_length_c 9.304669
_cell_angle_alpha 90.000000
_cell_angle_beta 69.715449
_cell_angle_gamma 90.000000
_cell_volume 1517.079023
_symmetry_space_group_name_H-M "P 21/C"
_symmetry_group_IT_number 14
_symmetry_cell_setting 'monoclinic'
loop_
_space_group_symop_operation_xyz
x,y,z
-x,1/2+y,1/2-z
-x,-y,-z
x,1/2-y,1/2+z
loop_
_atom_site_type_symbol
_atom_site_label
_atom_site_fract_x
_atom_site_fract_y
_atom_site_fract_z
Si Si1 0.529674 0.931971 0.616892
Si Si2 0.622851 0.492287 0.359756
Si Si3 0.207317 0.144309 0.134180
Si Si4 0.251616 0.192417 0.433610
Si Si5 0.038207 0.951789 0.840982
Si Si6 0.271845 0.844432 0.818279
Si Si7 0.230454 0.828929 0.168739
Si Si8 0.015943 0.077803 0.608327
O O1 0.628041 0.853602 0.538680
O O2 0.406784 0.891462 0.745501
O O3 0.500000 0.000000 0.500000
O O4 0.608327 0.984842 0.700373
O O5 0.500000 0.500000 0.500000
O O6 0.726825 0.549936 0.398945
O O7 0.655910 0.392068 0.345602
O O8 0.253551 0.193125 0.259351
O O9 0.059709 0.120532 0.179878
O O10 0.248178 0.207284 0.986895
O O11 0.120211 0.146744 0.522127
O O12 0.172133 0.908795 0.794471
O O13 0.064317 0.032055 0.728304
O O14 0.000000 0.000000 0.000000
O O15 0.272996 0.760961 0.717655
O O16 0.225137 0.819630 0.998166
O O17 0.108345 0.867326 0.300329
O O18 0.000000 0.000000 0.500000
#
# Coordination Sequence:
#
# PCOD8129011 Si02
#       8
#     4   4   4   4   4   4   4   4
#     4  11  26  48  70 105 138 186 235 283 360 422
#     4  11  23  47  73  94 142 185 228 285 351 425
#     4  11  25  45  67 103 136 179 236 282 352 405
#     4  11  26  43  70 102 138 180 233 292 339 417
#     4  12  24  44  71 101 141 180 235 287 351 418
#     4  12  28  44  70 107 145 183 240 293 352 425
#     4  12  27  47  70 107 141 191 233 294 359 417
#     4  12  23  45  73  99 140 183 232 286 355 416
#
# _framework density 21.093167000000001
#
# number of rings (size 3 to 8) (size 9 to 14) (size 15 to 20)
#    0.000    0.500    5.000    2.250    7.000    3.000 
#    0.000    0.000    0.000    0.000    0.000    0.000 
#    0.000    0.000    0.000    0.000    0.000    0.000 
#
# Total GULP energy -396594.149159 kJ/mol
# GULP energy per Si atom -12393.567161 kJ/mol
# Density = 2.104516 g / cm^3
# Si number density = 21.093167 Si / 1000 Ang^3
#
#
#
# Elastic Constant Matrix: (Units=GPa)
#
#
# Indices 1 2 3 4 5 6 
#
# 1 98.4102 17.2466 16.2545 0.0000 -7.4455 0.0000
# 2 17.2466 82.9221 16.1271 0.0000 7.3877 0.0000
# 3 16.2545 16.1271 78.2961 0.0000 -0.7110 0.0000
# 4 0.0000 0.0000 0.0000 46.2470 0.0000 -1.4202
# 5 -7.4455 7.3877 -0.7110 0.0000 40.5303 0.0000
# 6 0.0000 0.0000 0.0000 -1.4202 0.0000 31.4015
#
#
#
# Elastic Compliance Matrix: (Units=1/GPa)
#
#
# Indices 1 2 3 4 5 6 
#
# 1 0.011020 -0.002150 -0.001823 0.000000 0.002384 0.000000
# 2 -0.002150 0.013207 -0.002300 0.000000 -0.002843 0.000000
# 3 -0.001823 -0.002300 0.013627 0.000000 0.000323 0.000000
# 4 0.000000 0.000000 0.000000 0.021653 0.000000 0.000979
# 5 0.002384 -0.002843 0.000323 0.000000 0.025635 0.000000
# 6 0.000000 0.000000 0.000000 0.000979 0.000000 0.031890
#
#
# Mechanical properties :
#
#
# Convention : Reuss Voigt Hill
#
# Bulk Modulus (GPa) = 39.51271 39.87611 39.69441
# Shear Modulus (GPa) = 36.22821 37.63577 36.93199
#
# Velocity S-wave (km/s) = 4.14881 4.22864 4.18891
# Velocity P-wave (km/s) = 6.45936 6.54122 6.50042
#
# Compressibility (1/GPa) = 0.02530831
#
# Stress axis : x y z
#
# Youngs Moduli (GPa) = 90.74538 75.71639 73.38259
#
# Poissons Ratio (x) = 0.16277 0.13380
# Poissons Ratio (y) = 0.19508 0.16877
# Poissons Ratio (z) = 0.16546 0.17414
#
# Static dielectric constant tensor:
#      x y z
#    x 4.003130 0.000000 0.075070 
#    y 0.000000 3.904070 0.000000 
#    z 0.075070 0.000000 4.107890 
# 
# 
# High freq. dielectric constant tensor:
#      x y z
#    x 1.839070 0.000000 -0.000330 
#    y 0.000000 1.837640 0.000000 
#    z -0.000330 0.000000 1.837090 
# 
# From -- ./inp_files/13282.got.cif
#   From: 2010.03.12/outbox.cif.g09.slc.cpg/sg14_7_cif.got.tgz:13282.got - 2010.03.31 13:35:05.
