data_PCOD8129192
_publ_section_title
;
Structure prediction by ZEFSAII (Michael W. Deem and Ramdas Pophale) SiO2 
 PCOD8129192
Probable space group: P 21/C
;
_chemical_formula_sum "Si O2"
_cell_formula_units_Z 20
_cell_length_a 15.893040
_cell_length_b 8.461107
_cell_length_c 10.218315
_cell_angle_alpha 90.000000
_cell_angle_beta 34.766039
_cell_angle_gamma 90.000000
_cell_volume 783.539751
_symmetry_space_group_name_H-M "P 21/C"
_symmetry_group_IT_number 14
_symmetry_cell_setting 'monoclinic'
loop_
_space_group_symop_operation_xyz
x,y,z
-x,1/2+y,1/2-z
-x,-y,-z
x,1/2-y,1/2+z
loop_
_atom_site_type_symbol
_atom_site_label
_atom_site_fract_x
_atom_site_fract_y
_atom_site_fract_z
Si Si1 0.240262 0.464591 0.199365
Si Si2 0.550969 0.602793 0.728699
Si Si3 0.864067 0.450407 0.929532
Si Si4 0.355064 0.170091 0.170097
Si Si5 0.164938 0.589075 0.553724
O O1 0.145499 0.445018 0.190226
O O2 0.232765 0.296802 0.282633
O O3 0.170492 0.589563 0.388547
O O4 0.409506 0.507599 0.954778
O O5 0.534129 0.643988 0.595035
O O6 0.564408 0.762065 0.801550
O O7 0.691322 0.488522 0.565992
O O8 0.845801 0.273369 0.898664
O O9 0.022923 0.491357 0.789042
O O10 0.729864 0.505081 0.194604
#
# Coordination Sequence:
#
# PCOD8129192 Si02
#       5
#     4   4   4   4   4
#     4  11  26  47  73 106 149 183 242 295 355 427
#     4  11  26  47  77 106 149 182 244 292 360 424
#     4  12  27  45  76 102 146 191 240 294 362 421
#     4  11  24  48  73 106 143 190 233 295 357 420
#     4  11  26  47  69 110 141 192 237 298 354 431
#
# _framework density 25.525189000000001
#
# number of rings (size 3 to 8) (size 9 to 14) (size 15 to 20)
#    0.000    0.800    2.000    5.400    8.400    1.600 
#    0.000    0.000    0.000    0.000    0.000    0.000 
#    0.000    0.000    0.000    0.000    0.000    0.000 
#
# Total GULP energy -247962.782512 kJ/mol
# GULP energy per Si atom -12398.139126 kJ/mol
# Density = 2.546709 g / cm^3
# Si number density = 25.525189 Si / 1000 Ang^3
#
#
#
# Elastic Constant Matrix: (Units=GPa)
#
#
# Indices 1 2 3 4 5 6 
#
# 1 63.0491 4.8331 34.9967 0.0000 9.5594 0.0000
# 2 4.8331 103.0817 35.2355 0.0000 -15.5906 0.0000
# 3 34.9967 35.2355 80.4517 0.0000 4.5306 0.0000
# 4 0.0000 0.0000 0.0000 36.6029 0.0000 3.0997
# 5 9.5594 -15.5906 4.5306 0.0000 50.1734 0.0000
# 6 0.0000 0.0000 0.0000 3.0997 0.0000 17.2113
#
#
#
# Elastic Compliance Matrix: (Units=1/GPa)
#
#
# Indices 1 2 3 4 5 6 
#
# 1 0.021777 0.002091 -0.010244 0.000000 -0.002574 0.000000
# 2 0.002091 0.012476 -0.006603 0.000000 0.004075 0.000000
# 3 -0.010244 -0.006603 0.019885 0.000000 -0.001896 0.000000
# 4 0.000000 0.000000 0.000000 0.027743 0.000000 -0.004997
# 5 -0.002574 0.004075 -0.001896 0.000000 0.021859 0.000000
# 6 0.000000 0.000000 0.000000 -0.004997 0.000000 0.059001
#
#
# Mechanical properties :
#
#
# Convention : Reuss Voigt Hill
#
# Bulk Modulus (GPa) = 40.60792 44.07925 42.34359
# Shear Modulus (GPa) = 24.94236 32.23200 28.58718
#
# Velocity S-wave (km/s) = 3.12936 3.55738 3.35021
# Velocity P-wave (km/s) = 5.38523 5.84634 5.62051
#
# Compressibility (1/GPa) = 0.02462574
#
# Stress axis : x y z
#
# Youngs Moduli (GPa) = 45.92063 80.15083 50.28967
#
# Poissons Ratio (x) = -0.16761 0.51516
# Poissons Ratio (y) = -0.09603 0.33209
# Poissons Ratio (z) = 0.47040 0.52927
#
# Static dielectric constant tensor:
#      x y z
#    x 4.727220 0.000000 0.203030 
#    y 0.000000 4.654490 0.000000 
#    z 0.203030 0.000000 4.571000 
# 
# 
# High freq. dielectric constant tensor:
#      x y z
#    x 2.016850 0.000000 0.007370 
#    y 0.000000 2.020130 0.000000 
#    z 0.007370 0.000000 2.022490 
# 
# From -- ./inp_files/33642.got.cif
#   From: 2010.03.12/outbox.cif.g09.slc.cpg/sg14_17_cif.got.tgz:33642.got - 2010.03.31 13:35:05.
