data_PCOD8129698
_publ_section_title
;
Structure prediction by ZEFSAII (Michael W. Deem and Ramdas Pophale) SiO2 
 PCOD8129698
Probable space group: C 2/C
;
_chemical_formula_sum "Si O2"
_cell_formula_units_Z 48
_cell_length_a 27.455267
_cell_length_b 9.084924
_cell_length_c 11.536197
_cell_angle_alpha 90.000000
_cell_angle_beta 49.668223
_cell_angle_gamma 90.000000
_cell_volume 2193.516788
_symmetry_space_group_name_H-M "C 2/C"
_symmetry_group_IT_number 15
_symmetry_cell_setting 'monoclinic'
loop_
_space_group_symop_operation_xyz
x,y,z
-x,y,1/2-z
-x,-y,-z
x,-y,1/2+z
1/2+x,1/2+y,z
1/2-x,1/2+y,1/2-z
1/2-x,1/2-y,-z
1/2+x,1/2-y,1/2+z
loop_
_atom_site_type_symbol
_atom_site_label
_atom_site_fract_x
_atom_site_fract_y
_atom_site_fract_z
Si Si1 0.380945 0.747546 0.639224
Si Si2 0.698367 0.540371 0.175936
Si Si3 0.480396 0.332026 0.544017
Si Si4 0.385132 0.637662 0.388877
Si Si5 0.692433 0.142645 0.058635
Si Si6 0.376997 0.331446 0.516891
O O1 0.350610 0.598045 0.739908
O O2 0.455533 0.763553 0.554773
O O3 0.371375 0.751921 0.515102
O O4 0.345735 0.883057 0.760856
O O5 0.678470 0.630250 0.091651
O O6 0.687290 0.636296 0.308540
O O7 0.773596 0.502379 0.046338
O O8 0.500000 0.500000 0.500000
O O9 0.445045 0.308003 0.721193
O O10 0.434607 0.277459 0.510510
O O11 0.401610 0.477766 0.415451
O O12 0.750000 0.250000 0.000000
O O13 0.641766 0.205397 0.044465
#
# Coordination Sequence:
#
# PCOD8129698 Si02
#       6
#     8   8   8   8   8   8
#     4  10  18  25  42  66  95 132 154 188 238 292
#     4   9  18  30  46  63  94 137 168 196 231 287
#     4  11  17  24  40  67  99 129 152 187 245 309
#     4  10  16  26  41  65  93 128 158 177 236 291
#     4  10  18  32  45  65  95 136 168 197 234 288
#     4  10  18  28  45  69  96 131 161 194 243 287
#
# _framework density 21.882667000000001
#
# number of rings (size 3 to 8) (size 9 to 14) (size 15 to 20)
#    0.000    2.000    8.333    0.500    0.000    2.000 
#    0.000    0.000    0.000   40.000    0.000    0.000 
#    0.000   12.000    1.333    1.667    0.000    0.000 
#
# Total GULP energy -297413.337094 kJ/mol
# GULP energy per Si atom -12392.222379 kJ/mol
# Density = 2.183286 g / cm^3
# Si number density = 21.882667 Si / 1000 Ang^3
#
#
#
# Elastic Constant Matrix: (Units=GPa)
#
#
# Indices 1 2 3 4 5 6 
#
# 1 107.8273 9.7183 60.6321 0.0000 5.3271 0.0000
# 2 9.7183 7.8129 18.2722 0.0000 -3.8946 0.0000
# 3 60.6321 18.2722 172.7750 0.0000 1.4954 0.0000
# 4 0.0000 0.0000 0.0000 20.2656 0.0000 -7.1916
# 5 5.3271 -3.8946 1.4954 0.0000 36.6437 0.0000
# 6 0.0000 0.0000 0.0000 -7.1916 0.0000 12.1934
#
#
#
# Elastic Compliance Matrix: (Units=1/GPa)
#
#
# Indices 1 2 3 4 5 6 
#
# 1 0.012018 -0.008490 -0.003298 0.000000 -0.002515 0.000000
# 2 -0.008490 0.190088 -0.017316 0.000000 0.022144 0.000000
# 3 -0.003298 -0.017316 0.008791 0.000000 -0.001720 0.000000
# 4 0.000000 0.000000 0.000000 0.062406 0.000000 0.036807
# 5 -0.002515 0.022144 -0.001720 0.000000 0.030079 0.000000
# 6 0.000000 0.000000 0.000000 0.036807 0.000000 0.103720
#
#
# Mechanical properties :
#
#
# Convention : Reuss Voigt Hill
#
# Bulk Modulus (GPa) = 6.54916 51.74005 29.14460
# Shear Modulus (GPa) = 9.68604 27.14004 18.41304
#
# Velocity S-wave (km/s) = 2.10617 3.52554 2.90391
# Velocity P-wave (km/s) = 2.98563 6.34573 4.95894
#
# Compressibility (1/GPa) = 0.15269138
#
# Stress axis : x y z
#
# Youngs Moduli (GPa) = 83.20920 5.26071 113.74849
#
# Poissons Ratio (x) = 0.04466 0.37512
# Poissons Ratio (y) = 0.70642 1.96962
# Poissons Ratio (z) = 0.27441 0.09109
#
# Static dielectric constant tensor:
#      x y z
#    x 4.180910 0.000000 -0.201980 
#    y 0.000000 3.312300 0.000000 
#    z -0.201980 0.000000 5.107810 
# 
# 
# High freq. dielectric constant tensor:
#      x y z
#    x 1.863790 0.000000 0.010250 
#    y 0.000000 1.766980 0.000000 
#    z 0.010250 0.000000 1.885220 
# 
# From -- ./inp_files/126112.got.cif
#   From: 2010.06.25/outbox.cif.g09.slc.cpg/sg15_64_cif.got.tgz:126112.got - 2010.06.28 07:06:18.
