data_PCOD8129886
_publ_section_title
;
Structure prediction by ZEFSAII (Michael W. Deem and Ramdas Pophale) SiO2 
 PCOD8129886
Probable space group: C 2/C
;
_chemical_formula_sum "Si O2"
_cell_formula_units_Z 56
_cell_length_a 14.722584
_cell_length_b 23.090994
_cell_length_c 9.689662
_cell_angle_alpha 90.000000
_cell_angle_beta 81.329944
_cell_angle_gamma 90.000000
_cell_volume 3256.446563
_symmetry_space_group_name_H-M "C 2/C"
_symmetry_group_IT_number 15
_symmetry_cell_setting 'monoclinic'
loop_
_space_group_symop_operation_xyz
x,y,z
-x,y,1/2-z
-x,-y,-z
x,-y,1/2+z
1/2+x,1/2+y,z
1/2-x,1/2+y,1/2-z
1/2-x,1/2-y,-z
1/2+x,1/2-y,1/2+z
loop_
_atom_site_type_symbol
_atom_site_label
_atom_site_fract_x
_atom_site_fract_y
_atom_site_fract_z
Si Si1 0.500000 0.302971 0.750000
Si Si2 0.434151 0.495098 0.147187
Si Si3 0.202050 0.804756 0.149582
Si Si4 0.351297 0.381396 0.090043
Si Si5 0.007768 0.207147 0.543313
Si Si6 0.663981 0.610227 0.218683
Si Si7 0.500000 0.199640 0.250000
Si Si8 0.195111 0.326465 0.635605
O O1 0.498153 0.265617 0.610087
O O2 0.410478 0.340832 0.745869
O O3 0.500000 0.472347 0.250000
O O4 0.357505 0.446156 0.145892
O O5 0.380812 0.552155 0.209575
O O6 0.500000 0.500000 0.000000
O O7 0.205930 0.841733 0.289998
O O8 0.107225 0.807377 0.083685
O O9 0.223535 0.737957 0.180940
O O10 0.280201 0.831538 0.032160
O O11 0.452569 0.353194 0.053912
O O12 0.305791 0.389797 0.949393
O O13 0.958476 0.257033 0.643160
O O14 0.753978 0.625054 0.286669
O O15 0.414693 0.161780 0.324122
#
# Coordination Sequence:
#
# PCOD8129886 Si02
#       8
#     4   8   8   8   8   8   4   8
#     4  10  18  30  47  74 114 143 174 220 264 330
#     4  12  22  35  53  84 123 154 179 214 270 344
#     4  10  19  34  53  79 101 149 189 230 269 336
#     4  11  21  33  54  80 115 148 181 216 277 334
#     4  10  16  32  50  75 107 142 182 217 274 318
#     4  11  22  35  49  82 114 150 182 223 271 331
#     4  10  20  38  51  78 100 147 190 234 272 318
#     4  10  21  35  55  74 111 140 196 232 272 327
#
# _framework density 17.196657999999999
#
# number of rings (size 3 to 8) (size 9 to 14) (size 15 to 20)
#    0.000    1.429    6.429    1.714    2.000    0.571 
#    0.000    0.000    0.000    0.000    0.000    4.000 
#    0.000    0.000    0.000    0.000    0.000    0.000 
#
# Total GULP energy -346905.800013 kJ/mol
# GULP energy per Si atom -12389.492858 kJ/mol
# Density = 1.715752 g / cm^3
# Si number density = 17.196658 Si / 1000 Ang^3
#
#
#
# Elastic Constant Matrix: (Units=GPa)
#
#
# Indices 1 2 3 4 5 6 
#
# 1 56.6576 10.0846 25.3284 0.0000 -12.1316 0.0000
# 2 10.0846 53.6821 40.1260 0.0000 -0.0516 0.0000
# 3 25.3284 40.1260 149.9502 0.0000 -8.4741 0.0000
# 4 0.0000 0.0000 0.0000 22.4866 0.0000 -3.9505
# 5 -12.1316 -0.0516 -8.4741 0.0000 25.9041 0.0000
# 6 0.0000 0.0000 0.0000 -3.9505 0.0000 21.8247
#
#
#
# Elastic Compliance Matrix: (Units=1/GPa)
#
#
# Indices 1 2 3 4 5 6 
#
# 1 0.021072 -0.002090 -0.002489 0.000000 0.009050 0.000000
# 2 -0.002090 0.023598 -0.006128 0.000000 -0.002936 0.000000
# 3 -0.002489 -0.006128 0.008826 0.000000 0.001709 0.000000
# 4 0.000000 0.000000 0.000000 0.045932 0.000000 0.008314
# 5 0.009050 -0.002936 0.001709 0.000000 0.043396 0.000000
# 6 0.000000 0.000000 0.000000 0.008314 0.000000 0.047325
#
#
# Mechanical properties :
#
#
# Convention : Reuss Voigt Hill
#
# Bulk Modulus (GPa) = 31.16826 45.70753 38.43790
# Shear Modulus (GPa) = 22.49667 26.35979 24.42823
#
# Velocity S-wave (km/s) = 3.62083 3.91940 3.77307
# Velocity P-wave (km/s) = 5.97030 6.86435 6.43288
#
# Compressibility (1/GPa) = 0.03208392
#
# Stress axis : x y z
#
# Youngs Moduli (GPa) = 47.45573 42.37606 113.30656
#
# Poissons Ratio (x) = 0.08855 0.28199
# Poissons Ratio (y) = 0.09917 0.69431
# Poissons Ratio (z) = 0.11810 0.25967
#
# Static dielectric constant tensor:
#      x y z
#    x 2.945010 0.000000 -0.064420 
#    y 0.000000 3.060690 0.000000 
#    z -0.064420 0.000000 3.708080 
# 
# 
# High freq. dielectric constant tensor:
#      x y z
#    x 1.627770 0.000000 -0.005230 
#    y 0.000000 1.627970 0.000000 
#    z -0.005230 0.000000 1.692430 
# 
# From -- ./inp_files/49725.got.cif
#   From: 2010.06.25/outbox.cif.g09.slc.cpg/sg15_25_cif.got.tgz:49725.got - 2010.06.28 07:06:18.
