data_PCOD8129063
_publ_section_title
;
Structure prediction by ZEFSAII (Michael W. Deem and Ramdas Pophale) SiO2 
 PCOD8129063
Probable space group: P 21/C
;
_chemical_formula_sum "Si O2"
_cell_formula_units_Z 16
_cell_length_a 8.231750
_cell_length_b 9.836816
_cell_length_c 16.912173
_cell_angle_alpha 90.000000
_cell_angle_beta 33.416420
_cell_angle_gamma 90.000000
_cell_volume 754.183381
_symmetry_space_group_name_H-M "P 21/C"
_symmetry_group_IT_number 14
_symmetry_cell_setting 'monoclinic'
loop_
_space_group_symop_operation_xyz
x,y,z
-x,1/2+y,1/2-z
-x,-y,-z
x,1/2-y,1/2+z
loop_
_atom_site_type_symbol
_atom_site_label
_atom_site_fract_x
_atom_site_fract_y
_atom_site_fract_z
Si Si1 0.094654 0.520875 0.595102
Si Si2 0.114689 0.295157 0.888354
Si Si3 0.236723 0.509240 0.714091
Si Si4 0.757747 0.240559 0.178692
O O1 0.063189 0.512161 0.702182
O O2 0.431441 0.544809 0.432282
O O3 0.901102 0.645463 0.642679
O O4 0.977940 0.384101 0.602928
O O5 0.061501 0.406818 0.842286
O O6 0.431419 0.317046 0.799772
O O7 0.865211 0.318602 0.056143
O O8 0.234781 0.660569 0.749452
#
# Coordination Sequence:
#
# PCOD8129063 Si02
#       4
#     4   4   4   4
#     4  11  24  44  64  96 134 167 208 266 325 371
#     4  12  23  43  68  95 129 168 216 262 315 379
#     4  11  24  43  66  95 132 169 210 264 319 381
#     4  12  23  43  68  95 129 168 216 262 315 379
#
# _framework density 21.215
#
# number of rings (size 3 to 8) (size 9 to 14) (size 15 to 20)
#    0.000    0.500    5.000    4.500    0.000    0.000 
#    0.000    2.500    0.000    0.000    0.000    0.000 
#    0.000    0.000    0.000    0.000    0.000    0.000 
#
# Total GULP energy -198559.019623 kJ/mol
# GULP energy per Si atom -12409.938726 kJ/mol
# Density = 2.116671 g / cm^3
# Si number density = 21.215000 Si / 1000 Ang^3
#
#
#
# Elastic Constant Matrix: (Units=GPa)
#
#
# Indices 1 2 3 4 5 6 
#
# 1 85.4195 18.3758 13.8554 0.0000 10.2694 0.0000
# 2 18.3758 57.9500 -1.7394 0.0000 14.2249 0.0000
# 3 13.8554 -1.7394 50.5304 0.0000 1.2160 0.0000
# 4 0.0000 0.0000 0.0000 35.9527 0.0000 12.0191
# 5 10.2694 14.2249 1.2160 0.0000 27.4863 0.0000
# 6 0.0000 0.0000 0.0000 12.0191 0.0000 27.3131
#
#
#
# Elastic Compliance Matrix: (Units=1/GPa)
#
#
# Indices 1 2 3 4 5 6 
#
# 1 0.013457 -0.003650 -0.003744 0.000000 -0.002973 0.000000
# 2 -0.003650 0.020801 0.001945 0.000000 -0.009487 0.000000
# 3 -0.003744 0.001945 0.020896 0.000000 -0.000532 0.000000
# 4 0.000000 0.000000 0.000000 0.032612 0.000000 -0.014351
# 5 -0.002973 -0.009487 -0.000532 0.000000 0.042426 0.000000
# 6 0.000000 0.000000 0.000000 -0.014351 0.000000 0.042928
#
#
# Mechanical properties :
#
#
# Convention : Reuss Voigt Hill
#
# Bulk Modulus (GPa) = 22.59528 28.32037 25.45783
# Shear Modulus (GPa) = 25.15484 29.04429 27.09957
#
# Velocity S-wave (km/s) = 3.44715 3.70408 3.57792
# Velocity P-wave (km/s) = 5.14952 5.62777 5.39395
#
# Compressibility (1/GPa) = 0.04425703
#
# Stress axis : x y z
#
# Youngs Moduli (GPa) = 74.31192 48.07510 47.85511
#
# Poissons Ratio (x) = 0.17546 0.17917
# Poissons Ratio (y) = 0.27121 -0.09308
# Poissons Ratio (z) = 0.27822 -0.09351
#
# Static dielectric constant tensor:
#      x y z
#    x 3.907220 0.000000 0.228300 
#    y 0.000000 3.717100 0.000000 
#    z 0.228300 0.000000 3.801390 
# 
# 
# High freq. dielectric constant tensor:
#      x y z
#    x 1.839550 0.000000 0.013910 
#    y 0.000000 1.835840 0.000000 
#    z 0.013910 0.000000 1.834460 
# 
# From -- ./inp_files/7179.got.cif
#   From: 2010.03.12/outbox.cif.g09.slc.cpg/sg14_4_cif.got.tgz:7179.got - 2010.03.31 13:35:05.
