data_PCOD8129162
_publ_section_title
;
Structure prediction by ZEFSAII (Michael W. Deem and Ramdas Pophale) SiO2 
 PCOD8129162
Probable space group: P 21/C
;
_chemical_formula_sum "Si O2"
_cell_formula_units_Z 20
_cell_length_a 9.075519
_cell_length_b 7.599344
_cell_length_c 13.062336
_cell_angle_alpha 90.000000
_cell_angle_beta 90.955797
_cell_angle_gamma 90.000000
_cell_volume 900.757723
_symmetry_space_group_name_H-M "P 21/C"
_symmetry_group_IT_number 14
_symmetry_cell_setting 'monoclinic'
loop_
_space_group_symop_operation_xyz
x,y,z
-x,1/2+y,1/2-z
-x,-y,-z
x,1/2-y,1/2+z
loop_
_atom_site_type_symbol
_atom_site_label
_atom_site_fract_x
_atom_site_fract_y
_atom_site_fract_z
Si Si1 0.150964 0.680780 0.588641
Si Si2 0.660355 0.161594 0.728343
Si Si3 0.175383 0.321907 0.476809
Si Si4 0.327926 0.979189 0.478304
Si Si5 0.565764 0.992505 0.114848
O O1 0.190128 0.710868 0.708751
O O2 0.168837 0.474012 0.562360
O O3 0.261534 0.798026 0.521559
O O4 0.982948 0.734212 0.568591
O O5 0.696981 0.011931 0.645142
O O6 0.544458 0.108847 0.812969
O O7 0.592061 0.316312 0.660297
O O8 0.279446 0.388245 0.385487
O O9 0.244698 0.145802 0.527942
O O10 0.500000 0.000000 0.500000
O O11 0.500000 0.000000 0.000000
#
# Coordination Sequence:
#
# PCOD8129162 Si02
#       5
#     4   4   4   4   4
#     4  11  25  47  68 104 142 190 234 292 367 429
#     4  12  24  42  71 102 140 186 243 288 363 429
#     4  11  24  46  71  95 150 184 227 304 356 425
#     4  12  25  46  71 105 139 185 241 297 353 427
#     4  12  23  44  69 104 144 186 245 303 354 427
#
# _framework density 22.203527000000001
#
# number of rings (size 3 to 8) (size 9 to 14) (size 15 to 20)
#    0.000    0.400    4.000    5.400    0.000    1.600 
#    3.600    0.000    0.000    0.000    0.000    0.000 
#    0.000    0.000    0.000    0.000    0.000    0.000 
#
# Total GULP energy -247986.506080 kJ/mol
# GULP energy per Si atom -12399.325304 kJ/mol
# Density = 2.215299 g / cm^3
# Si number density = 22.203527 Si / 1000 Ang^3
#
#
#
# Elastic Constant Matrix: (Units=GPa)
#
#
# Indices 1 2 3 4 5 6 
#
# 1 167.1525 54.5949 55.4055 0.0000 23.8250 0.0000
# 2 54.5949 116.6879 45.0698 0.0000 15.3387 0.0000
# 3 55.4055 45.0698 147.1401 0.0000 20.8793 0.0000
# 4 0.0000 0.0000 0.0000 33.5483 0.0000 -4.3003
# 5 23.8250 15.3387 20.8793 0.0000 31.6652 0.0000
# 6 0.0000 0.0000 0.0000 -4.3003 0.0000 44.1065
#
#
#
# Elastic Compliance Matrix: (Units=1/GPa)
#
#
# Indices 1 2 3 4 5 6 
#
# 1 0.007889 -0.002573 -0.001674 0.000000 -0.003586 0.000000
# 2 -0.002573 0.010830 -0.002073 0.000000 -0.001943 0.000000
# 3 -0.001674 -0.002073 0.008539 0.000000 -0.003367 0.000000
# 4 0.000000 0.000000 0.000000 0.030185 0.000000 0.002943
# 5 -0.003586 -0.001943 -0.003367 0.000000 0.037440 0.000000
# 6 0.000000 0.000000 0.000000 0.002943 0.000000 0.022959
#
#
# Mechanical properties :
#
#
# Convention : Reuss Voigt Hill
#
# Bulk Modulus (GPa) = 68.40374 82.34675 75.37525
# Shear Modulus (GPa) = 36.94033 40.25802 38.59918
#
# Velocity S-wave (km/s) = 4.08329 4.26271 4.17397
# Velocity P-wave (km/s) = 7.28735 7.83552 7.56640
#
# Compressibility (1/GPa) = 0.01461908
#
# Stress axis : x y z
#
# Youngs Moduli (GPa) = 126.76180 92.33834 117.10883
#
# Poissons Ratio (x) = 0.23761 0.19599
# Poissons Ratio (y) = 0.32619 0.24271
# Poissons Ratio (z) = 0.21214 0.19137
#
# Static dielectric constant tensor:
#      x y z
#    x 4.361430 0.000000 -0.001410 
#    y 0.000000 4.185710 0.000000 
#    z -0.001410 0.000000 4.250140 
# 
# 
# High freq. dielectric constant tensor:
#      x y z
#    x 1.886860 0.000000 0.003100 
#    y 0.000000 1.887310 0.000000 
#    z 0.003100 0.000000 1.862760 
# 
# From -- ./inp_files/23085.got.cif
#   From: 2010.03.12/outbox.cif.g09.slc.cpg/sg14_12_cif.got.tgz:23085.got - 2010.03.31 13:35:05.
