data_PCOD8129289
_publ_section_title
;
Structure prediction by ZEFSAII (Michael W. Deem and Ramdas Pophale) SiO2 
 PCOD8129289
Probable space group: P 21/C
;
_chemical_formula_sum "Si O2"
_cell_formula_units_Z 12
_cell_length_a 6.735970
_cell_length_b 10.175780
_cell_length_c 6.639239
_cell_angle_alpha 90.000000
_cell_angle_beta 92.478660
_cell_angle_gamma 90.000000
_cell_volume 454.652558
_symmetry_space_group_name_H-M "P 21/C"
_symmetry_group_IT_number 14
_symmetry_cell_setting 'monoclinic'
loop_
_space_group_symop_operation_xyz
x,y,z
-x,1/2+y,1/2-z
-x,-y,-z
x,1/2-y,1/2+z
loop_
_atom_site_type_symbol
_atom_site_label
_atom_site_fract_x
_atom_site_fract_y
_atom_site_fract_z
Si Si1 0.733814 0.628469 0.006361
Si Si2 0.913840 0.433055 0.697576
Si Si3 0.495713 0.877441 0.857296
O O1 0.556936 0.569466 0.137384
O O2 0.924912 0.643257 0.163021
O O3 0.797125 0.545360 0.817171
O O4 0.656040 0.769333 0.928327
O O5 0.735461 0.327653 0.644589
O O6 0.000000 0.500000 0.500000
O O7 0.500000 0.000000 0.000000
#
# Coordination Sequence:
#
# PCOD8129289 Si02
#       3
#     4   4   4
#     4  11  27  49  80 118 161 224 266 335 417 484
#     4  11  25  53  81 113 163 213 283 336 403 491
#     4  12  25  50  80 117 166 209 270 339 413 488
#
# _framework density 26.39378
#
# number of rings (size 3 to 8) (size 9 to 14) (size 15 to 20)
#    0.000    0.667    3.333    3.000    0.000    2.667 
#    0.000    0.000    0.000    0.000    0.000    0.000 
#    0.000    0.000    0.000    0.000    0.000    0.000 
#
# Total GULP energy -148658.350776 kJ/mol
# GULP energy per Si atom -12388.195898 kJ/mol
# Density = 2.633371 g / cm^3
# Si number density = 26.393780 Si / 1000 Ang^3
#
#
#
# Elastic Constant Matrix: (Units=GPa)
#
#
# Indices 1 2 3 4 5 6 
#
# 1 223.5529 46.5303 78.0803 0.0000 -7.8024 0.0000
# 2 46.5303 103.2767 55.1566 0.0000 -13.9458 0.0000
# 3 78.0803 55.1566 185.6251 0.0000 -36.9257 0.0000
# 4 0.0000 0.0000 0.0000 39.8284 0.0000 -0.3666
# 5 -7.8024 -13.9458 -36.9257 0.0000 67.2126 0.0000
# 6 0.0000 0.0000 0.0000 -0.3666 0.0000 53.8417
#
#
#
# Elastic Compliance Matrix: (Units=1/GPa)
#
#
# Indices 1 2 3 4 5 6 
#
# 1 0.005458 -0.001492 -0.002007 0.000000 -0.000779 0.000000
# 2 -0.001492 0.011937 -0.002763 0.000000 0.000786 0.000000
# 3 -0.002007 -0.002763 0.007738 0.000000 0.003445 0.000000
# 4 0.000000 0.000000 0.000000 0.025109 0.000000 0.000171
# 5 -0.000779 0.000786 0.003445 0.000000 0.016843 0.000000
# 6 0.000000 0.000000 0.000000 0.000171 0.000000 0.018574
#
#
# Mechanical properties :
#
#
# Convention : Reuss Voigt Hill
#
# Bulk Modulus (GPa) = 79.31783 96.88767 88.10275
# Shear Modulus (GPa) = 48.83492 54.35571 51.59532
#
# Velocity S-wave (km/s) = 4.30611 4.54300 4.42614
# Velocity P-wave (km/s) = 7.40543 8.01914 7.71839
#
# Compressibility (1/GPa) = 0.01260751
#
# Stress axis : x y z
#
# Youngs Moduli (GPa) = 183.22870 83.77566 129.23651
#
# Poissons Ratio (x) = 0.12500 0.25941
# Poissons Ratio (y) = 0.27339 0.35708
# Poissons Ratio (z) = 0.36779 0.23147
#
# Static dielectric constant tensor:
#      x y z
#    x 7.677560 0.000000 -0.196230 
#    y 0.000000 4.128590 0.000000 
#    z -0.196230 0.000000 5.737200 
# 
# 
# High freq. dielectric constant tensor:
#      x y z
#    x 2.105790 0.000000 -0.007060 
#    y 0.000000 2.016680 0.000000 
#    z -0.007060 0.000000 2.096620 
# 
# From -- ./inp_files/811.got.cif
#   From: 2010.03.12/outbox.cif.g09.slc.cpg/sg14_1_cif.got.tgz:811.got - 2010.03.31 13:35:05.
