data_PCOD8129847
_publ_section_title
;
Structure prediction by ZEFSAII (Michael W. Deem and Ramdas Pophale) SiO2 
 PCOD8129847
Probable space group: C 2/C
;
_chemical_formula_sum "Si O2"
_cell_formula_units_Z 36
_cell_length_a 14.287441
_cell_length_b 4.637941
_cell_length_c 25.763503
_cell_angle_alpha 90.000000
_cell_angle_beta 139.994617
_cell_angle_gamma 90.000000
_cell_volume 1097.490326
_symmetry_space_group_name_H-M "C 2/C"
_symmetry_group_IT_number 15
_symmetry_cell_setting 'monoclinic'
loop_
_space_group_symop_operation_xyz
x,y,z
-x,y,1/2-z
-x,-y,-z
x,-y,1/2+z
1/2+x,1/2+y,z
1/2-x,1/2+y,1/2-z
1/2-x,1/2-y,-z
1/2+x,1/2-y,1/2+z
loop_
_atom_site_type_symbol
_atom_site_label
_atom_site_fract_x
_atom_site_fract_y
_atom_site_fract_z
Si Si1 0.500000 0.998341 0.250000
Si Si2 0.913913 0.082133 0.627039
Si Si3 0.894121 0.297966 0.507117
Si Si4 0.811708 0.849433 0.394230
Si Si5 0.666662 0.742737 0.194492
O O1 0.494148 0.215859 0.295782
O O2 0.637956 0.777271 0.314186
O O3 0.887980 0.284669 0.566316
O O4 0.743234 0.996943 0.572512
O O5 0.006850 0.796251 0.653622
O O6 0.062364 0.395996 0.564282
O O7 0.856482 0.982709 0.468856
O O8 0.834522 0.114696 0.363276
O O9 0.785000 0.576662 0.282517
#
# Coordination Sequence:
#
# PCOD8129847 Si02
#       5
#     4   8   8   8   8
#     4  10  16  30  58 100 126 174 222 284 322 400
#     4   9  17  32  59  91 131 170 226 267 336 388
#     4   8  16  31  58  91 128 182 210 276 327 407
#     4   9  17  32  59  91 131 170 226 267 336 388
#     4  11  22  39  64  99 132 175 222 283 325 390
#
# _framework density 32.802112000000001
#
# number of rings (size 3 to 8) (size 9 to 14) (size 15 to 20)
#    0.000    2.667    2.222    0.000    0.000    0.000 
#    0.000    1.111    0.000   42.667    0.000    0.000 
#    0.000    0.000    0.000    0.000    0.000    0.000 
#
# Total GULP energy -223111.832101 kJ/mol
# GULP energy per Si atom -12395.101783 kJ/mol
# Density = 3.272745 g / cm^3
# Si number density = 32.802112 Si / 1000 Ang^3
#
#
#
# Elastic Constant Matrix: (Units=GPa)
#
#
# Indices 1 2 3 4 5 6 
#
# 1 142.9689 -4.8410 56.7701 0.0035 44.6581 0.0023
# 2 -4.8410 60.6512 15.1271 0.0016 -2.9397 -0.0007
# 3 56.7701 15.1271 207.6287 0.0050 18.4329 -0.0030
# 4 0.0035 0.0016 0.0050 66.2628 0.0004 14.9088
# 5 44.6581 -2.9397 18.4329 0.0004 90.5593 0.0000
# 6 0.0023 -0.0007 -0.0030 14.9088 0.0000 8.0622
#
#
#
# Elastic Compliance Matrix: (Units=1/GPa)
#
#
# Indices 1 2 3 4 5 6 
#
# 1 0.009178 0.001093 -0.002231 0.000001 -0.004037 -0.000005
# 2 0.001093 0.016981 -0.001566 -0.000001 0.000331 0.000002
# 3 -0.002231 -0.001566 0.005547 -0.000001 -0.000080 0.000005
# 4 0.000001 -0.000001 -0.000001 0.025844 0.000000 -0.047792
# 5 -0.004037 0.000331 -0.000080 0.000000 0.013060 0.000001
# 6 -0.000005 0.000002 0.000005 -0.047792 0.000001 0.212415
#
#
# Mechanical properties :
#
#
# Convention : Reuss Voigt Hill
#
# Bulk Modulus (GPa) = 38.02125 60.59569 49.30847
# Shear Modulus (GPa) = 16.82368 55.92301 36.37335
#
# Velocity S-wave (km/s) = 2.26715 4.13347 3.33359
# Velocity P-wave (km/s) = 4.29762 6.42604 5.46642
#
# Compressibility (1/GPa) = 0.02630108
#
# Stress axis : x y z
#
# Youngs Moduli (GPa) = 108.95340 58.88770 180.26494
#
# Poissons Ratio (x) = -0.06438 0.40214
# Poissons Ratio (y) = -0.11912 0.28221
# Poissons Ratio (z) = 0.24306 0.09219
#
# Static dielectric constant tensor:
#      x y z
#    x 7.267400 -0.000040 0.456180 
#    y -0.000040 5.330610 -0.000010 
#    z 0.456180 -0.000010 7.134890 
# 
# 
# High freq. dielectric constant tensor:
#      x y z
#    x 2.397190 0.000000 -0.002920 
#    y 0.000000 2.333680 0.000000 
#    z -0.002920 0.000000 2.412210 
# 
# From -- ./inp_files/312474.got.cif
#   From: 2010.06.25/outbox.cif.g09.slc.cpg/sg15_157_cif.got.tgz:312474.got - 2010.06.28 07:06:18.
