data_PCOD8129278
_publ_section_title
;
Structure prediction by ZEFSAII (Michael W. Deem and Ramdas Pophale) SiO2 
 PCOD8129278
Probable space group: P 21/C
;
_chemical_formula_sum "Si O2"
_cell_formula_units_Z 32
_cell_length_a 13.837903
_cell_length_b 9.365287
_cell_length_c 11.308705
_cell_angle_alpha 90.000000
_cell_angle_beta 73.350590
_cell_angle_gamma 90.000000
_cell_volume 1404.119728
_symmetry_space_group_name_H-M "P 21/C"
_symmetry_group_IT_number 14
_symmetry_cell_setting 'monoclinic'
loop_
_space_group_symop_operation_xyz
x,y,z
-x,1/2+y,1/2-z
-x,-y,-z
x,1/2-y,1/2+z
loop_
_atom_site_type_symbol
_atom_site_label
_atom_site_fract_x
_atom_site_fract_y
_atom_site_fract_z
Si Si1 0.661182 0.252246 0.391746
Si Si2 0.754140 0.748887 0.457058
Si Si3 0.905586 0.596728 0.568462
Si Si4 0.609223 0.898260 0.670101
Si Si5 0.021484 0.403496 0.880733
Si Si6 0.229302 0.018414 0.219259
Si Si7 0.449538 0.793592 0.324460
Si Si8 0.827152 0.474867 0.826726
O O1 0.741239 0.380994 0.367300
O O2 0.599594 0.258386 0.288905
O O3 0.600740 0.265746 0.536826
O O4 0.721692 0.105243 0.376955
O O5 0.823542 0.630422 0.497342
O O6 0.647317 0.796321 0.550781
O O7 0.726389 0.666261 0.348013
O O8 0.824397 0.884506 0.408373
O O9 0.840608 0.511420 0.685920
O O10 0.000000 0.500000 0.500000
O O11 0.945998 0.745087 0.602227
O O12 0.711409 0.979054 0.677197
O O13 0.554785 0.792460 0.782043
O O14 0.536629 0.034000 0.663071
O O15 0.922950 0.384143 0.835178
O O16 0.109249 0.482848 0.776719
O O17 0.000000 0.500000 0.000000
#
# Coordination Sequence:
#
# PCOD8129278 Si02
#       8
#     4   4   4   4   4   4   4   4
#     4  11  29  49  75 111 146 193 251 307 366 441
#     4  12  23  48  70 102 146 192 238 306 362 434
#     4  12  28  43  67 107 140 190 248 288 366 437
#     4  11  25  48  74 106 147 186 241 309 373 437
#     4  12  25  45  69 100 144 195 236 303 366 432
#     4  11  26  45  71 103 148 189 242 298 375 435
#     4  11  28  49  77 112 144 194 246 306 380 440
#     4  12  26  45  73 101 148 189 246 298 364 439
#
# _framework density 22.790081000000001
#
# number of rings (size 3 to 8) (size 9 to 14) (size 15 to 20)
#    0.000    0.500    5.000    0.750   12.250    2.500 
#    0.000    0.000    0.000    0.000    0.000    0.000 
#    0.000    0.000    0.000    0.000    0.000    0.000 
#
# Total GULP energy -396559.544073 kJ/mol
# GULP energy per Si atom -12392.485752 kJ/mol
# Density = 2.273821 g / cm^3
# Si number density = 22.790081 Si / 1000 Ang^3
#
#
#
# Elastic Constant Matrix: (Units=GPa)
#
#
# Indices 1 2 3 4 5 6 
#
# 1 62.6838 5.2119 24.0502 0.0000 -4.4335 0.0000
# 2 5.2119 79.7453 26.8144 0.0000 -10.5785 0.0000
# 3 24.0502 26.8144 145.7618 0.0000 -24.6839 0.0000
# 4 0.0000 0.0000 0.0000 45.0479 0.0000 -8.9742
# 5 -4.4335 -10.5785 -24.6839 0.0000 36.7760 0.0000
# 6 0.0000 0.0000 0.0000 -8.9742 0.0000 39.9115
#
#
#
# Elastic Compliance Matrix: (Units=1/GPa)
#
#
# Indices 1 2 3 4 5 6 
#
# 1 0.017034 -0.000167 -0.002753 0.000000 0.000158 0.000000
# 2 -0.000167 0.013571 -0.002044 0.000000 0.002512 0.000000
# 3 -0.002753 -0.002044 0.008501 0.000000 0.004786 0.000000
# 4 0.000000 0.000000 0.000000 0.023240 0.000000 0.005225
# 5 0.000158 0.002512 0.004786 0.000000 0.031146 0.000000
# 6 0.000000 0.000000 0.000000 0.005225 0.000000 0.026230
#
#
# Mechanical properties :
#
#
# Convention : Reuss Voigt Hill
#
# Bulk Modulus (GPa) = 34.27033 44.48267 39.37650
# Shear Modulus (GPa) = 35.87408 39.82138 37.84773
#
# Velocity S-wave (km/s) = 3.97181 4.18462 4.07960
# Velocity P-wave (km/s) = 6.00864 6.55049 6.28540
#
# Compressibility (1/GPa) = 0.02917976
#
# Stress axis : x y z
#
# Youngs Moduli (GPa) = 58.70459 73.68531 117.62951
#
# Poissons Ratio (x) = 0.01228 0.32387
# Poissons Ratio (y) = 0.00978 0.24040
# Poissons Ratio (z) = 0.16163 0.15059
#
# Static dielectric constant tensor:
#      x y z
#    x 4.240390 0.000000 -0.087570 
#    y 0.000000 4.396930 0.000000 
#    z -0.087570 0.000000 4.269810 
# 
# 
# High freq. dielectric constant tensor:
#      x y z
#    x 1.895310 0.000000 -0.005230 
#    y 0.000000 1.911700 0.000000 
#    z -0.005230 0.000000 1.912140 
# 
# From -- ./inp_files/31797.got.cif
#   From: 2010.03.12/outbox.cif.g09.slc.cpg/sg14_16_cif.got.tgz:31797.got - 2010.03.31 13:35:05.
