data_PCOD8129947
_publ_section_title
;
Structure prediction by ZEFSAII (Michael W. Deem and Ramdas Pophale) SiO2 
 PCOD8129947
Probable space group: C 2/C
;
_chemical_formula_sum "Si O2"
_cell_formula_units_Z 36
_cell_length_a 7.289775
_cell_length_b 16.884304
_cell_length_c 18.171830
_cell_angle_alpha 90.000000
_cell_angle_beta 112.328772
_cell_angle_gamma 90.000000
_cell_volume 2068.933967
_symmetry_space_group_name_H-M "C 2/C"
_symmetry_group_IT_number 15
_symmetry_cell_setting 'monoclinic'
loop_
_space_group_symop_operation_xyz
x,y,z
-x,y,1/2-z
-x,-y,-z
x,-y,1/2+z
1/2+x,1/2+y,z
1/2-x,1/2+y,1/2-z
1/2-x,1/2-y,-z
1/2+x,1/2-y,1/2+z
loop_
_atom_site_type_symbol
_atom_site_label
_atom_site_fract_x
_atom_site_fract_y
_atom_site_fract_z
Si Si1 0.606136 0.357880 0.337081
Si Si2 0.000000 0.293586 0.750000
Si Si3 0.300973 0.426971 0.762477
Si Si4 0.106910 0.968474 0.087734
Si Si5 0.464270 0.931020 0.327198
O O1 0.500000 0.400941 0.250000
O O2 0.558100 0.263905 0.327992
O O3 0.525254 0.397090 0.399076
O O4 0.840463 0.371519 0.360129
O O5 0.811247 0.344480 0.743917
O O6 0.500000 0.407601 0.750000
O O7 0.365427 0.460695 0.850869
O O8 0.150858 0.485204 0.696440
O O9 0.325934 0.938434 0.099508
O O10 0.000000 0.000000 0.000000
O O11 0.500000 0.896554 0.250000
#
# Coordination Sequence:
#
# PCOD8129947 Si02
#       5
#     8   4   8   8   8
#     4  10  19  36  55  84 105 140 188 229 265 321
#     4  10  20  32  60  82 106 140 188 232 266 314
#     4  11  18  34  57  81 105 142 191 224 264 324
#     4  11  21  34  57  86 112 143 183 228 274 325
#     4  10  16  33  59  74 105 141 187 223 257 322
#
# _framework density 17.400265999999998
#
# number of rings (size 3 to 8) (size 9 to 14) (size 15 to 20)
#    0.667    0.889   10.000    0.000    0.000    3.556 
#    0.000    1.111    0.000    2.667    0.000    0.000 
#    0.000    0.000    0.000    0.000    0.000    0.000 
#
# Total GULP energy -223107.642443 kJ/mol
# GULP energy per Si atom -12394.869025 kJ/mol
# Density = 1.736066 g / cm^3
# Si number density = 17.400266 Si / 1000 Ang^3
#
#
#
# Elastic Constant Matrix: (Units=GPa)
#
#
# Indices 1 2 3 4 5 6 
#
# 1 158.2917 53.7151 30.0690 0.0000 15.4135 0.0000
# 2 53.7151 101.5664 15.5913 0.0000 -2.3937 0.0000
# 3 30.0690 15.5913 55.3566 0.0000 14.2508 0.0000
# 4 0.0000 0.0000 0.0000 13.8750 0.0000 4.4124
# 5 15.4135 -2.3937 14.2508 0.0000 20.9589 0.0000
# 6 0.0000 0.0000 0.0000 4.4124 0.0000 30.4530
#
#
#
# Elastic Compliance Matrix: (Units=1/GPa)
#
#
# Indices 1 2 3 4 5 6 
#
# 1 0.008760 -0.004444 -0.002082 0.000000 -0.005534 0.000000
# 2 -0.004444 0.012803 -0.002921 0.000000 0.006716 0.000000
# 3 -0.002082 -0.002921 0.023892 0.000000 -0.015048 0.000000
# 4 0.000000 0.000000 0.000000 0.075554 0.000000 -0.010947
# 5 -0.005534 0.006716 -0.015048 0.000000 0.062781 0.000000
# 6 0.000000 0.000000 0.000000 -0.010947 0.000000 0.034424
#
#
# Mechanical properties :
#
#
# Convention : Reuss Voigt Hill
#
# Bulk Modulus (GPa) = 37.64919 57.10728 47.37823
# Shear Modulus (GPa) = 20.32854 27.44666 23.88760
#
# Velocity S-wave (km/s) = 3.42173 3.97592 3.70919
# Velocity P-wave (km/s) = 6.10697 7.34631 6.75512
#
# Compressibility (1/GPa) = 0.02656099
#
# Stress axis : x y z
#
# Youngs Moduli (GPa) = 114.15949 78.10957 41.85461
#
# Poissons Ratio (x) = 0.34708 0.08714
# Poissons Ratio (y) = 0.50727 0.12227
# Poissons Ratio (z) = 0.23768 0.22817
#
# Static dielectric constant tensor:
#      x y z
#    x 3.575920 0.000000 0.178800 
#    y 0.000000 3.058580 0.000000 
#    z 0.178800 0.000000 2.822450 
# 
# 
# High freq. dielectric constant tensor:
#      x y z
#    x 1.697890 0.000000 0.014530 
#    y 0.000000 1.655480 0.000000 
#    z 0.014530 0.000000 1.625750 
# 
# From -- ./inp_files/263645.got.cif
#   From: 2010.06.25/outbox.cif.g09.slc.cpg/sg15_132_cif.got.tgz:263645.got - 2010.06.28 07:06:18.
