data_PCOD8129252
_publ_section_title
;
Structure prediction by ZEFSAII (Michael W. Deem and Ramdas Pophale) SiO2 
 PCOD8129252
Probable space group: P 21/C
;
_chemical_formula_sum "Si O2"
_cell_formula_units_Z 32
_cell_length_a 12.099227
_cell_length_b 8.088508
_cell_length_c 14.295098
_cell_angle_alpha 90.000000
_cell_angle_beta 68.351021
_cell_angle_gamma 90.000000
_cell_volume 1300.303005
_symmetry_space_group_name_H-M "P 21/C"
_symmetry_group_IT_number 14
_symmetry_cell_setting 'monoclinic'
loop_
_space_group_symop_operation_xyz
x,y,z
-x,1/2+y,1/2-z
-x,-y,-z
x,1/2-y,1/2+z
loop_
_atom_site_type_symbol
_atom_site_label
_atom_site_fract_x
_atom_site_fract_y
_atom_site_fract_z
Si Si1 0.356269 0.097088 0.208390
Si Si2 0.561258 0.925532 0.619210
Si Si3 0.984898 0.651740 0.623300
Si Si4 0.398165 0.800355 0.921006
Si Si5 0.088898 0.952083 0.686145
Si Si6 0.742228 0.780464 0.425592
Si Si7 0.680876 0.246467 0.344911
Si Si8 0.190836 0.008422 0.951562
O O1 0.370389 0.152923 0.312415
O O2 0.485054 0.085731 0.117574
O O3 0.277556 0.231719 0.176976
O O4 0.302320 0.913340 0.219823
O O5 0.625109 0.871999 0.502877
O O6 0.425427 0.866442 0.661639
O O7 0.565707 0.122185 0.630044
O O8 0.995725 0.529571 0.708435
O O9 0.854456 0.628123 0.617576
O O10 0.002558 0.840959 0.649356
O O11 0.084457 0.611065 0.516207
O O12 0.299306 0.889388 0.885383
O O13 0.341959 0.792868 0.040720
O O14 0.194856 0.849615 0.701655
O O15 0.145459 0.096661 0.604228
O O16 0.765094 0.615992 0.475526
#
# Coordination Sequence:
#
# PCOD8129252 Si02
#       8
#     4   4   4   4   4   4   4   4
#     4  12  26  41  72 108 152 194 239 291 367 458
#     4  12  26  41  69 112 149 190 243 286 363 460
#     4  11  26  47  71 103 133 187 246 311 369 424
#     4  12  22  47  69 102 152 192 235 299 365 441
#     4  12  26  47  75  99 143 187 243 311 370 433
#     4  12  24  47  71 106 145 193 234 301 368 446
#     4  12  23  46  69 105 145 197 237 295 368 438
#     4  11  25  46  73 101 140 186 244 304 369 430
#
# _framework density 24.609648
#
# number of rings (size 3 to 8) (size 9 to 14) (size 15 to 20)
#    0.000    0.250    5.000    3.750    5.250    0.500 
#    0.000    0.000    0.000    0.000    0.000    0.000 
#    0.000    0.000    0.000    0.000    0.000    0.000 
#
# Total GULP energy -397003.887011 kJ/mol
# GULP energy per Si atom -12406.371469 kJ/mol
# Density = 2.455364 g / cm^3
# Si number density = 24.609648 Si / 1000 Ang^3
#
#
#
# Elastic Constant Matrix: (Units=GPa)
#
#
# Indices 1 2 3 4 5 6 
#
# 1 93.6447 52.1670 7.7614 0.0000 18.4471 0.0000
# 2 52.1670 127.7697 18.1702 0.0000 7.6660 0.0000
# 3 7.7614 18.1702 56.0332 0.0000 9.9432 0.0000
# 4 0.0000 0.0000 0.0000 28.0425 0.0000 -4.3490
# 5 18.4471 7.6660 9.9432 0.0000 37.9949 0.0000
# 6 0.0000 0.0000 0.0000 -4.3490 0.0000 52.7356
#
#
#
# Elastic Compliance Matrix: (Units=1/GPa)
#
#
# Indices 1 2 3 4 5 6 
#
# 1 0.015178 -0.005949 0.000966 0.000000 -0.006422 0.000000
# 2 -0.005949 0.010574 -0.002872 0.000000 0.001507 0.000000
# 3 0.000966 -0.002872 0.019531 0.000000 -0.005001 0.000000
# 4 0.000000 0.000000 0.000000 0.036122 0.000000 0.002979
# 5 -0.006422 0.001507 -0.005001 0.000000 0.030442 0.000000
# 6 0.000000 0.000000 0.000000 0.002979 0.000000 0.019208
#
#
# Mechanical properties :
#
#
# Convention : Reuss Voigt Hill
#
# Bulk Modulus (GPa) = 33.81450 48.18275 40.99863
# Shear Modulus (GPa) = 31.92400 37.04453 34.48427
#
# Velocity S-wave (km/s) = 3.60559 3.88401 3.74739
# Velocity P-wave (km/s) = 5.57709 6.30360 5.95144
#
# Compressibility (1/GPa) = 0.02957311
#
# Stress axis : x y z
#
# Youngs Moduli (GPa) = 65.88670 94.57576 51.19939
#
# Poissons Ratio (x) = 0.56263 -0.04947
# Poissons Ratio (y) = 0.39196 0.14705
# Poissons Ratio (z) = -0.06367 0.27163
#
# Static dielectric constant tensor:
#      x y z
#    x 4.505410 0.000000 0.097630 
#    y 0.000000 4.465560 0.000000 
#    z 0.097630 0.000000 4.251120 
# 
# 
# High freq. dielectric constant tensor:
#      x y z
#    x 1.979110 0.000000 0.001010 
#    y 0.000000 1.986240 0.000000 
#    z 0.001010 0.000000 1.971850 
# 
# From -- ./inp_files/43674.got.cif
#   From: 2010.03.12/outbox.cif.g09.slc.cpg/sg14_22_cif.got.tgz:43674.got - 2010.03.31 13:35:05.
