data_PCOD8129251
_publ_section_title
;
Structure prediction by ZEFSAII (Michael W. Deem and Ramdas Pophale) SiO2 
 PCOD8129251
Probable space group: P 21/C
;
_chemical_formula_sum "Si O2"
_cell_formula_units_Z 24
_cell_length_a 15.955969
_cell_length_b 11.669367
_cell_length_c 9.180218
_cell_angle_alpha 90.000000
_cell_angle_beta 32.857637
_cell_angle_gamma 90.000000
_cell_volume 927.397783
_symmetry_space_group_name_H-M "P 21/C"
_symmetry_group_IT_number 14
_symmetry_cell_setting 'monoclinic'
loop_
_space_group_symop_operation_xyz
x,y,z
-x,1/2+y,1/2-z
-x,-y,-z
x,1/2-y,1/2+z
loop_
_atom_site_type_symbol
_atom_site_label
_atom_site_fract_x
_atom_site_fract_y
_atom_site_fract_z
Si Si1 0.637043 0.934879 0.490915
Si Si2 0.688376 0.009552 0.091616
Si Si3 0.010896 0.578702 0.747402
Si Si4 0.197402 0.307328 0.733378
Si Si5 0.130091 0.734467 0.880081
Si Si6 0.792373 0.104812 0.475015
O O1 0.681926 0.994300 0.274564
O O2 0.731337 0.818408 0.366424
O O3 0.452242 0.910450 0.758026
O O4 0.668217 0.020902 0.581759
O O5 0.673910 0.889010 0.026877
O O6 0.862132 0.059666 0.803442
O O7 0.956335 0.461710 0.748438
O O8 0.114475 0.642516 0.478778
O O9 0.857588 0.646806 0.026680
O O10 0.043451 0.314585 0.861730
O O11 0.244800 0.647824 0.803337
O O12 0.189447 0.772109 0.633405
#
# Coordination Sequence:
#
# PCOD8129251 Si02
#       6
#     4   4   4   4   4   4
#     4  11  26  48  72 104 155 195 238 305 382 434
#     4  11  25  46  71 105 151 198 240 304 369 450
#     4  12  23  42  75 107 143 193 258 303 356 440
#     4  12  24  43  75 110 144 197 248 306 369 439
#     4  12  23  40  75 108 145 189 253 303 359 428
#     4  12  25  44  72 108 144 196 247 310 360 436
#
# _framework density 25.878864
#
# number of rings (size 3 to 8) (size 9 to 14) (size 15 to 20)
#    0.000    0.333    6.667    3.000    0.000    1.333 
#    0.000    0.833    0.000    0.000    0.000    0.000 
#    0.000    0.000    0.000    0.000    0.000    0.000 
#
# Total GULP energy -297350.689881 kJ/mol
# GULP energy per Si atom -12389.612078 kJ/mol
# Density = 2.581996 g / cm^3
# Si number density = 25.878864 Si / 1000 Ang^3
#
#
#
# Elastic Constant Matrix: (Units=GPa)
#
#
# Indices 1 2 3 4 5 6 
#
# 1 114.5068 36.4036 42.9977 0.0000 -16.7956 0.0000
# 2 36.4036 103.7594 35.8389 0.0000 -13.2285 0.0000
# 3 42.9977 35.8389 88.2520 0.0000 -22.9744 0.0000
# 4 0.0000 0.0000 0.0000 34.3988 0.0000 0.3399
# 5 -16.7956 -13.2285 -22.9744 0.0000 31.3176 0.0000
# 6 0.0000 0.0000 0.0000 0.3399 0.0000 38.0711
#
#
#
# Elastic Compliance Matrix: (Units=1/GPa)
#
#
# Indices 1 2 3 4 5 6 
#
# 1 0.011283 -0.002302 -0.004005 0.000000 0.002140 0.000000
# 2 -0.002302 0.011756 -0.003314 0.000000 0.001300 0.000000
# 3 -0.004005 -0.003314 0.016940 0.000000 0.008879 0.000000
# 4 0.000000 0.000000 0.000000 0.029073 0.000000 -0.000260
# 5 0.002140 0.001300 0.008879 0.000000 0.040142 0.000000
# 6 0.000000 0.000000 0.000000 -0.000260 0.000000 0.026269
#
#
# Mechanical properties :
#
#
# Convention : Reuss Voigt Hill
#
# Bulk Modulus (GPa) = 48.22529 59.66652 53.94591
# Shear Modulus (GPa) = 30.93738 33.50938 32.22338
#
# Velocity S-wave (km/s) = 3.46131 3.60231 3.53251
# Velocity P-wave (km/s) = 5.88640 6.35676 6.12609
#
# Compressibility (1/GPa) = 0.02073601
#
# Stress axis : x y z
#
# Youngs Moduli (GPa) = 88.62961 85.06447 59.03271
#
# Poissons Ratio (x) = 0.19585 0.23643
# Poissons Ratio (y) = 0.20405 0.19563
# Poissons Ratio (z) = 0.35496 0.28189
#
# Static dielectric constant tensor:
#      x y z
#    x 4.992680 0.000000 -0.132600 
#    y 0.000000 4.793710 0.000000 
#    z -0.132600 0.000000 4.370490 
# 
# 
# High freq. dielectric constant tensor:
#      x y z
#    x 2.052030 0.000000 0.006280 
#    y 0.000000 2.054720 0.000000 
#    z 0.006280 0.000000 1.996550 
# 
# From -- ./inp_files/33847.got.cif
#   From: 2010.03.12/outbox.cif.g09.slc.cpg/sg14_17_cif.got.tgz:33847.got - 2010.03.31 13:35:05.
