data_PCOD8129197
_publ_section_title
;
Structure prediction by ZEFSAII (Michael W. Deem and Ramdas Pophale) SiO2 
 PCOD8129197
Probable space group: P 21/C
;
_chemical_formula_sum "Si O2"
_cell_formula_units_Z 28
_cell_length_a 11.749688
_cell_length_b 7.388476
_cell_length_c 21.396705
_cell_angle_alpha 90.000000
_cell_angle_beta 145.018095
_cell_angle_gamma 90.000000
_cell_volume 1064.935867
_symmetry_space_group_name_H-M "P 21/C"
_symmetry_group_IT_number 14
_symmetry_cell_setting 'monoclinic'
loop_
_space_group_symop_operation_xyz
x,y,z
-x,1/2+y,1/2-z
-x,-y,-z
x,1/2-y,1/2+z
loop_
_atom_site_type_symbol
_atom_site_label
_atom_site_fract_x
_atom_site_fract_y
_atom_site_fract_z
Si Si1 0.658602 0.455743 0.019434
Si Si2 0.438205 0.647205 0.218260
Si Si3 0.775430 0.668749 0.820088
Si Si4 0.280711 0.532718 0.456237
Si Si5 0.453245 0.745593 0.365244
Si Si6 0.126967 0.882273 0.012180
Si Si7 0.889164 0.457428 0.753333
O O1 0.662279 0.243382 0.010121
O O2 0.875099 0.543005 0.130526
O O3 0.500000 0.500000 0.000000
O O4 0.561745 0.559520 0.916671
O O5 0.308358 0.465216 0.162849
O O6 0.642952 0.646416 0.269117
O O7 0.499018 0.678949 0.317145
O O8 0.323618 0.818648 0.136736
O O9 0.772120 0.595586 0.747365
O O10 0.005575 0.702798 0.938066
O O11 0.465908 0.394006 0.543338
O O12 0.161141 0.493758 0.466365
O O13 0.148841 0.490237 0.335984
O O14 0.215459 0.738243 0.276590
O O15 0.000000 0.000000 0.000000
#
# Coordination Sequence:
#
# PCOD8129197 Si02
#       7
#     4   4   4   4   4   4   4
#     4  12  28  49  79 120 156 210 270 332 406 475
#     4  11  26  47  74 110 152 206 261 329 397 470
#     4  11  24  48  77 112 156 205 265 328 399 482
#     4  12  27  51  79 117 160 211 269 333 401 485
#     4  11  27  49  76 112 163 205 270 329 401 485
#     4  12  26  49  77 114 155 212 265 328 401 481
#     4  11  26  50  77 116 155 213 262 334 399 486
#
# _framework density 26.292663000000001
#
# number of rings (size 3 to 8) (size 9 to 14) (size 15 to 20)
#    0.000    0.571    2.857    4.286    4.000    5.714 
#    7.714    0.000    0.000    0.000    0.000    0.000 
#    0.000    0.000    0.000    0.000    0.000    0.000 
#
# Total GULP energy -346942.902034 kJ/mol
# GULP energy per Si atom -12390.817930 kJ/mol
# Density = 2.623282 g / cm^3
# Si number density = 26.292663 Si / 1000 Ang^3
#
#
#
# Elastic Constant Matrix: (Units=GPa)
#
#
# Indices 1 2 3 4 5 6 
#
# 1 126.4283 13.4766 44.6494 0.0000 7.7094 0.0000
# 2 13.4766 72.7239 20.5213 0.0000 2.2295 0.0000
# 3 44.6494 20.5213 113.5290 0.0000 -0.3384 0.0000
# 4 0.0000 0.0000 0.0000 34.3154 0.0000 -1.1396
# 5 7.7094 2.2295 -0.3384 0.0000 47.5655 0.0000
# 6 0.0000 0.0000 0.0000 -1.1396 0.0000 41.7196
#
#
#
# Elastic Compliance Matrix: (Units=1/GPa)
#
#
# Indices 1 2 3 4 5 6 
#
# 1 0.009328 -0.000681 -0.003550 0.000000 -0.001505 0.000000
# 2 -0.000681 0.014563 -0.002366 0.000000 -0.000589 0.000000
# 3 -0.003550 -0.002366 0.010634 0.000000 0.000762 0.000000
# 4 0.000000 0.000000 0.000000 0.029168 0.000000 0.000797
# 5 -0.001505 -0.000589 0.000762 0.000000 0.021301 0.000000
# 6 0.000000 0.000000 0.000000 0.000797 0.000000 0.023991
#
#
# Mechanical properties :
#
#
# Convention : Reuss Voigt Hill
#
# Bulk Modulus (GPa) = 46.88048 52.21955 49.55001
# Shear Modulus (GPa) = 38.67315 40.32235 39.49775
#
# Velocity S-wave (km/s) = 3.83936 3.92037 3.88007
# Velocity P-wave (km/s) = 6.12562 6.35581 6.24178
#
# Compressibility (1/GPa) = 0.02133084
#
# Stress axis : x y z
#
# Youngs Moduli (GPa) = 107.20832 68.66912 94.03401
#
# Poissons Ratio (x) = 0.04674 0.33381
# Poissons Ratio (y) = 0.07297 0.22252
# Poissons Ratio (z) = 0.38058 0.16250
#
# Static dielectric constant tensor:
#      x y z
#    x -35.278180 0.000000 -36.924610 
#    y 0.000000 18.519950 0.000000 
#    z -36.924610 0.000000 -27.966890 
# 
# 
# High freq. dielectric constant tensor:
#      x y z
#    x 2.078270 0.000000 -0.001050 
#    y 0.000000 2.039070 0.000000 
#    z -0.001050 0.000000 2.060440 
# 
# From -- ./inp_files/67094.got.cif
#   From: 2010.03.12/outbox.cif.g09.slc.cpg/sg14_34_cif.got.tgz:67094.got - 2010.03.31 13:35:05.
