data_PCOD8129449
_publ_section_title
;
Structure prediction by ZEFSAII (Michael W. Deem and Ramdas Pophale) SiO2 
 PCOD8129449
Probable space group: P 21/C
;
_chemical_formula_sum "Si O2"
_cell_formula_units_Z 28
_cell_length_a 16.259950
_cell_length_b 5.101427
_cell_length_c 14.937369
_cell_angle_alpha 90.000000
_cell_angle_beta 116.124305
_cell_angle_gamma 90.000000
_cell_volume 1112.459895
_symmetry_space_group_name_H-M "P 21/C"
_symmetry_group_IT_number 14
_symmetry_cell_setting 'monoclinic'
loop_
_space_group_symop_operation_xyz
x,y,z
-x,1/2+y,1/2-z
-x,-y,-z
x,1/2-y,1/2+z
loop_
_atom_site_type_symbol
_atom_site_label
_atom_site_fract_x
_atom_site_fract_y
_atom_site_fract_z
Si Si1 0.100301 0.545402 0.585309
Si Si2 0.665914 0.601652 0.675591
Si Si3 0.941779 0.103436 0.737641
Si Si4 0.212134 0.469873 0.105560
Si Si5 0.577286 0.213716 0.515733
Si Si6 0.755837 0.922022 0.576377
Si Si7 0.487746 0.175561 0.299808
O O1 0.096380 0.662884 0.682708
O O2 0.151273 0.268827 0.612279
O O3 0.000000 0.500000 0.500000
O O4 0.153107 0.769596 0.554321
O O5 0.715986 0.451735 0.781508
O O6 0.577714 0.453992 0.586712
O O7 0.739242 0.668628 0.632344
O O8 0.611805 0.842971 0.697894
O O9 0.985249 0.368494 0.720288
O O10 0.859260 0.022729 0.633367
O O11 0.260691 0.369851 0.037193
O O12 0.565623 0.282911 0.405600
O O13 0.500000 0.000000 0.500000
O O14 0.681673 0.121124 0.579456
O O15 0.485759 0.384910 0.218586
#
# Coordination Sequence:
#
# PCOD8129449 Si02
#       7
#     4   4   4   4   4   4   4
#     4  12  25  49  74 112 160 195 263 333 391 468
#     4  12  28  48  78 109 164 202 266 327 398 465
#     4  12  26  48  78 113 151 206 261 318 396 469
#     4  12  28  47  76 115 152 209 259 323 399 474
#     4  12  27  50  78 114 159 213 266 329 399 470
#     4  12  28  48  79 110 156 205 263 321 399 470
#     4  12  28  49  78 115 156 205 265 322 392 475
#
# _framework density 25.169447999999999
#
# number of rings (size 3 to 8) (size 9 to 14) (size 15 to 20)
#    0.000    0.000    2.857    6.000    8.000    0.000 
#    0.000    0.000    0.000    0.000    0.000    0.000 
#    0.000    0.000    0.000    0.000    0.000    0.000 
#
# Total GULP energy -347161.841478 kJ/mol
# GULP energy per Si atom -12398.637196 kJ/mol
# Density = 2.511216 g / cm^3
# Si number density = 25.169448 Si / 1000 Ang^3
#
#
#
# Elastic Constant Matrix: (Units=GPa)
#
#
# Indices 1 2 3 4 5 6 
#
# 1 85.7231 8.1621 25.1588 0.0000 -10.4454 0.0000
# 2 8.1621 80.6140 3.0735 0.0000 -10.3367 0.0000
# 3 25.1588 3.0735 149.7912 0.0000 -17.8712 0.0000
# 4 0.0000 0.0000 0.0000 33.8915 0.0000 1.5778
# 5 -10.4454 -10.3367 -17.8712 0.0000 42.1303 0.0000
# 6 0.0000 0.0000 0.0000 1.5778 0.0000 43.1673
#
#
#
# Elastic Compliance Matrix: (Units=1/GPa)
#
#
# Indices 1 2 3 4 5 6 
#
# 1 0.012550 -0.000931 -0.001838 0.000000 0.002104 0.000000
# 2 -0.000931 0.012879 0.000254 0.000000 0.003037 0.000000
# 3 -0.001838 0.000254 0.007302 0.000000 0.002704 0.000000
# 4 0.000000 0.000000 0.000000 0.029556 0.000000 -0.001080
# 5 0.002104 0.003037 0.002704 0.000000 0.026150 0.000000
# 6 0.000000 0.000000 0.000000 -0.001080 0.000000 0.023205
#
#
# Mechanical properties :
#
#
# Convention : Reuss Voigt Hill
#
# Bulk Modulus (GPa) = 36.09829 43.21300 39.65565
# Shear Modulus (GPa) = 39.71274 42.48672 41.09973
#
# Velocity S-wave (km/s) = 3.97648 4.11302 4.04533
# Velocity P-wave (km/s) = 5.95453 6.30571 6.13264
#
# Compressibility (1/GPa) = 0.02770214
#
# Stress axis : x y z
#
# Youngs Moduli (GPa) = 79.68266 77.64724 136.94782
#
# Poissons Ratio (x) = 0.07228 0.25168
# Poissons Ratio (y) = 0.07417 -0.03484
# Poissons Ratio (z) = 0.14644 -0.01976
#
# Static dielectric constant tensor:
#      x y z
#    x 4.728050 0.000000 -0.048750 
#    y 0.000000 4.382610 0.000000 
#    z -0.048750 0.000000 4.971960 
# 
# 
# High freq. dielectric constant tensor:
#      x y z
#    x 2.012890 0.000000 -0.003040 
#    y 0.000000 1.990150 0.000000 
#    z -0.003040 0.000000 2.025750 
# 
# From -- ./inp_files/48213.got.cif
#   From: 2010.03.12/outbox.cif.g09.slc.cpg/sg14_25_cif.got.tgz:48213.got - 2010.03.31 13:35:05.
