data_PCOD8129150
_publ_section_title
;
Structure prediction by ZEFSAII (Michael W. Deem and Ramdas Pophale) SiO2 
 PCOD8129150
Probable space group: P 21/C
;
_chemical_formula_sum "Si O2"
_cell_formula_units_Z 24
_cell_length_a 10.641602
_cell_length_b 11.228225
_cell_length_c 23.428878
_cell_angle_alpha 90.000000
_cell_angle_beta 22.601711
_cell_angle_gamma 90.000000
_cell_volume 1075.885027
_symmetry_space_group_name_H-M "P 21/C"
_symmetry_group_IT_number 14
_symmetry_cell_setting 'monoclinic'
loop_
_space_group_symop_operation_xyz
x,y,z
-x,1/2+y,1/2-z
-x,-y,-z
x,1/2-y,1/2+z
loop_
_atom_site_type_symbol
_atom_site_label
_atom_site_fract_x
_atom_site_fract_y
_atom_site_fract_z
Si Si1 0.157601 0.211457 0.725591
Si Si2 0.715150 0.592054 0.238341
Si Si3 0.293973 0.124739 0.943229
Si Si4 0.583185 0.518562 0.063447
Si Si5 0.535914 0.743145 0.514717
Si Si6 0.462965 0.845280 0.725836
O O1 0.318834 0.299059 0.703800
O O2 0.321351 0.083538 0.662572
O O3 0.175302 0.256328 0.652563
O O4 0.769645 0.204264 0.896739
O O5 0.406346 0.506768 0.379230
O O6 0.699738 0.642060 0.180698
O O7 0.054160 0.523141 0.105091
O O8 0.382200 0.145383 0.972285
O O9 0.490307 0.214682 0.820074
O O10 0.907713 0.139750 0.097354
O O11 0.488506 0.627304 0.062358
O O12 0.565106 0.555193 0.137224
#
# Coordination Sequence:
#
# PCOD8129150 Si02
#       6
#     4   4   4   4   4   4
#     4  12  26  40  71 102 137 176 233 281 341 405
#     4  12  27  43  72 104 137 183 225 289 338 406
#     4  11  25  46  71 102 137 184 231 273 352 397
#     4  11  25  48  68 100 137 187 226 280 350 394
#     4  11  24  46  69  96 139 182 226 283 336 417
#     4  11  26  45  75  97 140 181 228 286 335 418
#
# _framework density 22.307217000000001
#
# number of rings (size 3 to 8) (size 9 to 14) (size 15 to 20)
#    0.000    0.667    1.667    6.500    9.333    0.667 
#    0.000    0.000    0.000    0.000    0.000    0.000 
#    0.000    0.000    0.000    0.000    0.000    0.000 
#
# Total GULP energy -297767.206180 kJ/mol
# GULP energy per Si atom -12406.966924 kJ/mol
# Density = 2.225645 g / cm^3
# Si number density = 22.307217 Si / 1000 Ang^3
#
#
#
# Elastic Constant Matrix: (Units=GPa)
#
#
# Indices 1 2 3 4 5 6 
#
# 1 127.2431 26.2904 3.6559 0.0000 14.2813 0.0000
# 2 26.2904 30.1426 22.0902 0.0000 5.2329 0.0000
# 3 3.6559 22.0902 62.1143 0.0000 -10.6982 0.0000
# 4 0.0000 0.0000 0.0000 29.4383 0.0000 -2.8915
# 5 14.2813 5.2329 -10.6982 0.0000 36.7095 0.0000
# 6 0.0000 0.0000 0.0000 -2.8915 0.0000 24.2286
#
#
#
# Elastic Compliance Matrix: (Units=1/GPa)
#
#
# Indices 1 2 3 4 5 6 
#
# 1 0.010176 -0.010778 0.002966 0.000000 -0.001558 0.000000
# 2 -0.010778 0.061557 -0.023212 0.000000 -0.011346 0.000000
# 3 0.002966 -0.023212 0.025848 0.000000 0.009688 0.000000
# 4 0.000000 0.000000 0.000000 0.034372 0.000000 0.004102
# 5 -0.001558 -0.011346 0.009688 0.000000 0.032288 0.000000
# 6 0.000000 0.000000 0.000000 0.004102 0.000000 0.041763
#
#
# Mechanical properties :
#
#
# Convention : Reuss Voigt Hill
#
# Bulk Modulus (GPa) = 28.14312 35.95254 32.04783
# Shear Modulus (GPa) = 17.86373 29.23952 23.55163
#
# Velocity S-wave (km/s) = 2.83292 3.62438 3.25281
# Velocity P-wave (km/s) = 4.83158 5.80231 5.33905
#
# Compressibility (1/GPa) = 0.03553267
#
# Stress axis : x y z
#
# Youngs Moduli (GPa) = 98.27472 16.24508 38.68714
#
# Poissons Ratio (x) = 0.17509 -0.11474
# Poissons Ratio (y) = 1.05923 0.89800
# Poissons Ratio (z) = -0.29148 0.37708
#
# Static dielectric constant tensor:
#      x y z
#    x 4.073170 0.000000 0.123630 
#    y 0.000000 3.965600 0.000000 
#    z 0.123630 0.000000 4.048650 
# 
# 
# High freq. dielectric constant tensor:
#      x y z
#    x 1.891470 0.000000 0.003290 
#    y 0.000000 1.876820 0.000000 
#    z 0.003290 0.000000 1.890910 
# 
# From -- ./inp_files/77201.got.cif
#   From: 2010.03.12/outbox.cif.g09.slc.cpg/sg14_39_cif.got.tgz:77201.got - 2010.03.31 13:35:05.
