data_PCOD8129233
_publ_section_title
;
Structure prediction by ZEFSAII (Michael W. Deem and Ramdas Pophale) SiO2 
 PCOD8129233
Probable space group: P 21/C
;
_chemical_formula_sum "Si O2"
_cell_formula_units_Z 20
_cell_length_a 20.332006
_cell_length_b 10.046343
_cell_length_c 14.110389
_cell_angle_alpha 90.000000
_cell_angle_beta 161.538182
_cell_angle_gamma 90.000000
_cell_volume 912.720353
_symmetry_space_group_name_H-M "P 21/C"
_symmetry_group_IT_number 14
_symmetry_cell_setting 'monoclinic'
loop_
_space_group_symop_operation_xyz
x,y,z
-x,1/2+y,1/2-z
-x,-y,-z
x,1/2-y,1/2+z
loop_
_atom_site_type_symbol
_atom_site_label
_atom_site_fract_x
_atom_site_fract_y
_atom_site_fract_z
Si Si1 0.158683 0.615827 0.194034
Si Si2 0.427711 0.961147 0.297004
Si Si3 0.122534 0.196234 0.848322
Si Si4 0.620299 0.552187 0.866618
Si Si5 0.173406 0.719046 0.897357
O O1 0.391767 0.559795 0.508052
O O2 0.141515 0.732725 0.247264
O O3 0.000000 0.500000 0.000000
O O4 0.091873 0.680184 0.003141
O O5 0.500000 0.000000 0.500000
O O6 0.610751 0.964105 0.468289
O O7 0.252322 0.060980 0.019686
O O8 0.334490 0.813364 0.173325
O O9 0.051147 0.223672 0.858414
O O10 0.259421 0.313775 0.993410
O O11 0.739602 0.430055 0.982556
#
# Coordination Sequence:
#
# PCOD8129233 Si02
#       5
#     4   4   4   4   4
#     4  11  25  47  72  99 146 184 238 289 350 427
#     4  11  25  45  69 102 139 184 234 288 349 414
#     4  12  26  47  71 105 141 189 236 286 360 419
#     4  11  26  47  73 101 146 186 233 298 352 413
#     4  11  26  45  70 106 138 186 235 287 354 419
#
# _framework density 21.912517000000001
#
# number of rings (size 3 to 8) (size 9 to 14) (size 15 to 20)
#    0.000    0.800    4.000    3.600    8.400    1.600 
#    0.000    0.000    0.000    0.000    0.000    0.000 
#    0.000    0.000    0.000    0.000    0.000    0.000 
#
# Total GULP energy -248062.647310 kJ/mol
# GULP energy per Si atom -12403.132365 kJ/mol
# Density = 2.186264 g / cm^3
# Si number density = 21.912517 Si / 1000 Ang^3
#
#
#
# Elastic Constant Matrix: (Units=GPa)
#
#
# Indices 1 2 3 4 5 6 
#
# 1 109.2191 24.0082 45.6844 0.0000 13.2936 0.0000
# 2 24.0082 79.5282 33.0970 0.0000 0.4543 0.0000
# 3 45.6844 33.0970 98.4195 0.0000 -8.8508 0.0000
# 4 0.0000 0.0000 0.0000 34.3278 0.0000 13.3359
# 5 13.2936 0.4543 -8.8508 0.0000 45.2629 0.0000
# 6 0.0000 0.0000 0.0000 13.3359 0.0000 37.2731
#
#
#
# Elastic Compliance Matrix: (Units=1/GPa)
#
#
# Indices 1 2 3 4 5 6 
#
# 1 0.012435 -0.001333 -0.005752 0.000000 -0.004763 0.000000
# 2 -0.001333 0.014820 -0.004421 0.000000 -0.000622 0.000000
# 3 -0.005752 -0.004421 0.014732 0.000000 0.004615 0.000000
# 4 0.000000 0.000000 0.000000 0.033834 0.000000 -0.012105
# 5 -0.004763 -0.000622 0.004615 0.000000 0.024401 0.000000
# 6 0.000000 0.000000 0.000000 -0.012105 0.000000 0.031160
#
#
# Mechanical properties :
#
#
# Convention : Reuss Voigt Hill
#
# Bulk Modulus (GPa) = 52.70052 54.74956 53.72504
# Shear Modulus (GPa) = 31.11035 35.66458 33.38746
#
# Velocity S-wave (km/s) = 3.77205 4.03872 3.90766
# Velocity P-wave (km/s) = 6.56306 6.84018 6.70305
#
# Compressibility (1/GPa) = 0.01897515
#
# Stress axis : x y z
#
# Youngs Moduli (GPa) = 80.42043 67.47673 67.87806
#
# Poissons Ratio (x) = 0.08993 0.39044
# Poissons Ratio (y) = 0.10718 0.30009
# Poissons Ratio (z) = 0.46259 0.29831
#
# Static dielectric constant tensor:
#      x y z
#    x 4.149030 0.000000 -0.069910 
#    y 0.000000 4.017500 0.000000 
#    z -0.069910 0.000000 4.105720 
# 
# 
# High freq. dielectric constant tensor:
#      x y z
#    x 1.873890 0.000000 0.004070 
#    y 0.000000 1.877530 0.000000 
#    z 0.004070 0.000000 1.854780 
# 
# From -- ./inp_files/28897.got.cif
#   From: 2010.03.12/outbox.cif.g09.slc.cpg/sg14_15_cif.got.tgz:28897.got - 2010.03.31 13:35:05.
