data_PCOD8129737
_publ_section_title
;
Structure prediction by ZEFSAII (Michael W. Deem and Ramdas Pophale) SiO2 
 PCOD8129737
Probable space group: C 2/C
;
_chemical_formula_sum "Si O2"
_cell_formula_units_Z 56
_cell_length_a 28.229935
_cell_length_b 27.099832
_cell_length_c 5.332064
_cell_angle_alpha 90.000000
_cell_angle_beta 110.858037
_cell_angle_gamma 90.000000
_cell_volume 3811.843839
_symmetry_space_group_name_H-M "C 2/C"
_symmetry_group_IT_number 15
_symmetry_cell_setting 'monoclinic'
loop_
_space_group_symop_operation_xyz
x,y,z
-x,y,1/2-z
-x,-y,-z
x,-y,1/2+z
1/2+x,1/2+y,z
1/2-x,1/2+y,1/2-z
1/2-x,1/2-y,-z
1/2+x,1/2-y,1/2+z
loop_
_atom_site_type_symbol
_atom_site_label
_atom_site_fract_x
_atom_site_fract_y
_atom_site_fract_z
Si Si1 0.305907 0.773796 0.092738
Si Si2 0.032266 0.870564 0.563201
Si Si3 0.679971 0.635211 0.855279
Si Si4 0.134412 0.822153 0.772409
Si Si5 0.776720 0.303373 0.537698
Si Si6 0.056430 0.019945 0.207856
Si Si7 0.330835 0.479164 0.066686
O O1 0.350242 0.733883 0.140985
O O2 0.313892 0.804491 0.365262
O O3 0.250000 0.750000 0.000000
O O4 0.308542 0.809893 0.855338
O O5 0.074146 0.827709 0.630967
O O6 0.060055 0.923546 0.629574
O O7 0.000000 0.861179 0.750000
O O8 0.000000 0.867698 0.250000
O O9 0.651578 0.644527 0.539600
O O10 0.673530 0.578451 0.903113
O O11 0.658626 0.664747 0.051426
O O12 0.737985 0.651498 0.932509
O O13 0.750000 0.250000 0.500000
O O14 0.030168 0.014128 0.437572
O O15 0.111569 0.997259 0.370348
O O16 0.303924 0.506253 0.252400
#
# Coordination Sequence:
#
# PCOD8129737 Si02
#       7
#     8   8   8   8   8   8   8
#     4  10  16  29  44  71  94 101 121 161 207 297
#     4  12  26  38  46  62  79 108 155 193 230 271
#     4  12  19  30  52  66  87 112 131 172 235 279
#     4  12  20  32  51  64  86 113 131 171 237 279
#     4  10  16  28  42  73  95 101 121 161 208 295
#     4  10  19  35  48  58  74  95 142 193 232 264
#     4  10  20  32  43  61  81 104 147 179 208 271
#
# _framework density 14.691053999999999
#
# number of rings (size 3 to 8) (size 9 to 14) (size 15 to 20)
#    0.000    1.143    5.714    6.000    0.000    1.714 
#    0.000    0.000    0.000    0.000    0.000    0.000 
#    0.000    0.000    0.000    0.000    0.000    0.000 
#
# Total GULP energy -347074.542343 kJ/mol
# GULP energy per Si atom -12395.519369 kJ/mol
# Density = 1.465762 g / cm^3
# Si number density = 14.691054 Si / 1000 Ang^3
#
#
#
# Elastic Constant Matrix: (Units=GPa)
#
#
# Indices 1 2 3 4 5 6 
#
# 1 46.6679 35.7252 39.9814 0.0000 -8.1090 0.0000
# 2 35.7252 44.6593 24.8400 0.0000 9.4934 0.0000
# 3 39.9814 24.8400 104.0256 0.0000 -26.4643 0.0000
# 4 0.0000 0.0000 0.0000 27.3096 0.0000 1.7611
# 5 -8.1090 9.4934 -26.4643 0.0000 29.3352 0.0000
# 6 0.0000 0.0000 0.0000 1.7611 0.0000 22.7811
#
#
#
# Elastic Compliance Matrix: (Units=1/GPa)
#
#
# Indices 1 2 3 4 5 6 
#
# 1 0.111142 -0.099372 -0.003882 0.000000 0.059379 0.000000
# 2 -0.099372 0.124994 -0.011594 0.000000 -0.078378 0.000000
# 3 -0.003882 -0.011594 0.018890 0.000000 0.019721 0.000000
# 4 0.000000 0.000000 0.000000 0.036801 0.000000 -0.002845
# 5 0.059379 -0.078378 0.019721 0.000000 0.093658 0.000000
# 6 0.000000 0.000000 0.000000 -0.002845 0.000000 0.044116
#
#
# Mechanical properties :
#
#
# Convention : Reuss Voigt Hill
#
# Bulk Modulus (GPa) = 39.47576 44.04954 41.76265
# Shear Modulus (GPa) = 7.48794 22.20559 14.84677
#
# Velocity S-wave (km/s) = 2.26009 3.89202 3.18244
# Velocity P-wave (km/s) = 5.80858 7.08845 6.48019
#
# Compressibility (1/GPa) = 0.02533200
#
# Stress axis : x y z
#
# Youngs Moduli (GPa) = 8.99748 8.00038 52.93693
#
# Poissons Ratio (x) = 0.79501 0.20549
# Poissons Ratio (y) = 0.89409 0.61375
# Poissons Ratio (z) = 0.03493 0.09276
#
# Static dielectric constant tensor:
#      x y z
#    x 2.982470 0.000000 -0.692560 
#    y 0.000000 2.655460 0.000000 
#    z -0.692560 0.000000 3.942390 
# 
# 
# High freq. dielectric constant tensor:
#      x y z
#    x 1.533600 0.000000 -0.043010 
#    y 0.000000 1.521540 0.000000 
#    z -0.043010 0.000000 1.592110 
# 
# From -- ./inp_files/16308.got.cif
#   From: 2010.06.25/outbox.cif.g09.slc.cpg/sg15_9_cif.got.tgz:16308.got - 2010.06.28 07:06:18.
