data_PCOD8129296
_publ_section_title
;
Structure prediction by ZEFSAII (Michael W. Deem and Ramdas Pophale) SiO2 
 PCOD8129296
Probable space group: P 21/C
;
_chemical_formula_sum "Si O2"
_cell_formula_units_Z 16
_cell_length_a 13.888121
_cell_length_b 8.391439
_cell_length_c 5.531442
_cell_angle_alpha 90.000000
_cell_angle_beta 51.523224
_cell_angle_gamma 90.000000
_cell_volume 504.664357
_symmetry_space_group_name_H-M "P 21/C"
_symmetry_group_IT_number 14
_symmetry_cell_setting 'monoclinic'
loop_
_space_group_symop_operation_xyz
x,y,z
-x,1/2+y,1/2-z
-x,-y,-z
x,1/2-y,1/2+z
loop_
_atom_site_type_symbol
_atom_site_label
_atom_site_fract_x
_atom_site_fract_y
_atom_site_fract_z
Si Si1 0.431756 0.340850 0.301821
Si Si2 0.893371 0.803132 0.564436
Si Si3 0.861493 0.116424 0.377644
Si Si4 0.698980 0.089817 0.241570
O O1 0.404380 0.249862 0.590958
O O2 0.332851 0.488642 0.452283
O O3 0.570752 0.403193 0.091349
O O4 0.826157 0.769778 0.928189
O O5 0.027010 0.721188 0.406046
O O6 0.904883 0.996376 0.519679
O O7 0.805994 0.009179 0.241918
O O8 0.747517 0.231727 0.618172
#
# Coordination Sequence:
#
# PCOD8129296 Si02
#       4
#     4   4   4   4
#     4  11  26  52  78 119 156 202 269 323 388 481
#     4  12  28  50  79 116 163 206 267 318 380 472
#     4  12  26  50  80 117 163 209 260 324 393 459
#     4  11  26  45  84 115 158 211 255 330 400 456
#
# _framework density 31.704239000000001
#
# number of rings (size 3 to 8) (size 9 to 14) (size 15 to 20)
#    0.000    0.500    5.000    1.500    0.000    8.000 
#    0.000    0.000    0.000    0.000    0.000    0.000 
#    0.000    0.000    0.000    0.000    0.000    0.000 
#
# Total GULP energy -198268.567150 kJ/mol
# GULP energy per Si atom -12391.785447 kJ/mol
# Density = 3.163208 g / cm^3
# Si number density = 31.704239 Si / 1000 Ang^3
#
#
#
# Elastic Constant Matrix: (Units=GPa)
#
#
# Indices 1 2 3 4 5 6 
#
# 1 114.2767 96.5242 160.0334 0.0000 60.0381 0.0000
# 2 96.5242 103.6554 -22.9151 0.0000 22.4210 0.0000
# 3 160.0334 -22.9151 -10.1777 0.0000 7.9677 0.0000
# 4 0.0000 0.0000 0.0000 47.7607 0.0000 6.5551
# 5 60.0381 22.4210 7.9677 0.0000 51.4184 0.0000
# 6 0.0000 0.0000 0.0000 6.5551 0.0000 71.0149
#
#
#
# Elastic Compliance Matrix: (Units=1/GPa)
#
#
# Indices 1 2 3 4 5 6 
#
# 1 0.000651 0.001170 0.005898 0.000000 -0.002184 0.000000
# 2 0.001170 0.008557 -0.004336 0.000000 -0.004425 0.000000
# 3 0.005898 -0.004336 0.000295 0.000000 -0.005041 0.000000
# 4 0.000000 0.000000 0.000000 0.021206 0.000000 -0.001957
# 5 -0.002184 -0.004425 -0.005041 0.000000 0.024710 0.000000
# 6 0.000000 0.000000 0.000000 -0.001957 0.000000 0.014262
#
#
# Mechanical properties :
#
#
# Convention : Reuss Voigt Hill
#
# Bulk Modulus (GPa) = 66.81979 75.00437 70.91208
# Shear Modulus (GPa) = 72.24635 32.31294 52.27964
#
# Velocity S-wave (km/s) = 4.77881 3.19595 4.06517
# Velocity P-wave (km/s) = 7.18131 6.10964 6.66704
#
# Compressibility (1/GPa) = 0.01496563
#
# Stress axis : x y z
#
# Youngs Moduli (GPa) = 1535.31842 116.86848 3386.82990
#
# Poissons Ratio (x) = -0.13671 -19.97409
# Poissons Ratio (y) = -1.79596 14.68576
# Poissons Ratio (z) = -9.05466 0.50676
#
# Static dielectric constant tensor:
#      x y z
#    x 6.972200 0.000000 0.748010 
#    y 0.000000 6.260130 0.000000 
#    z 0.748010 0.000000 6.376330 
# 
# 
# High freq. dielectric constant tensor:
#      x y z
#    x 2.341890 0.000000 0.009960 
#    y 0.000000 2.319340 0.000000 
#    z 0.009960 0.000000 2.309580 
# 
# From -- ./inp_files/3440.got.cif
#   From: 2010.03.12/outbox.cif.g09.slc.cpg/sg14_2_cif.got.tgz:3440.got - 2010.03.31 13:35:05.
