data_PCOD8129446
_publ_section_title
;
Structure prediction by ZEFSAII (Michael W. Deem and Ramdas Pophale) SiO2 
 PCOD8129446
Probable space group: P 21/C
;
_chemical_formula_sum "Si O2"
_cell_formula_units_Z 24
_cell_length_a 8.610877
_cell_length_b 8.932882
_cell_length_c 13.990004
_cell_angle_alpha 90.000000
_cell_angle_beta 91.511243
_cell_angle_gamma 90.000000
_cell_volume 1075.736078
_symmetry_space_group_name_H-M "P 21/C"
_symmetry_group_IT_number 14
_symmetry_cell_setting 'monoclinic'
loop_
_space_group_symop_operation_xyz
x,y,z
-x,1/2+y,1/2-z
-x,-y,-z
x,1/2-y,1/2+z
loop_
_atom_site_type_symbol
_atom_site_label
_atom_site_fract_x
_atom_site_fract_y
_atom_site_fract_z
Si Si1 0.359857 0.861500 0.357780
Si Si2 0.855673 0.590907 0.038469
Si Si3 0.216649 0.962523 0.167285
Si Si4 0.666728 0.437677 0.529012
Si Si5 0.878334 0.630817 0.660728
Si Si6 0.708883 0.799709 0.346948
O O1 0.280664 0.859318 0.252844
O O2 0.333493 0.699509 0.400008
O O3 0.543948 0.884720 0.348518
O O4 0.282784 0.986794 0.423766
O O5 0.913080 0.699285 0.125611
O O6 0.791456 0.687164 0.949828
O O7 0.000000 0.500000 0.000000
O O8 0.030545 0.972639 0.170333
O O9 0.302074 0.122949 0.175209
O O10 0.253523 0.883119 0.067470
O O11 0.500000 0.500000 0.500000
O O12 0.760598 0.569504 0.580326
O O13 0.806462 0.623744 0.764794
#
# Coordination Sequence:
#
# PCOD8129446 Si02
#       6
#     4   4   4   4   4   4
#     4  12  27  47  75 109 147 191 254 310 375 450
#     4  12  26  48  74 111 146 195 249 312 375 449
#     4  12  26  47  74 107 149 196 247 308 381 448
#     4  12  25  48  75 108 147 194 247 307 379 446
#     4  12  27  44  75 106 150 195 249 307 376 449
#     4  12  27  47  73 105 151 192 249 307 375 450
#
# _framework density 22.310303999999999
#
# number of rings (size 3 to 8) (size 9 to 14) (size 15 to 20)
#    0.000    0.000    5.000    4.000    4.667    1.333 
#    0.000    0.000    0.000    0.000    0.000    0.000 
#    0.000    0.000    0.000    0.000    0.000    0.000 
#
# Total GULP energy -297718.796541 kJ/mol
# GULP energy per Si atom -12404.949856 kJ/mol
# Density = 2.225952 g / cm^3
# Si number density = 22.310304 Si / 1000 Ang^3
#
#
#
# Elastic Constant Matrix: (Units=GPa)
#
#
# Indices 1 2 3 4 5 6 
#
# 1 130.3730 26.6918 36.4055 0.0000 -15.1220 0.0000
# 2 26.6918 91.7199 35.1517 0.0000 -5.6187 0.0000
# 3 36.4055 35.1517 135.1025 0.0000 -18.6468 0.0000
# 4 0.0000 0.0000 0.0000 44.7885 0.0000 -1.9045
# 5 -15.1220 -5.6187 -18.6468 0.0000 49.5033 0.0000
# 6 0.0000 0.0000 0.0000 -1.9045 0.0000 37.6448
#
#
#
# Elastic Compliance Matrix: (Units=1/GPa)
#
#
# Indices 1 2 3 4 5 6 
#
# 1 0.008706 -0.001798 -0.001624 0.000000 0.001844 0.000000
# 2 -0.001798 0.012484 -0.002789 0.000000 -0.000183 0.000000
# 3 -0.001624 -0.002789 0.008916 0.000000 0.002546 0.000000
# 4 0.000000 0.000000 0.000000 0.022375 0.000000 0.001132
# 5 0.001844 -0.000183 0.002546 0.000000 0.021702 0.000000
# 6 0.000000 0.000000 0.000000 0.001132 0.000000 0.026621
#
#
# Mechanical properties :
#
#
# Convention : Reuss Voigt Hill
#
# Bulk Modulus (GPa) = 56.54670 61.52150 59.03410
# Shear Modulus (GPa) = 41.97432 43.65040 42.81236
#
# Velocity S-wave (km/s) = 4.34220 4.42805 4.38533
# Velocity P-wave (km/s) = 7.10916 7.33340 7.22215
#
# Compressibility (1/GPa) = 0.01768450
#
# Stress axis : x y z
#
# Youngs Moduli (GPa) = 114.86749 80.10458 112.15458
#
# Poissons Ratio (x) = 0.14405 0.18208
# Poissons Ratio (y) = 0.20657 0.31277
# Poissons Ratio (z) = 0.18649 0.22339
#
# Static dielectric constant tensor:
#      x y z
#    x 4.310330 0.000000 -0.066690 
#    y 0.000000 3.958650 0.000000 
#    z -0.066690 0.000000 4.544890 
# 
# 
# High freq. dielectric constant tensor:
#      x y z
#    x 1.889010 0.000000 -0.009050 
#    y 0.000000 1.873630 0.000000 
#    z -0.009050 0.000000 1.906580 
# 
# From -- ./inp_files/38996.got.cif
#   From: 2010.03.12/outbox.cif.g09.slc.cpg/sg14_20_cif.got.tgz:38996.got - 2010.03.31 13:35:05.
