data_PCOD8129431
_publ_section_title
;
Structure prediction by ZEFSAII (Michael W. Deem and Ramdas Pophale) SiO2 
 PCOD8129431
Probable space group: P 21/C
;
_chemical_formula_sum "Si O2"
_cell_formula_units_Z 24
_cell_length_a 8.386796
_cell_length_b 14.219405
_cell_length_c 16.903710
_cell_angle_alpha 90.000000
_cell_angle_beta 33.581067
_cell_angle_gamma 90.000000
_cell_volume 1115.002864
_symmetry_space_group_name_H-M "P 21/C"
_symmetry_group_IT_number 14
_symmetry_cell_setting 'monoclinic'
loop_
_space_group_symop_operation_xyz
x,y,z
-x,1/2+y,1/2-z
-x,-y,-z
x,1/2-y,1/2+z
loop_
_atom_site_type_symbol
_atom_site_label
_atom_site_fract_x
_atom_site_fract_y
_atom_site_fract_z
Si Si1 0.256167 0.928389 0.908234
Si Si2 0.293760 0.947045 0.359757
Si Si3 0.407891 0.243464 0.486552
Si Si4 0.275775 0.918434 0.080382
Si Si5 0.781889 0.256476 0.689475
Si Si6 0.620993 0.925467 0.389497
O O1 0.203822 0.831764 0.885224
O O2 0.547389 0.981757 0.764947
O O3 0.264336 0.892594 0.993814
O O4 0.000000 0.000000 0.000000
O O5 0.250469 0.848010 0.333114
O O6 0.474802 0.931109 0.364496
O O7 0.000000 0.000000 0.500000
O O8 0.607774 0.332590 0.417505
O O9 0.518532 0.208992 0.354621
O O10 0.453788 0.174362 0.541064
O O11 0.071380 0.265826 0.620994
O O12 0.960463 0.945489 0.242124
O O13 0.500000 0.000000 0.000000
O O14 0.500000 0.000000 0.500000
#
# Coordination Sequence:
#
# PCOD8129431 Si02
#       6
#     4   4   4   4   4   4
#     4  12  25  45  75 104 141 190 240 296 360 430
#     4  12  27  47  75 107 144 191 243 298 367 431
#     4  12  27  46  74 103 145 188 241 298 365 427
#     4  12  27  47  73 105 145 188 240 298 361 432
#     4  12  25  48  71 105 143 188 244 303 358 432
#     4  12  27  48  72 105 146 189 238 297 363 431
#
# _framework density 21.524608000000001
#
# number of rings (size 3 to 8) (size 9 to 14) (size 15 to 20)
#    0.000    0.000    3.333    7.000    4.667    0.000 
#    6.000    0.000    0.000    0.000    0.000    0.000 
#    0.000    0.000    0.000    0.000    0.000    0.000 
#
# Total GULP energy -297679.232765 kJ/mol
# GULP energy per Si atom -12403.301365 kJ/mol
# Density = 2.147562 g / cm^3
# Si number density = 21.524608 Si / 1000 Ang^3
#
#
#
# Elastic Constant Matrix: (Units=GPa)
#
#
# Indices 1 2 3 4 5 6 
#
# 1 98.4315 33.0614 30.1708 0.0000 -2.7464 0.0000
# 2 33.0614 104.8945 47.4132 0.0000 -8.2742 0.0000
# 3 30.1708 47.4132 146.4403 0.0000 -11.3017 0.0000
# 4 0.0000 0.0000 0.0000 40.1936 0.0000 4.3987
# 5 -2.7464 -8.2742 -11.3017 0.0000 45.4027 0.0000
# 6 0.0000 0.0000 0.0000 4.3987 0.0000 45.4506
#
#
#
# Elastic Compliance Matrix: (Units=1/GPa)
#
#
# Indices 1 2 3 4 5 6 
#
# 1 0.011609 -0.003030 -0.001426 0.000000 -0.000205 0.000000
# 2 -0.003030 0.012019 -0.003173 0.000000 0.001217 0.000000
# 3 -0.001426 -0.003173 0.008257 0.000000 0.001391 0.000000
# 4 0.000000 0.000000 0.000000 0.025146 0.000000 -0.002434
# 5 -0.000205 0.001217 0.001391 0.000000 0.022581 0.000000
# 6 0.000000 0.000000 0.000000 -0.002434 0.000000 0.022237
#
#
# Mechanical properties :
#
#
# Convention : Reuss Voigt Hill
#
# Bulk Modulus (GPa) = 60.14992 63.45078 61.80035
# Shear Modulus (GPa) = 40.76635 42.15078 41.45856
#
# Velocity S-wave (km/s) = 4.35667 4.43002 4.39350
# Velocity P-wave (km/s) = 7.30156 7.46385 7.38315
#
# Compressibility (1/GPa) = 0.01662513
#
# Stress axis : x y z
#
# Youngs Moduli (GPa) = 86.14240 83.20309 121.10515
#
# Poissons Ratio (x) = 0.25213 0.17274
# Poissons Ratio (y) = 0.26104 0.38427
# Poissons Ratio (z) = 0.12287 0.26401
#
# Static dielectric constant tensor:
#      x y z
#    x 3.452030 0.000000 -0.535510 
#    y 0.000000 3.969090 0.000000 
#    z -0.535510 0.000000 3.675220 
# 
# 
# High freq. dielectric constant tensor:
#      x y z
#    x 1.860960 0.000000 0.004680 
#    y 0.000000 1.855480 0.000000 
#    z 0.004680 0.000000 1.870730 
# 
# From -- ./inp_files/17959.got.cif
#   From: 2010.03.12/outbox.cif.g09.slc.cpg/sg14_9_cif.got.tgz:17959.got - 2010.03.31 13:35:05.
