data_PCOD8129935
_publ_section_title
;
Structure prediction by ZEFSAII (Michael W. Deem and Ramdas Pophale) SiO2 
 PCOD8129935
Probable space group: C 2/C
;
_chemical_formula_sum "Si O2"
_cell_formula_units_Z 56
_cell_length_a 29.723515
_cell_length_b 8.877185
_cell_length_c 17.322817
_cell_angle_alpha 90.000000
_cell_angle_beta 142.198549
_cell_angle_gamma 90.000000
_cell_volume 2801.578221
_symmetry_space_group_name_H-M "C 2/C"
_symmetry_group_IT_number 15
_symmetry_cell_setting 'monoclinic'
loop_
_space_group_symop_operation_xyz
x,y,z
-x,y,1/2-z
-x,-y,-z
x,-y,1/2+z
1/2+x,1/2+y,z
1/2-x,1/2+y,1/2-z
1/2-x,1/2-y,-z
1/2+x,1/2-y,1/2+z
loop_
_atom_site_type_symbol
_atom_site_label
_atom_site_fract_x
_atom_site_fract_y
_atom_site_fract_z
Si Si1 0.998503 0.179566 0.627218
Si Si2 0.000000 0.076401 0.250000
Si Si3 0.695245 0.120378 0.150907
Si Si4 0.914607 0.617803 0.812790
Si Si5 0.500000 0.917317 0.750000
Si Si6 0.434558 0.805007 0.924369
Si Si7 0.610363 0.837519 0.394572
Si Si8 0.342564 0.780012 0.360795
O O1 0.912694 0.219727 0.502202
O O2 0.032098 0.313767 0.725148
O O3 0.044027 0.173266 0.608247
O O4 0.006232 0.021236 0.680478
O O5 0.072777 0.175835 0.352877
O O6 0.638615 0.223100 0.125029
O O7 0.777223 0.162394 0.286847
O O8 0.682423 0.944137 0.145306
O O9 0.684635 0.163367 0.045865
O O10 0.921526 0.451201 0.855066
O O11 0.877124 0.623362 0.678211
O O12 0.862933 0.716307 0.798089
O O13 0.997952 0.681444 0.923654
O O14 0.437390 0.027914 0.631937
#
# Coordination Sequence:
#
# PCOD8129935 Si02
#       8
#     8   4   8   8   4   8   8   8
#     4  10  19  38  60  89 111 149 195 248 282 336
#     4  10  24  32  58  94 126 140 190 254 298 332
#     4  11  23  39  62  84 120 158 192 234 295 354
#     4   9  18  35  62  88 110 145 204 242 283 342
#     4  10  16  32  64  84 106 142 196 236 294 332
#     4   9  17  35  62  89 109 147 200 246 278 345
#     4  11  20  36  57  89 115 155 185 245 293 344
#     4  10  23  40  60  86 117 158 194 234 288 358
#
# _framework density 19.988733
#
# number of rings (size 3 to 8) (size 9 to 14) (size 15 to 20)
#    0.000    2.000    2.857    2.571    2.000    0.571 
#    2.571    2.143    0.000    5.143    0.000    0.000 
#    0.000    0.000    0.000    0.000    0.000    0.000 
#
# Total GULP energy -347052.448396 kJ/mol
# GULP energy per Si atom -12394.730300 kJ/mol
# Density = 1.994324 g / cm^3
# Si number density = 19.988733 Si / 1000 Ang^3
#
#
#
# Elastic Constant Matrix: (Units=GPa)
#
#
# Indices 1 2 3 4 5 6 
#
# 1 67.5329 12.4064 24.6345 0.0000 -9.3939 0.0000
# 2 12.4064 80.5585 27.2871 0.0000 -1.2614 0.0000
# 3 24.6345 27.2871 70.6366 0.0000 -5.6967 0.0000
# 4 0.0000 0.0000 0.0000 19.1708 0.0000 -0.3444
# 5 -9.3939 -1.2614 -5.6967 0.0000 37.7626 0.0000
# 6 0.0000 0.0000 0.0000 -0.3444 0.0000 19.9087
#
#
#
# Elastic Compliance Matrix: (Units=1/GPa)
#
#
# Indices 1 2 3 4 5 6 
#
# 1 0.017441 -0.000767 -0.005506 0.000000 0.003483 0.000000
# 2 -0.000767 0.014321 -0.005306 0.000000 -0.000513 0.000000
# 3 -0.005506 -0.005306 0.018224 0.000000 0.001202 0.000000
# 4 0.000000 0.000000 0.000000 0.052179 0.000000 0.000903
# 5 0.003483 -0.000513 0.001202 0.000000 0.027512 0.000000
# 6 0.000000 0.000000 0.000000 0.000903 0.000000 0.050245
#
#
# Mechanical properties :
#
#
# Convention : Reuss Voigt Hill
#
# Bulk Modulus (GPa) = 37.27316 38.59824 37.93570
# Shear Modulus (GPa) = 23.58259 25.66177 24.62218
#
# Velocity S-wave (km/s) = 3.43854 3.58692 3.51351
# Velocity P-wave (km/s) = 5.86961 6.04207 5.95646
#
# Compressibility (1/GPa) = 0.02682896
#
# Stress axis : x y z
#
# Youngs Moduli (GPa) = 57.33558 69.82907 54.87336
#
# Poissons Ratio (x) = 0.05353 0.30211
# Poissons Ratio (y) = 0.04395 0.29116
# Poissons Ratio (z) = 0.31567 0.37052
#
# Static dielectric constant tensor:
#      x y z
#    x 3.757680 0.000000 -0.195500 
#    y 0.000000 3.478650 0.000000 
#    z -0.195500 0.000000 3.545680 
# 
# 
# High freq. dielectric constant tensor:
#      x y z
#    x 1.774000 0.000000 -0.023460 
#    y 0.000000 1.771390 0.000000 
#    z -0.023460 0.000000 1.766920 
# 
# From -- ./inp_files/214044.got.cif
#   From: 2010.06.25/outbox.cif.g09.slc.cpg/sg15_108_cif.got.tgz:214044.got - 2010.06.28 07:06:18.
