data_PCOD8129418
_publ_section_title
;
Structure prediction by ZEFSAII (Michael W. Deem and Ramdas Pophale) SiO2 
 PCOD8129418
Probable space group: P 21/C
;
_chemical_formula_sum "Si O2"
_cell_formula_units_Z 32
_cell_length_a 18.230341
_cell_length_b 14.620996
_cell_length_c 11.484500
_cell_angle_alpha 90.000000
_cell_angle_beta 28.110137
_cell_angle_gamma 90.000000
_cell_volume 1442.313198
_symmetry_space_group_name_H-M "P 21/C"
_symmetry_group_IT_number 14
_symmetry_cell_setting 'monoclinic'
loop_
_space_group_symop_operation_xyz
x,y,z
-x,1/2+y,1/2-z
-x,-y,-z
x,1/2-y,1/2+z
loop_
_atom_site_type_symbol
_atom_site_label
_atom_site_fract_x
_atom_site_fract_y
_atom_site_fract_z
Si Si1 0.158275 0.875007 0.135587
Si Si2 0.343044 0.612638 0.601902
Si Si3 0.680164 0.503003 0.772002
Si Si4 0.823526 0.925710 0.671544
Si Si5 0.163746 0.989423 0.709944
Si Si6 0.805789 0.846733 0.943348
Si Si7 0.701080 0.648017 0.123739
Si Si8 0.863515 0.178112 0.424185
O O1 0.294067 0.862381 0.039913
O O2 0.101090 0.774535 0.183974
O O3 0.011781 0.931266 0.394235
O O4 0.224372 0.925841 0.930532
O O5 0.261777 0.517472 0.751934
O O6 0.528026 0.610043 0.348562
O O7 0.283217 0.685082 0.782348
O O8 0.703646 0.487820 0.876592
O O9 0.736948 0.603190 0.652961
O O10 0.500000 0.500000 0.000000
O O11 0.771602 0.906075 0.876032
O O12 0.753087 0.847274 0.686080
O O13 0.169062 0.896344 0.629572
O O14 0.183103 0.077323 0.600941
O O15 0.000000 0.000000 0.000000
O O16 0.990120 0.842879 0.699188
O O17 0.723161 0.749012 0.040850
#
# Coordination Sequence:
#
# PCOD8129418 Si02
#       8
#     4   4   4   4   4   4   4   4
#     4  12  26  46  75 107 142 194 244 294 353 435
#     4  12  26  49  73 106 143 188 247 302 357 423
#     4  12  28  47  71 106 150 188 232 294 369 426
#     4  12  24  48  78  99 143 190 249 294 351 434
#     4  12  27  46  72 103 150 189 234 293 359 430
#     4  12  27  47  76 106 142 195 241 295 360 430
#     4  12  29  46  73 111 147 188 240 304 366 420
#     4  12  27  45  76 108 141 192 246 295 355 426
#
# _framework density 22.186582999999999
#
# number of rings (size 3 to 8) (size 9 to 14) (size 15 to 20)
#    0.000    0.000    6.250    3.000    7.000    1.000 
#    0.000    0.000    0.000    0.000    0.000    0.000 
#    0.000    0.000    0.000    0.000    0.000    0.000 
#
# Total GULP energy -397019.616490 kJ/mol
# GULP energy per Si atom -12406.863015 kJ/mol
# Density = 2.213608 g / cm^3
# Si number density = 22.186583 Si / 1000 Ang^3
#
#
#
# Elastic Constant Matrix: (Units=GPa)
#
#
# Indices 1 2 3 4 5 6 
#
# 1 121.0428 16.5410 21.2542 0.0000 -4.3355 0.0000
# 2 16.5410 120.0773 32.3211 0.0000 7.0046 0.0000
# 3 21.2542 32.3211 98.7559 0.0000 -15.0040 0.0000
# 4 0.0000 0.0000 0.0000 18.3457 0.0000 -1.6948
# 5 -4.3355 7.0046 -15.0040 0.0000 40.3580 0.0000
# 6 0.0000 0.0000 0.0000 -1.6948 0.0000 30.6579
#
#
#
# Elastic Compliance Matrix: (Units=1/GPa)
#
#
# Indices 1 2 3 4 5 6 
#
# 1 0.008658 -0.000813 -0.001520 0.000000 0.000506 0.000000
# 2 -0.000813 0.009531 -0.003401 0.000000 -0.003006 0.000000
# 3 -0.001520 -0.003401 0.012327 0.000000 0.005010 0.000000
# 4 0.000000 0.000000 0.000000 0.054788 0.000000 0.003029
# 5 0.000506 -0.003006 0.005010 0.000000 0.027217 0.000000
# 6 0.000000 0.000000 0.000000 0.003029 0.000000 0.032785
#
#
# Mechanical properties :
#
#
# Convention : Reuss Voigt Hill
#
# Bulk Modulus (GPa) = 52.50077 53.34542 52.92309
# Shear Modulus (GPa) = 30.65146 35.85629 33.25388
#
# Velocity S-wave (km/s) = 3.72093 4.02447 3.87567
# Velocity P-wave (km/s) = 6.49423 6.75953 6.62821
#
# Compressibility (1/GPa) = 0.01904734
#
# Stress axis : x y z
#
# Youngs Moduli (GPa) = 115.50390 104.92374 81.11977
#
# Poissons Ratio (x) = 0.08529 0.12333
# Poissons Ratio (y) = 0.09389 0.27589
# Poissons Ratio (z) = 0.17561 0.35684
#
# Static dielectric constant tensor:
#      x y z
#    x 4.775730 0.000000 0.473250 
#    y 0.000000 4.180410 0.000000 
#    z 0.473250 0.000000 4.321400 
# 
# 
# High freq. dielectric constant tensor:
#      x y z
#    x 1.892060 0.000000 0.001950 
#    y 0.000000 1.875030 0.000000 
#    z 0.001950 0.000000 1.875400 
# 
# From -- ./inp_files/34205.got.cif
#   From: 2010.03.12/outbox.cif.g09.slc.cpg/sg14_18_cif.got.tgz:34205.got - 2010.03.31 13:35:05.
