data_PCOD8129811
_publ_section_title
;
Structure prediction by ZEFSAII (Michael W. Deem and Ramdas Pophale) SiO2 
 PCOD8129811
Probable space group: C 2/C
;
_chemical_formula_sum "Si O2"
_cell_formula_units_Z 48
_cell_length_a 10.545399
_cell_length_b 16.098795
_cell_length_c 16.533671
_cell_angle_alpha 90.000000
_cell_angle_beta 85.977269
_cell_angle_gamma 90.000000
_cell_volume 2799.976494
_symmetry_space_group_name_H-M "C 2/C"
_symmetry_group_IT_number 15
_symmetry_cell_setting 'monoclinic'
loop_
_space_group_symop_operation_xyz
x,y,z
-x,y,1/2-z
-x,-y,-z
x,-y,1/2+z
1/2+x,1/2+y,z
1/2-x,1/2+y,1/2-z
1/2-x,1/2-y,-z
1/2+x,1/2-y,1/2+z
loop_
_atom_site_type_symbol
_atom_site_label
_atom_site_fract_x
_atom_site_fract_y
_atom_site_fract_z
Si Si1 0.017569 0.052386 0.392122
Si Si2 0.062206 0.883890 0.060659
Si Si3 0.196876 0.701442 0.925876
Si Si4 0.437248 0.221760 0.002041
Si Si5 0.714065 0.334482 0.606669
Si Si6 0.629896 0.686356 0.279818
O O1 0.089199 0.078237 0.470911
O O2 0.093143 0.094413 0.314904
O O3 0.871132 0.084043 0.404438
O O4 0.014763 0.952210 0.382786
O O5 0.200926 0.870873 0.096224
O O6 0.982366 0.798587 0.057088
O O7 0.189508 0.758639 0.847286
O O8 0.250000 0.750000 0.000000
O O9 0.056008 0.671048 0.958419
O O10 0.353583 0.158342 0.059909
O O11 0.356335 0.255238 0.929891
O O12 0.730930 0.320966 0.702403
O O13 0.500000 0.726770 0.250000
#
# Coordination Sequence:
#
# PCOD8129811 Si02
#       6
#     8   8   8   8   8   8
#     4   9  16  30  49  72  96 129 168 201 247 304
#     4   9  17  29  50  74  98 125 165 210 247 292
#     4  10  16  30  49  75 103 129 165 212 254 295
#     4   9  16  30  49  73  99 128 171 208 244 300
#     4   9  17  29  48  71  97 133 172 202 244 306
#     4  10  16  30  49  73  96 137 169 203 250 304
#
# _framework density 17.143001000000002
#
# number of rings (size 3 to 8) (size 9 to 14) (size 15 to 20)
#    0.000    2.667    6.667    0.000    0.000    0.000 
#    0.000    9.167    0.000    0.000    0.000    0.000 
#    0.000    0.000    0.000    0.000    0.000    0.000 
#
# Total GULP energy -297325.279521 kJ/mol
# GULP energy per Si atom -12388.553313 kJ/mol
# Density = 1.710398 g / cm^3
# Si number density = 17.143001 Si / 1000 Ang^3
#
#
#
# Elastic Constant Matrix: (Units=GPa)
#
#
# Indices 1 2 3 4 5 6 
#
# 1 73.1591 25.0824 38.3951 0.0000 -3.5372 0.0000
# 2 25.0824 59.9906 28.8437 0.0000 -0.1002 0.0000
# 3 38.3951 28.8437 104.6005 0.0000 -0.3798 0.0000
# 4 0.0000 0.0000 0.0000 19.5756 0.0000 -3.1972
# 5 -3.5372 -0.1002 -0.3798 0.0000 29.3751 0.0000
# 6 0.0000 0.0000 0.0000 -3.1972 0.0000 19.9182
#
#
#
# Elastic Compliance Matrix: (Units=1/GPa)
#
#
# Indices 1 2 3 4 5 6 
#
# 1 0.018303 -0.005099 -0.005305 0.000000 0.002118 0.000000
# 2 -0.005099 0.020637 -0.003821 0.000000 -0.000593 0.000000
# 3 -0.005305 -0.003821 0.012559 0.000000 -0.000489 0.000000
# 4 0.000000 0.000000 0.000000 0.052459 0.000000 0.008420
# 5 0.002118 -0.000593 -0.000489 0.000000 0.034289 0.000000
# 6 0.000000 0.000000 0.000000 0.008420 0.000000 0.051557
#
#
# Mechanical properties :
#
#
# Convention : Reuss Voigt Hill
#
# Bulk Modulus (GPa) = 43.38328 46.93253 45.15791
# Shear Modulus (GPa) = 22.12990 23.46905 22.79947
#
# Velocity S-wave (km/s) = 3.59681 3.70404 3.65082
# Velocity P-wave (km/s) = 6.52771 6.76237 6.64608
#
# Compressibility (1/GPa) = 0.02305036
#
# Stress axis : x y z
#
# Youngs Moduli (GPa) = 54.63473 48.45571 79.62159
#
# Poissons Ratio (x) = 0.24706 0.42238
# Poissons Ratio (y) = 0.27856 0.30427
# Poissons Ratio (z) = 0.28983 0.18517
#
# Static dielectric constant tensor:
#      x y z
#    x 3.541070 0.000000 0.040890 
#    y 0.000000 3.054900 0.000000 
#    z 0.040890 0.000000 3.328230 
# 
# 
# High freq. dielectric constant tensor:
#      x y z
#    x 1.651190 0.000000 0.006700 
#    y 0.000000 1.618540 0.000000 
#    z 0.006700 0.000000 1.659710 
# 
# From -- ./inp_files/198532.got.cif
#   From: 2010.06.25/outbox.cif.g09.slc.cpg/sg15_100_cif.got.tgz:198532.got - 2010.06.28 07:06:18.
