data_PCOD8129270
_publ_section_title
;
Structure prediction by ZEFSAII (Michael W. Deem and Ramdas Pophale) SiO2 
 PCOD8129270
Probable space group: P 21/C
;
_chemical_formula_sum "Si O2"
_cell_formula_units_Z 24
_cell_length_a 11.082362
_cell_length_b 11.134505
_cell_length_c 9.082733
_cell_angle_alpha 90.000000
_cell_angle_beta 86.382772
_cell_angle_gamma 90.000000
_cell_volume 1118.545697
_symmetry_space_group_name_H-M "P 21/C"
_symmetry_group_IT_number 14
_symmetry_cell_setting 'monoclinic'
loop_
_space_group_symop_operation_xyz
x,y,z
-x,1/2+y,1/2-z
-x,-y,-z
x,1/2-y,1/2+z
loop_
_atom_site_type_symbol
_atom_site_label
_atom_site_fract_x
_atom_site_fract_y
_atom_site_fract_z
Si Si1 0.889836 0.724207 0.490676
Si Si2 0.728899 0.167243 0.391913
Si Si3 0.666350 0.578614 0.392988
Si Si4 0.604463 0.355237 0.595199
Si Si5 0.816286 0.980463 0.609065
Si Si6 0.953411 0.321626 0.267048
O O1 0.762229 0.669349 0.455908
O O2 0.977821 0.729346 0.344584
O O3 0.956463 0.641767 0.607301
O O4 0.874355 0.855461 0.560111
O O5 0.647141 0.230794 0.521696
O O6 0.649312 0.132073 0.258232
O O7 0.776600 0.045596 0.462197
O O8 0.836729 0.254935 0.338957
O O9 0.658384 0.463620 0.497223
O O10 0.540091 0.647454 0.393757
O O11 0.702683 0.538215 0.226288
O O12 0.918170 0.056781 0.686321
#
# Coordination Sequence:
#
# PCOD8129270 Si02
#       6
#     4   4   4   4   4   4
#     4  12  27  44  70 106 145 184 232 291 353 421
#     4  12  24  46  75 102 139 187 235 293 358 421
#     4  11  27  48  69 104 142 187 241 295 346 421
#     4  11  25  47  74 101 142 187 240 291 353 421
#     4  12  26  47  69 108 140 185 238 282 360 419
#     4  12  24  44  71 104 141 184 229 289 350 427
#
# _framework density 21.456430000000001
#
# number of rings (size 3 to 8) (size 9 to 14) (size 15 to 20)
#    0.000    0.333    6.667    0.500    4.667    1.333 
#    3.000    0.000    0.000    0.000    0.000    0.000 
#    0.000    0.000    0.000    0.000    0.000    0.000 
#
# Total GULP energy -297752.413748 kJ/mol
# GULP energy per Si atom -12406.350573 kJ/mol
# Density = 2.140759 g / cm^3
# Si number density = 21.456430 Si / 1000 Ang^3
#
#
#
# Elastic Constant Matrix: (Units=GPa)
#
#
# Indices 1 2 3 4 5 6 
#
# 1 114.8582 26.4545 42.8277 0.0000 5.4290 0.0000
# 2 26.4545 41.7813 9.3238 0.0000 9.9724 0.0000
# 3 42.8277 9.3238 122.3694 0.0000 16.1552 0.0000
# 4 0.0000 0.0000 0.0000 32.1159 0.0000 6.7478
# 5 5.4290 9.9724 16.1552 0.0000 36.7309 0.0000
# 6 0.0000 0.0000 0.0000 6.7478 0.0000 27.8718
#
#
#
# Elastic Compliance Matrix: (Units=1/GPa)
#
#
# Indices 1 2 3 4 5 6 
#
# 1 0.011633 -0.006959 -0.003783 0.000000 0.001834 0.000000
# 2 -0.006959 0.029895 0.001161 0.000000 -0.007598 0.000000
# 3 -0.003783 0.001161 0.009953 0.000000 -0.004134 0.000000
# 4 0.000000 0.000000 0.000000 0.032806 0.000000 -0.007942
# 5 0.001834 -0.007598 -0.004134 0.000000 0.030835 0.000000
# 6 0.000000 0.000000 0.000000 -0.007942 0.000000 0.037801
#
#
# Mechanical properties :
#
#
# Convention : Reuss Voigt Hill
#
# Bulk Modulus (GPa) = 30.94211 48.46897 39.70554
# Shear Modulus (GPa) = 27.34328 32.70391 30.02360
#
# Velocity S-wave (km/s) = 3.57370 3.90834 3.74476
# Velocity P-wave (km/s) = 5.61076 6.55784 6.10270
#
# Compressibility (1/GPa) = 0.03231842
#
# Stress axis : x y z
#
# Youngs Moduli (GPa) = 85.96013 33.45039 100.46826
#
# Poissons Ratio (x) = 0.23279 0.38011
# Poissons Ratio (y) = 0.59822 -0.11664
# Poissons Ratio (z) = 0.32522 -0.03883
#
# Static dielectric constant tensor:
#      x y z
#    x 3.965430 0.000000 -0.054090 
#    y 0.000000 3.808590 0.000000 
#    z -0.054090 0.000000 4.288120 
# 
# 
# High freq. dielectric constant tensor:
#      x y z
#    x 1.851550 0.000000 -0.003400 
#    y 0.000000 1.838100 0.000000 
#    z -0.003400 0.000000 1.865910 
# 
# From -- ./inp_files/12433.got.cif
#   From: 2010.03.12/outbox.cif.g09.slc.cpg/sg14_7_cif.got.tgz:12433.got - 2010.03.31 13:35:05.
