data_PCOD8129474
_publ_section_title
;
Structure prediction by ZEFSAII (Michael W. Deem and Ramdas Pophale) SiO2 
 PCOD8129474
Probable space group: P 21/C
;
_chemical_formula_sum "Si O2"
_cell_formula_units_Z 20
_cell_length_a 9.445974
_cell_length_b 8.524249
_cell_length_c 10.439169
_cell_angle_alpha 90.000000
_cell_angle_beta 98.683716
_cell_angle_gamma 90.000000
_cell_volume 830.924681
_symmetry_space_group_name_H-M "P 21/C"
_symmetry_group_IT_number 14
_symmetry_cell_setting 'monoclinic'
loop_
_space_group_symop_operation_xyz
x,y,z
-x,1/2+y,1/2-z
-x,-y,-z
x,1/2-y,1/2+z
loop_
_atom_site_type_symbol
_atom_site_label
_atom_site_fract_x
_atom_site_fract_y
_atom_site_fract_z
Si Si1 0.249835 0.125121 0.500158
Si Si2 0.789893 0.428477 0.249254
Si Si3 0.290008 0.928958 0.749715
Si Si4 0.578972 0.588387 0.398673
Si Si5 0.078710 0.411105 0.398801
O O1 0.221355 0.014023 0.617708
O O2 0.387688 0.233584 0.552088
O O3 0.111606 0.233226 0.448649
O O4 0.278539 0.014979 0.382137
O O5 0.728588 0.513743 0.369465
O O6 0.963090 0.425285 0.267824
O O7 0.749848 0.249747 0.248796
O O8 0.228722 0.015315 0.869475
O O9 0.463183 0.925956 0.767789
O O10 0.500000 0.500000 0.500000
O O11 0.000000 0.500000 0.500000
#
# Coordination Sequence:
#
# PCOD8129474 Si02
#       5
#     4   4   4   4   4
#     4  12  28  50  80 108 160 198 250 316 376 448
#     4  12  29  48  77 113 151 201 254 307 381 450
#     4  12  29  48  77 113 151 201 254 307 381 450
#     4  12  26  50  77 109 151 197 252 312 375 447
#     4  12  26  50  77 109 151 197 252 312 375 447
#
# _framework density 24.069569999999999
#
# number of rings (size 3 to 8) (size 9 to 14) (size 15 to 20)
#    0.000    0.000    4.000    3.600   11.200    3.200 
#    0.000    0.000    0.000    0.000    0.000    0.000 
#    0.000    0.000    0.000    0.000    0.000    0.000 
#
# Total GULP energy -247939.996265 kJ/mol
# GULP energy per Si atom -12396.999813 kJ/mol
# Density = 2.401479 g / cm^3
# Si number density = 24.069570 Si / 1000 Ang^3
#
#
#
# Elastic Constant Matrix: (Units=GPa)
#
#
# Indices 1 2 3 4 5 6 
#
# 1 151.2151 45.6645 38.4047 0.0000 13.1660 0.0000
# 2 45.6645 194.8066 78.4627 0.0000 -2.9967 0.0000
# 3 38.4047 78.4627 135.1148 0.0000 -9.3532 0.0000
# 4 0.0000 0.0000 0.0000 55.9686 0.0000 14.5208
# 5 13.1660 -2.9967 -9.3532 0.0000 38.2501 0.0000
# 6 0.0000 0.0000 0.0000 14.5208 0.0000 40.6542
#
#
#
# Elastic Compliance Matrix: (Units=1/GPa)
#
#
# Indices 1 2 3 4 5 6 
#
# 1 0.007675 -0.001150 -0.001732 0.000000 -0.003155 0.000000
# 2 -0.001150 0.006880 -0.003666 0.000000 0.000038 0.000000
# 3 -0.001732 -0.003666 0.010217 0.000000 0.002807 0.000000
# 4 0.000000 0.000000 0.000000 0.019692 0.000000 -0.007034
# 5 -0.003155 0.000038 0.002807 0.000000 0.027919 0.000000
# 6 0.000000 0.000000 0.000000 -0.007034 0.000000 0.027110
#
#
# Mechanical properties :
#
#
# Convention : Reuss Voigt Hill
#
# Bulk Modulus (GPa) = 85.64757 89.57779 87.61268
# Shear Modulus (GPa) = 42.92572 48.21490 45.57031
#
# Velocity S-wave (km/s) = 4.22762 4.48051 4.35590
# Velocity P-wave (km/s) = 7.71303 8.00397 7.85985
#
# Compressibility (1/GPa) = 0.01167575
#
# Stress axis : x y z
#
# Youngs Moduli (GPa) = 130.29262 145.35102 97.88081
#
# Poissons Ratio (x) = 0.16715 0.16955
# Poissons Ratio (y) = 0.14983 0.35880
# Poissons Ratio (z) = 0.22569 0.53281
#
# Static dielectric constant tensor:
#      x y z
#    x 5.513350 0.000000 1.122250 
#    y 0.000000 4.477570 0.000000 
#    z 1.122250 0.000000 4.793940 
# 
# 
# High freq. dielectric constant tensor:
#      x y z
#    x 1.969370 0.000000 0.018010 
#    y 0.000000 1.960690 0.000000 
#    z 0.018010 0.000000 1.963890 
# 
# From -- ./inp_files/23088.got.cif
#   From: 2010.03.12/outbox.cif.g09.slc.cpg/sg14_12_cif.got.tgz:23088.got - 2010.03.31 13:35:05.
