data_PCOD8129911
_publ_section_title
;
Structure prediction by ZEFSAII (Michael W. Deem and Ramdas Pophale) SiO2 
 PCOD8129911
Probable space group: C 2/C
;
_chemical_formula_sum "Si O2"
_cell_formula_units_Z 52
_cell_length_a 14.767188
_cell_length_b 18.715682
_cell_length_c 11.301522
_cell_angle_alpha 90.000000
_cell_angle_beta 62.575107
_cell_angle_gamma 90.000000
_cell_volume 2772.459467
_symmetry_space_group_name_H-M "C 2/C"
_symmetry_group_IT_number 15
_symmetry_cell_setting 'monoclinic'
loop_
_space_group_symop_operation_xyz
x,y,z
-x,y,1/2-z
-x,-y,-z
x,-y,1/2+z
1/2+x,1/2+y,z
1/2-x,1/2+y,1/2-z
1/2-x,1/2-y,-z
1/2+x,1/2-y,1/2+z
loop_
_atom_site_type_symbol
_atom_site_label
_atom_site_fract_x
_atom_site_fract_y
_atom_site_fract_z
Si Si1 0.586850 0.130083 0.542588
Si Si2 0.706847 0.310322 0.183513
Si Si3 0.178750 0.432715 0.757062
Si Si4 0.000000 0.650093 0.250000
Si Si5 0.974294 0.241860 0.562012
Si Si6 0.322572 0.330760 0.562443
Si Si7 0.638230 0.095335 0.768072
O O1 0.653712 0.088258 0.406427
O O2 0.574334 0.213726 0.517079
O O3 0.644704 0.127405 0.632384
O O4 0.477500 0.091191 0.616257
O O5 0.609627 0.309391 0.328620
O O6 0.737703 0.228430 0.144225
O O7 0.799153 0.353923 0.183425
O O8 0.674190 0.346340 0.079759
O O9 0.096126 0.400941 0.714991
O O10 0.289236 0.401697 0.653297
O O11 0.186317 0.517144 0.740413
O O12 0.023086 0.700785 0.124247
O O13 0.065774 0.192540 0.459297
#
# Coordination Sequence:
#
# PCOD8129911 Si02
#       7
#     8   8   8   4   8   8   8
#     4  10  22  38  56  87 124 154 189 243 297 355
#     4  11  21  36  61  87 117 155 197 248 285 347
#     4  11  23  35  59  88 120 156 191 244 292 356
#     4  10  16  32  56  86 116 138 190 250 286 332
#     4  11  19  37  60  89 115 149 204 247 289 333
#     4  11  20  36  61  88 115 152 201 247 287 339
#     4  11  24  38  56  88 124 160 186 234 310 355
#
# _framework density 18.75591
#
# number of rings (size 3 to 8) (size 9 to 14) (size 15 to 20)
#    0.000    1.231    6.154    2.308    4.308    0.615 
#    0.000    0.769    0.000    0.000    0.000    0.000 
#    0.000    0.000    0.000    0.000    0.000    0.000 
#
# Total GULP energy -322535.895555 kJ/mol
# GULP energy per Si atom -12405.226752 kJ/mol
# Density = 1.871322 g / cm^3
# Si number density = 18.755910 Si / 1000 Ang^3
#
#
#
# Elastic Constant Matrix: (Units=GPa)
#
#
# Indices 1 2 3 4 5 6 
#
# 1 54.0030 27.8445 28.5493 0.0000 7.7595 0.0000
# 2 27.8445 84.8715 41.8692 0.0000 8.1355 0.0000
# 3 28.5493 41.8692 110.3625 0.0000 -1.8984 0.0000
# 4 0.0000 0.0000 0.0000 18.8970 0.0000 -1.2436
# 5 7.7595 8.1355 -1.8984 0.0000 28.6008 0.0000
# 6 0.0000 0.0000 0.0000 -1.2436 0.0000 10.6155
#
#
#
# Elastic Compliance Matrix: (Units=1/GPa)
#
#
# Indices 1 2 3 4 5 6 
#
# 1 0.024343 -0.005312 -0.004374 0.000000 -0.005384 0.000000
# 2 -0.005312 0.016255 -0.004853 0.000000 -0.003505 0.000000
# 3 -0.004374 -0.004853 0.012092 0.000000 0.003370 0.000000
# 4 0.000000 0.000000 0.000000 0.053330 0.000000 0.006247
# 5 -0.005384 -0.003505 0.003370 0.000000 0.037645 0.000000
# 6 0.000000 0.000000 0.000000 0.006247 0.000000 0.094933
#
#
# Mechanical properties :
#
#
# Convention : Reuss Voigt Hill
#
# Bulk Modulus (GPa) = 42.35409 49.52924 45.94166
# Shear Modulus (GPa) = 18.14568 21.68760 19.91664
#
# Velocity S-wave (km/s) = 3.11378 3.40414 3.26219
# Velocity P-wave (km/s) = 5.96308 6.47422 6.22390
#
# Compressibility (1/GPa) = 0.02361047
#
# Stress axis : x y z
#
# Youngs Moduli (GPa) = 41.08017 61.51788 82.70096
#
# Poissons Ratio (x) = 0.32680 0.36176
# Poissons Ratio (y) = 0.21823 0.40135
# Poissons Ratio (z) = 0.17970 0.29855
#
# Static dielectric constant tensor:
#      x y z
#    x 3.284480 0.000000 0.081490 
#    y 0.000000 3.255800 0.000000 
#    z 0.081490 0.000000 3.562150 
# 
# 
# High freq. dielectric constant tensor:
#      x y z
#    x 1.707860 0.000000 0.000100 
#    y 0.000000 1.704650 0.000000 
#    z 0.000100 0.000000 1.737510 
# 
# From -- ./inp_files/98179.got.cif
#   From: 2010.06.25/outbox.cif.g09.slc.cpg/sg15_50_cif.got.tgz:98179.got - 2010.06.28 07:06:18.
