data_PCOD8129035
_publ_section_title
;
Structure prediction by ZEFSAII (Michael W. Deem and Ramdas Pophale) SiO2 
 PCOD8129035
Probable space group: P 21/C
;
_chemical_formula_sum "Si O2"
_cell_formula_units_Z 20
_cell_length_a 29.959405
_cell_length_b 4.812004
_cell_length_c 18.693212
_cell_angle_alpha 90.000000
_cell_angle_beta 161.841622
_cell_angle_gamma 90.000000
_cell_volume 839.852255
_symmetry_space_group_name_H-M "P 21/C"
_symmetry_group_IT_number 14
_symmetry_cell_setting 'monoclinic'
loop_
_space_group_symop_operation_xyz
x,y,z
-x,1/2+y,1/2-z
-x,-y,-z
x,1/2-y,1/2+z
loop_
_atom_site_type_symbol
_atom_site_label
_atom_site_fract_x
_atom_site_fract_y
_atom_site_fract_z
Si Si1 0.517522 0.962158 0.229626
Si Si2 0.890640 0.773682 0.390630
Si Si3 0.247325 0.759407 0.247331
Si Si4 0.906687 0.462093 0.118791
Si Si5 0.175102 0.999971 0.350205
O O1 0.562013 0.723767 0.354721
O O2 0.659664 0.090033 0.409654
O O3 0.413402 0.814585 0.013632
O O4 0.793016 0.573584 0.293007
O O5 0.858738 0.743804 0.257564
O O6 0.061069 0.743823 0.662227
O O7 0.854396 0.088500 0.354386
O O8 0.212948 0.685429 0.112727
O O9 0.840307 0.589949 0.090291
O O10 0.023397 0.223699 0.316099
#
# Coordination Sequence:
#
# PCOD8129035 Si02
#       5
#     4   4   4   4   4
#     4  12  25  43  66  99 135 170 217 276 328 383
#     4  11  24  40  72  97 122 177 232 264 318 389
#     4  12  22  46  66  96 134 174 214 274 328 390
#     4  12  25  43  66  99 135 170 217 276 328 383
#     4  11  24  43  68 102 128 175 222 273 324 390
#
# _framework density 23.813711999999999
#
# number of rings (size 3 to 8) (size 9 to 14) (size 15 to 20)
#    0.000    0.400    8.000    0.000    0.000    8.800 
#    0.000    0.000    0.000    7.200    0.000    0.000 
#    0.000    0.000    0.000    0.000    0.000    0.000 
#
# Total GULP energy -247931.615333 kJ/mol
# GULP energy per Si atom -12396.580767 kJ/mol
# Density = 2.375951 g / cm^3
# Si number density = 23.813712 Si / 1000 Ang^3
#
#
#
# Elastic Constant Matrix: (Units=GPa)
#
#
# Indices 1 2 3 4 5 6 
#
# 1 148.0853 6.1160 38.6732 0.0000 -15.2387 0.0000
# 2 6.1160 56.5627 -0.4587 0.0000 5.7409 0.0000
# 3 38.6732 -0.4587 157.8586 0.0000 6.7096 0.0000
# 4 0.0000 0.0000 0.0000 23.4660 0.0000 3.4591
# 5 -15.2387 5.7409 6.7096 0.0000 44.3228 0.0000
# 6 0.0000 0.0000 0.0000 3.4591 0.0000 27.4194
#
#
#
# Elastic Compliance Matrix: (Units=1/GPa)
#
#
# Indices 1 2 3 4 5 6 
#
# 1 0.007642 -0.001155 -0.002006 0.000000 0.003081 0.000000
# 2 -0.001155 0.018093 0.000455 0.000000 -0.002810 0.000000
# 3 -0.002006 0.000455 0.006904 0.000000 -0.001794 0.000000
# 4 0.000000 0.000000 0.000000 0.043422 0.000000 -0.005478
# 5 0.003081 -0.002810 -0.001794 0.000000 0.024256 0.000000
# 6 0.000000 0.000000 0.000000 -0.005478 0.000000 0.037162
#
#
# Mechanical properties :
#
#
# Convention : Reuss Voigt Hill
#
# Bulk Modulus (GPa) = 36.73019 50.12974 43.42996
# Shear Modulus (GPa) = 32.90180 40.25336 36.57758
#
# Velocity S-wave (km/s) = 3.72106 4.11584 3.92342
# Velocity P-wave (km/s) = 5.82402 6.60934 6.22907
#
# Compressibility (1/GPa) = 0.02722556
#
# Stress axis : x y z
#
# Youngs Moduli (GPa) = 130.86326 55.26915 144.84592
#
# Poissons Ratio (x) = 0.06385 0.29062
# Poissons Ratio (y) = 0.15118 -0.06591
# Poissons Ratio (z) = 0.26256 -0.02515
#
# Static dielectric constant tensor:
#      x y z
#    x 4.154910 0.000000 -0.158570 
#    y 0.000000 4.021730 0.000000 
#    z -0.158570 0.000000 4.336930 
# 
# 
# High freq. dielectric constant tensor:
#      x y z
#    x 1.932370 0.000000 -0.013260 
#    y 0.000000 1.939910 0.000000 
#    z -0.013260 0.000000 1.947580 
# 
# From -- ./inp_files/37111.got.cif
#   From: 2010.03.12/outbox.cif.g09.slc.cpg/sg14_19_cif.got.tgz:37111.got - 2010.03.31 13:35:05.
