data_PCOD8129275
_publ_section_title
;
Structure prediction by ZEFSAII (Michael W. Deem and Ramdas Pophale) SiO2 
 PCOD8129275
Probable space group: P 21/C
;
_chemical_formula_sum "Si O2"
_cell_formula_units_Z 24
_cell_length_a 13.606233
_cell_length_b 9.597707
_cell_length_c 8.478790
_cell_angle_alpha 90.000000
_cell_angle_beta 76.905909
_cell_angle_gamma 90.000000
_cell_volume 1078.444827
_symmetry_space_group_name_H-M "P 21/C"
_symmetry_group_IT_number 14
_symmetry_cell_setting 'monoclinic'
loop_
_space_group_symop_operation_xyz
x,y,z
-x,1/2+y,1/2-z
-x,-y,-z
x,1/2-y,1/2+z
loop_
_atom_site_type_symbol
_atom_site_label
_atom_site_fract_x
_atom_site_fract_y
_atom_site_fract_z
Si Si1 0.303053 0.940529 0.160459
Si Si2 0.912018 0.935912 0.739459
Si Si3 0.363958 0.815597 0.809843
Si Si4 0.087199 0.354580 0.120798
Si Si5 0.694462 0.915345 0.338917
Si Si6 0.401618 0.179687 0.305667
O O1 0.190704 0.992722 0.165802
O O2 0.303446 0.828497 0.303085
O O3 0.374349 0.069734 0.178926
O O4 0.347304 0.865528 0.992281
O O5 0.999266 0.049557 0.722474
O O6 0.897032 0.879488 0.569024
O O7 0.940288 0.807210 0.842562
O O8 0.481161 0.785730 0.739205
O O9 0.323824 0.925106 0.696842
O O10 0.188032 0.392649 0.176365
O O11 0.660073 0.821467 0.203286
O O12 0.627644 0.877945 0.513791
#
# Coordination Sequence:
#
# PCOD8129275 Si02
#       6
#     4   4   4   4   4   4
#     4  12  25  45  65 101 137 179 227 284 338 401
#     4  11  27  46  75  98 141 169 230 277 345 403
#     4  12  27  41  68 100 139 183 230 278 333 402
#     4  11  25  48  70 106 129 180 221 283 337 407
#     4  12  23  43  72  98 140 179 224 284 335 405
#     4  12  23  45  68  99 137 183 230 276 340 400
#
# _framework density 22.254269000000001
#
# number of rings (size 3 to 8) (size 9 to 14) (size 15 to 20)
#    0.000    0.333    3.333    5.000    4.667    2.000 
#    0.000    0.000    0.000    0.000    0.000    0.000 
#    0.000    0.000    0.000    0.000    0.000    0.000 
#
# Total GULP energy -297835.639482 kJ/mol
# GULP energy per Si atom -12409.818312 kJ/mol
# Density = 2.220362 g / cm^3
# Si number density = 22.254269 Si / 1000 Ang^3
#
#
#
# Elastic Constant Matrix: (Units=GPa)
#
#
# Indices 1 2 3 4 5 6 
#
# 1 83.2197 52.3487 5.3987 0.0000 -10.6858 0.0000
# 2 52.3487 117.7406 -9.3192 0.0000 -1.0345 0.0000
# 3 5.3987 -9.3192 33.7718 0.0000 -0.5290 0.0000
# 4 0.0000 0.0000 0.0000 39.2733 0.0000 7.8964
# 5 -10.6858 -1.0345 -0.5290 0.0000 20.4924 0.0000
# 6 0.0000 0.0000 0.0000 7.8964 0.0000 46.1209
#
#
#
# Elastic Compliance Matrix: (Units=1/GPa)
#
#
# Indices 1 2 3 4 5 6 
#
# 1 0.019137 -0.008850 -0.005354 0.000000 0.009394 0.000000
# 2 -0.008850 0.012780 0.004881 0.000000 -0.003843 0.000000
# 3 -0.005354 0.004881 0.031786 0.000000 -0.001725 0.000000
# 4 0.000000 0.000000 0.000000 0.026370 0.000000 -0.004515
# 5 0.009394 -0.003843 -0.001725 0.000000 0.053458 0.000000
# 6 0.000000 0.000000 0.000000 -0.004515 0.000000 0.022455
#
#
# Mechanical properties :
#
#
# Convention : Reuss Voigt Hill
#
# Bulk Modulus (GPa) = 22.19335 36.84317 29.51826
# Shear Modulus (GPa) = 25.04362 33.59760 29.32061
#
# Velocity S-wave (km/s) = 3.35825 3.88972 3.63371
# Velocity P-wave (km/s) = 5.00314 6.06339 5.55860
#
# Compressibility (1/GPa) = 0.04505853
#
# Stress axis : x y z
#
# Youngs Moduli (GPa) = 52.25558 78.24455 31.46013
#
# Poissons Ratio (x) = 0.69243 0.16844
# Poissons Ratio (y) = 0.46244 -0.15356
# Poissons Ratio (z) = 0.27978 -0.38192
#
# Static dielectric constant tensor:
#      x y z
#    x 4.032700 0.000000 0.063110 
#    y 0.000000 4.367210 0.000000 
#    z 0.063110 0.000000 3.995810 
# 
# 
# High freq. dielectric constant tensor:
#      x y z
#    x 1.882520 0.000000 0.003310 
#    y 0.000000 1.895580 0.000000 
#    z 0.003310 0.000000 1.882050 
# 
# From -- ./inp_files/15010.got.cif
#   From: 2010.03.12/outbox.cif.g09.slc.cpg/sg14_8_cif.got.tgz:15010.got - 2010.03.31 13:35:05.
