data_PCOD8130674
_publ_section_title
;
Structure prediction by ZEFSAII (Michael W. Deem and Ramdas Pophale) SiO2 
 PCOD8130674
Probable space group: C 2/C
;
_chemical_formula_sum "Si O2"
_cell_formula_units_Z 52
_cell_length_a 10.828384
_cell_length_b 13.361886
_cell_length_c 16.301627
_cell_angle_alpha 90.000000
_cell_angle_beta 67.514342
_cell_angle_gamma 90.000000
_cell_volume 2179.328617
_symmetry_space_group_name_H-M "C 2/C"
_symmetry_group_IT_number 15
_symmetry_cell_setting 'monoclinic'
loop_
_space_group_symop_operation_xyz
x,y,z
-x,y,1/2-z
-x,-y,-z
x,-y,1/2+z
1/2+x,1/2+y,z
1/2-x,1/2+y,1/2-z
1/2-x,1/2-y,-z
1/2+x,1/2-y,1/2+z
loop_
_atom_site_type_symbol
_atom_site_label
_atom_site_fract_x
_atom_site_fract_y
_atom_site_fract_z
Si Si1 0.990483 0.784047 0.949815
Si Si2 0.654543 0.423522 0.711781
Si Si3 0.363784 0.501225 0.449613
Si Si4 0.000000 0.709870 0.250000
Si Si5 0.627259 0.196413 0.672136
Si Si6 0.911588 0.161732 0.629910
Si Si7 0.254740 0.603946 0.136157
O O1 0.916705 0.703960 0.911616
O O2 0.147389 0.798370 0.890064
O O3 0.924123 0.893142 0.958609
O O4 0.961872 0.754173 0.051025
O O5 0.500000 0.454430 0.750000
O O6 0.717578 0.483577 0.616653
O O7 0.666140 0.304386 0.698878
O O8 0.719771 0.454677 0.782889
O O9 0.492172 0.432603 0.399931
O O10 0.274106 0.460100 0.547478
O O11 0.913141 0.782843 0.215646
O O12 0.897697 0.641243 0.327172
O O13 0.500000 0.147826 0.750000
O O14 0.758132 0.127313 0.648779
#
# Coordination Sequence:
#
# PCOD8130674 Si02
#       7
#     8   8   8   4   8   8   8
#     4  10  20  37  65  86 111 160 212 256 290 368
#     4  10  18  35  67  87 112 161 216 249 297 372
#     4  10  23  36  65  93 112 157 216 259 292 366
#     4  12  26  36  56  88 130 168 186 254 340 362
#     4  10  17  36  60  89 116 160 200 248 307 365
#     4  11  22  34  56  91 123 152 204 255 307 362
#     4  11  20  40  58  86 124 158 205 258 312 368
#
# _framework density 23.86056
#
# number of rings (size 3 to 8) (size 9 to 14) (size 15 to 20)
#    0.000    1.538    6.154    2.308    1.077    2.462 
#    0.000    0.769    6.769    0.000    0.000    0.000 
#    0.000    0.154    0.000    0.000    0.000    0.000 
#
# Total GULP energy -322118.490382 kJ/mol
# GULP energy per Si atom -12389.172707 kJ/mol
# Density = 2.380625 g / cm^3
# Si number density = 23.860560 Si / 1000 Ang^3
#
#
#
# Elastic Constant Matrix: (Units=GPa)
#
#
# Indices 1 2 3 4 5 6 
#
# 1 96.5297 12.5464 45.6980 0.0000 -13.8989 0.0000
# 2 12.5464 22.1145 18.7334 0.0000 0.3075 0.0000
# 3 45.6980 18.7334 140.4611 0.0000 7.4325 0.0000
# 4 0.0000 0.0000 0.0000 17.7552 0.0000 -1.7138
# 5 -13.8989 0.3075 7.4325 0.0000 48.3996 0.0000
# 6 0.0000 0.0000 0.0000 -1.7138 0.0000 11.7542
#
#
#
# Elastic Compliance Matrix: (Units=1/GPa)
#
#
# Indices 1 2 3 4 5 6 
#
# 1 0.013487 -0.004278 -0.004057 0.000000 0.004523 0.000000
# 2 -0.004278 0.052361 -0.005554 0.000000 -0.000708 0.000000
# 3 -0.004057 -0.005554 0.009315 0.000000 -0.002560 0.000000
# 4 0.000000 0.000000 0.000000 0.057125 0.000000 0.008329
# 5 0.004523 -0.000708 -0.002560 0.000000 0.022358 0.000000
# 6 0.000000 0.000000 0.000000 0.008329 0.000000 0.086291
#
#
# Mechanical properties :
#
#
# Convention : Reuss Voigt Hill
#
# Bulk Modulus (GPa) = 21.10338 45.89565 33.49952
# Shear Modulus (GPa) = 17.57399 27.72364 22.64881
#
# Velocity S-wave (km/s) = 2.71685 3.41237 3.08428
# Velocity P-wave (km/s) = 4.32497 5.89935 5.17241
#
# Compressibility (1/GPa) = 0.04738577
#
# Stress axis : x y z
#
# Youngs Moduli (GPa) = 74.14344 19.09816 107.34827
#
# Poissons Ratio (x) = 0.08171 0.43549
# Poissons Ratio (y) = 0.31720 0.59622
# Poissons Ratio (z) = 0.30078 0.10607
#
# Static dielectric constant tensor:
#      x y z
#    x 4.253630 0.000000 0.426080 
#    y 0.000000 3.841150 0.000000 
#    z 0.426080 0.000000 5.404120 
# 
# 
# High freq. dielectric constant tensor:
#      x y z
#    x 1.921610 0.000000 0.016930 
#    y 0.000000 1.897180 0.000000 
#    z 0.016930 0.000000 1.977520 
# 
# From -- ./inp_files/197674.got.cif
#   From: 2010.06.25/outbox.cif.g09.slc.cpg/sg15_99_cif.got.tgz:197674.got - 2010.06.28 07:06:18.
