data_PCOD8130512
_publ_section_title
;
Structure prediction by ZEFSAII (Michael W. Deem and Ramdas Pophale) SiO2 
 PCOD8130512
Probable space group: C 2/C
;
_chemical_formula_sum "Si O2"
_cell_formula_units_Z 40
_cell_length_a 26.351343
_cell_length_b 9.679910
_cell_length_c 13.472355
_cell_angle_alpha 90.000000
_cell_angle_beta 36.534072
_cell_angle_gamma 90.000000
_cell_volume 2045.756746
_symmetry_space_group_name_H-M "C 2/C"
_symmetry_group_IT_number 15
_symmetry_cell_setting 'monoclinic'
loop_
_space_group_symop_operation_xyz
x,y,z
-x,y,1/2-z
-x,-y,-z
x,-y,1/2+z
1/2+x,1/2+y,z
1/2-x,1/2+y,1/2-z
1/2-x,1/2-y,-z
1/2+x,1/2-y,1/2+z
loop_
_atom_site_type_symbol
_atom_site_label
_atom_site_fract_x
_atom_site_fract_y
_atom_site_fract_z
Si Si1 0.794328 0.577528 0.509365
Si Si2 0.161458 0.078877 0.893131
Si Si3 0.978417 0.913458 0.670494
Si Si4 0.334750 0.224505 0.928440
Si Si5 0.349138 0.372609 0.419900
O O1 0.737421 0.581019 0.696977
O O2 0.850395 0.438618 0.418409
O O3 0.736691 0.585150 0.502239
O O4 0.859032 0.707261 0.409843
O O5 0.173361 0.204951 0.951023
O O6 0.071246 0.088820 0.971602
O O7 0.159917 0.934440 0.955235
O O8 0.913080 0.791049 0.741689
O O9 0.000000 0.882641 0.750000
O O10 0.931582 0.062311 0.734870
O O11 0.250000 0.250000 0.000000
#
# Coordination Sequence:
#
# PCOD8130512 Si02
#       5
#     8   8   8   8   8
#     4  11  19  31  58  77 102 134 176 220 249 299
#     4  10  20  35  54  80 102 138 178 207 255 315
#     4   8  17  35  53  73 108 137 172 205 258 316
#     4  10  17  34  54  76 103 142 169 212 256 306
#     4   9  19  34  49  79 106 133 169 216 260 298
#
# _framework density 19.552668000000001
#
# number of rings (size 3 to 8) (size 9 to 14) (size 15 to 20)
#    0.000    2.800    4.000    1.200    0.000    0.800 
#    0.000    9.000    0.000    4.800    0.000    0.000 
#    0.000    0.000    0.000    0.000    0.000    0.000 
#
# Total GULP energy -247799.700386 kJ/mol
# GULP energy per Si atom -12389.985019 kJ/mol
# Density = 1.950817 g / cm^3
# Si number density = 19.552668 Si / 1000 Ang^3
#
#
#
# Elastic Constant Matrix: (Units=GPa)
#
#
# Indices 1 2 3 4 5 6 
#
# 1 62.6238 44.6484 35.9014 0.0000 -21.0705 0.0000
# 2 44.6484 191.4976 43.7871 0.0000 -19.1330 0.0000
# 3 35.9014 43.7871 47.3790 0.0000 -6.4148 0.0000
# 4 0.0000 0.0000 0.0000 18.3404 0.0000 -10.9693
# 5 -21.0705 -19.1330 -6.4148 0.0000 26.1098 0.0000
# 6 0.0000 0.0000 0.0000 -10.9693 0.0000 22.0345
#
#
#
# Elastic Compliance Matrix: (Units=1/GPa)
#
#
# Indices 1 2 3 4 5 6 
#
# 1 0.040084 -0.000831 -0.026179 0.000000 0.025306 0.000000
# 2 -0.000831 0.006956 -0.005378 0.000000 0.003105 0.000000
# 3 -0.026179 -0.005378 0.043983 0.000000 -0.014261 0.000000
# 4 0.000000 0.000000 0.000000 0.077642 0.000000 0.038652
# 5 0.025306 0.003105 -0.014261 0.000000 0.057493 0.000000
# 6 0.000000 0.000000 0.000000 0.038652 0.000000 0.064625
#
#
# Mechanical properties :
#
#
# Convention : Reuss Voigt Hill
#
# Bulk Modulus (GPa) = 38.10118 61.13047 49.61583
# Shear Modulus (GPa) = 13.72466 25.10783 19.41625
#
# Velocity S-wave (km/s) = 2.65228 3.58734 3.15465
# Velocity P-wave (km/s) = 5.37663 6.96355 6.22090
#
# Compressibility (1/GPa) = 0.02624590
#
# Stress axis : x y z
#
# Youngs Moduli (GPa) = 24.94786 143.76517 22.73614
#
# Poissons Ratio (x) = 0.11951 0.59520
# Poissons Ratio (y) = 0.02074 0.12228
# Poissons Ratio (z) = 0.65310 0.77319
#
# Static dielectric constant tensor:
#      x y z
#    x 3.765530 0.000000 -0.463790 
#    y 0.000000 3.987070 0.000000 
#    z -0.463790 0.000000 3.829440 
# 
# 
# High freq. dielectric constant tensor:
#      x y z
#    x 1.763210 0.000000 -0.009000 
#    y 0.000000 1.761040 0.000000 
#    z -0.009000 0.000000 1.734340 
# 
# From -- ./inp_files/176037.got.cif
#   From: 2010.06.25/outbox.cif.g09.slc.cpg/sg15_89_cif.got.tgz:176037.got - 2010.06.28 07:06:18.
