data_PCOD8130313
_publ_section_title
;
Structure prediction by ZEFSAII (Michael W. Deem and Ramdas Pophale) SiO2 
 PCOD8130313
Probable space group: C 2/C
;
_chemical_formula_sum "Si O2"
_cell_formula_units_Z 56
_cell_length_a 21.009772
_cell_length_b 9.734077
_cell_length_c 29.386345
_cell_angle_alpha 90.000000
_cell_angle_beta 149.123221
_cell_angle_gamma 90.000000
_cell_volume 3084.201863
_symmetry_space_group_name_H-M "C 2/C"
_symmetry_group_IT_number 15
_symmetry_cell_setting 'monoclinic'
loop_
_space_group_symop_operation_xyz
x,y,z
-x,y,1/2-z
-x,-y,-z
x,-y,1/2+z
1/2+x,1/2+y,z
1/2-x,1/2+y,1/2-z
1/2-x,1/2-y,-z
1/2+x,1/2-y,1/2+z
loop_
_atom_site_type_symbol
_atom_site_label
_atom_site_fract_x
_atom_site_fract_y
_atom_site_fract_z
Si Si1 0.947754 0.965869 0.607953
Si Si2 0.250490 0.756783 0.580259
Si Si3 0.807594 0.717664 0.649282
Si Si4 0.951168 0.325081 0.148107
Si Si5 0.100296 0.000039 0.522517
Si Si6 0.116101 0.009684 0.790400
Si Si7 0.677750 0.080700 0.457797
O O1 0.946498 0.802341 0.611552
O O2 0.969562 0.996989 0.568595
O O3 0.819671 0.028608 0.548158
O O4 0.063199 0.029856 0.706977
O O5 0.182038 0.860508 0.572759
O O6 0.324925 0.651358 0.657397
O O7 0.342968 0.840091 0.603075
O O8 0.154470 0.678185 0.487318
O O9 0.842403 0.691164 0.618371
O O10 0.682297 0.635292 0.581828
O O11 0.914544 0.657717 0.747257
O O12 0.788347 0.881081 0.647380
O O13 0.921672 0.459304 0.100097
O O14 0.000000 0.000000 0.500000
O O15 0.000000 0.961421 0.750000
#
# Coordination Sequence:
#
# PCOD8130313 Si02
#       7
#     8   8   8   8   8   8   8
#     4  10  19  34  60  88 116 152 187 237 297 350
#     4  10  21  33  53  88 119 148 188 231 301 339
#     4  10  19  35  58  88 117 149 192 235 293 354
#     4  10  17  31  59  95 113 137 187 248 308 339
#     4  11  25  44  57  75 116 171 206 229 268 346
#     4  11  19  33  58  94 125 141 172 246 316 352
#     4  10  18  31  53  93 123 141 179 237 307 351
#
# _framework density 18.157048
#
# number of rings (size 3 to 8) (size 9 to 14) (size 15 to 20)
#    0.000    1.714    7.143    0.429    2.000    1.143 
#    0.000    3.571    0.000    0.000    0.000    0.000 
#    0.000    0.000    0.000    0.000    0.000    0.000 
#
# Total GULP energy -347151.302854 kJ/mol
# GULP energy per Si atom -12398.260816 kJ/mol
# Density = 1.811572 g / cm^3
# Si number density = 18.157048 Si / 1000 Ang^3
#
#
#
# Elastic Constant Matrix: (Units=GPa)
#
#
# Indices 1 2 3 4 5 6 
#
# 1 76.2997 32.3177 36.2899 0.0001 0.1386 0.0000
# 2 32.3177 135.6398 61.3442 0.0000 -7.7057 0.0001
# 3 36.2899 61.3442 77.0704 -0.0001 -11.1974 0.0000
# 4 0.0001 0.0000 -0.0001 42.0395 0.0000 -5.8313
# 5 0.1386 -7.7057 -11.1974 0.0000 16.9342 0.0000
# 6 0.0000 0.0001 0.0000 -5.8313 0.0000 16.0736
#
#
#
# Elastic Compliance Matrix: (Units=1/GPa)
#
#
# Indices 1 2 3 4 5 6 
#
# 1 0.017484 -0.000606 -0.008641 0.000000 -0.006133 0.000000
# 2 -0.000606 0.011553 -0.009011 0.000000 -0.000697 0.000000
# 3 -0.008641 -0.009011 0.026142 0.000000 0.013256 0.000000
# 4 0.000000 0.000000 0.000000 0.025048 0.000000 0.009087
# 5 -0.006133 -0.000697 0.013256 0.000000 0.067551 0.000000
# 6 0.000000 0.000000 0.000000 0.009087 0.000000 0.065510
#
#
# Mechanical properties :
#
#
# Convention : Reuss Voigt Hill
#
# Bulk Modulus (GPa) = 53.58436 60.99039 57.28737
# Shear Modulus (GPa) = 19.52926 25.61333 22.57129
#
# Velocity S-wave (km/s) = 3.28315 3.75994 3.52961
# Velocity P-wave (km/s) = 6.62931 7.24658 6.94481
#
# Compressibility (1/GPa) = 0.01866216
#
# Stress axis : x y z
#
# Youngs Moduli (GPa) = 57.19494 86.56010 38.25194
#
# Poissons Ratio (x) = 0.05246 0.33055
# Poissons Ratio (y) = 0.03467 0.34469
# Poissons Ratio (z) = 0.49424 0.78001
#
# Static dielectric constant tensor:
#      x y z
#    x 2.888840 0.000000 -0.337210 
#    y 0.000000 3.624180 0.000000 
#    z -0.337210 0.000000 3.397060 
# 
# 
# High freq. dielectric constant tensor:
#      x y z
#    x 1.641660 0.000000 -0.035980 
#    y 0.000000 1.726100 0.000000 
#    z -0.035980 0.000000 1.699850 
# 
# From -- ./inp_files/317573.got.cif
#   From: 2010.06.25/outbox.cif.g09.slc.cpg/sg15_159_cif.got.tgz:317573.got - 2010.06.28 07:06:18.
