data_PCOD8130405
_publ_section_title
;
Structure prediction by ZEFSAII (Michael W. Deem and Ramdas Pophale) SiO2 
 PCOD8130405
Probable space group: C 2/C
;
_chemical_formula_sum "Si O2"
_cell_formula_units_Z 60
_cell_length_a 14.009101
_cell_length_b 19.051548
_cell_length_c 24.235092
_cell_angle_alpha 90.000000
_cell_angle_beta 149.362015
_cell_angle_gamma 90.000000
_cell_volume 3296.285399
_symmetry_space_group_name_H-M "C 2/C"
_symmetry_group_IT_number 15
_symmetry_cell_setting 'monoclinic'
loop_
_space_group_symop_operation_xyz
x,y,z
-x,y,1/2-z
-x,-y,-z
x,-y,1/2+z
1/2+x,1/2+y,z
1/2-x,1/2+y,1/2-z
1/2-x,1/2-y,-z
1/2+x,1/2-y,1/2+z
loop_
_atom_site_type_symbol
_atom_site_label
_atom_site_fract_x
_atom_site_fract_y
_atom_site_fract_z
Si Si1 0.500000 0.387802 0.750000
Si Si2 0.690682 0.895207 0.998876
Si Si3 0.139756 0.536883 0.026872
Si Si4 0.466009 0.174877 0.898961
Si Si5 0.878061 0.684341 0.137044
Si Si6 0.492450 0.231048 0.027752
Si Si7 0.460274 0.322656 0.295130
Si Si8 0.909390 0.751928 0.760043
O O1 0.675618 0.438014 0.848912
O O2 0.454880 0.336136 0.779954
O O3 0.626789 0.882887 0.904455
O O4 0.573764 0.845530 0.982966
O O5 0.911317 0.880262 0.112920
O O6 0.678851 0.977145 0.002126
O O7 0.000000 0.500000 0.000000
O O8 0.064209 0.599765 0.951517
O O9 0.248998 0.157128 0.797016
O O10 0.504162 0.215952 0.860698
O O11 0.538706 0.222293 0.985753
O O12 0.000000 0.661810 0.250000
O O13 0.982478 0.745518 0.153318
O O14 0.668850 0.710634 0.047369
O O15 0.683889 0.258402 0.150987
O O16 0.500000 0.316977 0.250000
O O17 0.000000 0.716332 0.750000
#
# Coordination Sequence:
#
# PCOD8130405 Si02
#       8
#     4   8   8   8   8   8   8   8
#     4  10  24  42  58  84 118 156 202 242 294 334
#     4  11  21  34  55  85 127 154 185 239 295 362
#     4  12  24  38  58  88 124 157 196 235 297 362
#     4  12  20  37  64  89 117 157 197 242 301 341
#     4  10  19  33  57  90 118 153 188 241 301 348
#     4  11  19  36  59  90 117 147 203 245 294 340
#     4  10  17  32  57  92 117 148 191 248 298 344
#     4  10  23  40  60  85 116 155 206 254 283 334
#
# _framework density 18.202307999999999
#
# number of rings (size 3 to 8) (size 9 to 14) (size 15 to 20)
#    0.400    0.800    6.667    3.200    2.800    2.133 
#    0.000    0.667    0.000    0.000    0.000    4.667 
#    0.000    0.000    0.000    0.000    0.000    0.000 
#
# Total GULP energy -371829.888535 kJ/mol
# GULP energy per Si atom -12394.329618 kJ/mol
# Density = 1.816088 g / cm^3
# Si number density = 18.202308 Si / 1000 Ang^3
#
#
#
# Elastic Constant Matrix: (Units=GPa)
#
#
# Indices 1 2 3 4 5 6 
#
# 1 67.0312 49.9813 21.2080 -0.0005 -11.7697 0.0001
# 2 49.9813 117.3850 59.8899 -0.0002 -17.8691 -0.0001
# 3 21.2080 59.8899 88.2799 -0.0019 4.7202 0.0002
# 4 -0.0005 -0.0002 -0.0019 45.6664 -0.0007 5.7536
# 5 -11.7697 -17.8691 4.7202 -0.0007 26.5154 -0.0001
# 6 0.0001 -0.0001 0.0002 5.7536 -0.0001 34.9988
#
#
#
# Elastic Compliance Matrix: (Units=1/GPa)
#
#
# Indices 1 2 3 4 5 6 
#
# 1 0.022246 -0.009382 0.000839 0.000000 0.003403 0.000000
# 2 -0.009382 0.020665 -0.012406 0.000000 0.011971 0.000000
# 3 0.000839 -0.012406 0.020161 0.000001 -0.011577 0.000000
# 4 0.000000 0.000000 0.000001 0.022361 0.000000 -0.003676
# 5 0.003403 0.011971 -0.011577 0.000000 0.049353 0.000000
# 6 0.000000 0.000000 0.000000 -0.003676 0.000000 0.029177
#
#
# Mechanical properties :
#
#
# Convention : Reuss Voigt Hill
#
# Bulk Modulus (GPa) = 47.22651 59.42829 53.32740
# Shear Modulus (GPa) = 23.48297 30.87722 27.18009
#
# Velocity S-wave (km/s) = 3.59571 4.12313 3.86842
# Velocity P-wave (km/s) = 6.57575 7.44221 7.02236
#
# Compressibility (1/GPa) = 0.02117455
#
# Stress axis : x y z
#
# Youngs Moduli (GPa) = 44.95134 48.38986 49.59982
#
# Poissons Ratio (x) = 0.45400 -0.04160
# Poissons Ratio (y) = 0.42174 0.61532
# Poissons Ratio (z) = -0.03770 0.60031
#
# Static dielectric constant tensor:
#      x y z
#    x 3.258060 0.000000 -0.090050 
#    y 0.000000 3.183410 0.000000 
#    z -0.090050 0.000000 3.451360 
# 
# 
# High freq. dielectric constant tensor:
#      x y z
#    x 1.693150 0.000000 0.002830 
#    y 0.000000 1.673330 0.000000 
#    z 0.002830 0.000000 1.724560 
# 
# From -- ./inp_files/296831.got.cif
#   From: 2010.06.25/outbox.cif.g09.slc.cpg/sg15_149_cif.got.tgz:296831.got - 2010.06.28 07:06:18.
