data_PCOD8130272
_publ_section_title
;
Structure prediction by ZEFSAII (Michael W. Deem and Ramdas Pophale) SiO2 
 PCOD8130272
Probable space group: C 2/C
;
_chemical_formula_sum "Si O2"
_cell_formula_units_Z 36
_cell_length_a 14.104239
_cell_length_b 18.808495
_cell_length_c 19.347756
_cell_angle_alpha 90.000000
_cell_angle_beta 158.341922
_cell_angle_gamma 90.000000
_cell_volume 1894.258850
_symmetry_space_group_name_H-M "C 2/C"
_symmetry_group_IT_number 15
_symmetry_cell_setting 'monoclinic'
loop_
_space_group_symop_operation_xyz
x,y,z
-x,y,1/2-z
-x,-y,-z
x,-y,1/2+z
1/2+x,1/2+y,z
1/2-x,1/2+y,1/2-z
1/2-x,1/2-y,-z
1/2+x,1/2-y,1/2+z
loop_
_atom_site_type_symbol
_atom_site_label
_atom_site_fract_x
_atom_site_fract_y
_atom_site_fract_z
Si Si1 0.444074 0.417739 0.787505
Si Si2 0.756241 0.220402 0.762780
Si Si3 0.500000 0.553461 0.750000
Si Si4 0.570881 0.146763 0.507956
Si Si5 0.209830 0.816162 0.065417
O O1 0.500000 0.382007 0.750000
O O2 0.486885 0.503015 0.809572
O O3 0.153233 0.401847 0.612360
O O4 0.641968 0.388406 0.978834
O O5 0.761208 0.171983 0.698321
O O6 0.834544 0.173134 0.882250
O O7 0.470243 0.251658 0.582124
O O8 0.953944 0.286113 0.887828
O O9 0.243668 0.601343 0.572315
O O10 0.500000 0.792718 0.250000
#
# Coordination Sequence:
#
# PCOD8130272 Si02
#       5
#     8   8   4   8   8
#     4   9  20  34  56  79 104 145 175 215 260 316
#     4   9  20  31  56  80 107 137 168 232 265 313
#     4  10  22  36  60  70 108 154 178 214 246 330
#     4  10  19  38  56  81 106 136 185 213 272 310
#     4  10  17  31  52  82 111 133 173 221 275 313
#
# _framework density 19.004795999999999
#
# number of rings (size 3 to 8) (size 9 to 14) (size 15 to 20)
#    0.667    1.778    0.000    2.667    0.000    7.111 
#    0.000    1.111    9.778    0.000    0.000    0.000 
#    0.000    0.000    0.000    0.000    0.000    0.000 
#
# Total GULP energy -223120.366543 kJ/mol
# GULP energy per Si atom -12395.575919 kJ/mol
# Density = 1.896154 g / cm^3
# Si number density = 19.004796 Si / 1000 Ang^3
#
#
#
# Elastic Constant Matrix: (Units=GPa)
#
#
# Indices 1 2 3 4 5 6 
#
# 1 58.6144 45.0091 47.9483 0.2374 4.2726 0.2924
# 2 45.0091 96.1129 50.3408 0.0185 0.6959 -0.1558
# 3 47.9483 50.3408 104.0573 0.3406 -2.6346 -0.0920
# 4 0.2374 0.0185 0.3406 10.5169 0.1732 6.3476
# 5 4.2726 0.6959 -2.6346 0.1732 37.7161 0.0907
# 6 0.2924 -0.1558 -0.0920 6.3476 0.0907 18.4584
#
#
#
# Elastic Compliance Matrix: (Units=1/GPa)
#
#
# Indices 1 2 3 4 5 6 
#
# 1 0.034191 -0.010272 -0.010899 0.000090 -0.004444 -0.000692
# 2 -0.010272 0.017042 -0.003496 0.000167 0.000604 0.000229
# 3 -0.010899 -0.003496 0.016388 -0.000564 0.002446 0.000407
# 4 0.000090 0.000167 -0.000564 0.120021 -0.000505 -0.041274
# 5 -0.004444 0.000604 0.002446 -0.000505 0.027179 0.000128
# 6 -0.000692 0.000229 0.000407 -0.041274 0.000128 0.068384
#
#
# Mechanical properties :
#
#
# Convention : Reuss Voigt Hill
#
# Bulk Modulus (GPa) = 54.68583 60.59787 57.64185
# Shear Modulus (GPa) = 14.76521 21.03738 17.90130
#
# Velocity S-wave (km/s) = 2.79035 3.33070 3.07243
# Velocity P-wave (km/s) = 6.26248 6.83712 6.55610
#
# Compressibility (1/GPa) = 0.01828627
#
# Stress axis : x y z
#
# Youngs Moduli (GPa) = 29.24766 58.67850 61.02124
#
# Poissons Ratio (x) = 0.60274 0.66505
# Poissons Ratio (y) = 0.30043 0.21336
# Poissons Ratio (z) = 0.31876 0.20517
#
# Static dielectric constant tensor:
#      x y z
#    x 3.274050 0.000030 -0.150920 
#    y 0.000030 3.308200 -0.000410 
#    z -0.150920 -0.000410 3.548030 
# 
# 
# High freq. dielectric constant tensor:
#      x y z
#    x 1.717610 0.000000 0.000230 
#    y 0.000000 1.720150 -0.000030 
#    z 0.000230 -0.000030 1.739480 
# 
# From -- ./inp_files/31276.got.cif
#   From: 2010.06.25/outbox.cif.g09.slc.cpg/sg15_16_cif.got.tgz:31276.got - 2010.06.28 07:06:18.
