data_PCOD8130050
_publ_section_title
;
Structure prediction by ZEFSAII (Michael W. Deem and Ramdas Pophale) SiO2 
 PCOD8130050
Probable space group: C 2/C
;
_chemical_formula_sum "Si O2"
_cell_formula_units_Z 44
_cell_length_a 18.096738
_cell_length_b 7.523796
_cell_length_c 13.639917
_cell_angle_alpha 90.000000
_cell_angle_beta 113.296003
_cell_angle_gamma 90.000000
_cell_volume 1705.752011
_symmetry_space_group_name_H-M "C 2/C"
_symmetry_group_IT_number 15
_symmetry_cell_setting 'monoclinic'
loop_
_space_group_symop_operation_xyz
x,y,z
-x,y,1/2-z
-x,-y,-z
x,-y,1/2+z
1/2+x,1/2+y,z
1/2-x,1/2+y,1/2-z
1/2-x,1/2-y,-z
1/2+x,1/2-y,1/2+z
loop_
_atom_site_type_symbol
_atom_site_label
_atom_site_fract_x
_atom_site_fract_y
_atom_site_fract_z
Si Si1 0.000000 0.783079 0.750000
Si Si2 0.480545 0.733708 0.844513
Si Si3 0.620634 0.039112 0.503871
Si Si4 0.131948 0.545551 0.728180
Si Si5 0.569213 0.629881 0.481686
Si Si6 0.757016 0.062868 0.949555
O O1 0.922699 0.660677 0.727612
O O2 0.983582 0.901730 0.644308
O O3 0.500000 0.639227 0.750000
O O4 0.396895 0.840237 0.788799
O O5 0.549621 0.874838 0.904853
O O6 0.476674 0.595795 0.936170
O O7 0.630757 0.124434 0.617265
O O8 0.595829 0.834233 0.502918
O O9 0.704483 0.070301 0.489794
O O10 0.221191 0.562244 0.820274
O O11 0.649193 0.506237 0.512322
O O12 0.750000 0.250000 0.000000
#
# Coordination Sequence:
#
# PCOD8130050 Si02
#       6
#     4   8   8   8   8   8
#     4  12  14  26  44  70 100 120 162 202 234 284
#     4  11  16  27  46  73 100 130 161 199 247 301
#     4  10  17  26  43  69  98 133 158 202 246 297
#     4  11  16  25  43  67 100 125 159 199 244 290
#     4  10  19  26  44  72 103 129 159 203 253 288
#     4  10  18  29  41  69 107 129 156 201 257 293
#
# _framework density 25.795076000000002
#
# number of rings (size 3 to 8) (size 9 to 14) (size 15 to 20)
#    0.000    1.455   10.000    1.091    0.000    0.000 
#    0.000    0.000    0.000    1.091    4.727    1.273 
#    0.000    0.000    0.000    0.000    0.000    0.000 
#
# Total GULP energy -272746.884890 kJ/mol
# GULP energy per Si atom -12397.585677 kJ/mol
# Density = 2.573636 g / cm^3
# Si number density = 25.795076 Si / 1000 Ang^3
#
#
#
# Elastic Constant Matrix: (Units=GPa)
#
#
# Indices 1 2 3 4 5 6 
#
# 1 100.0945 22.8312 39.8467 0.0000 -26.8605 0.0000
# 2 22.8312 47.6376 41.0768 0.0000 -7.5380 0.0000
# 3 39.8467 41.0768 202.8345 0.0000 -25.2857 0.0000
# 4 0.0000 0.0000 0.0000 44.6805 0.0000 -14.7294
# 5 -26.8605 -7.5380 -25.2857 0.0000 49.8817 0.0000
# 6 0.0000 0.0000 0.0000 -14.7294 0.0000 22.3497
#
#
#
# Elastic Compliance Matrix: (Units=1/GPa)
#
#
# Indices 1 2 3 4 5 6 
#
# 1 0.012942 -0.004500 -0.000904 0.000000 0.005830 0.000000
# 2 -0.004500 0.027079 -0.004688 0.000000 -0.000708 0.000000
# 3 -0.000904 -0.004688 0.006307 0.000000 0.002002 0.000000
# 4 0.000000 0.000000 0.000000 0.028593 0.000000 0.018844
# 5 0.005830 -0.000708 0.002002 0.000000 0.024095 0.000000
# 6 0.000000 0.000000 0.000000 0.018844 0.000000 0.057163
#
#
# Mechanical properties :
#
#
# Convention : Reuss Voigt Hill
#
# Bulk Modulus (GPa) = 38.25200 62.00844 50.13022
# Shear Modulus (GPa) = 27.01577 39.83649 33.42613
#
# Velocity S-wave (km/s) = 3.23975 3.93408 3.60367
# Velocity P-wave (km/s) = 5.37178 6.68783 6.06560
#
# Compressibility (1/GPa) = 0.02614242
#
# Stress axis : x y z
#
# Youngs Moduli (GPa) = 77.27026 36.92891 158.56238
#
# Poissons Ratio (x) = 0.16619 0.14337
# Poissons Ratio (y) = 0.34774 0.74334
# Poissons Ratio (z) = 0.06987 0.17312
#
# Static dielectric constant tensor:
#      x y z
#    x 5.473320 0.000000 -0.346980 
#    y 0.000000 4.310650 0.000000 
#    z -0.346980 0.000000 5.015560 
# 
# 
# High freq. dielectric constant tensor:
#      x y z
#    x 2.030570 0.000000 -0.025300 
#    y 0.000000 2.023150 0.000000 
#    z -0.025300 0.000000 2.061180 
# 
# From -- ./inp_files/160516.got.cif
#   From: 2010.06.25/outbox.cif.g09.slc.cpg/sg15_81_cif.got.tgz:160516.got - 2010.06.28 07:06:18.
