data_PCOD8130462
_publ_section_title
;
Structure prediction by ZEFSAII (Michael W. Deem and Ramdas Pophale) SiO2 
 PCOD8130462
Probable space group: C 2/C
;
_chemical_formula_sum "Si O2"
_cell_formula_units_Z 52
_cell_length_a 9.845259
_cell_length_b 16.723801
_cell_length_c 17.370029
_cell_angle_alpha 90.000000
_cell_angle_beta 66.439937
_cell_angle_gamma 90.000000
_cell_volume 2621.574631
_symmetry_space_group_name_H-M "C 2/C"
_symmetry_group_IT_number 15
_symmetry_cell_setting 'monoclinic'
loop_
_space_group_symop_operation_xyz
x,y,z
-x,y,1/2-z
-x,-y,-z
x,-y,1/2+z
1/2+x,1/2+y,z
1/2-x,1/2+y,1/2-z
1/2-x,1/2-y,-z
1/2+x,1/2-y,1/2+z
loop_
_atom_site_type_symbol
_atom_site_label
_atom_site_fract_x
_atom_site_fract_y
_atom_site_fract_z
Si Si1 0.000000 0.484595 0.250000
Si Si2 0.900563 0.274010 0.848843
Si Si3 0.665641 0.566994 0.073068
Si Si4 0.153991 0.878170 0.845140
Si Si5 0.719344 0.444066 0.384438
Si Si6 0.959071 0.901603 0.346908
Si Si7 0.132721 0.389622 0.837649
O O1 0.878904 0.424751 0.312406
O O2 0.943380 0.538126 0.191640
O O3 0.736019 0.312319 0.880163
O O4 0.000000 0.282421 0.750000
O O5 0.870693 0.181541 0.875826
O O6 0.007402 0.322028 0.883595
O O7 0.524865 0.626303 0.119761
O O8 0.632769 0.474220 0.097218
O O9 0.807030 0.588580 0.092177
O O10 0.714251 0.577287 0.974557
O O11 0.222309 0.865317 0.744871
O O12 0.187630 0.962957 0.876459
O O13 0.606327 0.388641 0.363511
O O14 0.000000 0.922715 0.250000
#
# Coordination Sequence:
#
# PCOD8130462 Si02
#       7
#     4   8   8   8   8   8   8
#     4  10  18  36  60  74 108 150 200 228 280 336
#     4   9  17  33  58  78 110 152 193 219 264 331
#     4  11  21  32  56  87 114 139 186 238 282 325
#     4   9  16  34  55  79 110 150 186 223 270 332
#     4  10  20  35  54  82 112 145 184 238 281 330
#     4  10  19  34  58  85 112 145 187 232 274 319
#     4  10  17  33  57  81 104 150 193 221 266 341
#
# _framework density 19.835405999999999
#
# number of rings (size 3 to 8) (size 9 to 14) (size 15 to 20)
#    0.000    2.154    3.846    5.077    0.000    0.615 
#    0.000    3.846   13.538    0.000    0.000    0.000 
#    0.000    0.000    0.000    0.000    0.000    0.000 
#
# Total GULP energy -322170.463562 kJ/mol
# GULP energy per Si atom -12391.171675 kJ/mol
# Density = 1.979026 g / cm^3
# Si number density = 19.835406 Si / 1000 Ang^3
#
#
#
# Elastic Constant Matrix: (Units=GPa)
#
#
# Indices 1 2 3 4 5 6 
#
# 1 115.4222 43.6625 31.8073 0.0000 29.2479 0.0000
# 2 43.6625 75.2341 10.3179 0.0000 -0.8762 0.0000
# 3 31.8073 10.3179 82.4751 0.0000 29.8336 0.0000
# 4 0.0000 0.0000 0.0000 -30.2163 0.0000 29.6266
# 5 29.2479 -0.8762 29.8336 0.0000 29.5387 0.0000
# 6 0.0000 0.0000 0.0000 29.6266 0.0000 8.4781
#
#
#
# Elastic Compliance Matrix: (Units=1/GPa)
#
#
# Indices 1 2 3 4 5 6 
#
# 1 0.016745 -0.010129 0.001443 0.000000 -0.018337 0.000000
# 2 -0.010129 0.019862 -0.003812 0.000000 0.014469 0.000000
# 3 0.001443 -0.003812 0.019858 0.000000 -0.021598 0.000000
# 4 0.000000 0.000000 0.000000 -0.007477 0.000000 0.026128
# 5 -0.018337 0.014469 -0.021598 0.000000 0.074253 0.000000
# 6 0.000000 0.000000 0.000000 0.026128 0.000000 0.026648
#
#
# Mechanical properties :
#
#
# Convention : Reuss Voigt Hill
#
# Bulk Modulus (GPa) = 31.77966 49.41187 40.59576
# Shear Modulus (GPa) = 26.97236 14.04968 20.51102
#
# Velocity S-wave (km/s) = 3.69156 2.66430 3.21917
# Velocity P-wave (km/s) = 5.85035 5.86768 5.85902
#
# Compressibility (1/GPa) = 0.03146667
#
# Stress axis : x y z
#
# Youngs Moduli (GPa) = 59.72026 50.34805 50.35785
#
# Poissons Ratio (x) = 0.50999 -0.07265
# Poissons Ratio (y) = 0.60492 0.19197
# Poissons Ratio (z) = -0.08615 0.19193
#
# Static dielectric constant tensor:
#      x y z
#    x 4.010920 0.000000 -0.019760 
#    y 0.000000 3.412060 0.000000 
#    z -0.019760 0.000000 3.436760 
# 
# 
# High freq. dielectric constant tensor:
#      x y z
#    x 1.780930 0.000000 0.009070 
#    y 0.000000 1.740480 0.000000 
#    z 0.009070 0.000000 1.757090 
# 
# From -- ./inp_files/190396.got.cif
#   From: 2010.06.25/outbox.cif.g09.slc.cpg/sg15_96_cif.got.tgz:190396.got - 2010.06.28 07:06:18.
