data_PCOD8130025
_publ_section_title
;
Structure prediction by ZEFSAII (Michael W. Deem and Ramdas Pophale) SiO2 
 PCOD8130025
Probable space group: C 2/C
;
_chemical_formula_sum "Si O2"
_cell_formula_units_Z 44
_cell_length_a 29.571375
_cell_length_b 8.573506
_cell_length_c 16.401535
_cell_angle_alpha 90.000000
_cell_angle_beta 149.765695
_cell_angle_gamma 90.000000
_cell_volume 2093.852771
_symmetry_space_group_name_H-M "C 2/C"
_symmetry_group_IT_number 15
_symmetry_cell_setting 'monoclinic'
loop_
_space_group_symop_operation_xyz
x,y,z
-x,y,1/2-z
-x,-y,-z
x,-y,1/2+z
1/2+x,1/2+y,z
1/2-x,1/2+y,1/2-z
1/2-x,1/2-y,-z
1/2+x,1/2-y,1/2+z
loop_
_atom_site_type_symbol
_atom_site_label
_atom_site_fract_x
_atom_site_fract_y
_atom_site_fract_z
Si Si1 0.630306 0.777544 0.024814
Si Si2 0.000000 0.516531 0.750000
Si Si3 0.207279 0.126442 0.994311
Si Si4 0.643014 0.949027 0.200628
Si Si5 0.009650 0.014431 0.672115
Si Si6 0.993261 0.309311 0.074828
O O1 0.701150 0.692691 0.077088
O O2 0.679960 0.856166 0.179008
O O3 0.585908 0.909114 0.899329
O O4 0.554206 0.662042 0.941673
O O5 0.022694 0.619938 0.707131
O O6 0.275504 0.981729 0.110499
O O7 0.250000 0.250000 0.000000
O O8 0.111713 0.067605 0.812110
O O9 0.572456 0.837365 0.134569
O O10 0.597044 0.111789 0.100615
O O11 0.980085 0.876421 0.565004
O O12 0.000000 0.955561 0.750000
#
# Coordination Sequence:
#
# PCOD8130025 Si02
#       6
#     8   4   8   8   8   8
#     4  10  21  41  63  87 124 165 202 253 311 371
#     4  10  16  36  66  86 112 164 200 244 302 370
#     4  11  23  41  63  92 126 165 206 257 305 362
#     4  10  24  39  60  91 127 155 207 254 317 364
#     4  10  21  40  66  89 118 158 213 246 303 369
#     4  10  21  38  64  91 118 163 206 250 306 375
#
# _framework density 21.013892999999999
#
# number of rings (size 3 to 8) (size 9 to 14) (size 15 to 20)
#    0.000    1.818    3.636    1.091    5.091    4.364 
#    3.273    0.000    0.000    0.000    0.000    0.000 
#    0.000    0.000    0.000    0.000    0.000    0.000 
#
# Total GULP energy -272807.639299 kJ/mol
# GULP energy per Si atom -12400.347241 kJ/mol
# Density = 2.096606 g / cm^3
# Si number density = 21.013893 Si / 1000 Ang^3
#
#
#
# Elastic Constant Matrix: (Units=GPa)
#
#
# Indices 1 2 3 4 5 6 
#
# 1 73.4821 27.9555 21.4637 0.0000 4.9090 0.0000
# 2 27.9555 93.4609 31.5769 0.0000 1.8652 0.0000
# 3 21.4637 31.5769 63.4201 0.0000 7.6359 0.0000
# 4 0.0000 0.0000 0.0000 28.9655 0.0000 -14.1150
# 5 4.9090 1.8652 7.6359 0.0000 28.9800 0.0000
# 6 0.0000 0.0000 0.0000 -14.1150 0.0000 33.4418
#
#
#
# Elastic Compliance Matrix: (Units=1/GPa)
#
#
# Indices 1 2 3 4 5 6 
#
# 1 0.016100 -0.003616 -0.003458 0.000000 -0.001583 0.000000
# 2 -0.003616 0.013698 -0.005746 0.000000 0.001245 0.000000
# 3 -0.003458 -0.005746 0.020329 0.000000 -0.004401 0.000000
# 4 0.000000 0.000000 0.000000 0.043463 0.000000 0.018345
# 5 -0.001583 0.001245 -0.004401 0.000000 0.035854 0.000000
# 6 0.000000 0.000000 0.000000 0.018345 0.000000 0.037646
#
#
# Mechanical properties :
#
#
# Convention : Reuss Voigt Hill
#
# Bulk Modulus (GPa) = 40.83809 43.59502 42.21656
# Shear Modulus (GPa) = 24.88886 28.23525 26.56206
#
# Velocity S-wave (km/s) = 3.44525 3.66956 3.55917
# Velocity P-wave (km/s) = 5.94158 6.22455 6.08471
#
# Compressibility (1/GPa) = 0.02448695
#
# Stress axis : x y z
#
# Youngs Moduli (GPa) = 62.11100 73.00419 49.19060
#
# Poissons Ratio (x) = 0.26398 0.17010
# Poissons Ratio (y) = 0.22459 0.28266
# Poissons Ratio (z) = 0.21477 0.41950
#
# Static dielectric constant tensor:
#      x y z
#    x 3.843570 0.000000 -0.077000 
#    y 0.000000 3.774850 0.000000 
#    z -0.077000 0.000000 3.526500 
# 
# 
# High freq. dielectric constant tensor:
#      x y z
#    x 1.831010 0.000000 -0.004060 
#    y 0.000000 1.822980 0.000000 
#    z -0.004060 0.000000 1.802080 
# 
# From -- ./inp_files/159187.got.cif
#   From: 2010.06.25/outbox.cif.g09.slc.cpg/sg15_80_cif.got.tgz:159187.got - 2010.06.28 07:06:18.
