data_PCOD8130991
_publ_section_title
;
Structure prediction by ZEFSAII (Michael W. Deem and Ramdas Pophale) SiO2 
 PCOD8130991
Probable space group: C 2/C
;
_chemical_formula_sum "Si O2"
_cell_formula_units_Z 64
_cell_length_a 14.514726
_cell_length_b 18.716911
_cell_length_c 25.243951
_cell_angle_alpha 90.000000
_cell_angle_beta 151.304219
_cell_angle_gamma 90.000000
_cell_volume 3292.951507
_symmetry_space_group_name_H-M "C 2/C"
_symmetry_group_IT_number 15
_symmetry_cell_setting 'monoclinic'
loop_
_space_group_symop_operation_xyz
x,y,z
-x,y,1/2-z
-x,-y,-z
x,-y,1/2+z
1/2+x,1/2+y,z
1/2-x,1/2+y,1/2-z
1/2-x,1/2-y,-z
1/2+x,1/2-y,1/2+z
loop_
_atom_site_type_symbol
_atom_site_label
_atom_site_fract_x
_atom_site_fract_y
_atom_site_fract_z
Si Si1 0.701872 0.151403 0.001503
Si Si2 0.002089 0.901755 0.313332
Si Si3 0.527572 0.436184 0.702139
Si Si4 0.034882 0.776025 0.491133
Si Si5 0.178862 0.324706 0.697811
Si Si6 0.313862 0.205528 0.837546
Si Si7 0.776145 0.667186 0.027021
Si Si8 0.176817 0.289836 0.379332
O O1 0.828616 0.214487 0.092217
O O2 0.821029 0.079543 0.071692
O O3 0.497292 0.153662 0.926832
O O4 0.663829 0.152492 0.919413
O O5 0.864398 0.842491 0.269424
O O6 0.000000 0.888697 0.250000
O O7 0.204163 0.885826 0.443984
O O8 0.927172 0.981289 0.287148
O O9 0.500000 0.420110 0.750000
O O10 0.701430 0.390835 0.764831
O O11 0.925042 0.716733 0.401728
O O12 0.874404 0.808758 0.448957
O O13 0.196746 0.735870 0.608037
O O14 0.146366 0.839285 0.515155
O O15 0.325024 0.272172 0.802352
O O16 0.004045 0.350179 0.648898
O O17 0.750000 0.750000 0.000000
O O18 0.000000 0.294408 0.250000
#
# Coordination Sequence:
#
# PCOD8130991 Si02
#       8
#     8   8   8   8   8   8   8   8
#     4  10  20  34  52  86 118 152 190 238 296 352
#     4  11  23  38  58  88 120 156 189 241 295 359
#     4  11  23  38  58  85 125 156 187 236 308 363
#     4  10  19  32  55  88 113 146 191 248 287 333
#     4  11  21  36  57  85 117 156 194 242 292 347
#     4  11  21  34  61  88 117 148 202 246 286 344
#     4  10  20  37  56  82 114 149 196 241 284 336
#     4  10  18  30  56  86 116 147 195 245 289 340
#
# _framework density 19.435452000000002
#
# number of rings (size 3 to 8) (size 9 to 14) (size 15 to 20)
#    0.000    1.500    2.500    7.125    0.000    1.000 
#    0.000    3.125    0.000    3.000    0.000    0.000 
#    0.000    0.000    0.000    0.000    0.000    0.000 
#
# Total GULP energy -396573.622076 kJ/mol
# GULP energy per Si atom -12392.925690 kJ/mol
# Density = 1.939122 g / cm^3
# Si number density = 19.435452 Si / 1000 Ang^3
#
#
#
# Elastic Constant Matrix: (Units=GPa)
#
#
# Indices 1 2 3 4 5 6 
#
# 1 105.0672 36.0679 32.3077 -0.0003 4.1142 -0.0001
# 2 36.0679 75.3906 31.2677 0.0015 0.2914 0.0001
# 3 32.3077 31.2677 104.6065 0.0094 -3.2888 0.0014
# 4 -0.0003 0.0015 0.0094 19.8612 0.0028 0.8903
# 5 4.1142 0.2914 -3.2888 0.0028 37.7911 -0.0004
# 6 -0.0001 0.0001 0.0014 0.8903 -0.0004 21.7585
#
#
#
# Elastic Compliance Matrix: (Units=1/GPa)
#
#
# Indices 1 2 3 4 5 6 
#
# 1 0.011910 -0.004735 -0.002309 0.000002 -0.001461 0.000000
# 2 -0.004735 0.017033 -0.003627 0.000000 0.000068 0.000000
# 3 -0.002309 -0.003627 0.011397 -0.000005 0.001271 0.000000
# 4 0.000002 0.000000 -0.000005 0.050442 -0.000004 -0.002064
# 5 -0.001461 0.000068 0.001271 -0.000004 0.026730 0.000001
# 6 0.000000 0.000000 0.000000 -0.002064 0.000001 0.046043
#
#
# Mechanical properties :
#
#
# Convention : Reuss Voigt Hill
#
# Bulk Modulus (GPa) = 52.63447 53.81674 53.22560
# Shear Modulus (GPa) = 26.14636 28.24357 27.19496
#
# Velocity S-wave (km/s) = 3.67180 3.81622 3.74471
# Velocity P-wave (km/s) = 6.71689 6.86791 6.79282
#
# Compressibility (1/GPa) = 0.01899896
#
# Stress axis : x y z
#
# Youngs Moduli (GPa) = 83.96065 58.70825 87.74298
#
# Poissons Ratio (x) = 0.27797 0.20262
# Poissons Ratio (y) = 0.39753 0.31824
# Poissons Ratio (z) = 0.19388 0.21293
#
# Static dielectric constant tensor:
#      x y z
#    x 4.620640 0.000000 0.134210 
#    y 0.000000 3.226620 -0.000010 
#    z 0.134210 -0.000010 3.715830 
# 
# 
# High freq. dielectric constant tensor:
#      x y z
#    x 1.767480 0.000000 0.003940 
#    y 0.000000 1.703690 0.000000 
#    z 0.003940 0.000000 1.770050 
# 
# From -- ./inp_files/274866.got.cif
#   From: 2010.06.25/outbox.cif.g09.slc.cpg/sg15_138_cif.got.tgz:274866.got - 2010.06.28 07:06:18.
