data_PCOD8130063
_publ_section_title
;
Structure prediction by ZEFSAII (Michael W. Deem and Ramdas Pophale) SiO2 
 PCOD8130063
Probable space group: C 2/C
;
_chemical_formula_sum "Si O2"
_cell_formula_units_Z 60
_cell_length_a 5.509777
_cell_length_b 29.871446
_cell_length_c 17.343348
_cell_angle_alpha 90.000000
_cell_angle_beta 95.755429
_cell_angle_gamma 90.000000
_cell_volume 2840.065788
_symmetry_space_group_name_H-M "C 2/C"
_symmetry_group_IT_number 15
_symmetry_cell_setting 'monoclinic'
loop_
_space_group_symop_operation_xyz
x,y,z
-x,y,1/2-z
-x,-y,-z
x,-y,1/2+z
1/2+x,1/2+y,z
1/2-x,1/2+y,1/2-z
1/2-x,1/2-y,-z
1/2+x,1/2-y,1/2+z
loop_
_atom_site_type_symbol
_atom_site_label
_atom_site_fract_x
_atom_site_fract_y
_atom_site_fract_z
Si Si1 0.224655 0.333777 0.870660
Si Si2 0.763086 0.596872 0.523892
Si Si3 0.665111 0.760189 0.618103
Si Si4 0.185740 0.563819 0.358811
Si Si5 0.193142 0.962462 0.875086
Si Si6 0.000000 0.781888 0.750000
Si Si7 0.075194 0.810523 0.003477
Si Si8 0.267894 0.556671 0.540999
O O1 0.153164 0.383574 0.844647
O O2 0.406083 0.314904 0.812873
O O3 0.991127 0.302939 0.865222
O O4 0.335592 0.334814 0.961225
O O5 0.728611 0.578746 0.436000
O O6 0.777618 0.651035 0.522980
O O7 0.523166 0.582744 0.566448
O O8 0.023348 0.580604 0.567531
O O9 0.852876 0.773358 0.557027
O O10 0.520483 0.716270 0.582066
O O11 0.804755 0.748914 0.702690
O O12 0.429864 0.544534 0.323874
O O13 0.230229 0.549658 0.449032
O O14 0.926028 0.541614 0.323589
O O15 0.204246 0.008769 0.919715
#
# Coordination Sequence:
#
# PCOD8130063 Si02
#       8
#     8   8   8   8   8   4   8   8
#     4  11  20  36  55  76 109 149 188 235 286 343
#     4  10  17  28  43  73 105 148 175 220 262 331
#     4  10  21  37  55  77 106 148 184 232 292 342
#     4  10  18  27  48  70 105 143 186 214 266 328
#     4  10  17  28  43  74 108 154 174 213 265 333
#     4  10  24  38  54  78 102 150 188 242 280 342
#     4  10  20  33  54  81 109 142 191 228 287 348
#     4  10  17  27  45  69 114 150 176 208 274 330
#
# _framework density 21.126270999999999
#
# number of rings (size 3 to 8) (size 9 to 14) (size 15 to 20)
#    0.000    1.867    2.667    6.400    1.867    0.000 
#    0.000    0.000    0.000    0.000    0.000    0.000 
#    0.000    6.400    0.000    0.000    0.000    0.000 
#
# Total GULP energy -371676.920947 kJ/mol
# GULP energy per Si atom -12389.230698 kJ/mol
# Density = 2.107819 g / cm^3
# Si number density = 21.126271 Si / 1000 Ang^3
#
#
#
# Elastic Constant Matrix: (Units=GPa)
#
#
# Indices 1 2 3 4 5 6 
#
# 1 164.6454 14.0004 30.9399 0.0000 7.5116 0.0000
# 2 14.0004 55.0031 25.7446 0.0000 7.4767 0.0000
# 3 30.9399 25.7446 42.0905 0.0000 3.3220 0.0000
# 4 0.0000 0.0000 0.0000 3.4270 0.0000 -0.7814
# 5 7.5116 7.4767 3.3220 0.0000 15.5836 0.0000
# 6 0.0000 0.0000 0.0000 -0.7814 0.0000 26.0981
#
#
#
# Elastic Compliance Matrix: (Units=1/GPa)
#
#
# Indices 1 2 3 4 5 6 
#
# 1 0.007194 0.001296 -0.005857 0.000000 -0.002841 0.000000
# 2 0.001296 0.027028 -0.016692 0.000000 -0.010034 0.000000
# 3 -0.005857 -0.016692 0.038059 0.000000 0.002718 0.000000
# 4 0.000000 0.000000 0.000000 0.293808 0.000000 0.008797
# 5 -0.002841 -0.010034 0.002718 0.000000 0.069774 0.000000
# 6 0.000000 0.000000 0.000000 0.008797 0.000000 0.038580
#
#
# Mechanical properties :
#
#
# Convention : Reuss Voigt Hill
#
# Bulk Modulus (GPa) = 33.58552 44.78987 39.18770
# Shear Modulus (GPa) = 9.48996 21.75867 15.62432
#
# Velocity S-wave (km/s) = 2.12174 3.21274 2.72245
# Velocity P-wave (km/s) = 4.68342 5.91687 5.33590
#
# Compressibility (1/GPa) = 0.02977473
#
# Stress axis : x y z
#
# Youngs Moduli (GPa) = 139.01270 36.99899 26.27524
#
# Poissons Ratio (x) = -0.04796 0.15388
# Poissons Ratio (y) = -0.18020 0.43860
# Poissons Ratio (z) = 0.81413 0.61760
#
# Static dielectric constant tensor:
#      x y z
#    x 4.805840 0.000000 0.046970 
#    y 0.000000 3.802830 0.000000 
#    z 0.046970 0.000000 4.573260 
# 
# 
# High freq. dielectric constant tensor:
#      x y z
#    x 1.852600 0.000000 0.002300 
#    y 0.000000 1.815140 0.000000 
#    z 0.002300 0.000000 1.768290 
# 
# From -- ./inp_files/186173.got.cif
#   From: 2010.06.25/outbox.cif.g09.slc.cpg/sg15_94_cif.got.tgz:186173.got - 2010.06.28 07:06:18.
