data_PCOD8130021
_publ_section_title
;
Structure prediction by ZEFSAII (Michael W. Deem and Ramdas Pophale) SiO2 
 PCOD8130021
Probable space group: C 2/C
;
_chemical_formula_sum "Si O2"
_cell_formula_units_Z 44
_cell_length_a 9.312526
_cell_length_b 20.348765
_cell_length_c 12.132015
_cell_angle_alpha 90.000000
_cell_angle_beta 73.427536
_cell_angle_gamma 90.000000
_cell_volume 2203.496572
_symmetry_space_group_name_H-M "C 2/C"
_symmetry_group_IT_number 15
_symmetry_cell_setting 'monoclinic'
loop_
_space_group_symop_operation_xyz
x,y,z
-x,y,1/2-z
-x,-y,-z
x,-y,1/2+z
1/2+x,1/2+y,z
1/2-x,1/2+y,1/2-z
1/2-x,1/2-y,-z
1/2+x,1/2-y,1/2+z
loop_
_atom_site_type_symbol
_atom_site_label
_atom_site_fract_x
_atom_site_fract_y
_atom_site_fract_z
Si Si1 0.944344 0.070401 0.384639
Si Si2 0.340625 0.565161 0.968371
Si Si3 0.747066 0.192681 0.411510
Si Si4 0.262648 0.251757 0.314788
Si Si5 0.000000 0.857309 0.250000
Si Si6 0.092988 0.670709 0.028024
O O1 0.860384 0.137797 0.427906
O O2 0.000000 0.062248 0.250000
O O3 0.096045 0.070011 0.422458
O O4 0.828729 0.011335 0.438628
O O5 0.463735 0.598581 0.862998
O O6 0.180059 0.601359 0.994529
O O7 0.750000 0.250000 0.500000
O O8 0.803400 0.216420 0.278560
O O9 0.583786 0.159413 0.435547
O O10 0.359818 0.312251 0.247916
O O11 0.129416 0.278742 0.420774
O O12 0.364097 0.202579 0.364566
#
# Coordination Sequence:
#
# PCOD8130021 Si02
#       6
#     8   8   8   8   4   8
#     4  11  24  40  63  90 120 161 207 261 301 361
#     4  10  22  41  63  86 119 164 213 239 309 371
#     4  12  25  37  60  96 129 155 200 262 308 356
#     4  10  20  36  63  88 122 158 202 241 305 373
#     4  10  16  36  64  88 116 156 200 242 286 374
#     4  10  22  39  62  89 121 167 198 249 306 366
#
# _framework density 19.968264000000001
#
# number of rings (size 3 to 8) (size 9 to 14) (size 15 to 20)
#    0.000    1.455    2.727    2.182    7.636    0.727 
#    0.000    0.000    0.000    0.000    0.000    0.000 
#    0.000    0.000    0.000    0.000    0.000    0.000 
#
# Total GULP energy -272853.515968 kJ/mol
# GULP energy per Si atom -12402.432544 kJ/mol
# Density = 1.992282 g / cm^3
# Si number density = 19.968264 Si / 1000 Ang^3
#
#
#
# Elastic Constant Matrix: (Units=GPa)
#
#
# Indices 1 2 3 4 5 6 
#
# 1 58.2162 36.4289 24.1932 0.0000 0.5710 0.0000
# 2 36.4289 128.5733 46.0387 0.0000 10.7086 0.0000
# 3 24.1932 46.0387 124.1754 0.0000 10.7400 0.0000
# 4 0.0000 0.0000 0.0000 27.6024 0.0000 5.3058
# 5 0.5710 10.7086 10.7400 0.0000 14.9897 0.0000
# 6 0.0000 0.0000 0.0000 5.3058 0.0000 19.8987
#
#
#
# Elastic Compliance Matrix: (Units=1/GPa)
#
#
# Indices 1 2 3 4 5 6 
#
# 1 0.021739 -0.005659 -0.002575 0.000000 0.005059 0.000000
# 2 -0.005659 0.010708 -0.002371 0.000000 -0.005735 0.000000
# 3 -0.002575 -0.002371 0.009892 0.000000 -0.005295 0.000000
# 4 0.000000 0.000000 0.000000 0.038186 0.000000 -0.010182
# 5 0.005059 -0.005735 -0.005295 0.000000 0.074410 0.000000
# 6 0.000000 0.000000 0.000000 -0.010182 0.000000 0.052969
#
#
# Mechanical properties :
#
#
# Convention : Reuss Voigt Hill
#
# Bulk Modulus (GPa) = 47.32977 58.25404 52.79191
# Shear Modulus (GPa) = 21.17233 26.11844 23.64539
#
# Velocity S-wave (km/s) = 3.25976 3.62055 3.44488
# Velocity P-wave (km/s) = 6.15808 6.83480 6.50525
#
# Compressibility (1/GPa) = 0.02112835
#
# Stress axis : x y z
#
# Youngs Moduli (GPa) = 46.00089 93.39043 101.09142
#
# Poissons Ratio (x) = 0.52846 0.26031
# Poissons Ratio (y) = 0.26030 0.23974
# Poissons Ratio (z) = 0.11845 0.22147
#
# Static dielectric constant tensor:
#      x y z
#    x 3.393400 0.000000 -0.021700 
#    y 0.000000 3.769300 0.000000 
#    z -0.021700 0.000000 3.756810 
# 
# 
# High freq. dielectric constant tensor:
#      x y z
#    x 1.757210 0.000000 0.000040 
#    y 0.000000 1.780710 0.000000 
#    z 0.000040 0.000000 1.796330 
# 
# From -- ./inp_files/78225.got.cif
#   From: 2010.06.25/outbox.cif.g09.slc.cpg/sg15_40_cif.got.tgz:78225.got - 2010.06.28 07:06:18.
