data_PCOD8130779
_publ_section_title
;
Structure prediction by ZEFSAII (Michael W. Deem and Ramdas Pophale) SiO2 
 PCOD8130779
Probable space group: C 2/C
;
_chemical_formula_sum "Si O2"
_cell_formula_units_Z 64
_cell_length_a 12.446252
_cell_length_b 22.794223
_cell_length_c 12.461776
_cell_angle_alpha 90.000000
_cell_angle_beta 89.379868
_cell_angle_gamma 90.000000
_cell_volume 3535.231718
_symmetry_space_group_name_H-M "C 2/C"
_symmetry_group_IT_number 15
_symmetry_cell_setting 'monoclinic'
loop_
_space_group_symop_operation_xyz
x,y,z
-x,y,1/2-z
-x,-y,-z
x,-y,1/2+z
1/2+x,1/2+y,z
1/2-x,1/2+y,1/2-z
1/2-x,1/2-y,-z
1/2+x,1/2-y,1/2+z
loop_
_atom_site_type_symbol
_atom_site_label
_atom_site_fract_x
_atom_site_fract_y
_atom_site_fract_z
Si Si1 0.979746 0.064264 0.035672
Si Si2 0.743749 0.950807 0.249068
Si Si3 0.266368 0.574209 0.156081
Si Si4 0.886160 0.577523 0.953655
Si Si5 0.227357 0.817702 0.494419
Si Si6 0.577195 0.627779 0.837745
Si Si7 0.129736 0.446506 0.468458
Si Si8 0.600884 0.640142 0.188934
O O1 0.004397 0.107488 0.937548
O O2 0.855783 0.064304 0.065370
O O3 0.052696 0.079885 0.138575
O O4 0.000000 0.000000 0.000000
O O5 0.656248 0.926739 0.166471
O O6 0.862129 0.926134 0.221291
O O7 0.707387 0.931312 0.368129
O O8 0.748967 0.020727 0.237853
O O9 0.300985 0.628957 0.229303
O O10 0.162704 0.584114 0.081424
O O11 0.014500 0.582813 0.946456
O O12 0.826540 0.635213 0.006852
O O13 0.863887 0.517564 0.020212
O O14 0.250000 0.750000 0.500000
O O15 0.167169 0.827996 0.381766
O O16 0.144972 0.821157 0.593429
O O17 0.500000 0.658305 0.750000
O O18 0.500000 0.672008 0.250000
#
# Coordination Sequence:
#
# PCOD8130779 Si02
#       8
#     8   8   8   8   8   8   8   8
#     4  10  18  28  47  75 112 147 167 202 271 349
#     4  10  18  28  48  73 107 143 171 207 267 334
#     4  10  19  28  47  76 110 146 173 209 268 334
#     4   9  20  35  50  74 102 140 182 223 270 326
#     4  10  21  41  60  74 102 147 192 232 268 322
#     4  10  20  31  50  80 109 133 177 226 277 327
#     4  10  19  32  50  75 111 139 173 220 276 331
#     4   9  20  34  51  78 108 134 174 215 271 325
#
# _framework density 18.103480000000001
#
# number of rings (size 3 to 8) (size 9 to 14) (size 15 to 20)
#    0.000    2.250    1.250    1.875    5.250    0.000 
#    0.000    5.625    0.000    0.000    0.000    9.625 
#    0.000    0.000    0.000    0.000    0.000    0.000 
#
# Total GULP energy -396428.975305 kJ/mol
# GULP energy per Si atom -12388.405478 kJ/mol
# Density = 1.806228 g / cm^3
# Si number density = 18.103480 Si / 1000 Ang^3
#
#
#
# Elastic Constant Matrix: (Units=GPa)
#
#
# Indices 1 2 3 4 5 6 
#
# 1 88.0361 24.8044 38.4290 0.0000 7.0178 0.0000
# 2 24.8044 67.4446 18.0662 0.0000 3.2923 0.0000
# 3 38.4290 18.0662 93.1382 0.0000 -1.0936 0.0000
# 4 0.0000 0.0000 0.0000 10.9689 0.0000 -0.6716
# 5 7.0178 3.2923 -1.0936 0.0000 33.6788 0.0000
# 6 0.0000 0.0000 0.0000 -0.6716 0.0000 15.8828
#
#
#
# Elastic Compliance Matrix: (Units=1/GPa)
#
#
# Indices 1 2 3 4 5 6 
#
# 1 0.015105 -0.003938 -0.005503 0.000000 -0.002941 0.000000
# 2 -0.003938 0.016756 -0.001636 0.000000 -0.000871 0.000000
# 3 -0.005503 -0.001636 0.013345 0.000000 0.001740 0.000000
# 4 0.000000 0.000000 0.000000 0.091403 0.000000 0.003865
# 5 -0.002941 -0.000871 0.001740 0.000000 0.030447 0.000000
# 6 0.000000 0.000000 0.000000 0.003865 0.000000 0.063124
#
#
# Mechanical properties :
#
#
# Convention : Reuss Voigt Hill
#
# Bulk Modulus (GPa) = 43.37821 45.69088 44.53454
# Shear Modulus (GPa) = 19.22946 23.26073 21.24510
#
# Velocity S-wave (km/s) = 3.26267 3.58841 3.42941
# Velocity P-wave (km/s) = 6.18115 6.51632 6.35095
#
# Compressibility (1/GPa) = 0.02305305
#
# Stress axis : x y z
#
# Youngs Moduli (GPa) = 66.20306 59.68091 74.93411
#
# Poissons Ratio (x) = 0.23500 0.41237
# Poissons Ratio (y) = 0.26068 0.12257
# Poissons Ratio (z) = 0.36432 0.09762
#
# Static dielectric constant tensor:
#      x y z
#    x 3.617290 0.000000 -0.064910 
#    y 0.000000 2.837980 0.000000 
#    z -0.064910 0.000000 3.739410 
# 
# 
# High freq. dielectric constant tensor:
#      x y z
#    x 1.709100 0.000000 0.001030 
#    y 0.000000 1.638220 0.000000 
#    z 0.001030 0.000000 1.719430 
# 
# From -- ./inp_files/90815.got.cif
#   From: 2010.06.25/outbox.cif.g09.slc.cpg/sg15_46_cif.got.tgz:90815.got - 2010.06.28 07:06:18.
