data_PCOD8130538
_publ_section_title
;
Structure prediction by ZEFSAII (Michael W. Deem and Ramdas Pophale) SiO2 
 PCOD8130538
Probable space group: C 2/C
;
_chemical_formula_sum "Si O2"
_cell_formula_units_Z 64
_cell_length_a 21.832234
_cell_length_b 9.591955
_cell_length_c 18.280995
_cell_angle_alpha 90.000000
_cell_angle_beta 123.271000
_cell_angle_gamma 90.000000
_cell_volume 3200.778672
_symmetry_space_group_name_H-M "C 2/C"
_symmetry_group_IT_number 15
_symmetry_cell_setting 'monoclinic'
loop_
_space_group_symop_operation_xyz
x,y,z
-x,y,1/2-z
-x,-y,-z
x,-y,1/2+z
1/2+x,1/2+y,z
1/2-x,1/2+y,1/2-z
1/2-x,1/2-y,-z
1/2+x,1/2-y,1/2+z
loop_
_atom_site_type_symbol
_atom_site_label
_atom_site_fract_x
_atom_site_fract_y
_atom_site_fract_z
Si Si1 0.369621 0.188244 0.423463
Si Si2 0.494280 0.738945 0.420497
Si Si3 0.268125 0.822371 0.327171
Si Si4 0.059629 0.040789 0.228030
Si Si5 0.715175 0.624486 0.295081
Si Si6 0.885373 0.248990 0.771505
Si Si7 0.988524 0.504672 0.325246
Si Si8 0.087805 0.610977 0.512697
O O1 0.416760 0.270496 0.515519
O O2 0.283669 0.178936 0.389938
O O3 0.374806 0.271506 0.351262
O O4 0.410045 0.036419 0.441853
O O5 0.466720 0.593794 0.369023
O O6 0.463224 0.774052 0.481014
O O7 0.467097 0.862008 0.350115
O O8 0.301029 0.731134 0.281886
O O9 0.196422 0.751866 0.316415
O O10 0.328926 0.831282 0.431451
O O11 0.242808 0.975426 0.281101
O O12 0.141241 0.105814 0.295160
O O13 0.000000 0.086058 0.250000
O O14 0.064233 0.873781 0.228165
O O15 0.918601 0.396924 0.775837
O O16 0.056955 0.583629 0.410450
O O17 0.000000 0.461437 0.250000
#
# Coordination Sequence:
#
# PCOD8130538 Si02
#       8
#     8   8   8   8   8   8   8   8
#     4   9  17  33  58  82 101 133 190 239 271 304
#     4  11  19  35  56  83 105 138 189 233 271 311
#     4   9  18  31  56  81 105 139 182 233 270 314
#     4  11  23  35  50  78 119 152 178 216 281 340
#     4   9  18  33  53  79 106 140 183 226 277 317
#     4  10  19  35  54  81 108 147 179 218 276 330
#     4  11  21  35  56  80 109 144 182 224 275 330
#     4  10  17  34  57  84 106 135 184 237 272 307
#
# _framework density 19.995135000000001
#
# number of rings (size 3 to 8) (size 9 to 14) (size 15 to 20)
#    0.000    2.000    3.750    1.500    0.000    0.500 
#    0.000    1.250    0.000    3.000    0.000    0.000 
#    0.000    0.000    0.000    0.000    0.000    0.000 
#
# Total GULP energy -396482.735960 kJ/mol
# GULP energy per Si atom -12390.085499 kJ/mol
# Density = 1.994963 g / cm^3
# Si number density = 19.995135 Si / 1000 Ang^3
#
#
#
# Elastic Constant Matrix: (Units=GPa)
#
#
# Indices 1 2 3 4 5 6 
#
# 1 83.3195 21.8625 19.0764 0.0000 20.1621 0.0000
# 2 21.8625 35.7233 7.7482 0.0000 6.1707 0.0000
# 3 19.0764 7.7482 61.9580 0.0000 17.6813 0.0000
# 4 0.0000 0.0000 0.0000 24.7678 0.0000 6.0699
# 5 20.1621 6.1707 17.6813 0.0000 31.9165 0.0000
# 6 0.0000 0.0000 0.0000 6.0699 0.0000 21.7620
#
#
#
# Elastic Compliance Matrix: (Units=1/GPa)
#
#
# Indices 1 2 3 4 5 6 
#
# 1 0.016497 -0.008356 -0.001807 0.000000 -0.007805 0.000000
# 2 -0.008356 0.033497 -0.001514 0.000000 -0.000359 0.000000
# 3 -0.001807 -0.001514 0.019570 0.000000 -0.009407 0.000000
# 4 0.000000 0.000000 0.000000 0.043337 0.000000 -0.012088
# 5 -0.007805 -0.000359 -0.009407 0.000000 0.041543 0.000000
# 6 0.000000 0.000000 0.000000 -0.012088 0.000000 0.049323
#
#
# Mechanical properties :
#
#
# Convention : Reuss Voigt Hill
#
# Bulk Modulus (GPa) = 21.64002 30.93057 26.28529
# Shear Modulus (GPa) = 20.61644 24.51018 22.56331
#
# Velocity S-wave (km/s) = 3.21452 3.50495 3.36287
# Velocity P-wave (km/s) = 4.96222 5.64643 5.31535
#
# Compressibility (1/GPa) = 0.04621068
#
# Stress axis : x y z
#
# Youngs Moduli (GPa) = 60.61753 29.85339 51.09782
#
# Poissons Ratio (x) = 0.24945 0.09234
# Poissons Ratio (y) = 0.50651 0.07735
# Poissons Ratio (z) = 0.10954 0.04519
#
# Static dielectric constant tensor:
#      x y z
#    x 3.605890 0.000000 0.515220 
#    y 0.000000 3.612780 0.000000 
#    z 0.515220 0.000000 3.714460 
# 
# 
# High freq. dielectric constant tensor:
#      x y z
#    x 1.757210 0.000000 0.044290 
#    y 0.000000 1.774080 0.000000 
#    z 0.044290 0.000000 1.766500 
# 
# From -- ./inp_files/251916.got.cif
#   From: 2010.06.25/outbox.cif.g09.slc.cpg/sg15_126_cif.got.tgz:251916.got - 2010.06.28 07:06:18.
