data_PCOD8130136
_publ_section_title
;
Structure prediction by ZEFSAII (Michael W. Deem and Ramdas Pophale) SiO2 
 PCOD8130136
Probable space group: C 2/C
;
_chemical_formula_sum "Si O2"
_cell_formula_units_Z 56
_cell_length_a 13.312858
_cell_length_b 20.276497
_cell_length_c 23.055937
_cell_angle_alpha 90.000000
_cell_angle_beta 148.724364
_cell_angle_gamma 90.000000
_cell_volume 3231.057218
_symmetry_space_group_name_H-M "C 2/C"
_symmetry_group_IT_number 15
_symmetry_cell_setting 'monoclinic'
loop_
_space_group_symop_operation_xyz
x,y,z
-x,y,1/2-z
-x,-y,-z
x,-y,1/2+z
1/2+x,1/2+y,z
1/2-x,1/2+y,1/2-z
1/2-x,1/2-y,-z
1/2+x,1/2-y,1/2+z
loop_
_atom_site_type_symbol
_atom_site_label
_atom_site_fract_x
_atom_site_fract_y
_atom_site_fract_z
Si Si1 0.468997 0.598586 0.169640
Si Si2 0.902700 0.684625 0.639791
Si Si3 0.074040 0.044623 0.985569
Si Si4 0.212268 0.633728 0.331006
Si Si5 0.746395 0.513996 0.238256
Si Si6 0.493936 0.716432 0.399660
Si Si7 0.139485 0.547217 0.937376
O O1 0.500000 0.621607 0.250000
O O2 0.637945 0.547478 0.238182
O O3 0.480859 0.661652 0.136103
O O4 0.258606 0.566715 0.053753
O O5 0.688176 0.717733 0.534985
O O6 0.027374 0.715570 0.647292
O O7 0.885894 0.606812 0.620647
O O8 0.000000 0.698061 0.750000
O O9 0.144528 0.115663 0.044339
O O10 0.888995 0.046395 0.851519
O O11 0.255945 0.010959 0.045077
O O12 0.000000 0.000000 0.000000
O O13 0.203230 0.569216 0.285514
O O14 0.304838 0.698044 0.344942
O O15 0.000000 0.652660 0.250000
O O16 0.935262 0.480404 0.357586
#
# Coordination Sequence:
#
# PCOD8130136 Si02
#       7
#     8   8   8   8   8   8   8
#     4   9  18  33  49  64 100 137 162 206 241 295
#     4  10  20  31  52  72 100 131 159 216 252 286
#     4   9  17  26  43  73 106 126 147 199 262 298
#     4  10  17  29  51  71 102 136 154 207 253 302
#     4   9  18  28  44  75 103 120 163 206 248 310
#     4   9  20  35  46  77  96 125 183 197 244 302
#     4  10  19  29  46  78 101 122 166 201 255 307
#
# _framework density 17.331786999999998
#
# number of rings (size 3 to 8) (size 9 to 14) (size 15 to 20)
#    0.000    2.571    1.429    3.000    6.000    0.571 
#    0.000    0.000    0.000    1.714    0.000    0.000 
#    0.000    0.000    0.000    0.000    0.000    0.000 
#
# Total GULP energy -346940.766881 kJ/mol
# GULP energy per Si atom -12390.741674 kJ/mol
# Density = 1.729234 g / cm^3
# Si number density = 17.331787 Si / 1000 Ang^3
#
#
#
# Elastic Constant Matrix: (Units=GPa)
#
#
# Indices 1 2 3 4 5 6 
#
# 1 68.1605 17.6498 54.5973 -0.0002 1.6007 0.0000
# 2 17.6498 29.2589 24.0104 -0.0016 3.1427 -0.0005
# 3 54.5973 24.0104 113.4370 -0.0074 8.0913 -0.0014
# 4 -0.0002 -0.0016 -0.0074 18.9936 -0.0009 6.3111
# 5 1.6007 3.1427 8.0913 -0.0009 32.2520 0.0000
# 6 0.0000 -0.0005 -0.0014 6.3111 0.0000 11.5558
#
#
#
# Elastic Compliance Matrix: (Units=1/GPa)
#
#
# Indices 1 2 3 4 5 6 
#
# 1 0.024923 -0.006406 -0.010789 -0.000005 0.002094 0.000001
# 2 -0.006406 0.043119 -0.005872 0.000001 -0.002411 0.000001
# 3 -0.010789 -0.005872 0.015448 0.000006 -0.002768 -0.000002
# 4 -0.000005 0.000001 0.000006 0.064322 0.000000 -0.035129
# 5 0.002094 -0.002411 -0.002768 0.000000 0.031831 -0.000001
# 6 0.000001 0.000001 -0.000002 -0.035129 -0.000001 0.105722
#
#
# Mechanical properties :
#
#
# Convention : Reuss Voigt Hill
#
# Bulk Modulus (GPa) = 26.76810 44.81905 35.79357
# Shear Modulus (GPa) = 14.53700 20.20021 17.36861
#
# Velocity S-wave (km/s) = 2.89926 3.41765 3.16907
# Velocity P-wave (km/s) = 5.16581 6.44122 5.83845
#
# Compressibility (1/GPa) = 0.03735791
#
# Stress axis : x y z
#
# Youngs Moduli (GPa) = 40.12398 23.19162 64.73151
#
# Poissons Ratio (x) = 0.14855 0.69838
# Poissons Ratio (y) = 0.25701 0.38009
# Poissons Ratio (z) = 0.43289 0.13618
#
# Static dielectric constant tensor:
#      x y z
#    x 3.182670 0.000000 -0.039070 
#    y 0.000000 3.186620 0.000000 
#    z -0.039070 0.000000 3.511010 
# 
# 
# High freq. dielectric constant tensor:
#      x y z
#    x 1.645490 0.000000 0.003900 
#    y 0.000000 1.640630 0.000000 
#    z 0.003900 0.000000 1.677710 
# 
# From -- ./inp_files/271170.got.cif
#   From: 2010.06.25/outbox.cif.g09.slc.cpg/sg15_136_cif.got.tgz:271170.got - 2010.06.28 07:06:18.
