data_PCOD8130525
_publ_section_title
;
Structure prediction by ZEFSAII (Michael W. Deem and Ramdas Pophale) SiO2 
 PCOD8130525
Probable space group: C 2/C
;
_chemical_formula_sum "Si O2"
_cell_formula_units_Z 44
_cell_length_a 12.878303
_cell_length_b 18.713506
_cell_length_c 12.484102
_cell_angle_alpha 90.000000
_cell_angle_beta 125.166723
_cell_angle_gamma 90.000000
_cell_volume 2459.506669
_symmetry_space_group_name_H-M "C 2/C"
_symmetry_group_IT_number 15
_symmetry_cell_setting 'monoclinic'
loop_
_space_group_symop_operation_xyz
x,y,z
-x,y,1/2-z
-x,-y,-z
x,-y,1/2+z
1/2+x,1/2+y,z
1/2-x,1/2+y,1/2-z
1/2-x,1/2-y,-z
1/2+x,1/2-y,1/2+z
loop_
_atom_site_type_symbol
_atom_site_label
_atom_site_fract_x
_atom_site_fract_y
_atom_site_fract_z
Si Si1 0.000000 0.538229 0.250000
Si Si2 0.607705 0.930717 0.478099
Si Si3 0.766468 0.449079 0.731265
Si Si4 0.069965 0.683179 0.679273
Si Si5 0.461673 0.653392 0.351108
Si Si6 0.789787 0.900722 0.399186
O O1 0.023799 0.488520 0.366554
O O2 0.127913 0.581120 0.292411
O O3 0.663514 0.967028 0.616478
O O4 0.514002 0.864318 0.453124
O O5 0.724531 0.903600 0.476036
O O6 0.662842 0.389368 0.690396
O O7 0.701425 0.520999 0.648508
O O8 0.071993 0.764740 0.644389
O O9 0.213411 0.653115 0.775270
O O10 0.000000 0.672988 0.750000
O O11 0.500000 0.640783 0.250000
O O12 0.570500 0.629862 0.498138
#
# Coordination Sequence:
#
# PCOD8130525 Si02
#       6
#     4   8   8   8   8   8
#     4  10  20  34  54  84 108 138 194 230 248 318
#     4  10  17  34  56  82 105 144 183 224 271 309
#     4  11  21  34  57  80 111 148 182 223 269 314
#     4   9  19  32  54  83 113 139 173 228 277 327
#     4  11  22  33  55  85 116 143 168 221 293 333
#     4  10  20  36  51  84 119 134 182 224 268 335
#
# _framework density 17.889766999999999
#
# number of rings (size 3 to 8) (size 9 to 14) (size 15 to 20)
#    0.000    1.818    6.364    1.091    2.545    2.182 
#    0.000    0.000    0.000    1.091    2.364    0.000 
#    0.000    0.000    0.000    0.000    0.000    0.000 
#
# Total GULP energy -272672.509884 kJ/mol
# GULP energy per Si atom -12394.204995 kJ/mol
# Density = 1.784905 g / cm^3
# Si number density = 17.889767 Si / 1000 Ang^3
#
#
#
# Elastic Constant Matrix: (Units=GPa)
#
#
# Indices 1 2 3 4 5 6 
#
# 1 96.7753 53.1028 25.9699 0.0000 12.6231 0.0000
# 2 53.1028 89.4715 34.1826 0.0000 3.3733 0.0000
# 3 25.9699 34.1826 88.8046 0.0000 11.9574 0.0000
# 4 0.0000 0.0000 0.0000 28.5317 0.0000 3.8871
# 5 12.6231 3.3733 11.9574 0.0000 18.9834 0.0000
# 6 0.0000 0.0000 0.0000 3.8871 0.0000 29.7331
#
#
#
# Elastic Compliance Matrix: (Units=1/GPa)
#
#
# Indices 1 2 3 4 5 6 
#
# 1 0.016871 -0.009683 0.000079 0.000000 -0.009547 0.000000
# 2 -0.009683 0.018677 -0.005220 0.000000 0.006408 0.000000
# 3 0.000079 -0.005220 0.014346 0.000000 -0.008161 0.000000
# 4 0.000000 0.000000 0.000000 0.035684 0.000000 -0.004665
# 5 -0.009547 0.006408 -0.008161 0.000000 0.063028 0.000000
# 6 0.000000 0.000000 0.000000 -0.004665 0.000000 0.034242
#
#
# Mechanical properties :
#
#
# Convention : Reuss Voigt Hill
#
# Bulk Modulus (GPa) = 49.39571 55.72913 52.56242
# Shear Modulus (GPa) = 22.80556 26.23605 24.52080
#
# Velocity S-wave (km/s) = 3.57428 3.83370 3.70626
# Velocity P-wave (km/s) = 6.68619 7.12849 6.91088
#
# Compressibility (1/GPa) = 0.02024467
#
# Stress axis : x y z
#
# Youngs Moduli (GPa) = 59.27406 53.54262 69.70717
#
# Poissons Ratio (x) = 0.51847 -0.00552
# Poissons Ratio (y) = 0.57397 0.36388
# Poissons Ratio (z) = -0.00469 0.27950
#
# Static dielectric constant tensor:
#      x y z
#    x 3.271790 0.000000 0.175440 
#    y 0.000000 3.277290 0.000000 
#    z 0.175440 0.000000 3.379130 
# 
# 
# High freq. dielectric constant tensor:
#      x y z
#    x 1.677400 0.000000 0.025170 
#    y 0.000000 1.678260 0.000000 
#    z 0.025170 0.000000 1.692580 
# 
# From -- ./inp_files/87562.got.cif
#   From: 2010.06.25/outbox.cif.g09.slc.cpg/sg15_44_cif.got.tgz:87562.got - 2010.06.28 07:06:18.
