data_PCOD8130340
_publ_section_title
;
Structure prediction by ZEFSAII (Michael W. Deem and Ramdas Pophale) SiO2 
 PCOD8130340
Probable space group: C 2/C
;
_chemical_formula_sum "Si O2"
_cell_formula_units_Z 56
_cell_length_a 20.761251
_cell_length_b 20.586497
_cell_length_c 15.222917
_cell_angle_alpha 90.000000
_cell_angle_beta 26.435549
_cell_angle_gamma 90.000000
_cell_volume 2896.543581
_symmetry_space_group_name_H-M "C 2/C"
_symmetry_group_IT_number 15
_symmetry_cell_setting 'monoclinic'
loop_
_space_group_symop_operation_xyz
x,y,z
-x,y,1/2-z
-x,-y,-z
x,-y,1/2+z
1/2+x,1/2+y,z
1/2-x,1/2+y,1/2-z
1/2-x,1/2-y,-z
1/2+x,1/2-y,1/2+z
loop_
_atom_site_type_symbol
_atom_site_label
_atom_site_fract_x
_atom_site_fract_y
_atom_site_fract_z
Si Si1 0.305202 0.396852 0.638856
Si Si2 0.530315 0.376280 0.892713
Si Si3 0.733470 0.547062 0.837853
Si Si4 0.000000 0.916558 0.250000
Si Si5 0.191382 0.020040 0.086133
Si Si6 0.087877 0.743890 0.728497
Si Si7 0.000000 0.456238 0.250000
Si Si8 0.001247 0.620043 0.926976
O O1 0.412455 0.365719 0.579002
O O2 0.277370 0.474088 0.685542
O O3 0.378630 0.378231 0.454638
O O4 0.146884 0.364898 0.839581
O O5 0.644164 0.424975 0.710317
O O6 0.525090 0.309677 0.845865
O O7 0.370019 0.406667 0.092954
O O8 0.897112 0.574775 0.635352
O O9 0.677337 0.549884 0.006144
O O10 0.084722 0.958525 0.221122
O O11 0.357545 0.999782 0.905294
O O12 0.250000 0.750000 0.500000
O O13 0.000000 0.723305 0.750000
O O14 0.078623 0.688508 0.814113
O O15 0.032607 0.412808 0.125117
#
# Coordination Sequence:
#
# PCOD8130340 Si02
#       8
#     8   8   8   4   8   8   4   8
#     4  11  22  37  58  79 111 149 202 247 297 342
#     4  12  20  34  56  83 115 155 195 235 290 359
#     4  10  21  34  53  81 115 152 193 242 287 345
#     4  10  22  38  55  80 108 149 198 258 288 328
#     4  10  17  32  51  78 113 149 186 228 290 343
#     4  12  23  36  56  89 128 162 187 224 284 367
#     4  10  18  30  49  80 114 151 178 216 272 356
#     4  11  21  36  54  83 120 156 190 225 289 353
#
# _framework density 19.333387999999999
#
# number of rings (size 3 to 8) (size 9 to 14) (size 15 to 20)
#    0.000    1.143    5.000    5.143    0.000    0.000 
#    0.000    0.000    0.000    0.857    0.000    0.000 
#    0.000    0.000    0.000    0.000    0.000    0.000 
#
# Total GULP energy -347155.311236 kJ/mol
# GULP energy per Si atom -12398.403973 kJ/mol
# Density = 1.928938 g / cm^3
# Si number density = 19.333388 Si / 1000 Ang^3
#
#
#
# Elastic Constant Matrix: (Units=GPa)
#
#
# Indices 1 2 3 4 5 6 
#
# 1 61.8460 8.3427 28.1377 0.0005 -19.8681 -0.0052
# 2 8.3427 47.6642 19.8837 0.0034 0.0537 -0.0054
# 3 28.1377 19.8837 124.2503 0.0003 -13.0235 -0.0008
# 4 0.0005 0.0034 0.0003 26.0023 0.0029 -0.5601
# 5 -19.8681 0.0537 -13.0235 0.0029 33.5385 0.0014
# 6 -0.0052 -0.0054 -0.0008 -0.5601 0.0014 18.7304
#
#
#
# Elastic Compliance Matrix: (Units=1/GPa)
#
#
# Indices 1 2 3 4 5 6 
#
# 1 0.021729 -0.002433 -0.003317 -0.000001 0.011588 0.000004
# 2 -0.002433 0.022825 -0.003395 -0.000002 -0.002796 0.000006
# 3 -0.003317 -0.003395 0.009525 0.000000 0.001739 -0.000002
# 4 -0.000001 -0.000002 0.000000 0.038483 -0.000004 0.001151
# 5 0.011588 -0.002796 0.001739 -0.000004 0.037361 0.000000
# 6 0.000004 0.000006 -0.000002 0.001151 0.000000 0.053424
#
#
# Mechanical properties :
#
#
# Convention : Reuss Voigt Hill
#
# Bulk Modulus (GPa) = 27.94031 38.49874 33.21952
# Shear Modulus (GPa) = 23.41198 27.48066 25.44632
#
# Velocity S-wave (km/s) = 3.48366 3.77425 3.63186
# Velocity P-wave (km/s) = 5.53755 6.24096 5.89975
#
# Compressibility (1/GPa) = 0.03579059
#
# Stress axis : x y z
#
# Youngs Moduli (GPa) = 46.02130 43.81113 104.98708
#
# Poissons Ratio (x) = 0.10658 0.34822
# Poissons Ratio (y) = 0.11195 0.35642
# Poissons Ratio (z) = 0.15264 0.14873
#
# Static dielectric constant tensor:
#      x y z
#    x 3.614810 -0.000010 -0.234540 
#    y -0.000010 3.251120 0.000010 
#    z -0.234540 0.000010 3.712040 
# 
# 
# High freq. dielectric constant tensor:
#      x y z
#    x 1.751000 0.000000 -0.021510 
#    y 0.000000 1.703160 0.000000 
#    z -0.021510 0.000000 1.761100 
# 
# From -- ./inp_files/57827.got.cif
#   From: 2010.06.25/outbox.cif.g09.slc.cpg/sg15_29_cif.got.tgz:57827.got - 2010.06.28 07:06:18.
