data_PCOD8130334
_publ_section_title
;
Structure prediction by ZEFSAII (Michael W. Deem and Ramdas Pophale) SiO2 
 PCOD8130334
Probable space group: C 2/C
;
_chemical_formula_sum "Si O2"
_cell_formula_units_Z 60
_cell_length_a 25.614709
_cell_length_b 14.030818
_cell_length_c 18.176803
_cell_angle_alpha 90.000000
_cell_angle_beta 28.600725
_cell_angle_gamma 90.000000
_cell_volume 3127.202739
_symmetry_space_group_name_H-M "C 2/C"
_symmetry_group_IT_number 15
_symmetry_cell_setting 'monoclinic'
loop_
_space_group_symop_operation_xyz
x,y,z
-x,y,1/2-z
-x,-y,-z
x,-y,1/2+z
1/2+x,1/2+y,z
1/2-x,1/2+y,1/2-z
1/2-x,1/2-y,-z
1/2+x,1/2-y,1/2+z
loop_
_atom_site_type_symbol
_atom_site_label
_atom_site_fract_x
_atom_site_fract_y
_atom_site_fract_z
Si Si1 0.810091 0.019558 0.490766
Si Si2 0.199545 0.871694 0.292837
Si Si3 0.210725 0.144962 0.211263
Si Si4 0.646758 0.852247 0.269743
Si Si5 0.568915 0.794056 0.026225
Si Si6 0.846984 0.955693 0.292618
Si Si7 0.500000 0.328159 0.750000
Si Si8 0.098614 0.057812 0.479233
O O1 0.697293 0.070910 0.651352
O O2 0.792856 0.954069 0.440179
O O3 0.896257 0.103867 0.370132
O O4 0.849655 0.945835 0.503845
O O5 0.314318 0.878637 0.195180
O O6 0.136737 0.775026 0.388498
O O7 0.219639 0.885647 0.180418
O O8 0.117540 0.956159 0.417036
O O9 0.189221 0.246133 0.199260
O O10 0.156840 0.065117 0.228008
O O11 0.156419 0.140900 0.360054
O O12 0.342072 0.130546 0.053308
O O13 0.516906 0.852367 0.417811
O O14 0.510551 0.737903 0.164819
O O15 0.971120 0.920370 0.142844
#
# Coordination Sequence:
#
# PCOD8130334 Si02
#       8
#     8   8   8   8   8   8   4   8
#     4  11  20  32  51  83 107 135 169 217 271 308
#     4   9  18  34  47  73  98 137 179 205 248 312
#     4  10  20  31  51  78  98 140 180 206 258 317
#     4  10  20  34  50  73 110 139 166 215 258 313
#     4  11  21  33  51  75 110 141 169 211 261 319
#     4  11  19  30  54  74 103 135 173 223 262 298
#     4  12  18  32  50  78 116 130 164 216 266 320
#     4  10  17  32  50  73 104 133 173 217 259 306
#
# _framework density 19.186477
#
# number of rings (size 3 to 8) (size 9 to 14) (size 15 to 20)
#    0.000    1.600    5.333    4.000    1.867    1.067 
#    0.000    6.000    0.000    3.200    0.000    1.867 
#    0.000    0.000    0.000    0.000    0.000    0.267 
#
# Total GULP energy -371852.188272 kJ/mol
# GULP energy per Si atom -12395.072942 kJ/mol
# Density = 1.914281 g / cm^3
# Si number density = 19.186477 Si / 1000 Ang^3
#
#
#
# Elastic Constant Matrix: (Units=GPa)
#
#
# Indices 1 2 3 4 5 6 
#
# 1 107.1542 7.6966 47.8978 0.0000 11.5979 0.0000
# 2 7.6966 15.1854 6.7318 0.0000 3.6126 0.0000
# 3 47.8978 6.7318 64.1390 0.0000 -3.2505 0.0000
# 4 0.0000 0.0000 0.0000 28.8248 0.0000 4.5085
# 5 11.5979 3.6126 -3.2505 0.0000 40.9994 0.0000
# 6 0.0000 0.0000 0.0000 4.5085 0.0000 23.2808
#
#
#
# Elastic Compliance Matrix: (Units=1/GPa)
#
#
# Indices 1 2 3 4 5 6 
#
# 1 0.015050 -0.001400 -0.011347 0.000000 -0.005034 0.000000
# 2 -0.001400 0.071072 -0.006738 0.000000 -0.006400 0.000000
# 3 -0.011347 -0.006738 0.025066 0.000000 0.005791 0.000000
# 4 0.000000 0.000000 0.000000 0.035776 0.000000 -0.006928
# 5 -0.005034 -0.006400 0.005791 0.000000 0.026838 0.000000
# 6 0.000000 0.000000 0.000000 -0.006928 0.000000 0.044296
#
#
# Mechanical properties :
#
#
# Convention : Reuss Voigt Hill
#
# Bulk Modulus (GPa) = 13.84722 34.57011 24.20866
# Shear Modulus (GPa) = 17.78473 26.89784 22.34128
#
# Velocity S-wave (km/s) = 3.04787 3.74828 3.41607
# Velocity P-wave (km/s) = 4.42932 6.06547 5.31078
#
# Compressibility (1/GPa) = 0.07221667
#
# Stress axis : x y z
#
# Youngs Moduli (GPa) = 66.44566 14.07022 39.89521
#
# Poissons Ratio (x) = 0.01970 0.45270
# Poissons Ratio (y) = 0.09304 0.26882
# Poissons Ratio (z) = 0.75397 0.09481
#
# Static dielectric constant tensor:
#      x y z
#    x 3.922810 0.000000 0.134900 
#    y 0.000000 3.288470 0.000000 
#    z 0.134900 0.000000 3.554010 
# 
# 
# High freq. dielectric constant tensor:
#      x y z
#    x 1.760320 0.000000 -0.001110 
#    y 0.000000 1.706850 0.000000 
#    z -0.001110 0.000000 1.720190 
# 
# From -- ./inp_files/215448.got.cif
#   From: 2010.06.25/outbox.cif.g09.slc.cpg/sg15_108_cif.got.tgz:215448.got - 2010.06.28 07:06:18.
