data_PCOD8130481
_publ_section_title
;
Structure prediction by ZEFSAII (Michael W. Deem and Ramdas Pophale) SiO2 
 PCOD8130481
Probable space group: C 2/C
;
_chemical_formula_sum "Si O2"
_cell_formula_units_Z 64
_cell_length_a 15.180460
_cell_length_b 13.960446
_cell_length_c 23.792237
_cell_angle_alpha 90.000000
_cell_angle_beta 139.616090
_cell_angle_gamma 90.000000
_cell_volume 3266.867466
_symmetry_space_group_name_H-M "C 2/C"
_symmetry_group_IT_number 15
_symmetry_cell_setting 'monoclinic'
loop_
_space_group_symop_operation_xyz
x,y,z
-x,y,1/2-z
-x,-y,-z
x,-y,1/2+z
1/2+x,1/2+y,z
1/2-x,1/2+y,1/2-z
1/2-x,1/2-y,-z
1/2+x,1/2-y,1/2+z
loop_
_atom_site_type_symbol
_atom_site_label
_atom_site_fract_x
_atom_site_fract_y
_atom_site_fract_z
Si Si1 0.730103 0.467187 0.169406
Si Si2 0.713746 0.687323 0.928889
Si Si3 0.485811 0.917550 0.537942
Si Si4 0.450829 0.223750 0.517838
Si Si5 0.691994 0.656117 0.096264
Si Si6 0.721382 0.391036 0.045120
Si Si7 0.556541 0.555630 0.923536
Si Si8 0.989686 0.433086 0.361873
O O1 0.766264 0.577322 0.171067
O O2 0.682435 0.413597 0.090309
O O3 0.604597 0.459489 0.151502
O O4 0.860006 0.415744 0.259592
O O5 0.697024 0.763129 0.869135
O O6 0.584156 0.620058 0.880804
O O7 0.750000 0.750000 0.000000
O O8 0.830998 0.614090 0.968615
O O9 0.572313 0.826350 0.555403
O O10 0.500000 0.000000 0.500000
O O11 0.528644 0.960067 0.619737
O O12 0.571407 0.300210 0.574500
O O13 0.315945 0.277154 0.476652
O O14 0.501521 0.143433 0.584839
O O15 0.622305 0.608302 0.008511
O O16 0.877571 0.419281 0.111902
O O17 0.629898 0.451543 0.956463
#
# Coordination Sequence:
#
# PCOD8130481 Si02
#       8
#     8   8   8   8   8   8   8   8
#     4  11  21  36  56  84 123 151 180 248 311 330
#     4   9  17  30  58  87 103 137 201 232 262 340
#     4   9  19  36  57  82 112 151 187 238 286 343
#     4  10  19  37  60  83 109 152 206 230 277 360
#     4   9  17  34  57  83 110 147 193 231 280 353
#     4  11  19  37  58  85 112 157 198 235 283 354
#     4  10  17  33  61  81 111 151 191 230 289 352
#     4  11  23  36  57  87 117 151 195 249 295 340
#
# _framework density 19.590633
#
# number of rings (size 3 to 8) (size 9 to 14) (size 15 to 20)
#    0.000    2.000    3.750    1.500    0.000    0.000 
#    2.250    0.000    2.750    6.000    0.000    0.000 
#    0.000    0.000    0.000    0.000    0.000    0.000 
#
# Total GULP energy -396419.711726 kJ/mol
# GULP energy per Si atom -12388.115991 kJ/mol
# Density = 1.954604 g / cm^3
# Si number density = 19.590633 Si / 1000 Ang^3
#
#
#
# Elastic Constant Matrix: (Units=GPa)
#
#
# Indices 1 2 3 4 5 6 
#
# 1 108.2383 46.3542 26.2468 0.0000 17.3193 0.0000
# 2 46.3542 106.1393 29.7997 0.0000 5.3036 0.0000
# 3 26.2468 29.7997 56.6109 0.0000 15.0862 0.0000
# 4 0.0000 0.0000 0.0000 16.6623 0.0000 1.7194
# 5 17.3193 5.3036 15.0862 0.0000 22.9212 0.0000
# 6 0.0000 0.0000 0.0000 1.7194 0.0000 42.1661
#
#
#
# Elastic Compliance Matrix: (Units=1/GPa)
#
#
# Indices 1 2 3 4 5 6 
#
# 1 0.012884 -0.004860 -0.001359 0.000000 -0.007716 0.000000
# 2 -0.004860 0.012934 -0.005744 0.000000 0.004460 0.000000
# 3 -0.001359 -0.005744 0.025091 0.000000 -0.014158 0.000000
# 4 0.000000 0.000000 0.000000 0.060269 0.000000 -0.002458
# 5 -0.007716 0.004460 -0.014158 0.000000 0.057745 0.000000
# 6 0.000000 0.000000 0.000000 -0.002458 0.000000 0.023816
#
#
# Mechanical properties :
#
#
# Convention : Reuss Voigt Hill
#
# Bulk Modulus (GPa) = 37.05867 52.86554 44.96210
# Shear Modulus (GPa) = 22.15727 27.58911 24.87319
#
# Velocity S-wave (km/s) = 3.36670 3.75678 3.56708
# Velocity P-wave (km/s) = 5.83699 6.77211 6.32187
#
# Compressibility (1/GPa) = 0.02698424
#
# Stress axis : x y z
#
# Youngs Moduli (GPa) = 77.61292 77.31719 39.85485
#
# Poissons Ratio (x) = 0.37575 0.05417
# Poissons Ratio (y) = 0.37719 0.22891
# Poissons Ratio (z) = 0.10548 0.44407
#
# Static dielectric constant tensor:
#      x y z
#    x 3.986130 0.000000 -0.105690 
#    y 0.000000 4.130730 0.000000 
#    z -0.105690 0.000000 2.952660 
# 
# 
# High freq. dielectric constant tensor:
#      x y z
#    x 1.783760 0.000000 0.002470 
#    y 0.000000 1.781410 0.000000 
#    z 0.002470 0.000000 1.691300 
# 
# From -- ./inp_files/274359.got.cif
#   From: 2010.06.25/outbox.cif.g09.slc.cpg/sg15_138_cif.got.tgz:274359.got - 2010.06.28 07:06:18.
