data_PCOD8130990
_publ_section_title
;
Structure prediction by ZEFSAII (Michael W. Deem and Ramdas Pophale) SiO2 
 PCOD8130990
Probable space group: C 2/C
;
_chemical_formula_sum "Si O2"
_cell_formula_units_Z 64
_cell_length_a 13.496142
_cell_length_b 27.854123
_cell_length_c 11.265640
_cell_angle_alpha 90.000000
_cell_angle_beta 131.712217
_cell_angle_gamma 90.000000
_cell_volume 3161.423436
_symmetry_space_group_name_H-M "C 2/C"
_symmetry_group_IT_number 15
_symmetry_cell_setting 'monoclinic'
loop_
_space_group_symop_operation_xyz
x,y,z
-x,y,1/2-z
-x,-y,-z
x,-y,1/2+z
1/2+x,1/2+y,z
1/2-x,1/2+y,1/2-z
1/2-x,1/2-y,-z
1/2+x,1/2-y,1/2+z
loop_
_atom_site_type_symbol
_atom_site_label
_atom_site_fract_x
_atom_site_fract_y
_atom_site_fract_z
Si Si1 0.533979 0.112325 0.015638
Si Si2 0.153716 0.140044 0.580433
Si Si3 0.141120 0.981474 0.662720
Si Si4 0.734994 0.073619 0.646626
Si Si5 0.086256 0.698528 0.701146
Si Si6 0.141216 0.435852 0.821792
Si Si7 0.201342 0.895589 0.870175
Si Si8 0.574919 0.304922 0.686264
O O1 0.603773 0.106628 0.200085
O O2 0.640549 0.093878 0.002651
O O3 0.407207 0.077277 0.899951
O O4 0.488525 0.167431 0.959583
O O5 0.163053 0.109852 0.708672
O O6 0.276237 0.174708 0.653890
O O7 0.142419 0.104525 0.456448
O O8 0.023355 0.172448 0.490051
O O9 0.251593 0.972851 0.647989
O O10 0.119737 0.934033 0.725795
O O11 0.205148 0.020706 0.800522
O O12 0.000000 0.000000 0.500000
O O13 0.713583 0.088335 0.492606
O O14 0.119244 0.752057 0.678462
O O15 0.000000 0.700455 0.750000
O O16 0.000000 0.460791 0.750000
O O17 0.193292 0.842746 0.801595
O O18 0.500000 0.299133 0.750000
#
# Coordination Sequence:
#
# PCOD8130990 Si02
#       8
#     8   8   8   8   8   8   8   8
#     4   9  19  36  58  83 112 152 190 239 292 349
#     4  10  20  35  53  85 117 149 193 244 294 355
#     4  11  24  40  62  87 116 159 200 245 298 352
#     4  10  22  38  58  83 114 154 199 237 294 343
#     4  10  18  30  56  86 112 150 188 236 303 359
#     4   9  21  41  59  85 114 155 197 241 292 351
#     4  10  20  35  56  81 119 149 192 247 294 354
#     4   9  20  31  51  83 121 151 182 238 302 363
#
# _framework density 20.244045
#
# number of rings (size 3 to 8) (size 9 to 14) (size 15 to 20)
#    0.000    2.250    1.250    0.750    3.500    6.500 
#    0.000    0.000    0.000    0.750   16.250    0.000 
#    0.000    0.000    0.000    0.000    0.000    0.000 
#
# Total GULP energy -396544.047303 kJ/mol
# GULP energy per Si atom -12392.001478 kJ/mol
# Density = 2.019797 g / cm^3
# Si number density = 20.244045 Si / 1000 Ang^3
#
#
#
# Elastic Constant Matrix: (Units=GPa)
#
#
# Indices 1 2 3 4 5 6 
#
# 1 52.8744 21.4875 26.2585 0.0000 2.9259 0.0000
# 2 21.4875 111.7437 52.5030 0.0000 -3.6874 0.0000
# 3 26.2585 52.5030 121.8796 0.0000 -6.1150 0.0000
# 4 0.0000 0.0000 0.0000 26.9111 0.0000 7.4971
# 5 2.9259 -3.6874 -6.1150 0.0000 25.3581 0.0000
# 6 0.0000 0.0000 0.0000 7.4971 0.0000 20.8515
#
#
#
# Elastic Compliance Matrix: (Units=1/GPa)
#
#
# Indices 1 2 3 4 5 6 
#
# 1 0.022078 -0.002566 -0.003844 0.000000 -0.003848 0.000000
# 2 -0.002566 0.011524 -0.004365 0.000000 0.000919 0.000000
# 3 -0.003844 -0.004365 0.011037 0.000000 0.002470 0.000000
# 4 0.000000 0.000000 0.000000 0.041296 0.000000 -0.014848
# 5 -0.003848 0.000919 0.002470 0.000000 0.040608 0.000000
# 6 0.000000 0.000000 0.000000 -0.014848 0.000000 0.053297
#
#
# Mechanical properties :
#
#
# Convention : Reuss Voigt Hill
#
# Bulk Modulus (GPa) = 43.31291 54.11064 48.71177
# Shear Modulus (GPa) = 23.91353 27.04073 25.47713
#
# Velocity S-wave (km/s) = 3.44068 3.65874 3.55138
# Velocity P-wave (km/s) = 6.10133 6.68099 6.39773
#
# Compressibility (1/GPa) = 0.02308780
#
# Stress axis : x y z
#
# Youngs Moduli (GPa) = 45.29486 86.77663 90.60105
#
# Poissons Ratio (x) = 0.22268 0.34828
# Poissons Ratio (y) = 0.11623 0.39549
# Poissons Ratio (z) = 0.17412 0.37880
#
# Static dielectric constant tensor:
#      x y z
#    x 3.569570 0.000000 0.177360 
#    y 0.000000 3.863420 0.000000 
#    z 0.177360 0.000000 3.827640 
# 
# 
# High freq. dielectric constant tensor:
#      x y z
#    x 1.764010 0.000000 0.021130 
#    y 0.000000 1.776910 0.000000 
#    z 0.021130 0.000000 1.802960 
# 
# From -- ./inp_files/101650.got.cif
#   From: 2010.06.25/outbox.cif.g09.slc.cpg/sg15_51_cif.got.tgz:101650.got - 2010.06.28 07:06:18.
