data_PCOD8130041
_publ_section_title
;
Structure prediction by ZEFSAII (Michael W. Deem and Ramdas Pophale) SiO2 
 PCOD8130041
Probable space group: C 2/C
;
_chemical_formula_sum "Si O2"
_cell_formula_units_Z 64
_cell_length_a 17.959798
_cell_length_b 26.645989
_cell_length_c 16.726025
_cell_angle_alpha 90.000000
_cell_angle_beta 31.830446
_cell_angle_gamma 90.000000
_cell_volume 4221.552580
_symmetry_space_group_name_H-M "C 2/C"
_symmetry_group_IT_number 15
_symmetry_cell_setting 'monoclinic'
loop_
_space_group_symop_operation_xyz
x,y,z
-x,y,1/2-z
-x,-y,-z
x,-y,1/2+z
1/2+x,1/2+y,z
1/2-x,1/2+y,1/2-z
1/2-x,1/2-y,-z
1/2+x,1/2-y,1/2+z
loop_
_atom_site_type_symbol
_atom_site_label
_atom_site_fract_x
_atom_site_fract_y
_atom_site_fract_z
Si Si1 0.351935 0.037195 0.903219
Si Si2 0.110993 0.727485 0.584645
Si Si3 0.424791 0.876163 0.455621
Si Si4 0.531607 0.667126 0.128071
Si Si5 0.257721 0.097761 0.847431
Si Si6 0.465504 0.553614 0.566611
Si Si7 0.166848 0.901609 0.777195
Si Si8 0.892605 0.995334 0.777271
O O1 0.500000 0.009396 0.750000
O O2 0.383161 0.090418 0.917464
O O3 0.275024 0.049663 0.889722
O O4 0.261776 0.999974 0.041248
O O5 0.250000 0.750000 0.500000
O O6 0.132990 0.680372 0.505954
O O7 0.042540 0.773773 0.599117
O O8 0.000000 0.706527 0.750000
O O9 0.591679 0.880343 0.320491
O O10 0.336679 0.897128 0.613780
O O11 0.500000 0.656925 0.250000
O O12 0.400868 0.649198 0.194402
O O13 0.677772 0.640949 0.969341
O O14 0.170018 0.079424 0.850784
O O15 0.500000 0.500000 0.500000
O O16 0.607163 0.587778 0.421666
O O17 0.429113 0.545864 0.693744
O O18 0.101144 0.946270 0.783519
O O19 0.000000 0.986544 0.750000
#
# Coordination Sequence:
#
# PCOD8130041 Si02
#       8
#     8   8   8   8   8   8   8   8
#     4   9  16  26  39  56  78 107 137 164 199 242
#     4  11  19  25  36  58  85 113 150 185 200 221
#     4  10  18  28  40  57  83 115 146 172 200 233
#     4  10  17  25  38  55  78 113 147 173 197 226
#     4  10  18  29  42  57  82 113 140 172 208 246
#     4   9  18  30  43  60  76  99 138 176 212 252
#     4   9  17  29  42  57  79 108 139 168 203 245
#     4  10  17  28  45  60  75  98 132 172 208 249
#
# _framework density 15.160299
#
# number of rings (size 3 to 8) (size 9 to 14) (size 15 to 20)
#    0.000    2.250    0.000    8.250    0.000    0.000 
#    0.000   11.250    0.000    0.000    0.000    0.000 
#    0.000    0.000    0.000   18.000    0.000    1.000 
#
# Total GULP energy -396485.334279 kJ/mol
# GULP energy per Si atom -12390.166696 kJ/mol
# Density = 1.512579 g / cm^3
# Si number density = 15.160299 Si / 1000 Ang^3
#
#
#
# Elastic Constant Matrix: (Units=GPa)
#
#
# Indices 1 2 3 4 5 6 
#
# 1 24.9072 15.9149 29.9492 -0.0235 -3.4015 0.0072
# 2 15.9149 52.8570 40.8901 -0.0372 3.1125 0.0146
# 3 29.9492 40.8901 135.7979 -0.0268 -9.1924 0.0148
# 4 -0.0235 -0.0372 -0.0268 20.5899 0.0077 0.7879
# 5 -3.4015 3.1125 -9.1924 0.0077 20.0602 -0.0012
# 6 0.0072 0.0146 0.0148 0.7879 -0.0012 13.5659
#
#
#
# Elastic Compliance Matrix: (Units=1/GPa)
#
#
# Indices 1 2 3 4 5 6 
#
# 1 0.059433 -0.011211 -0.009218 0.000033 0.007593 -0.000011
# 2 -0.011211 0.027911 -0.006557 0.000033 -0.009236 -0.000020
# 3 -0.009218 -0.006557 0.011697 -0.000009 0.004814 0.000000
# 4 0.000033 0.000033 -0.000009 0.048676 -0.000023 -0.002827
# 5 0.007593 -0.009236 0.004814 -0.000023 0.054777 0.000007
# 6 -0.000011 -0.000020 0.000000 -0.002827 0.000007 0.073879
#
#
# Mechanical properties :
#
#
# Convention : Reuss Voigt Hill
#
# Bulk Modulus (GPa) = 22.18794 43.00783 32.59788
# Shear Modulus (GPa) = 14.47733 19.29704 16.88719
#
# Velocity S-wave (km/s) = 3.09358 3.57160 3.34115
# Velocity P-wave (km/s) = 5.23714 6.74082 6.03599
#
# Compressibility (1/GPa) = 0.04506954
#
# Stress axis : x y z
#
# Youngs Moduli (GPa) = 16.82556 35.82829 85.49168
#
# Poissons Ratio (x) = 0.40168 0.78804
# Poissons Ratio (y) = 0.18863 0.56056
# Poissons Ratio (z) = 0.15509 0.23492
#
# Static dielectric constant tensor:
#      x y z
#    x 2.644400 -0.000190 -0.039150 
#    y -0.000190 2.885350 0.000170 
#    z -0.039150 0.000170 3.564480 
# 
# 
# High freq. dielectric constant tensor:
#      x y z
#    x 1.528370 -0.000010 -0.024200 
#    y -0.000010 1.551300 0.000010 
#    z -0.024200 0.000010 1.605840 
# 
# From -- ./inp_files/217001.got.cif
#   From: 2010.06.25/outbox.cif.g09.slc.cpg/sg15_109_cif.got.tgz:217001.got - 2010.06.28 07:06:18.
