data_PCOD8130708
_publ_section_title
;
Structure prediction by ZEFSAII (Michael W. Deem and Ramdas Pophale) SiO2 
 PCOD8130708
Probable space group: C 2/C
;
_chemical_formula_sum "Si O2"
_cell_formula_units_Z 56
_cell_length_a 9.176543
_cell_length_b 15.661145
_cell_length_c 23.703218
_cell_angle_alpha 90.000000
_cell_angle_beta 61.684903
_cell_angle_gamma 90.000000
_cell_volume 2998.931044
_symmetry_space_group_name_H-M "C 2/C"
_symmetry_group_IT_number 15
_symmetry_cell_setting 'monoclinic'
loop_
_space_group_symop_operation_xyz
x,y,z
-x,y,1/2-z
-x,-y,-z
x,-y,1/2+z
1/2+x,1/2+y,z
1/2-x,1/2+y,1/2-z
1/2-x,1/2-y,-z
1/2+x,1/2-y,1/2+z
loop_
_atom_site_type_symbol
_atom_site_label
_atom_site_fract_x
_atom_site_fract_y
_atom_site_fract_z
Si Si1 0.076144 0.062908 0.378517
Si Si2 0.243032 0.634760 0.057207
Si Si3 0.678027 0.835924 0.734781
Si Si4 0.097641 0.286467 0.871840
Si Si5 0.097980 0.113400 0.592218
Si Si6 0.316149 0.212951 0.621854
Si Si7 0.151673 0.220370 0.072270
O O1 0.204438 0.060897 0.407851
O O2 0.176204 0.096752 0.305528
O O3 0.925828 0.126435 0.421980
O O4 0.006273 0.970847 0.376631
O O5 0.314311 0.724975 0.066802
O O6 0.044268 0.643416 0.088106
O O7 0.321981 0.609580 0.983741
O O8 0.500000 0.874965 0.750000
O O9 0.691385 0.813127 0.797723
O O10 0.700355 0.751237 0.692160
O O11 0.231294 0.283198 0.895888
O O12 0.022896 0.192944 0.878085
O O13 0.243167 0.122570 0.613345
O O14 0.505493 0.209111 0.608775
O O15 0.250000 0.250000 0.000000
#
# Coordination Sequence:
#
# PCOD8130708 Si02
#       7
#     8   8   8   8   8   8   8
#     4  10  22  35  56  82 117 150 183 245 289 333
#     4   9  17  32  55  84 109 147 189 224 281 357
#     4  10  17  38  60  78 107 150 200 229 283 357
#     4  11  19  34  65  81 105 157 191 234 286 344
#     4  11  19  34  57  87 108 143 195 236 288 332
#     4   9  19  33  56  81 109 152 188 235 278 349
#     4  10  20  37  55  83 116 149 185 229 285 351
#
# _framework density 18.67332
#
# number of rings (size 3 to 8) (size 9 to 14) (size 15 to 20)
#    0.000    2.286    4.286    4.714    0.000    2.286 
#    0.000    7.143    6.286    0.000    0.000    0.000 
#    0.000    0.000    0.000    0.000    0.000    0.000 
#
# Total GULP energy -347048.270297 kJ/mol
# GULP energy per Si atom -12394.581082 kJ/mol
# Density = 1.863082 g / cm^3
# Si number density = 18.673320 Si / 1000 Ang^3
#
#
#
# Elastic Constant Matrix: (Units=GPa)
#
#
# Indices 1 2 3 4 5 6 
#
# 1 154.8357 47.1787 48.5128 -0.0001 4.9953 0.0001
# 2 47.1787 88.0574 47.9595 -0.0001 -4.4119 0.0001
# 3 48.5128 47.9595 142.5476 -0.0001 -0.0081 0.0001
# 4 -0.0001 -0.0001 -0.0001 13.9906 0.0001 -4.8026
# 5 4.9953 -4.4119 -0.0081 0.0001 31.7707 -0.0001
# 6 0.0001 0.0001 0.0001 -4.8026 -0.0001 37.0954
#
#
#
# Elastic Compliance Matrix: (Units=1/GPa)
#
#
# Indices 1 2 3 4 5 6 
#
# 1 0.008092 -0.003580 -0.001549 0.000000 -0.001770 0.000000
# 2 -0.003580 0.015607 -0.004032 0.000000 0.002729 0.000000
# 3 -0.001549 -0.004032 0.008899 0.000000 -0.000314 0.000000
# 4 0.000000 0.000000 0.000000 0.074801 0.000000 0.009684
# 5 -0.001770 0.002729 -0.000314 0.000000 0.032133 0.000000
# 6 0.000000 0.000000 0.000000 0.009684 0.000000 0.028211
#
#
# Mechanical properties :
#
#
# Convention : Reuss Voigt Hill
#
# Bulk Modulus (GPa) = 70.05598 74.74918 72.40258
# Shear Modulus (GPa) = 26.20190 32.69065 29.44628
#
# Velocity S-wave (km/s) = 3.74996 4.18863 3.97535
# Velocity P-wave (km/s) = 7.50651 7.96929 7.74136
#
# Compressibility (1/GPa) = 0.01427430
#
# Stress axis : x y z
#
# Youngs Moduli (GPa) = 123.57992 64.07229 112.36972
#
# Poissons Ratio (x) = 0.22939 0.17411
# Poissons Ratio (y) = 0.44244 0.45312
# Poissons Ratio (z) = 0.19148 0.25837
#
# Static dielectric constant tensor:
#      x y z
#    x 4.078770 0.000000 -0.308090 
#    y 0.000000 3.097100 0.000000 
#    z -0.308090 0.000000 3.710460 
# 
# 
# High freq. dielectric constant tensor:
#      x y z
#    x 1.735770 0.000000 -0.004110 
#    y 0.000000 1.679230 0.000000 
#    z -0.004110 0.000000 1.733140 
# 
# From -- ./inp_files/264563.got.cif
#   From: 2010.06.25/outbox.cif.g09.slc.cpg/sg15_133_cif.got.tgz:264563.got - 2010.06.28 07:06:18.
