data_PCOD8130904
_publ_section_title
;
Structure prediction by ZEFSAII (Michael W. Deem and Ramdas Pophale) SiO2 
 PCOD8130904
Probable space group: C 2/C
;
_chemical_formula_sum "Si O2"
_cell_formula_units_Z 40
_cell_length_a 13.787872
_cell_length_b 20.507540
_cell_length_c 14.129982
_cell_angle_alpha 90.000000
_cell_angle_beta 144.227945
_cell_angle_gamma 90.000000
_cell_volume 2335.516912
_symmetry_space_group_name_H-M "C 2/C"
_symmetry_group_IT_number 15
_symmetry_cell_setting 'monoclinic'
loop_
_space_group_symop_operation_xyz
x,y,z
-x,y,1/2-z
-x,-y,-z
x,-y,1/2+z
1/2+x,1/2+y,z
1/2-x,1/2+y,1/2-z
1/2-x,1/2-y,-z
1/2+x,1/2-y,1/2+z
loop_
_atom_site_type_symbol
_atom_site_label
_atom_site_fract_x
_atom_site_fract_y
_atom_site_fract_z
Si Si1 0.599635 0.162423 0.048500
Si Si2 0.923444 0.174905 0.791831
Si Si3 0.356571 0.726271 0.374429
Si Si4 0.539616 0.044015 0.890291
Si Si5 0.338287 0.069957 0.900914
O O1 0.497556 0.227683 0.938997
O O2 0.624471 0.115121 0.976704
O O3 0.486533 0.123106 0.036528
O O4 0.779951 0.179832 0.232639
O O5 0.792503 0.232829 0.698676
O O6 0.839659 0.104331 0.738824
O O7 0.000000 0.180941 0.750000
O O8 0.066251 0.180901 0.983377
O O9 0.500000 0.035726 0.750000
O O10 0.372535 0.038717 0.823250
O O11 0.661843 0.985553 0.018665
#
# Coordination Sequence:
#
# PCOD8130904 Si02
#       5
#     8   8   8   8   8
#     4   8  16  31  50  73  96 132 161 203 248 294
#     4  10  18  30  49  77 106 133 163 201 253 304
#     4   9  17  30  50  71 108 132 159 203 252 294
#     4   9  17  34  57  69  95 135 174 205 248 302
#     4   8  18  33  51  75  97 126 176 203 247 299
#
# _framework density 17.126829000000001
#
# number of rings (size 3 to 8) (size 9 to 14) (size 15 to 20)
#    1.200    2.000    0.000    0.600    0.000    1.600 
#    0.000    4.000    0.000    0.000    0.000    0.000 
#    0.000    0.000    0.000    0.000    0.000    0.000 
#
# Total GULP energy -247782.962005 kJ/mol
# GULP energy per Si atom -12389.148100 kJ/mol
# Density = 1.708785 g / cm^3
# Si number density = 17.126829 Si / 1000 Ang^3
#
#
#
# Elastic Constant Matrix: (Units=GPa)
#
#
# Indices 1 2 3 4 5 6 
#
# 1 44.5829 29.9994 47.8880 0.0000 -18.0469 0.0000
# 2 29.9994 71.4743 50.8472 0.0000 -12.2397 0.0000
# 3 47.8880 50.8472 127.7933 0.0000 -12.8036 0.0000
# 4 0.0000 0.0000 0.0000 27.7260 0.0000 0.0644
# 5 -18.0469 -12.2397 -12.8036 0.0000 27.1950 0.0000
# 6 0.0000 0.0000 0.0000 0.0644 0.0000 15.4704
#
#
#
# Elastic Compliance Matrix: (Units=1/GPa)
#
#
# Indices 1 2 3 4 5 6 
#
# 1 0.053236 -0.007879 -0.014305 0.000000 0.025047 0.000000
# 2 -0.007879 0.021461 -0.005397 0.000000 0.001890 0.000000
# 3 -0.014305 -0.005397 0.014839 0.000000 -0.004936 0.000000
# 4 0.000000 0.000000 0.000000 0.036068 0.000000 -0.000150
# 5 0.025047 0.001890 -0.004936 0.000000 0.051920 0.000000
# 6 0.000000 0.000000 0.000000 -0.000150 0.000000 0.064640
#
#
# Mechanical properties :
#
#
# Convention : Reuss Voigt Hill
#
# Bulk Modulus (GPa) = 29.09183 55.70220 42.39702
# Shear Modulus (GPa) = 16.19264 21.75267 18.97266
#
# Velocity S-wave (km/s) = 3.07816 3.56770 3.33193
# Velocity P-wave (km/s) = 5.44577 7.04026 6.29372
#
# Compressibility (1/GPa) = 0.03437391
#
# Stress axis : x y z
#
# Youngs Moduli (GPa) = 18.78442 46.59561 67.39172
#
# Poissons Ratio (x) = 0.36710 0.96402
# Poissons Ratio (y) = 0.14799 0.36375
# Poissons Ratio (z) = 0.26871 0.25150
#
# Static dielectric constant tensor:
#      x y z
#    x 2.797680 0.000000 0.082580 
#    y 0.000000 3.347580 0.000000 
#    z 0.082580 0.000000 3.075470 
# 
# 
# High freq. dielectric constant tensor:
#      x y z
#    x 1.621600 0.000000 0.001570 
#    y 0.000000 1.668100 0.000000 
#    z 0.001570 0.000000 1.646840 
# 
# From -- ./inp_files/91040.got.cif
#   From: 2010.06.25/outbox.cif.g09.slc.cpg/sg15_46_cif.got.tgz:91040.got - 2010.06.28 07:06:18.
