data_PCOD8130678
_publ_section_title
;
Structure prediction by ZEFSAII (Michael W. Deem and Ramdas Pophale) SiO2 
 PCOD8130678
Probable space group: C 2/C
;
_chemical_formula_sum "Si O2"
_cell_formula_units_Z 48
_cell_length_a 20.720009
_cell_length_b 9.652197
_cell_length_c 17.909934
_cell_angle_alpha 90.000000
_cell_angle_beta 43.927208
_cell_angle_gamma 90.000000
_cell_volume 2484.902144
_symmetry_space_group_name_H-M "C 2/C"
_symmetry_group_IT_number 15
_symmetry_cell_setting 'monoclinic'
loop_
_space_group_symop_operation_xyz
x,y,z
-x,y,1/2-z
-x,-y,-z
x,-y,1/2+z
1/2+x,1/2+y,z
1/2-x,1/2+y,1/2-z
1/2-x,1/2-y,-z
1/2+x,1/2-y,1/2+z
loop_
_atom_site_type_symbol
_atom_site_label
_atom_site_fract_x
_atom_site_fract_y
_atom_site_fract_z
Si Si1 0.212612 0.771933 0.948042
Si Si2 0.768697 0.067063 0.636974
Si Si3 0.083095 0.844594 0.596657
Si Si4 0.979166 0.152745 0.847478
Si Si5 0.671622 0.433321 0.244245
Si Si6 0.880878 0.223155 0.270907
O O1 0.248627 0.654247 0.862688
O O2 0.246529 0.920142 0.889686
O O3 0.250000 0.750000 0.000000
O O4 0.099764 0.761611 0.042379
O O5 0.841726 0.164138 0.531616
O O6 0.807575 0.046711 0.686734
O O7 0.670068 0.144388 0.721428
O O8 0.120354 0.764511 0.638242
O O9 0.985906 0.776559 0.650864
O O10 0.064232 0.003055 0.635716
O O11 0.000000 0.224428 0.750000
O O12 0.071903 0.143135 0.819752
O O13 0.672560 0.583900 0.207048
#
# Coordination Sequence:
#
# PCOD8130678 Si02
#       6
#     8   8   8   8   8   8
#     4  11  22  38  61  86 116 156 196 236 291 348
#     4  11  23  34  57  90 117 146 194 241 295 338
#     4   9  18  35  59  80 105 154 197 234 278 340
#     4  10  17  36  61  83 109 150 202 238 272 345
#     4  11  21  37  58  86 118 151 189 245 289 340
#     4  10  19  38  59  77 114 149 194 238 282 340
#
# _framework density 19.316655999999998
#
# number of rings (size 3 to 8) (size 9 to 14) (size 15 to 20)
#    0.000    1.667    5.000    2.500    0.000    7.333 
#    0.000    5.000    0.000    4.000    0.000    0.000 
#    0.000    0.000    0.000    0.000    0.000    0.000 
#
# Total GULP energy -297632.093546 kJ/mol
# GULP energy per Si atom -12401.337231 kJ/mol
# Density = 1.927269 g / cm^3
# Si number density = 19.316656 Si / 1000 Ang^3
#
#
#
# Elastic Constant Matrix: (Units=GPa)
#
#
# Indices 1 2 3 4 5 6 
#
# 1 118.0453 51.0319 42.4173 0.0000 3.5508 0.0000
# 2 51.0319 72.6947 30.5207 0.0001 -5.7103 -0.0001
# 3 42.4173 30.5207 71.8279 0.0000 -0.7927 0.0000
# 4 0.0000 0.0001 0.0000 26.1064 0.0000 -6.6507
# 5 3.5508 -5.7103 -0.7927 0.0000 27.2778 0.0000
# 6 0.0000 -0.0001 0.0000 -6.6507 0.0000 19.6935
#
#
#
# Elastic Compliance Matrix: (Units=1/GPa)
#
#
# Indices 1 2 3 4 5 6 
#
# 1 0.013712 -0.007900 -0.004780 0.000000 -0.003577 0.000000
# 2 -0.007900 0.021597 -0.004452 0.000000 0.005420 0.000000
# 3 -0.004780 -0.004452 0.018639 0.000000 0.000232 0.000000
# 4 0.000000 0.000000 0.000000 0.041910 0.000000 0.014154
# 5 -0.003577 0.005420 0.000232 0.000000 0.038267 0.000000
# 6 0.000000 0.000000 0.000000 0.014154 0.000000 0.055558
#
#
# Mechanical properties :
#
#
# Convention : Reuss Voigt Hill
#
# Bulk Modulus (GPa) = 50.80193 56.72307 53.76250
# Shear Modulus (GPa) = 21.69127 23.85542 22.77335
#
# Velocity S-wave (km/s) = 3.35465 3.51802 3.43731
# Velocity P-wave (km/s) = 6.43130 6.77721 6.60652
#
# Compressibility (1/GPa) = 0.01968429
#
# Stress axis : x y z
#
# Youngs Moduli (GPa) = 72.93048 46.30358 53.65044
#
# Poissons Ratio (x) = 0.36579 0.25645
# Poissons Ratio (y) = 0.57613 0.23884
# Poissons Ratio (z) = 0.34861 0.20613
#
# Static dielectric constant tensor:
#      x y z
#    x 3.557760 0.000000 -0.220080 
#    y 0.000000 3.271680 0.000000 
#    z -0.220080 0.000000 3.809180 
# 
# 
# High freq. dielectric constant tensor:
#      x y z
#    x 1.755380 0.000000 -0.004880 
#    y 0.000000 1.720490 0.000000 
#    z -0.004880 0.000000 1.758580 
# 
# From -- ./inp_files/213748.got.cif
#   From: 2010.06.25/outbox.cif.g09.slc.cpg/sg15_107_cif.got.tgz:213748.got - 2010.06.28 07:06:18.
