data_PCOD8130717
_publ_section_title
;
Structure prediction by ZEFSAII (Michael W. Deem and Ramdas Pophale) SiO2 
 PCOD8130717
Probable space group: C 2/C
;
_chemical_formula_sum "Si O2"
_cell_formula_units_Z 64
_cell_length_a 21.754964
_cell_length_b 23.126463
_cell_length_c 14.926091
_cell_angle_alpha 90.000000
_cell_angle_beta 155.738378
_cell_angle_gamma 90.000000
_cell_volume 3085.700813
_symmetry_space_group_name_H-M "C 2/C"
_symmetry_group_IT_number 15
_symmetry_cell_setting 'monoclinic'
loop_
_space_group_symop_operation_xyz
x,y,z
-x,y,1/2-z
-x,-y,-z
x,-y,1/2+z
1/2+x,1/2+y,z
1/2-x,1/2+y,1/2-z
1/2-x,1/2-y,-z
1/2+x,1/2-y,1/2+z
loop_
_atom_site_type_symbol
_atom_site_label
_atom_site_fract_x
_atom_site_fract_y
_atom_site_fract_z
Si Si1 0.406874 0.577897 0.536419
Si Si2 0.936528 0.792793 0.065257
Si Si3 0.079908 0.547645 0.164628
Si Si4 0.899439 0.254187 0.883547
Si Si5 0.531127 0.462174 0.685163
Si Si6 0.910902 0.638883 0.856773
Si Si7 0.629072 0.951923 0.353987
Si Si8 0.916661 0.158559 0.044363
O O1 0.500000 0.582678 0.750000
O O2 0.421343 0.640736 0.509188
O O3 0.234706 0.565203 0.325197
O O4 0.472294 0.523290 0.564362
O O5 0.000000 0.789997 0.250000
O O6 0.049149 0.759244 0.149367
O O7 0.778858 0.759587 0.852359
O O8 0.104393 0.519150 0.294065
O O9 0.000000 0.500000 0.000000
O O10 0.975744 0.604616 0.030102
O O11 0.968088 0.205609 0.040678
O O12 0.968991 0.313646 0.012817
O O13 0.500000 0.468846 0.750000
O O14 0.439590 0.405582 0.532730
O O15 0.702475 0.449767 0.884164
O O16 0.882344 0.592630 0.741658
O O17 0.758044 0.670676 0.675733
O O18 0.500000 0.932888 0.250000
O O19 0.000000 0.166281 0.250000
#
# Coordination Sequence:
#
# PCOD8130717 Si02
#       8
#     8   8   8   8   8   8   8   8
#     4  10  18  37  69  88 118 173 219 258 335 406
#     4  11  25  46  70  97 132 178 224 286 342 393
#     4  10  19  36  61  88 125 168 204 262 330 387
#     4  12  25  45  69 100 134 176 240 275 326 408
#     4  10  17  38  66  88 126 175 214 259 334 410
#     4  11  22  42  65  91 136 177 216 277 341 388
#     4  11  22  38  63 101 133 165 219 275 338 404
#     4  11  23  44  70  95 132 186 226 275 334 400
#
# _framework density 20.740829999999999
#
# number of rings (size 3 to 8) (size 9 to 14) (size 15 to 20)
#    0.000    1.250    7.500    1.125    0.000    2.000 
#    2.250    1.250    0.000    0.000    0.000    0.000 
#    0.000    0.000    0.000    0.000    0.000    0.000 
#
# Total GULP energy -396564.752040 kJ/mol
# GULP energy per Si atom -12392.648501 kJ/mol
# Density = 2.069362 g / cm^3
# Si number density = 20.740830 Si / 1000 Ang^3
#
#
#
# Elastic Constant Matrix: (Units=GPa)
#
#
# Indices 1 2 3 4 5 6 
#
# 1 52.9115 26.1950 21.8943 0.0000 11.2434 0.0000
# 2 26.1950 126.0993 31.7141 0.0000 -7.3985 0.0000
# 3 21.8943 31.7141 109.7248 0.0000 12.0351 0.0000
# 4 0.0000 0.0000 0.0000 30.9032 0.0000 1.0592
# 5 11.2434 -7.3985 12.0351 0.0000 26.1901 0.0000
# 6 0.0000 0.0000 0.0000 1.0592 0.0000 19.1301
#
#
#
# Elastic Compliance Matrix: (Units=1/GPa)
#
#
# Indices 1 2 3 4 5 6 
#
# 1 0.024766 -0.005240 -0.002210 0.000000 -0.011097 0.000000
# 2 -0.005240 0.010023 -0.002537 0.000000 0.006247 0.000000
# 3 -0.002210 -0.002537 0.010807 0.000000 -0.004734 0.000000
# 4 0.000000 0.000000 0.000000 0.032421 0.000000 -0.001795
# 5 -0.011097 0.006247 -0.004734 0.000000 0.046886 0.000000
# 6 0.000000 0.000000 0.000000 -0.001795 0.000000 0.052373
#
#
# Mechanical properties :
#
#
# Convention : Reuss Voigt Hill
#
# Bulk Modulus (GPa) = 39.02735 49.81582 44.42159
# Shear Modulus (GPa) = 24.29650 29.17348 26.73499
#
# Velocity S-wave (km/s) = 3.42633 3.75450 3.59416
# Velocity P-wave (km/s) = 5.87457 6.54717 6.21997
#
# Compressibility (1/GPa) = 0.02562305
#
# Stress axis : x y z
#
# Youngs Moduli (GPa) = 40.37767 99.76807 92.53151
#
# Poissons Ratio (x) = 0.52278 0.20451
# Poissons Ratio (y) = 0.21158 0.23472
# Poissons Ratio (z) = 0.08924 0.25308
#
# Static dielectric constant tensor:
#      x y z
#    x 3.379660 0.000000 0.042820 
#    y 0.000000 4.552120 0.000000 
#    z 0.042820 0.000000 4.010820 
# 
# 
# High freq. dielectric constant tensor:
#      x y z
#    x 1.766440 0.000000 0.010670 
#    y 0.000000 1.832280 0.000000 
#    z 0.010670 0.000000 1.827310 
# 
# From -- ./inp_files/220290.got.cif
#   From: 2010.06.25/outbox.cif.g09.slc.cpg/sg15_111_cif.got.tgz:220290.got - 2010.06.28 07:06:18.
