data_PCOD8130386
_publ_section_title
;
Structure prediction by ZEFSAII (Michael W. Deem and Ramdas Pophale) SiO2 
 PCOD8130386
Probable space group: C 2/C
;
_chemical_formula_sum "Si O2"
_cell_formula_units_Z 64
_cell_length_a 16.328970
_cell_length_b 11.911625
_cell_length_c 23.781688
_cell_angle_alpha 90.000000
_cell_angle_beta 128.295119
_cell_angle_gamma 90.000000
_cell_volume 3630.342627
_symmetry_space_group_name_H-M "C 2/C"
_symmetry_group_IT_number 15
_symmetry_cell_setting 'monoclinic'
loop_
_space_group_symop_operation_xyz
x,y,z
-x,y,1/2-z
-x,-y,-z
x,-y,1/2+z
1/2+x,1/2+y,z
1/2-x,1/2+y,1/2-z
1/2-x,1/2-y,-z
1/2+x,1/2-y,1/2+z
loop_
_atom_site_type_symbol
_atom_site_label
_atom_site_fract_x
_atom_site_fract_y
_atom_site_fract_z
Si Si1 0.690035 0.336487 0.674397
Si Si2 0.365486 0.211564 0.336852
Si Si3 0.931254 0.346805 0.330081
Si Si4 0.219538 0.694583 0.575949
Si Si5 0.418101 0.986117 0.168776
Si Si6 0.902306 0.705734 0.090850
Si Si7 0.753864 0.925024 0.322126
Si Si8 0.599786 0.989036 0.080217
O O1 0.797582 0.310580 0.752500
O O2 0.593703 0.285113 0.670104
O O3 0.695567 0.284377 0.614532
O O4 0.672654 0.469535 0.662301
O O5 0.478656 0.244818 0.361601
O O6 0.324488 0.314718 0.357341
O O7 0.363819 0.105485 0.377518
O O8 0.830381 0.409014 0.262323
O O9 0.949234 0.403747 0.396700
O O10 0.032153 0.370006 0.334496
O O11 0.143127 0.714694 0.491029
O O12 0.338709 0.711536 0.605675
O O13 0.199004 0.568560 0.590763
O O14 0.500000 0.034872 0.250000
O O15 0.306078 0.951586 0.145396
O O16 0.399201 0.077869 0.112401
O O17 0.500000 0.000000 0.000000
#
# Coordination Sequence:
#
# PCOD8130386 Si02
#       8
#     8   8   8   8   8   8   8   8
#     4  10  19  35  54  82 112 142 179 231 278 325
#     4  11  21  34  58  84 109 142 188 224 275 334
#     4   9  18  30  54  79 103 140 185 217 269 324
#     4  10  22  33  56  82 110 139 183 231 279 311
#     4  10  17  32  55  81 106 144 189 229 271 324
#     4  11  20  35  54  83 107 141 188 230 269 322
#     4  10  19  33  52  81 111 138 175 232 273 322
#     4  11  18  34  56  80 105 139 181 227 265 328
#
# _framework density 17.629190999999999
#
# number of rings (size 3 to 8) (size 9 to 14) (size 15 to 20)
#    0.000    1.750    5.000    0.750    0.000    0.000 
#    0.000    1.875    0.000    3.000    0.000    0.000 
#    0.000    0.000    0.000    0.000    0.000    0.000 
#
# Total GULP energy -396572.222791 kJ/mol
# GULP energy per Si atom -12392.881962 kJ/mol
# Density = 1.758907 g / cm^3
# Si number density = 17.629191 Si / 1000 Ang^3
#
#
#
# Elastic Constant Matrix: (Units=GPa)
#
#
# Indices 1 2 3 4 5 6 
#
# 1 94.6488 55.0634 18.7508 0.0000 2.3256 0.0000
# 2 55.0634 112.2832 17.2464 0.0000 0.2292 0.0000
# 3 18.7508 17.2464 61.4526 0.0000 -12.6548 0.0000
# 4 0.0000 0.0000 0.0000 18.3751 0.0000 -6.3143
# 5 2.3256 0.2292 -12.6548 0.0000 21.3819 0.0000
# 6 0.0000 0.0000 0.0000 -6.3143 0.0000 37.8236
#
#
#
# Elastic Compliance Matrix: (Units=1/GPa)
#
#
# Indices 1 2 3 4 5 6 
#
# 1 0.015435 -0.007025 -0.003494 0.000000 -0.003671 0.000000
# 2 -0.007025 0.012571 -0.001429 0.000000 -0.000216 0.000000
# 3 -0.003494 -0.001429 0.020295 0.000000 0.012407 0.000000
# 4 0.000000 0.000000 0.000000 0.057733 0.000000 0.009638
# 5 -0.003671 -0.000216 0.012407 0.000000 0.054513 0.000000
# 6 0.000000 0.000000 0.000000 0.009638 0.000000 0.028047
#
#
# Mechanical properties :
#
#
# Convention : Reuss Voigt Hill
#
# Bulk Modulus (GPa) = 40.97632 50.05619 45.51626
# Shear Modulus (GPa) = 22.66284 27.33772 25.00028
#
# Velocity S-wave (km/s) = 3.58932 3.94217 3.76988
# Velocity P-wave (km/s) = 6.36172 7.01260 6.69508
#
# Compressibility (1/GPa) = 0.02440434
#
# Stress axis : x y z
#
# Youngs Moduli (GPa) = 64.78916 79.54798 49.27363
#
# Poissons Ratio (x) = 0.55882 0.17216
# Poissons Ratio (y) = 0.45514 0.07042
# Poissons Ratio (z) = 0.22638 0.11368
#
# Static dielectric constant tensor:
#      x y z
#    x 3.655080 0.000000 0.057770 
#    y 0.000000 4.021010 0.000000 
#    z 0.057770 0.000000 3.458100 
# 
# 
# High freq. dielectric constant tensor:
#      x y z
#    x 1.677710 0.000000 -0.015620 
#    y 0.000000 1.669430 0.000000 
#    z -0.015620 0.000000 1.680380 
# 
# From -- ./inp_files/277104.got.cif
#   From: 2010.06.25/outbox.cif.g09.slc.cpg/sg15_139_cif.got.tgz:277104.got - 2010.06.28 07:06:18.
