data_PCOD8130243
_publ_section_title
;
Structure prediction by ZEFSAII (Michael W. Deem and Ramdas Pophale) SiO2 
 PCOD8130243
Probable space group: C 2/C
;
_chemical_formula_sum "Si O2"
_cell_formula_units_Z 64
_cell_length_a 9.169464
_cell_length_b 17.267134
_cell_length_c 22.777015
_cell_angle_alpha 90.000000
_cell_angle_beta 78.723011
_cell_angle_gamma 90.000000
_cell_volume 3536.667358
_symmetry_space_group_name_H-M "C 2/C"
_symmetry_group_IT_number 15
_symmetry_cell_setting 'monoclinic'
loop_
_space_group_symop_operation_xyz
x,y,z
-x,y,1/2-z
-x,-y,-z
x,-y,1/2+z
1/2+x,1/2+y,z
1/2-x,1/2+y,1/2-z
1/2-x,1/2-y,-z
1/2+x,1/2-y,1/2+z
loop_
_atom_site_type_symbol
_atom_site_label
_atom_site_fract_x
_atom_site_fract_y
_atom_site_fract_z
Si Si1 0.639013 0.860034 0.966814
Si Si2 0.860306 0.991613 0.595237
Si Si3 0.822037 0.490449 0.107773
Si Si4 0.457541 0.573881 0.320424
Si Si5 0.581824 0.721671 0.104785
Si Si6 0.106845 0.603124 0.602809
Si Si7 0.861348 0.927671 0.475850
Si Si8 0.915363 0.232571 0.003767
O O1 0.617626 0.928895 0.922559
O O2 0.788718 0.810167 0.947764
O O3 0.506905 0.800708 0.966820
O O4 0.636848 0.897323 0.031127
O O5 0.791920 0.941075 0.546906
O O6 0.896638 0.947963 0.652808
O O7 0.748297 0.060665 0.620995
O O8 0.022771 0.009096 0.555704
O O9 0.681707 0.514654 0.159839
O O10 0.774664 0.431171 0.059519
O O11 0.955003 0.444593 0.130834
O O12 0.500000 0.569422 0.250000
O O13 0.426473 0.663556 0.339602
O O14 0.605065 0.808869 0.127622
O O15 0.439228 0.725330 0.072452
O O16 0.952525 0.847671 0.468181
O O17 0.750000 0.250000 0.000000
#
# Coordination Sequence:
#
# PCOD8130243 Si02
#       8
#     8   8   8   8   8   8   8   8
#     4  10  19  31  49  77 118 150 170 202 264 335
#     4  10  19  30  56  75 105 139 177 217 267 320
#     4  10  21  33  54  82 113 142 175 219 278 325
#     4  10  22  42  58  71  98 146 195 230 260 320
#     4  10  20  35  53  78 106 148 183 212 262 328
#     4  11  19  31  53  86 116 138 166 223 277 326
#     4  10  17  31  46  80 111 143 172 208 261 331
#     4  11  20  27  47  79 116 141 168 209 262 325
#
# _framework density 18.096132000000001
#
# number of rings (size 3 to 8) (size 9 to 14) (size 15 to 20)
#    0.000    1.750    2.500    4.875    1.750    0.000 
#    0.000    1.875    0.000    0.000    0.000    0.000 
#    0.000    0.000    0.000    0.000    0.000    0.000 
#
# Total GULP energy -396521.282551 kJ/mol
# GULP energy per Si atom -12391.290080 kJ/mol
# Density = 1.805494 g / cm^3
# Si number density = 18.096132 Si / 1000 Ang^3
#
#
#
# Elastic Constant Matrix: (Units=GPa)
#
#
# Indices 1 2 3 4 5 6 
#
# 1 79.2969 31.6205 31.1514 0.0000 1.8566 0.0000
# 2 31.6205 112.0582 31.3902 0.0000 -3.1274 0.0000
# 3 31.1514 31.3902 91.4499 0.0000 -5.6750 0.0000
# 4 0.0000 0.0000 0.0000 14.4689 0.0000 2.2530
# 5 1.8566 -3.1274 -5.6750 0.0000 14.2300 0.0000
# 6 0.0000 0.0000 0.0000 2.2530 0.0000 35.8417
#
#
#
# Elastic Compliance Matrix: (Units=1/GPa)
#
#
# Indices 1 2 3 4 5 6 
#
# 1 0.015826 -0.003324 -0.004536 0.000000 -0.004604 0.000000
# 2 -0.003324 0.010581 -0.002388 0.000000 0.001807 0.000000
# 3 -0.004536 -0.002388 0.013641 0.000000 0.005507 0.000000
# 4 0.000000 0.000000 0.000000 0.069797 0.000000 -0.004387
# 5 -0.004604 0.001807 0.005507 0.000000 0.073468 0.000000
# 6 0.000000 0.000000 0.000000 -0.004387 0.000000 0.028176
#
#
# Mechanical properties :
#
#
# Convention : Reuss Voigt Hill
#
# Bulk Modulus (GPa) = 51.14020 52.34768 51.74394
# Shear Modulus (GPa) = 20.96421 25.48432 23.22427
#
# Velocity S-wave (km/s) = 3.40735 3.75677 3.58632
# Velocity P-wave (km/s) = 6.61829 6.91434 6.76793
#
# Compressibility (1/GPa) = 0.01955409
#
# Stress axis : x y z
#
# Youngs Moduli (GPa) = 63.18784 94.50840 73.30665
#
# Poissons Ratio (x) = 0.31411 0.33250
# Poissons Ratio (y) = 0.21001 0.17503
# Poissons Ratio (z) = 0.28660 0.22565
#
# Static dielectric constant tensor:
#      x y z
#    x 3.367190 0.000000 0.071260 
#    y 0.000000 3.379830 0.000000 
#    z 0.071260 0.000000 2.865060 
# 
# 
# High freq. dielectric constant tensor:
#      x y z
#    x 1.705960 0.000000 0.008530 
#    y 0.000000 1.719270 0.000000 
#    z 0.008530 0.000000 1.637580 
# 
# From -- ./inp_files/265253.got.cif
#   From: 2010.06.25/outbox.cif.g09.slc.cpg/sg15_133_cif.got.tgz:265253.got - 2010.06.28 07:06:18.
