data_PCOD8130478
_publ_section_title
;
Structure prediction by ZEFSAII (Michael W. Deem and Ramdas Pophale) SiO2 
 PCOD8130478
Probable space group: C 2/C
;
_chemical_formula_sum "Si O2"
_cell_formula_units_Z 32
_cell_length_a 16.847758
_cell_length_b 7.069550
_cell_length_c 16.793436
_cell_angle_alpha 90.000000
_cell_angle_beta 63.316545
_cell_angle_gamma 90.000000
_cell_volume 1787.181007
_symmetry_space_group_name_H-M "C 2/C"
_symmetry_group_IT_number 15
_symmetry_cell_setting 'monoclinic'
loop_
_space_group_symop_operation_xyz
x,y,z
-x,y,1/2-z
-x,-y,-z
x,-y,1/2+z
1/2+x,1/2+y,z
1/2-x,1/2+y,1/2-z
1/2-x,1/2-y,-z
1/2+x,1/2-y,1/2+z
loop_
_atom_site_type_symbol
_atom_site_label
_atom_site_fract_x
_atom_site_fract_y
_atom_site_fract_z
Si Si1 0.833089 0.262923 0.020880
Si Si2 0.258891 0.986971 0.334403
Si Si3 0.903973 0.234869 0.830654
Si Si4 0.761514 0.949665 0.841983
O O1 0.826474 0.085717 0.084731
O O2 0.824293 0.458001 0.074803
O O3 0.750000 0.250000 0.000000
O O4 0.916359 0.256165 0.922189
O O5 0.350267 0.087897 0.318653
O O6 0.246368 0.001727 0.246567
O O7 0.262991 0.771008 0.360119
O O8 0.000000 0.228623 0.750000
O O9 0.852763 0.040585 0.833268
#
# Coordination Sequence:
#
# PCOD8130478 Si02
#       4
#     8   8   8   8
#     4   8  18  32  52  80 104 131 177 210 254 307
#     4  10  17  33  60  77  98 138 180 211 249 308
#     4  10  22  36  50  80 114 131 166 222 262 301
#     4  10  17  33  60  77  98 138 180 211 249 308
#
# _framework density 17.905293
#
# number of rings (size 3 to 8) (size 9 to 14) (size 15 to 20)
#    0.000    3.000    5.000    0.000    0.000   10.000 
#    0.000    2.500    0.000    0.000    0.000    0.000 
#    0.000    0.000    0.000    0.000    0.000    0.000 
#
# Total GULP energy -198216.034531 kJ/mol
# GULP energy per Si atom -12388.502158 kJ/mol
# Density = 1.786454 g / cm^3
# Si number density = 17.905293 Si / 1000 Ang^3
#
#
#
# Elastic Constant Matrix: (Units=GPa)
#
#
# Indices 1 2 3 4 5 6 
#
# 1 26.8371 4.7609 22.1991 0.0000 -10.4263 0.0002
# 2 4.7609 107.2889 -15.7363 0.0001 -16.0640 0.0011
# 3 22.1991 -15.7363 119.4778 -0.0001 -17.6021 0.0005
# 4 0.0000 0.0001 -0.0001 29.8689 0.0000 9.5432
# 5 -10.4263 -16.0640 -17.6021 0.0000 32.6234 0.0001
# 6 0.0002 0.0011 0.0005 9.5432 0.0001 18.6964
#
#
#
# Elastic Compliance Matrix: (Units=1/GPa)
#
#
# Indices 1 2 3 4 5 6 
#
# 1 0.047867 -0.001683 -0.007587 0.000000 0.010376 0.000000
# 2 -0.001683 0.010702 0.002628 0.000000 0.006150 -0.000001
# 3 -0.007587 0.002628 0.010819 0.000000 0.004707 0.000000
# 4 0.000000 0.000000 0.000000 0.040004 0.000000 -0.020419
# 5 0.010376 0.006150 0.004707 0.000000 0.039537 -0.000001
# 6 0.000000 -0.000001 0.000000 -0.020419 -0.000001 0.063909
#
#
# Mechanical properties :
#
#
# Convention : Reuss Voigt Hill
#
# Bulk Modulus (GPa) = 17.82406 30.67236 24.24821
# Shear Modulus (GPa) = 20.42296 32.39639 26.40968
#
# Velocity S-wave (km/s) = 3.38096 4.25822 3.84469
# Velocity P-wave (km/s) = 5.02169 6.42994 5.76895
#
# Compressibility (1/GPa) = 0.05610395
#
# Stress axis : x y z
#
# Youngs Moduli (GPa) = 20.89107 93.44412 92.42982
#
# Poissons Ratio (x) = 0.15730 0.70126
# Poissons Ratio (y) = 0.03517 -0.24293
# Poissons Ratio (z) = 0.15850 -0.24560
#
# Static dielectric constant tensor:
#      x y z
#    x 2.799210 0.000000 0.115750 
#    y 0.000000 3.906500 0.000000 
#    z 0.115750 0.000000 4.856760 
# 
# 
# High freq. dielectric constant tensor:
#      x y z
#    x 1.633730 0.000000 0.021790 
#    y 0.000000 1.700240 0.000000 
#    z 0.021790 0.000000 1.723270 
# 
# From -- ./inp_files/212461.got.cif
#   From: 2010.06.25/outbox.cif.g09.slc.cpg/sg15_107_cif.got.tgz:212461.got - 2010.06.28 07:06:18.
