data_PCOD8130091
_publ_section_title
;
Structure prediction by ZEFSAII (Michael W. Deem and Ramdas Pophale) SiO2 
 PCOD8130091
Probable space group: C 2/C
;
_chemical_formula_sum "Si O2"
_cell_formula_units_Z 56
_cell_length_a 5.014621
_cell_length_b 32.844674
_cell_length_c 19.011104
_cell_angle_alpha 90.000000
_cell_angle_beta 118.115304
_cell_angle_gamma 90.000000
_cell_volume 2761.719066
_symmetry_space_group_name_H-M "C 2/C"
_symmetry_group_IT_number 15
_symmetry_cell_setting 'monoclinic'
loop_
_space_group_symop_operation_xyz
x,y,z
-x,y,1/2-z
-x,-y,-z
x,-y,1/2+z
1/2+x,1/2+y,z
1/2-x,1/2+y,1/2-z
1/2-x,1/2-y,-z
1/2+x,1/2-y,1/2+z
loop_
_atom_site_type_symbol
_atom_site_label
_atom_site_fract_x
_atom_site_fract_y
_atom_site_fract_z
Si Si1 0.847398 0.478271 0.654535
Si Si2 0.359835 0.524381 0.658034
Si Si3 0.857305 0.109878 0.803510
Si Si4 0.454355 0.661403 0.545171
Si Si5 0.439963 0.342164 0.664970
Si Si6 0.644905 0.112703 0.389611
Si Si7 0.643886 0.794333 0.509247
O O1 0.509214 0.495390 0.618514
O O2 0.814660 0.434948 0.614043
O O3 0.000000 0.473850 0.750000
O O4 0.011043 0.511182 0.623172
O O5 0.500000 0.513639 0.750000
O O6 0.435693 0.571158 0.648940
O O7 0.500000 0.098141 0.750000
O O8 0.000000 0.127670 0.750000
O O9 0.901163 0.144981 0.865576
O O10 0.295187 0.625414 0.482007
O O11 0.741260 0.675576 0.536554
O O12 0.218795 0.698807 0.530059
O O13 0.500000 0.323837 0.750000
O O14 0.728897 0.360830 0.660496
O O15 0.296097 0.305107 0.602917
O O16 0.210549 0.379473 0.647543
O O17 0.750000 0.750000 0.500000
#
# Coordination Sequence:
#
# PCOD8130091 Si02
#       7
#     8   8   8   8   8   8   8
#     4  10  17  28  47  74 105 140 182 224 265 318
#     4   9  18  30  47  73 104 141 183 224 273 316
#     4  11  21  38  60  80 107 147 193 240 276 319
#     4  10  22  39  59  83 110 144 186 224 279 344
#     4  10  19  33  54  81 110 146 184 218 265 330
#     4  10  20  33  52  79 113 145 180 227 275 325
#     4  10  21  39  61  84 115 149 176 219 281 338
#
# _framework density 20.277225000000001
#
# number of rings (size 3 to 8) (size 9 to 14) (size 15 to 20)
#    0.000    2.000    0.000    5.571    0.000    1.143 
#    0.000    3.571    0.000    1.714    0.000    3.000 
#    0.000    0.000    0.000    0.000    0.000    0.000 
#
# Total GULP energy -347039.749406 kJ/mol
# GULP energy per Si atom -12394.276764 kJ/mol
# Density = 2.023107 g / cm^3
# Si number density = 20.277225 Si / 1000 Ang^3
#
#
#
# Elastic Constant Matrix: (Units=GPa)
#
#
# Indices 1 2 3 4 5 6 
#
# 1 85.6323 7.0117 12.7528 0.0000 -12.3975 0.0000
# 2 7.0117 75.4081 37.4736 0.0000 -6.0328 0.0000
# 3 12.7528 37.4736 74.8360 0.0000 -18.6586 0.0000
# 4 0.0000 0.0000 0.0000 21.3818 0.0000 -9.1674
# 5 -12.3975 -6.0328 -18.6586 0.0000 23.0746 0.0000
# 6 0.0000 0.0000 0.0000 -9.1674 0.0000 29.5063
#
#
#
# Elastic Compliance Matrix: (Units=1/GPa)
#
#
# Indices 1 2 3 4 5 6 
#
# 1 0.012698 -0.000517 -0.000298 0.000000 0.006446 0.000000
# 2 -0.000517 0.017863 -0.009721 0.000000 -0.003469 0.000000
# 3 -0.000298 -0.009721 0.022054 0.000000 0.015132 0.000000
# 4 0.000000 0.000000 0.000000 0.053956 0.000000 0.016764
# 5 0.006446 -0.003469 0.015132 0.000000 0.058130 0.000000
# 6 0.000000 0.000000 0.000000 0.016764 0.000000 0.039099
#
#
# Mechanical properties :
#
#
# Convention : Reuss Voigt Hill
#
# Bulk Modulus (GPa) = 31.70341 38.92804 35.31573
# Shear Modulus (GPa) = 21.24168 26.70176 23.97172
#
# Velocity S-wave (km/s) = 3.24012 3.63276 3.44204
# Velocity P-wave (km/s) = 5.44672 6.06923 5.76638
#
# Compressibility (1/GPa) = 0.03154235
#
# Stress axis : x y z
#
# Youngs Moduli (GPa) = 78.75399 55.98259 45.34344
#
# Poissons Ratio (x) = 0.02894 0.01350
# Poissons Ratio (y) = 0.04072 0.44080
# Poissons Ratio (z) = 0.02344 0.54422
#
# Static dielectric constant tensor:
#      x y z
#    x 4.227220 0.000000 -0.167160 
#    y 0.000000 3.345490 0.000000 
#    z -0.167160 0.000000 3.491930 
# 
# 
# High freq. dielectric constant tensor:
#      x y z
#    x 1.818870 0.000000 -0.018210 
#    y 0.000000 1.770320 0.000000 
#    z -0.018210 0.000000 1.765450 
# 
# From -- ./inp_files/186804.got.cif
#   From: 2010.06.25/outbox.cif.g09.slc.cpg/sg15_94_cif.got.tgz:186804.got - 2010.06.28 07:06:18.
