data_PCOD8130542
_publ_section_title
;
Structure prediction by ZEFSAII (Michael W. Deem and Ramdas Pophale) SiO2 
 PCOD8130542
Probable space group: C 2/C
;
_chemical_formula_sum "Si O2"
_cell_formula_units_Z 64
_cell_length_a 13.731333
_cell_length_b 12.102690
_cell_length_c 20.381733
_cell_angle_alpha 90.000000
_cell_angle_beta 90.985381
_cell_angle_gamma 90.000000
_cell_volume 3386.659129
_symmetry_space_group_name_H-M "C 2/C"
_symmetry_group_IT_number 15
_symmetry_cell_setting 'monoclinic'
loop_
_space_group_symop_operation_xyz
x,y,z
-x,y,1/2-z
-x,-y,-z
x,-y,1/2+z
1/2+x,1/2+y,z
1/2-x,1/2+y,1/2-z
1/2-x,1/2-y,-z
1/2+x,1/2-y,1/2+z
loop_
_atom_site_type_symbol
_atom_site_label
_atom_site_fract_x
_atom_site_fract_y
_atom_site_fract_z
Si Si1 0.907583 0.278015 0.021840
Si Si2 0.681789 0.050869 0.660845
Si Si3 0.973941 0.284391 0.597537
Si Si4 0.248811 0.862702 0.921979
Si Si5 0.346576 0.718488 0.817575
Si Si6 0.289178 0.765365 0.670905
Si Si7 0.770111 0.507475 0.694767
Si Si8 0.535119 0.036198 0.877929
O O1 0.861220 0.169907 0.057196
O O2 0.959011 0.364052 0.070674
O O3 0.821871 0.342346 0.982974
O O4 0.988533 0.234551 0.971072
O O5 0.702236 0.181056 0.658180
O O6 0.565973 0.041742 0.662083
O O7 0.735389 0.989680 0.600292
O O8 0.725834 0.997868 0.726911
O O9 0.868076 0.239906 0.615178
O O10 0.966968 0.416597 0.587821
O O11 0.045137 0.245019 0.656788
O O12 0.271039 0.788119 0.859338
O O13 0.340509 0.752609 0.741886
O O14 0.316390 0.590282 0.827330
O O15 0.245142 0.888243 0.663848
O O16 0.875210 0.548927 0.670882
#
# Coordination Sequence:
#
# PCOD8130542 Si02
#       8
#     8   8   8   8   8   8   8   8
#     4  10  20  34  57  82 108 147 188 232 266 331
#     4  11  21  35  55  83 115 144 176 235 279 329
#     4  10  20  34  55  83 107 143 191 227 270 320
#     4  10  19  35  56  84 107 144 186 228 275 321
#     4  10  17  34  58  80 107 142 186 229 270 326
#     4  10  21  35  54  81 116 142 179 227 288 324
#     4  10  20  34  57  82 111 144 181 223 282 335
#     4  11  19  33  57  84 111 137 186 231 276 320
#
# _framework density 18.897679
#
# number of rings (size 3 to 8) (size 9 to 14) (size 15 to 20)
#    0.000    1.750    5.000    1.125    0.000    2.000 
#    0.000    2.500    0.000    3.000    0.000    0.000 
#    0.000    0.000    0.000    0.000    0.000    0.000 
#
# Total GULP energy -396667.108609 kJ/mol
# GULP energy per Si atom -12395.847144 kJ/mol
# Density = 1.885467 g / cm^3
# Si number density = 18.897679 Si / 1000 Ang^3
#
#
#
# Elastic Constant Matrix: (Units=GPa)
#
#
# Indices 1 2 3 4 5 6 
#
# 1 44.7169 24.5201 2.7950 0.0000 -13.7982 0.0000
# 2 24.5201 89.2330 15.6266 0.0000 1.5225 0.0000
# 3 2.7950 15.6266 45.4133 0.0000 -7.0094 0.0000
# 4 0.0000 0.0000 0.0000 25.0536 0.0000 -1.6202
# 5 -13.7982 1.5225 -7.0094 0.0000 22.9595 0.0000
# 6 0.0000 0.0000 0.0000 -1.6202 0.0000 31.7603
#
#
#
# Elastic Compliance Matrix: (Units=1/GPa)
#
#
# Indices 1 2 3 4 5 6 
#
# 1 0.035371 -0.011044 0.005266 0.000000 0.023597 0.000000
# 2 -0.011044 0.015475 -0.006116 0.000000 -0.009531 0.000000
# 3 0.005266 -0.006116 0.025556 0.000000 0.011372 0.000000
# 4 0.000000 0.000000 0.000000 0.040047 0.000000 0.002043
# 5 0.023597 -0.009531 0.011372 0.000000 0.061840 0.000000
# 6 0.000000 0.000000 0.000000 0.002043 0.000000 0.031590
#
#
# Mechanical properties :
#
#
# Convention : Reuss Voigt Hill
#
# Bulk Modulus (GPa) = 19.00706 29.47185 24.23945
# Shear Modulus (GPa) = 19.90393 25.04942 22.47668
#
# Velocity S-wave (km/s) = 3.24890 3.64473 3.45249
# Velocity P-wave (km/s) = 4.91462 5.77420 5.36167
#
# Compressibility (1/GPa) = 0.05261202
#
# Stress axis : x y z
#
# Youngs Moduli (GPa) = 28.27158 64.61969 39.13009
#
# Poissons Ratio (x) = 0.71368 -0.20604
# Poissons Ratio (y) = 0.31224 0.23933
# Poissons Ratio (z) = -0.14886 0.39523
#
# Static dielectric constant tensor:
#      x y z
#    x 3.404880 0.000000 -0.284610 
#    y 0.000000 3.484690 0.000000 
#    z -0.284610 0.000000 3.457270 
# 
# 
# High freq. dielectric constant tensor:
#      x y z
#    x 1.719510 0.000000 -0.021090 
#    y 0.000000 1.724500 0.000000 
#    z -0.021090 0.000000 1.730910 
# 
# From -- ./inp_files/268935.got.cif
#   From: 2010.06.25/outbox.cif.g09.slc.cpg/sg15_135_cif.got.tgz:268935.got - 2010.06.28 07:06:18.
