data_PCOD8131576
_publ_section_title
;
Structure prediction by ZEFSAII (Michael W. Deem and Ramdas Pophale) SiO2 
 PCOD8131576
Probable space group: C 2/C
;
_chemical_formula_sum "Si O2"
_cell_formula_units_Z 64
_cell_length_a 30.636680
_cell_length_b 18.884592
_cell_length_c 9.816310
_cell_angle_alpha 90.000000
_cell_angle_beta 38.613436
_cell_angle_gamma 90.000000
_cell_volume 3544.262670
_symmetry_space_group_name_H-M "C 2/C"
_symmetry_group_IT_number 15
_symmetry_cell_setting 'monoclinic'
loop_
_space_group_symop_operation_xyz
x,y,z
-x,y,1/2-z
-x,-y,-z
x,-y,1/2+z
1/2+x,1/2+y,z
1/2-x,1/2+y,1/2-z
1/2-x,1/2-y,-z
1/2+x,1/2-y,1/2+z
loop_
_atom_site_type_symbol
_atom_site_label
_atom_site_fract_x
_atom_site_fract_y
_atom_site_fract_z
Si Si1 0.718044 0.724430 0.217850
Si Si2 0.078487 0.291555 0.572825
Si Si3 0.576353 0.756629 0.084101
Si Si4 0.922522 0.627634 0.146572
Si Si5 0.782643 0.426760 0.623900
Si Si6 0.715638 0.946414 0.566802
Si Si7 0.720690 0.697186 0.683757
Si Si8 0.422870 0.134565 0.696053
O O1 0.633544 0.727742 0.417435
O O2 0.740734 0.645812 0.203571
O O3 0.744429 0.782515 0.259790
O O4 0.750000 0.750000 0.000000
O O5 0.092843 0.325198 0.684212
O O6 0.089663 0.353633 0.433998
O O7 0.000000 0.260233 0.750000
O O8 0.500000 0.720760 0.250000
O O9 0.581571 0.787095 0.224748
O O10 0.587030 0.824517 0.962685
O O11 0.636522 0.700359 0.904258
O O12 0.866486 0.564511 0.269506
O O13 0.001741 0.597924 0.959965
O O14 0.771569 0.455512 0.803426
O O15 0.755926 0.484170 0.579794
O O16 0.864968 0.416449 0.399264
O O17 0.761306 0.881911 0.400468
O O18 0.750000 0.750000 0.500000
#
# Coordination Sequence:
#
# PCOD8131576 Si02
#       8
#     8   8   8   8   8   8   8   8
#     4  12  21  36  64  86 115 153 195 246 288 335
#     4  10  20  33  57  91 115 145 191 240 293 342
#     4  10  18  33  59  87 111 143 191 244 289 338
#     4  10  19  34  58  81 114 153 187 234 282 345
#     4  12  26  40  55  86 120 157 195 238 291 346
#     4  12  26  39  57  84 120 156 197 238 291 348
#     4  12  19  38  62  86 108 154 199 242 287 340
#     4  10  19  36  54  83 119 148 191 230 282 347
#
# _framework density 18.057352999999999
#
# number of rings (size 3 to 8) (size 9 to 14) (size 15 to 20)
#    0.000    1.000    7.500    0.000    3.500    0.500 
#    0.000    0.000    0.000    0.750    0.000    1.750 
#    0.000    0.000    0.000    0.000    0.000    0.000 
#
# Total GULP energy -396794.188562 kJ/mol
# GULP energy per Si atom -12399.818393 kJ/mol
# Density = 1.801625 g / cm^3
# Si number density = 18.057353 Si / 1000 Ang^3
#
#
#
# Elastic Constant Matrix: (Units=GPa)
#
#
# Indices 1 2 3 4 5 6 
#
# 1 78.2597 26.6081 45.1623 0.0000 3.7964 0.0000
# 2 26.6081 68.9882 33.9225 0.0000 0.0862 0.0000
# 3 45.1623 33.9225 106.0622 0.0000 1.6682 0.0000
# 4 0.0000 0.0000 0.0000 24.0261 0.0000 5.0946
# 5 3.7964 0.0862 1.6682 0.0000 33.3471 0.0000
# 6 0.0000 0.0000 0.0000 5.0946 0.0000 20.6350
#
#
#
# Elastic Compliance Matrix: (Units=1/GPa)
#
#
# Indices 1 2 3 4 5 6 
#
# 1 0.017800 -0.003737 -0.006357 0.000000 -0.001699 0.000000
# 2 -0.003737 0.017987 -0.004171 0.000000 0.000588 0.000000
# 3 -0.006357 -0.004171 0.013468 0.000000 0.000061 0.000000
# 4 0.000000 0.000000 0.000000 0.043921 0.000000 -0.010844
# 5 -0.001699 0.000588 0.000061 0.000000 0.030176 0.000000
# 6 0.000000 0.000000 0.000000 -0.010844 0.000000 0.051138
#
#
# Mechanical properties :
#
#
# Convention : Reuss Voigt Hill
#
# Bulk Modulus (GPa) = 48.25200 51.63288 49.94244
# Shear Modulus (GPa) = 23.81760 25.44279 24.63019
#
# Velocity S-wave (km/s) = 3.63574 3.75774 3.69724
# Velocity P-wave (km/s) = 6.66366 6.89082 6.77819
#
# Compressibility (1/GPa) = 0.02072453
#
# Stress axis : x y z
#
# Youngs Moduli (GPa) = 56.18087 55.59680 74.24770
#
# Poissons Ratio (x) = 0.20777 0.47202
# Poissons Ratio (y) = 0.20995 0.30967
# Poissons Ratio (z) = 0.35716 0.23188
#
# Static dielectric constant tensor:
#      x y z
#    x 3.621810 0.000000 0.009450 
#    y 0.000000 2.949700 0.000000 
#    z 0.009450 0.000000 3.698750 
# 
# 
# High freq. dielectric constant tensor:
#      x y z
#    x 1.712320 0.000000 0.013220 
#    y 0.000000 1.648460 0.000000 
#    z 0.013220 0.000000 1.719460 
# 
# From -- ./inp_files/70581.got.cif
#   From: 2010.06.25/outbox.cif.g09.slc.cpg/sg15_36_cif.got.tgz:70581.got - 2010.06.28 07:06:18.
