data_PCOD8131965
_publ_section_title
;
Structure prediction by ZEFSAII (Michael W. Deem and Ramdas Pophale) SiO2 
 PCOD8131965
Probable space group: C 2/C
;
_chemical_formula_sum "Si O2"
_cell_formula_units_Z 64
_cell_length_a 11.687584
_cell_length_b 21.976887
_cell_length_c 16.682569
_cell_angle_alpha 90.000000
_cell_angle_beta 56.563020
_cell_angle_gamma 90.000000
_cell_volume 3575.824817
_symmetry_space_group_name_H-M "C 2/C"
_symmetry_group_IT_number 15
_symmetry_cell_setting 'monoclinic'
loop_
_space_group_symop_operation_xyz
x,y,z
-x,y,1/2-z
-x,-y,-z
x,-y,1/2+z
1/2+x,1/2+y,z
1/2-x,1/2+y,1/2-z
1/2-x,1/2-y,-z
1/2+x,1/2-y,1/2+z
loop_
_atom_site_type_symbol
_atom_site_label
_atom_site_fract_x
_atom_site_fract_y
_atom_site_fract_z
Si Si1 0.609346 0.008208 0.143627
Si Si2 0.867866 0.255632 0.847329
Si Si3 0.098666 0.727380 0.565961
Si Si4 0.402174 0.205017 0.507235
Si Si5 0.953382 0.411268 0.588180
Si Si6 0.987022 0.150884 0.345847
Si Si7 0.226503 0.620344 0.193244
Si Si8 0.699221 0.899334 0.014480
O O1 0.500000 0.983662 0.250000
O O2 0.524732 0.029554 0.097798
O O3 0.701810 0.060720 0.148333
O O4 0.704975 0.952624 0.078394
O O5 0.898494 0.254028 0.929607
O O6 0.834166 0.323574 0.832380
O O7 0.000000 0.229052 0.750000
O O8 0.736017 0.212065 0.885610
O O9 0.250000 0.750000 0.500000
O O10 0.018085 0.774658 0.654753
O O11 0.105648 0.655850 0.587843
O O12 0.031446 0.731505 0.504565
O O13 0.422605 0.134432 0.479726
O O14 0.852899 0.381173 0.692232
O O15 0.866426 0.425577 0.542225
O O16 0.852620 0.123027 0.438619
O O17 0.000000 0.127272 0.250000
O O18 0.113087 0.127821 0.351003
#
# Coordination Sequence:
#
# PCOD8131965 Si02
#       8
#     8   8   8   8   8   8   8   8
#     4  10  21  36  58  81 107 142 189 238 277 323
#     4  11  19  31  54  83 115 145 184 231 283 333
#     4   9  20  35  52  82 116 144 182 222 278 340
#     4  10  19  31  54  82 113 145 178 230 280 330
#     4  10  18  35  57  83 107 140 192 233 271 333
#     4  11  21  36  58  84 112 147 185 229 283 336
#     4  11  19  35  57  85 110 142 192 240 273 329
#     4  10  21  36  56  82 113 148 183 225 284 338
#
# _framework density 17.897969
#
# number of rings (size 3 to 8) (size 9 to 14) (size 15 to 20)
#    0.000    1.750    5.000    0.750    0.000    1.000 
#    0.000    0.000    2.750    0.750    0.000    0.000 
#    0.000    0.000    0.000    0.000    0.000    0.000 
#
# Total GULP energy -396612.028255 kJ/mol
# GULP energy per Si atom -12394.125883 kJ/mol
# Density = 1.785723 g / cm^3
# Si number density = 17.897969 Si / 1000 Ang^3
#
#
#
# Elastic Constant Matrix: (Units=GPa)
#
#
# Indices 1 2 3 4 5 6 
#
# 1 105.8061 35.7757 40.7383 0.0000 -9.9462 0.0000
# 2 35.7757 92.0890 56.0465 0.0000 -7.6792 0.0000
# 3 40.7383 56.0465 94.3569 0.0000 -13.6264 0.0000
# 4 0.0000 0.0000 0.0000 30.9849 0.0000 -2.0338
# 5 -9.9462 -7.6792 -13.6264 0.0000 24.0548 0.0000
# 6 0.0000 0.0000 0.0000 -2.0338 0.0000 18.8311
#
#
#
# Elastic Compliance Matrix: (Units=1/GPa)
#
#
# Indices 1 2 3 4 5 6 
#
# 1 0.011743 -0.002328 -0.003369 0.000000 0.002204 0.000000
# 2 -0.002328 0.017471 -0.009482 0.000000 -0.000756 0.000000
# 3 -0.003369 -0.009482 0.018565 0.000000 0.006097 0.000000
# 4 0.000000 0.000000 0.000000 0.032504 0.000000 0.003511
# 5 0.002204 -0.000756 0.006097 0.000000 0.045695 0.000000
# 6 0.000000 0.000000 0.000000 0.003511 0.000000 0.053483
#
#
# Mechanical properties :
#
#
# Convention : Reuss Voigt Hill
#
# Bulk Modulus (GPa) = 57.39915 61.93034 59.66475
# Shear Modulus (GPa) = 23.18840 25.42024 24.30432
#
# Velocity S-wave (km/s) = 3.60333 3.77276 3.68902
# Velocity P-wave (km/s) = 7.03220 7.32498 7.18008
#
# Compressibility (1/GPa) = 0.01742186
#
# Stress axis : x y z
#
# Youngs Moduli (GPa) = 85.15986 57.23770 53.86471
#
# Poissons Ratio (x) = 0.13323 0.18147
# Poissons Ratio (y) = 0.19823 0.51073
# Poissons Ratio (z) = 0.28690 0.54271
#
# Static dielectric constant tensor:
#      x y z
#    x 3.427360 0.000000 -0.047560 
#    y 0.000000 3.303920 0.000000 
#    z -0.047560 0.000000 3.287030 
# 
# 
# High freq. dielectric constant tensor:
#      x y z
#    x 1.705330 0.000000 0.002890 
#    y 0.000000 1.673960 0.000000 
#    z 0.002890 0.000000 1.682330 
# 
# From -- ./inp_files/200184.got.cif
#   From: 2010.06.25/outbox.cif.g09.slc.cpg/sg15_101_cif.got.tgz:200184.got - 2010.06.28 07:06:18.
