data_PCOD8131331
_publ_section_title
;
Structure prediction by ZEFSAII (Michael W. Deem and Ramdas Pophale) SiO2 
 PCOD8131331
Probable space group: C 2/C
;
_chemical_formula_sum "Si O2"
_cell_formula_units_Z 64
_cell_length_a 9.677140
_cell_length_b 18.260313
_cell_length_c 22.469715
_cell_angle_alpha 90.000000
_cell_angle_beta 56.991741
_cell_angle_gamma 90.000000
_cell_volume 3329.688047
_symmetry_space_group_name_H-M "C 2/C"
_symmetry_group_IT_number 15
_symmetry_cell_setting 'monoclinic'
loop_
_space_group_symop_operation_xyz
x,y,z
-x,y,1/2-z
-x,-y,-z
x,-y,1/2+z
1/2+x,1/2+y,z
1/2-x,1/2+y,1/2-z
1/2-x,1/2-y,-z
1/2+x,1/2-y,1/2+z
loop_
_atom_site_type_symbol
_atom_site_label
_atom_site_fract_x
_atom_site_fract_y
_atom_site_fract_z
Si Si1 0.904578 0.299608 0.478345
Si Si2 0.364308 0.580548 0.922298
Si Si3 0.321478 0.802285 0.811710
Si Si4 0.584482 0.613236 0.289443
Si Si5 0.201312 0.352099 0.348233
Si Si6 0.339849 0.418023 0.949170
Si Si7 0.410027 0.666209 0.028740
Si Si8 0.367790 0.546945 0.729426
O O1 0.750000 0.250000 0.500000
O O2 0.834492 0.376028 0.519882
O O3 0.015325 0.319916 0.394481
O O4 0.023367 0.250316 0.492773
O O5 0.236355 0.602979 0.900827
O O6 0.305867 0.504203 0.965984
O O7 0.550602 0.572209 0.852154
O O8 0.361043 0.641480 0.974440
O O9 0.500000 0.832819 0.750000
O O10 0.197955 0.822867 0.787511
O O11 0.330792 0.714662 0.813850
O O12 0.250814 0.836892 0.889966
O O13 0.500000 0.643188 0.250000
O O14 0.433702 0.592809 0.366320
O O15 0.689102 0.537844 0.257356
O O16 0.213908 0.402393 0.285769
O O17 0.445664 0.386346 0.979586
O O18 0.500000 0.559714 0.750000
#
# Coordination Sequence:
#
# PCOD8131331 Si02
#       8
#     8   8   8   8   8   8   8   8
#     4   9  19  36  54  72 109 151 179 226 283 326
#     4  10  18  32  57  86 105 141 192 223 273 345
#     4  10  20  36  54  78 115 148 176 231 290 324
#     4   9  18  36  57  80 106 145 190 224 275 344
#     4  10  20  36  57  76 112 146 183 227 284 328
#     4   9  18  35  56  79 110 148 180 227 282 327
#     4   9  19  35  56  78 114 145 181 227 282 333
#     4   8  16  33  57  77 106 143 179 226 277 327
#
# _framework density 19.221018999999998
#
# number of rings (size 3 to 8) (size 9 to 14) (size 15 to 20)
#    0.000    2.750    0.000    3.000    0.000    2.500 
#    9.000    0.000    0.000    0.000    0.000    0.000 
#    0.000    0.000    0.000    0.000    0.000    0.000 
#
# Total GULP energy -396528.814086 kJ/mol
# GULP energy per Si atom -12391.525440 kJ/mol
# Density = 1.917727 g / cm^3
# Si number density = 19.221019 Si / 1000 Ang^3
#
#
#
# Elastic Constant Matrix: (Units=GPa)
#
#
# Indices 1 2 3 4 5 6 
#
# 1 41.5203 22.3357 40.7070 0.0000 -5.5802 0.0000
# 2 22.3357 105.4291 51.3184 0.0000 -8.3687 0.0000
# 3 40.7070 51.3184 96.0361 0.0001 -4.4038 -0.0002
# 4 0.0000 0.0000 0.0001 36.0395 -0.0001 -5.3158
# 5 -5.5802 -8.3687 -4.4038 -0.0001 30.2448 0.0002
# 6 0.0000 0.0000 -0.0002 -5.3158 0.0002 23.3241
#
#
#
# Elastic Compliance Matrix: (Units=1/GPa)
#
#
# Indices 1 2 3 4 5 6 
#
# 1 0.042006 0.000088 -0.017613 0.000000 0.005210 0.000000
# 2 0.000088 0.013021 -0.006875 0.000000 0.002618 0.000000
# 3 -0.017613 -0.006875 0.021459 0.000000 -0.002027 0.000000
# 4 0.000000 0.000000 0.000000 0.028713 0.000000 0.006544
# 5 0.005210 0.002618 -0.002027 0.000000 0.034454 0.000000
# 6 0.000000 0.000000 0.000000 0.006544 0.000000 0.044365
#
#
# Mechanical properties :
#
#
# Convention : Reuss Voigt Hill
#
# Bulk Modulus (GPa) = 36.12065 52.41197 44.26631
# Shear Modulus (GPa) = 20.65724 26.49666 23.57695
#
# Velocity S-wave (km/s) = 3.28185 3.71688 3.50612
# Velocity P-wave (km/s) = 5.76140 6.76369 6.28257
#
# Compressibility (1/GPa) = 0.02768500
#
# Stress axis : x y z
#
# Youngs Moduli (GPa) = 23.80640 76.80081 46.60022
#
# Poissons Ratio (x) = -0.00673 0.82077
# Poissons Ratio (y) = -0.00209 0.32037
# Poissons Ratio (z) = 0.41930 0.52800
#
# Static dielectric constant tensor:
#      x y z
#    x 3.118150 0.000000 -0.172320 
#    y 0.000000 3.891800 0.000000 
#    z -0.172320 0.000000 3.698240 
# 
# 
# High freq. dielectric constant tensor:
#      x y z
#    x 1.700980 0.000000 -0.009170 
#    y 0.000000 1.761320 0.000000 
#    z -0.009170 0.000000 1.747720 
# 
# From -- ./inp_files/265922.got.cif
#   From: 2010.06.25/outbox.cif.g09.slc.cpg/sg15_133_cif.got.tgz:265922.got - 2010.06.28 07:06:18.
