data_PCOD8131617
_publ_section_title
;
Structure prediction by ZEFSAII (Michael W. Deem and Ramdas Pophale) SiO2 
 PCOD8131617
Probable space group: C 2/C
;
_chemical_formula_sum "Si O2"
_cell_formula_units_Z 48
_cell_length_a 11.660510
_cell_length_b 15.757040
_cell_length_c 13.419606
_cell_angle_alpha 90.000000
_cell_angle_beta 88.039569
_cell_angle_gamma 90.000000
_cell_volume 2464.209782
_symmetry_space_group_name_H-M "C 2/C"
_symmetry_group_IT_number 15
_symmetry_cell_setting 'monoclinic'
loop_
_space_group_symop_operation_xyz
x,y,z
-x,y,1/2-z
-x,-y,-z
x,-y,1/2+z
1/2+x,1/2+y,z
1/2-x,1/2+y,1/2-z
1/2-x,1/2-y,-z
1/2+x,1/2-y,1/2+z
loop_
_atom_site_type_symbol
_atom_site_label
_atom_site_fract_x
_atom_site_fract_y
_atom_site_fract_z
Si Si1 0.093138 0.557213 0.547393
Si Si2 0.000000 0.775705 0.250000
Si Si3 0.623770 0.588539 0.223436
Si Si4 0.356388 0.137460 0.145697
Si Si5 0.500000 0.006439 0.750000
Si Si6 0.546323 0.577861 0.610008
Si Si7 0.169545 0.979129 0.924607
O O1 0.106507 0.639146 0.473495
O O2 0.211877 0.508373 0.534012
O O3 0.000000 0.500000 0.500000
O O4 0.058886 0.569374 0.665317
O O5 0.904791 0.720458 0.197269
O O6 0.935239 0.834797 0.331834
O O7 0.500000 0.634685 0.250000
O O8 0.716390 0.641125 0.155658
O O9 0.596660 0.499914 0.171300
O O10 0.690753 0.573477 0.324229
O O11 0.404746 0.052804 0.199393
O O12 0.411882 0.560656 0.592722
O O13 0.611700 0.585896 0.503942
#
# Coordination Sequence:
#
# PCOD8131617 Si02
#       7
#     8   4   8   8   4   8   8
#     4  10  19  32  56  91 118 156 204 250 295 355
#     4  11  22  40  58  90 129 158 188 251 330 358
#     4  10  18  34  61  88 114 153 211 252 281 350
#     4  10  20  34  58  87 122 158 194 253 307 357
#     4   9  18  32  54  82 119 160 208 243 282 358
#     4  10  20  36  61  91 110 156 208 247 290 362
#     4  10  18  33  64  85 111 148 219 248 273 344
#
# _framework density 19.478860999999998
#
# number of rings (size 3 to 8) (size 9 to 14) (size 15 to 20)
#    0.000    2.000    5.833    0.000    0.000    0.000 
#    0.000    1.667    0.000    0.000    4.333    0.000 
#    0.000    0.000    0.000    0.000    0.000    0.000 
#
# Total GULP energy -297337.098046 kJ/mol
# GULP energy per Si atom -12389.045752 kJ/mol
# Density = 1.943453 g / cm^3
# Si number density = 19.478861 Si / 1000 Ang^3
#
#
#
# Elastic Constant Matrix: (Units=GPa)
#
#
# Indices 1 2 3 4 5 6 
#
# 1 112.2157 33.5237 32.9934 0.0000 -4.4932 0.0000
# 2 33.5237 68.8267 37.7213 0.0000 -4.9048 0.0000
# 3 32.9934 37.7213 128.6398 0.0000 -16.2838 0.0000
# 4 0.0000 0.0000 0.0000 29.1929 0.0000 6.1791
# 5 -4.4932 -4.9048 -16.2838 0.0000 36.1128 0.0000
# 6 0.0000 0.0000 0.0000 6.1791 0.0000 13.0973
#
#
#
# Elastic Compliance Matrix: (Units=1/GPa)
#
#
# Indices 1 2 3 4 5 6 
#
# 1 0.010649 -0.004396 -0.001432 0.000000 0.000082 0.000000
# 2 -0.004396 0.019126 -0.004477 0.000000 0.000032 0.000000
# 3 -0.001432 -0.004477 0.009920 0.000000 0.003687 0.000000
# 4 0.000000 0.000000 0.000000 0.038055 0.000000 -0.017954
# 5 0.000082 0.000032 0.003687 0.000000 0.029368 0.000000
# 6 0.000000 0.000000 0.000000 -0.017954 0.000000 0.084822
#
#
# Mechanical properties :
#
#
# Convention : Reuss Voigt Hill
#
# Bulk Modulus (GPa) = 52.39436 57.57323 54.98380
# Shear Modulus (GPa) = 22.84012 29.37685 26.10848
#
# Velocity S-wave (km/s) = 3.42798 3.88769 3.66505
# Velocity P-wave (km/s) = 6.52875 7.05501 6.79697
#
# Compressibility (1/GPa) = 0.01908602
#
# Stress axis : x y z
#
# Youngs Moduli (GPa) = 93.90533 52.28353 100.80318
#
# Poissons Ratio (x) = 0.22986 0.14432
# Poissons Ratio (y) = 0.41284 0.45128
# Poissons Ratio (z) = 0.13444 0.23407
#
# Static dielectric constant tensor:
#      x y z
#    x 3.802770 0.000000 -0.258330 
#    y 0.000000 2.966700 0.000000 
#    z -0.258330 0.000000 4.382950 
# 
# 
# High freq. dielectric constant tensor:
#      x y z
#    x 1.770580 0.000000 -0.000870 
#    y 0.000000 1.682390 0.000000 
#    z -0.000870 0.000000 1.788150 
# 
# From -- ./inp_files/143687.got.cif
#   From: 2010.06.25/outbox.cif.g09.slc.cpg/sg15_72_cif.got.tgz:143687.got - 2010.06.28 07:06:18.
