data_PCOD8131010
_publ_section_title
;
Structure prediction by ZEFSAII (Michael W. Deem and Ramdas Pophale) SiO2 
 PCOD8131010
Probable space group: C 2/C
;
_chemical_formula_sum "Si O2"
_cell_formula_units_Z 64
_cell_length_a 13.300716
_cell_length_b 25.887107
_cell_length_c 11.433408
_cell_angle_alpha 90.000000
_cell_angle_beta 65.549071
_cell_angle_gamma 90.000000
_cell_volume 3583.657243
_symmetry_space_group_name_H-M "C 2/C"
_symmetry_group_IT_number 15
_symmetry_cell_setting 'monoclinic'
loop_
_space_group_symop_operation_xyz
x,y,z
-x,y,1/2-z
-x,-y,-z
x,-y,1/2+z
1/2+x,1/2+y,z
1/2-x,1/2+y,1/2-z
1/2-x,1/2-y,-z
1/2+x,1/2-y,1/2+z
loop_
_atom_site_type_symbol
_atom_site_label
_atom_site_fract_x
_atom_site_fract_y
_atom_site_fract_z
Si Si1 0.869171 0.608341 0.074045
Si Si2 0.131614 0.436810 0.683740
Si Si3 0.656916 0.791373 0.032013
Si Si4 0.576827 0.278026 0.385196
Si Si5 0.866723 0.744347 0.386252
Si Si6 0.888208 0.641276 0.493767
Si Si7 0.128536 0.552876 0.656534
Si Si8 0.720419 0.847282 0.215287
O O1 0.822685 0.589998 0.220777
O O2 0.999033 0.621059 0.005334
O O3 0.803780 0.659701 0.065083
O O4 0.852121 0.562216 0.990222
O O5 0.171673 0.404546 0.551207
O O6 0.173619 0.495499 0.659926
O O7 0.000000 0.435299 0.750000
O O8 0.634288 0.814119 0.173888
O O9 0.750000 0.750000 0.000000
O O10 0.562638 0.759375 0.006928
O O11 0.451758 0.287825 0.399152
O O12 0.641785 0.248104 0.249576
O O13 0.652016 0.329301 0.372549
O O14 0.750000 0.750000 0.500000
O O15 0.915239 0.687957 0.392568
O O16 0.807248 0.661271 0.635357
O O17 0.204001 0.592230 0.695097
O O18 0.000000 0.559342 0.750000
#
# Coordination Sequence:
#
# PCOD8131010 Si02
#       8
#     8   8   8   8   8   8   8   8
#     4  10  18  31  46  66 100 143 173 215 271 318
#     4   9  21  29  46  70 101 143 173 220 276 318
#     4   9  18  31  48  69  98 140 174 206 254 311
#     4  10  20  35  51  72 108 134 179 214 257 318
#     4  11  21  33  53  77 105 139 170 215 265 316
#     4  11  19  31  47  71 100 136 177 207 262 324
#     4  10  19  30  47  71 101 135 180 223 265 325
#     4  10  20  32  50  72  99 140 176 216 258 310
#
# _framework density 17.85885
#
# number of rings (size 3 to 8) (size 9 to 14) (size 15 to 20)
#    0.000    2.000    3.750    0.750    5.250    1.500 
#    0.000    0.000    0.000    0.000    0.000    0.875 
#    0.000    0.000    0.000    0.000    0.000    0.375 
#
# Total GULP energy -396429.832075 kJ/mol
# GULP energy per Si atom -12388.432252 kJ/mol
# Density = 1.781820 g / cm^3
# Si number density = 17.858850 Si / 1000 Ang^3
#
#
#
# Elastic Constant Matrix: (Units=GPa)
#
#
# Indices 1 2 3 4 5 6 
#
# 1 59.5540 30.2502 26.5193 0.0000 2.4347 0.0000
# 2 30.2502 110.9726 37.7646 0.0000 12.1879 0.0000
# 3 26.5193 37.7646 95.6712 0.0000 15.7391 0.0000
# 4 0.0000 0.0000 0.0000 25.7721 0.0000 4.4609
# 5 2.4347 12.1879 15.7391 0.0000 26.7893 0.0000
# 6 0.0000 0.0000 0.0000 4.4609 0.0000 23.6935
#
#
#
# Elastic Compliance Matrix: (Units=1/GPa)
#
#
# Indices 1 2 3 4 5 6 
#
# 1 0.020960 -0.004489 -0.004495 0.000000 0.002778 0.000000
# 2 -0.004489 0.011533 -0.002781 0.000000 -0.003205 0.000000
# 3 -0.004495 -0.002781 0.013860 0.000000 -0.006470 0.000000
# 4 0.000000 0.000000 0.000000 0.040109 0.000000 -0.007551
# 5 0.002778 -0.003205 -0.006470 0.000000 0.042335 0.000000
# 6 0.000000 0.000000 0.000000 -0.007551 0.000000 0.043627
#
#
# Mechanical properties :
#
#
# Convention : Reuss Voigt Hill
#
# Bulk Modulus (GPa) = 43.81407 50.58511 47.19959
# Shear Modulus (GPa) = 24.56252 26.69522 25.62887
#
# Velocity S-wave (km/s) = 3.71262 3.87044 3.79235
# Velocity P-wave (km/s) = 6.55476 6.95415 6.75741
#
# Compressibility (1/GPa) = 0.02282372
#
# Stress axis : x y z
#
# Youngs Moduli (GPa) = 47.71083 86.70563 72.14749
#
# Poissons Ratio (x) = 0.38921 0.32430
# Poissons Ratio (y) = 0.21417 0.20064
# Poissons Ratio (z) = 0.21446 0.24113
#
# Static dielectric constant tensor:
#      x y z
#    x 3.285330 0.000000 0.672110 
#    y 0.000000 3.566280 0.000000 
#    z 0.672110 0.000000 3.701480 
# 
# 
# High freq. dielectric constant tensor:
#      x y z
#    x 1.651830 0.000000 0.044340 
#    y 0.000000 1.687560 0.000000 
#    z 0.044340 0.000000 1.689690 
# 
# From -- ./inp_files/100471.got.cif
#   From: 2010.06.25/outbox.cif.g09.slc.cpg/sg15_51_cif.got.tgz:100471.got - 2010.06.28 07:06:18.
