data_PCOD8131204
_publ_section_title
;
Structure prediction by ZEFSAII (Michael W. Deem and Ramdas Pophale) SiO2 
 PCOD8131204
Probable space group: C 2/C
;
_chemical_formula_sum "Si O2"
_cell_formula_units_Z 56
_cell_length_a 21.928212
_cell_length_b 7.516015
_cell_length_c 23.570693
_cell_angle_alpha 90.000000
_cell_angle_beta 50.606056
_cell_angle_gamma 90.000000
_cell_volume 3002.138294
_symmetry_space_group_name_H-M "C 2/C"
_symmetry_group_IT_number 15
_symmetry_cell_setting 'monoclinic'
loop_
_space_group_symop_operation_xyz
x,y,z
-x,y,1/2-z
-x,-y,-z
x,-y,1/2+z
1/2+x,1/2+y,z
1/2-x,1/2+y,1/2-z
1/2-x,1/2-y,-z
1/2+x,1/2-y,1/2+z
loop_
_atom_site_type_symbol
_atom_site_label
_atom_site_fract_x
_atom_site_fract_y
_atom_site_fract_z
Si Si1 0.261600 0.615765 0.411654
Si Si2 0.049238 0.518604 0.168258
Si Si3 0.511733 0.874698 0.569558
Si Si4 0.277421 0.992724 0.949951
Si Si5 0.894178 0.320715 0.547263
Si Si6 0.931424 0.899781 0.830890
Si Si7 0.608135 0.537536 0.521822
O O1 0.272029 0.804851 0.434761
O O2 0.225066 0.482215 0.480085
O O3 0.198764 0.623075 0.397223
O O4 0.350953 0.563460 0.341961
O O5 0.003112 0.597812 0.141670
O O6 0.139390 0.594516 0.118409
O O7 0.051355 0.305897 0.165893
O O8 0.000000 0.592618 0.250000
O O9 0.425348 0.836996 0.593314
O O10 0.562361 0.702702 0.522696
O O11 0.552458 0.050789 0.522017
O O12 0.199781 0.897983 0.970620
O O13 0.903046 0.125969 0.514657
O O14 0.000000 0.978831 0.750000
O O15 0.925067 0.994857 0.895581
#
# Coordination Sequence:
#
# PCOD8131204 Si02
#       7
#     8   8   8   8   8   8   8
#     4   8  13  28  52  71 100 133 165 210 254 293
#     4  10  18  32  51  78 105 136 167 210 263 305
#     4  11  21  31  53  78 100 136 167 208 253 303
#     4   8  14  28  49  76  98 126 168 215 255 291
#     4  10  19  35  51  74 106 131 170 206 251 307
#     4   9  17  31  54  77 103 136 171 214 262 301
#     4  10  19  33  54  77 102 131 174 219 253 294
#
# _framework density 18.653369999999999
#
# number of rings (size 3 to 8) (size 9 to 14) (size 15 to 20)
#    0.000    2.571    2.857    2.143    0.000    1.143 
#    0.000    0.000    0.000    8.571    0.000    0.000 
#    0.000    0.000    0.000    0.000    0.000    0.000 
#
# Total GULP energy -346898.551990 kJ/mol
# GULP energy per Si atom -12389.234000 kJ/mol
# Density = 1.861091 g / cm^3
# Si number density = 18.653370 Si / 1000 Ang^3
#
#
#
# Elastic Constant Matrix: (Units=GPa)
#
#
# Indices 1 2 3 4 5 6 
#
# 1 170.4183 29.0020 64.6104 -0.0006 -11.6811 0.0170
# 2 29.0020 46.9105 7.1315 -0.0117 1.0435 -0.0113
# 3 64.6104 7.1315 99.4417 -0.0008 -17.4402 0.0075
# 4 -0.0006 -0.0117 -0.0008 2.8233 -0.0016 -1.0635
# 5 -11.6811 1.0435 -17.4402 -0.0016 28.5961 -0.0034
# 6 0.0170 -0.0113 0.0075 -1.0635 -0.0034 10.5903
#
#
#
# Elastic Compliance Matrix: (Units=1/GPa)
#
#
# Indices 1 2 3 4 5 6 
#
# 1 0.008655 -0.004572 -0.005202 -0.000025 0.000529 -0.000017
# 2 -0.004572 0.024063 0.000854 0.000114 -0.002224 0.000043
# 3 -0.005202 0.000854 0.014554 0.000011 0.006720 0.000002
# 4 -0.000025 0.000114 0.000011 0.368125 0.000018 0.036967
# 5 0.000529 -0.002224 0.006720 0.000018 0.039365 0.000007
# 6 -0.000017 0.000043 0.000002 0.036967 0.000007 0.098138
#
#
# Mechanical properties :
#
#
# Convention : Reuss Voigt Hill
#
# Bulk Modulus (GPa) = 33.97646 57.58426 45.78036
# Shear Modulus (GPa) = 8.61254 22.80373 15.70813
#
# Velocity S-wave (km/s) = 2.15109 3.50022 2.90506
# Velocity P-wave (km/s) = 4.94204 6.87554 5.98736
#
# Compressibility (1/GPa) = 0.02943214
#
# Stress axis : x y z
#
# Youngs Moduli (GPa) = 115.54574 41.55740 68.71167
#
# Poissons Ratio (x) = 0.18998 0.35747
# Poissons Ratio (y) = 0.52822 -0.05871
# Poissons Ratio (z) = 0.60113 -0.03551
#
# Static dielectric constant tensor:
#      x y z
#    x 3.785640 -0.000010 -0.331510 
#    y -0.000010 3.281970 0.000000 
#    z -0.331510 0.000000 3.437760 
# 
# 
# High freq. dielectric constant tensor:
#      x y z
#    x 1.725570 0.000000 -0.020680 
#    y 0.000000 1.722350 0.000000 
#    z -0.020680 0.000000 1.686470 
# 
# From -- ./inp_files/279345.got.cif
#   From: 2010.06.25/outbox.cif.g09.slc.cpg/sg15_140_cif.got.tgz:279345.got - 2010.06.28 07:06:18.
