data_PCOD8131417
_publ_section_title
;
Structure prediction by ZEFSAII (Michael W. Deem and Ramdas Pophale) SiO2 
 PCOD8131417
Probable space group: C 2/C
;
_chemical_formula_sum "Si O2"
_cell_formula_units_Z 44
_cell_length_a 8.702140
_cell_length_b 15.842118
_cell_length_c 17.974219
_cell_angle_alpha 90.000000
_cell_angle_beta 97.805241
_cell_angle_gamma 90.000000
_cell_volume 2454.974748
_symmetry_space_group_name_H-M "C 2/C"
_symmetry_group_IT_number 15
_symmetry_cell_setting 'monoclinic'
loop_
_space_group_symop_operation_xyz
x,y,z
-x,y,1/2-z
-x,-y,-z
x,-y,1/2+z
1/2+x,1/2+y,z
1/2-x,1/2+y,1/2-z
1/2-x,1/2-y,-z
1/2+x,1/2-y,1/2+z
loop_
_atom_site_type_symbol
_atom_site_label
_atom_site_fract_x
_atom_site_fract_y
_atom_site_fract_z
Si Si1 0.127739 0.478583 0.609946
Si Si2 0.500000 0.048822 0.250000
Si Si3 0.870277 0.787979 0.917021
Si Si4 0.831712 0.712638 0.230296
Si Si5 0.614114 0.357958 0.823731
Si Si6 0.375177 0.124107 0.006494
O O1 0.044462 0.508495 0.681642
O O2 0.291978 0.437781 0.639917
O O3 0.160559 0.558142 0.560912
O O4 0.018383 0.408136 0.564958
O O5 0.356508 0.111284 0.219285
O O6 0.755291 0.748898 0.846585
O O7 0.780875 0.862421 0.955534
O O8 0.023320 0.823647 0.888928
O O9 0.923890 0.714007 0.975519
O O10 0.726574 0.716841 0.298367
O O11 0.000000 0.758565 0.250000
O O12 0.500000 0.387585 0.750000
#
# Coordination Sequence:
#
# PCOD8131417 Si02
#       6
#     8   4   8   8   8   8
#     4  10  19  36  52  76  97 141 173 205 247 312
#     4   8  14  30  56  68  88 134 176 202 230 302
#     4  10  18  33  50  79 103 136 164 216 255 295
#     4   8  14  30  54  73  95 137 175 200 245 308
#     4   9  18  31  56  76 101 130 177 208 251 297
#     4  10  21  33  53  73 110 134 169 203 260 307
#
# _framework density 17.922791
#
# number of rings (size 3 to 8) (size 9 to 14) (size 15 to 20)
#    0.545    2.182    1.818    0.000    0.000    1.455 
#    4.909    0.909    0.000    0.000    0.000    0.000 
#    0.000    0.000    0.000    0.000    0.000    0.000 
#
# Total GULP energy -272587.547908 kJ/mol
# GULP energy per Si atom -12390.343087 kJ/mol
# Density = 1.788200 g / cm^3
# Si number density = 17.922791 Si / 1000 Ang^3
#
#
#
# Elastic Constant Matrix: (Units=GPa)
#
#
# Indices 1 2 3 4 5 6 
#
# 1 118.0151 34.0461 56.3588 0.0000 -19.3644 0.0000
# 2 34.0461 52.0001 35.2720 0.0000 -7.5755 0.0000
# 3 56.3588 35.2720 110.6773 0.0000 -24.3082 0.0000
# 4 0.0000 0.0000 0.0000 11.3854 0.0000 2.1580
# 5 -19.3644 -7.5755 -24.3082 0.0000 39.3299 0.0000
# 6 0.0000 0.0000 0.0000 2.1580 0.0000 14.5352
#
#
#
# Elastic Compliance Matrix: (Units=1/GPa)
#
#
# Indices 1 2 3 4 5 6 
#
# 1 0.012269 -0.004853 -0.004142 0.000000 0.002546 0.000000
# 2 -0.004853 0.026454 -0.006208 0.000000 -0.001131 0.000000
# 3 -0.004142 -0.006208 0.014362 0.000000 0.005641 0.000000
# 4 0.000000 0.000000 0.000000 0.090375 0.000000 -0.013418
# 5 0.002546 -0.001131 0.005641 0.000000 0.029949 0.000000
# 6 0.000000 0.000000 0.000000 -0.013418 0.000000 0.070791
#
#
# Mechanical properties :
#
#
# Convention : Reuss Voigt Hill
#
# Bulk Modulus (GPa) = 44.09164 59.11627 51.60395
# Shear Modulus (GPa) = 17.72013 23.38446 20.55230
#
# Velocity S-wave (km/s) = 3.14776 3.61603 3.38999
# Velocity P-wave (km/s) = 6.15349 7.10561 6.64662
#
# Compressibility (1/GPa) = 0.02268003
#
# Stress axis : x y z
#
# Youngs Moduli (GPa) = 81.50471 37.80134 69.62850
#
# Poissons Ratio (x) = 0.18343 0.28840
# Poissons Ratio (y) = 0.39551 0.43226
# Poissons Ratio (z) = 0.33759 0.23467
#
# Static dielectric constant tensor:
#      x y z
#    x 3.420000 0.000000 -0.176800 
#    y 0.000000 2.782020 0.000000 
#    z -0.176800 0.000000 3.517000 
# 
# 
# High freq. dielectric constant tensor:
#      x y z
#    x 1.699810 0.000000 -0.011390 
#    y 0.000000 1.635450 0.000000 
#    z -0.011390 0.000000 1.713120 
# 
# From -- ./inp_files/188874.got.cif
#   From: 2010.06.25/outbox.cif.g09.slc.cpg/sg15_95_cif.got.tgz:188874.got - 2010.06.28 07:06:18.
