data_PCOD8131917
_publ_section_title
;
Structure prediction by ZEFSAII (Michael W. Deem and Ramdas Pophale) SiO2 
 PCOD8131917
Probable space group: C 2/C
;
_chemical_formula_sum "Si O2"
_cell_formula_units_Z 48
_cell_length_a 16.422286
_cell_length_b 9.773876
_cell_length_c 21.024128
_cell_angle_alpha 90.000000
_cell_angle_beta 128.842630
_cell_angle_gamma 90.000000
_cell_volume 2628.356435
_symmetry_space_group_name_H-M "C 2/C"
_symmetry_group_IT_number 15
_symmetry_cell_setting 'monoclinic'
loop_
_space_group_symop_operation_xyz
x,y,z
-x,y,1/2-z
-x,-y,-z
x,-y,1/2+z
1/2+x,1/2+y,z
1/2-x,1/2+y,1/2-z
1/2-x,1/2-y,-z
1/2+x,1/2-y,1/2+z
loop_
_atom_site_type_symbol
_atom_site_label
_atom_site_fract_x
_atom_site_fract_y
_atom_site_fract_z
Si Si1 0.810833 0.468113 0.915358
Si Si2 0.770426 0.242686 0.806609
Si Si3 0.120243 0.035775 0.560649
Si Si4 0.387552 0.679787 0.172992
Si Si5 0.841435 0.755323 0.876822
Si Si6 0.424402 0.760860 0.053091
O O1 0.825400 0.386103 0.855143
O O2 0.689744 0.449014 0.878323
O O3 0.836962 0.626604 0.921361
O O4 0.890169 0.405058 0.005972
O O5 0.664457 0.224505 0.797623
O O6 0.747076 0.243367 0.720537
O O7 0.848468 0.116440 0.859268
O O8 0.181364 0.890484 0.591462
O O9 0.144118 0.137293 0.512921
O O10 0.000000 0.000000 0.500000
O O11 0.500000 0.623268 0.250000
O O12 0.399567 0.768524 0.115164
O O13 0.953515 0.766115 0.898074
#
# Coordination Sequence:
#
# PCOD8131917 Si02
#       6
#     8   8   8   8   8   8
#     4   9  20  30  52  81 102 135 179 228 265 312
#     4   9  19  32  54  77 105 138 183 221 265 323
#     4   9  20  32  53  80 109 144 172 222 282 325
#     4  10  19  35  56  79  98 149 186 224 262 331
#     4  11  18  33  52  82 107 135 174 228 277 318
#     4  10  18  35  54  75 106 136 185 217 264 333
#
# _framework density 18.262364000000002
#
# number of rings (size 3 to 8) (size 9 to 14) (size 15 to 20)
#    1.000    1.333    1.667    2.000    0.000    0.000 
#    0.000    0.833    0.000    1.000    0.000    0.000 
#    0.000    0.000    0.000    0.000    0.000    0.000 
#
# Total GULP energy -297345.487514 kJ/mol
# GULP energy per Si atom -12389.395313 kJ/mol
# Density = 1.822080 g / cm^3
# Si number density = 18.262364 Si / 1000 Ang^3
#
#
#
# Elastic Constant Matrix: (Units=GPa)
#
#
# Indices 1 2 3 4 5 6 
#
# 1 32.3587 3.0719 7.3649 0.0000 2.3097 0.0000
# 2 3.0719 123.0115 33.1314 0.0000 -1.4529 0.0000
# 3 7.3649 33.1314 85.9357 0.0000 2.5958 0.0000
# 4 0.0000 0.0000 0.0000 19.9153 0.0000 6.2006
# 5 2.3097 -1.4529 2.5958 0.0000 28.6370 0.0000
# 6 0.0000 0.0000 0.0000 6.2006 0.0000 15.2728
#
#
#
# Elastic Compliance Matrix: (Units=1/GPa)
#
#
# Indices 1 2 3 4 5 6 
#
# 1 0.031672 -0.000119 -0.002598 0.000000 -0.002325 0.000000
# 2 -0.000119 0.009089 -0.003518 0.000000 0.000790 0.000000
# 3 -0.002598 -0.003518 0.013251 0.000000 -0.001170 0.000000
# 4 0.000000 0.000000 0.000000 0.057478 0.000000 -0.023336
# 5 -0.002325 0.000790 -0.001170 0.000000 0.035253 0.000000
# 6 0.000000 0.000000 0.000000 -0.023336 0.000000 0.074950
#
#
# Mechanical properties :
#
#
# Convention : Reuss Voigt Hill
#
# Bulk Modulus (GPa) = 24.07172 36.49356 30.28264
# Shear Modulus (GPa) = 20.16037 25.94752 23.05395
#
# Velocity S-wave (km/s) = 3.32615 3.77347 3.55685
# Velocity P-wave (km/s) = 5.28779 6.24593 5.78673
#
# Compressibility (1/GPa) = 0.04154253
#
# Stress axis : x y z
#
# Youngs Moduli (GPa) = 31.57340 110.02190 75.46650
#
# Poissons Ratio (x) = 0.01304 0.19610
# Poissons Ratio (y) = 0.00374 0.26548
# Poissons Ratio (z) = 0.08204 0.38704
#
# Static dielectric constant tensor:
#      x y z
#    x 3.032480 0.000000 0.195650 
#    y 0.000000 3.382780 0.000000 
#    z 0.195650 0.000000 3.515580 
# 
# 
# High freq. dielectric constant tensor:
#      x y z
#    x 1.666370 0.000000 0.018210 
#    y 0.000000 1.689760 0.000000 
#    z 0.018210 0.000000 1.723940 
# 
# From -- ./inp_files/213534.got.cif
#   From: 2010.06.25/outbox.cif.g09.slc.cpg/sg15_107_cif.got.tgz:213534.got - 2010.06.28 07:06:18.
