data_PCOD8131906
_publ_section_title
;
Structure prediction by ZEFSAII (Michael W. Deem and Ramdas Pophale) SiO2 
 PCOD8131906
Probable space group: C 2/C
;
_chemical_formula_sum "Si O2"
_cell_formula_units_Z 52
_cell_length_a 23.242822
_cell_length_b 9.756086
_cell_length_c 22.023938
_cell_angle_alpha 90.000000
_cell_angle_beta 35.405797
_cell_angle_gamma 90.000000
_cell_volume 2893.414737
_symmetry_space_group_name_H-M "C 2/C"
_symmetry_group_IT_number 15
_symmetry_cell_setting 'monoclinic'
loop_
_space_group_symop_operation_xyz
x,y,z
-x,y,1/2-z
-x,-y,-z
x,-y,1/2+z
1/2+x,1/2+y,z
1/2-x,1/2+y,1/2-z
1/2-x,1/2-y,-z
1/2+x,1/2-y,1/2+z
loop_
_atom_site_type_symbol
_atom_site_label
_atom_site_fract_x
_atom_site_fract_y
_atom_site_fract_z
Si Si1 0.000000 0.677548 0.250000
Si Si2 0.366705 0.673251 0.782988
Si Si3 0.362553 0.519439 0.580848
Si Si4 0.659264 0.798375 0.417316
Si Si5 0.066150 0.060757 0.352230
Si Si6 0.976929 0.587697 0.141914
Si Si7 0.160731 0.652968 0.776654
O O1 0.905855 0.777264 0.315545
O O2 0.977329 0.583321 0.328523
O O3 0.248765 0.652574 0.883769
O O4 0.424132 0.534635 0.715163
O O5 0.393703 0.792572 0.710487
O O6 0.353548 0.364192 0.564971
O O7 0.450736 0.593128 0.467006
O O8 0.386622 0.519879 0.631491
O O9 0.261580 0.604898 0.656155
O O10 0.561806 0.877795 0.521279
O O11 0.680934 0.847505 0.330784
O O12 0.127643 0.197052 0.283842
O O13 0.929474 0.445048 0.163945
#
# Coordination Sequence:
#
# PCOD8131906 Si02
#       7
#     4   8   8   8   8   8   8
#     4   8  20  38  62  74 116 154 200 242 266 342
#     4  10  19  37  56  82 107 149 200 227 278 343
#     4  10  18  35  51  79 117 155 176 224 304 338
#     4  11  20  33  62  82 116 153 187 243 287 346
#     4  10  21  33  54  79 116 150 185 233 285 347
#     4  10  21  38  55  85 110 149 202 235 280 337
#     4  11  22  33  56  89 121 148 184 246 295 345
#
# _framework density 17.971845999999999
#
# number of rings (size 3 to 8) (size 9 to 14) (size 15 to 20)
#    0.923    0.923    4.615    0.462    0.000    1.846 
#    0.000    0.769    0.000    0.000    0.000    6.462 
#    0.000    0.000    0.000    0.000    0.000    0.000 
#
# Total GULP energy -322261.444418 kJ/mol
# GULP energy per Si atom -12394.670939 kJ/mol
# Density = 1.793094 g / cm^3
# Si number density = 17.971846 Si / 1000 Ang^3
#
#
#
# Elastic Constant Matrix: (Units=GPa)
#
#
# Indices 1 2 3 4 5 6 
#
# 1 72.7870 32.4206 14.1554 -0.0002 -16.0080 0.0001
# 2 32.4206 72.9812 26.9288 0.0003 -5.2565 -0.0002
# 3 14.1554 26.9288 76.8936 -0.0005 -21.5323 0.0002
# 4 -0.0002 0.0003 -0.0005 27.8587 -0.0002 -9.0703
# 5 -16.0080 -5.2565 -21.5323 -0.0002 19.1933 0.0002
# 6 0.0001 -0.0002 0.0002 -9.0703 0.0002 17.5670
#
#
#
# Elastic Compliance Matrix: (Units=1/GPa)
#
#
# Indices 1 2 3 4 5 6 
#
# 1 0.022060 -0.010323 0.005708 0.000000 0.021975 0.000000
# 2 -0.010323 0.020665 -0.008986 0.000000 -0.013031 0.000000
# 3 0.005708 -0.008986 0.022957 0.000001 0.028054 0.000000
# 4 0.000000 0.000000 0.000001 0.043149 0.000001 0.022279
# 5 0.021975 -0.013031 0.028054 0.000001 0.098334 -0.000001
# 6 0.000000 0.000000 0.000000 0.022279 -0.000001 0.068428
#
#
# Mechanical properties :
#
#
# Convention : Reuss Voigt Hill
#
# Bulk Modulus (GPa) = 25.98759 41.07459 33.53109
# Shear Modulus (GPa) = 15.84179 22.86760 19.35469
#
# Velocity S-wave (km/s) = 2.97219 3.57096 3.28524
# Velocity P-wave (km/s) = 5.12544 6.31719 5.75226
#
# Compressibility (1/GPa) = 0.03847990
#
# Stress axis : x y z
#
# Youngs Moduli (GPa) = 45.33172 48.39118 43.55953
#
# Poissons Ratio (x) = 0.49954 -0.24863
# Poissons Ratio (y) = 0.46795 0.39141
# Poissons Ratio (z) = -0.25874 0.43483
#
# Static dielectric constant tensor:
#      x y z
#    x 3.062640 0.000000 -0.169110 
#    y 0.000000 3.150890 0.000000 
#    z -0.169110 0.000000 3.234540 
# 
# 
# High freq. dielectric constant tensor:
#      x y z
#    x 1.670110 0.000000 -0.020460 
#    y 0.000000 1.685730 0.000000 
#    z -0.020460 0.000000 1.693760 
# 
# From -- ./inp_files/303025.got.cif
#   From: 2010.06.25/outbox.cif.g09.slc.cpg/sg15_152_cif.got.tgz:303025.got - 2010.06.28 07:06:18.
