data_PCOD8131448
_publ_section_title
;
Structure prediction by ZEFSAII (Michael W. Deem and Ramdas Pophale) SiO2 
 PCOD8131448
Probable space group: C 2/C
;
_chemical_formula_sum "Si O2"
_cell_formula_units_Z 64
_cell_length_a 17.009290
_cell_length_b 15.327442
_cell_length_c 27.230771
_cell_angle_alpha 90.000000
_cell_angle_beta 150.591403
_cell_angle_gamma 90.000000
_cell_volume 3486.003231
_symmetry_space_group_name_H-M "C 2/C"
_symmetry_group_IT_number 15
_symmetry_cell_setting 'monoclinic'
loop_
_space_group_symop_operation_xyz
x,y,z
-x,y,1/2-z
-x,-y,-z
x,-y,1/2+z
1/2+x,1/2+y,z
1/2-x,1/2+y,1/2-z
1/2-x,1/2-y,-z
1/2+x,1/2-y,1/2+z
loop_
_atom_site_type_symbol
_atom_site_label
_atom_site_fract_x
_atom_site_fract_y
_atom_site_fract_z
Si Si1 0.688497 0.385602 0.467884
Si Si2 0.117125 0.819950 0.582012
Si Si3 0.968174 0.057241 0.130658
Si Si4 0.217150 0.182615 0.245748
Si Si5 0.824432 0.545863 0.140329
Si Si6 0.706855 0.630180 0.555410
Si Si7 0.075960 0.723197 0.463822
Si Si8 0.052547 0.773004 0.833515
O O1 0.567442 0.456170 0.376454
O O2 0.797940 0.427348 0.569574
O O3 0.807394 0.353114 0.490434
O O4 0.583082 0.306948 0.431978
O O5 0.201176 0.793742 0.679246
O O6 0.194545 0.909973 0.605320
O O7 0.139011 0.744997 0.552857
O O8 0.924877 0.828423 0.480357
O O9 0.892533 0.125331 0.129551
O O10 0.156410 0.082743 0.224758
O O11 0.888881 0.073283 0.035353
O O12 0.394116 0.190459 0.363056
O O13 0.094701 0.246837 0.209005
O O14 0.816343 0.440644 0.143469
O O15 0.000000 0.579468 0.250000
O O16 0.803320 0.705513 0.578991
O O17 0.000000 0.755564 0.750000
#
# Coordination Sequence:
#
# PCOD8131448 Si02
#       8
#     8   8   8   8   8   8   8   8
#     4   9  19  36  54  78 111 150 180 223 264 331
#     4  10  20  33  54  81 113 141 173 230 279 324
#     4   8  19  34  52  74 107 140 175 220 279 309
#     4   9  20  35  55  82 110 140 178 232 271 321
#     4  10  19  31  52  83 110 139 178 224 283 329
#     4  10  18  33  53  79 106 137 179 224 281 330
#     4  10  19  35  58  80 111 147 188 216 271 325
#     4  10  19  33  55  77 103 144 183 222 270 323
#
# _framework density 18.359134999999998
#
# number of rings (size 3 to 8) (size 9 to 14) (size 15 to 20)
#    0.750    1.750    0.000    2.625    0.000    1.000 
#    0.000    3.750    0.000    1.500    0.000    0.000 
#    0.000    0.000    0.000    0.000    0.000    0.000 
#
# Total GULP energy -396453.295131 kJ/mol
# GULP energy per Si atom -12389.165473 kJ/mol
# Density = 1.831735 g / cm^3
# Si number density = 18.359135 Si / 1000 Ang^3
#
#
#
# Elastic Constant Matrix: (Units=GPa)
#
#
# Indices 1 2 3 4 5 6 
#
# 1 100.6747 34.5349 21.5161 0.0001 5.8643 0.0003
# 2 34.5349 92.4268 31.1324 0.0007 12.1548 0.0001
# 3 21.5161 31.1324 61.7768 0.0034 15.1759 0.0023
# 4 0.0001 0.0007 0.0034 11.3978 -0.0001 -8.0075
# 5 5.8643 12.1548 15.1759 -0.0001 32.4369 -0.0001
# 6 0.0003 0.0001 0.0023 -8.0075 -0.0001 -0.1173
#
#
#
# Elastic Compliance Matrix: (Units=1/GPa)
#
#
# Indices 1 2 3 4 5 6 
#
# 1 0.011649 -0.003616 -0.002317 0.000000 0.000333 -0.000002
# 2 -0.003616 0.014275 -0.005402 -0.000001 -0.002168 -0.000003
# 3 -0.002317 -0.005402 0.021599 0.000006 -0.007662 0.000017
# 4 0.000000 -0.000001 0.000006 0.001792 -0.000002 -0.122332
# 5 0.000333 -0.002168 -0.007662 -0.000002 0.035166 -0.000008
# 6 -0.000002 -0.000003 0.000017 -0.122332 -0.000008 -0.174127
#
#
# Mechanical properties :
#
#
# Convention : Reuss Voigt Hill
#
# Bulk Modulus (GPa) = 40.23553 47.69390 43.96472
# Shear Modulus (GPa) = -85.19163 19.92313 -32.63425
#
# Velocity S-wave (km/s) = -6.81935 3.29779 -4.22067
# Velocity P-wave (km/s) = 6.32783 6.36673 0.49693
#
# Compressibility (1/GPa) = 0.02485365
#
# Stress axis : x y z
#
# Youngs Moduli (GPa) = 85.84314 70.05163 46.29895
#
# Poissons Ratio (x) = 0.25331 0.10726
# Poissons Ratio (y) = 0.31042 0.25010
# Poissons Ratio (z) = 0.19887 0.37841
#
# Static dielectric constant tensor:
#      x y z
#    x 3.382380 0.000000 0.075180 
#    y 0.000000 3.454870 0.000000 
#    z 0.075180 0.000000 3.220860 
# 
# 
# High freq. dielectric constant tensor:
#      x y z
#    x 1.710850 0.000000 0.003750 
#    y 0.000000 1.695230 0.000000 
#    z 0.003750 0.000000 1.700610 
# 
# From -- ./inp_files/316388.got.cif
#   From: 2010.06.25/outbox.cif.g09.slc.cpg/sg15_159_cif.got.tgz:316388.got - 2010.06.28 07:06:18.
