data_PCOD8131769
_publ_section_title
;
Structure prediction by ZEFSAII (Michael W. Deem and Ramdas Pophale) SiO2 
 PCOD8131769
Probable space group: C 2/C
;
_chemical_formula_sum "Si O2"
_cell_formula_units_Z 60
_cell_length_a 17.605158
_cell_length_b 8.944784
_cell_length_c 21.065887
_cell_angle_alpha 90.000000
_cell_angle_beta 110.141943
_cell_angle_gamma 90.000000
_cell_volume 3114.456305
_symmetry_space_group_name_H-M "C 2/C"
_symmetry_group_IT_number 15
_symmetry_cell_setting 'monoclinic'
loop_
_space_group_symop_operation_xyz
x,y,z
-x,y,1/2-z
-x,-y,-z
x,-y,1/2+z
1/2+x,1/2+y,z
1/2-x,1/2+y,1/2-z
1/2-x,1/2-y,-z
1/2+x,1/2-y,1/2+z
loop_
_atom_site_type_symbol
_atom_site_label
_atom_site_fract_x
_atom_site_fract_y
_atom_site_fract_z
Si Si1 0.182310 0.785973 0.145567
Si Si2 0.241837 0.920360 0.511518
Si Si3 0.731689 0.485412 0.873092
Si Si4 0.338609 0.968457 0.154518
Si Si5 0.644525 0.279508 0.278046
Si Si6 0.425687 0.309659 0.636924
Si Si7 0.500000 0.492392 0.250000
Si Si8 0.916492 0.922314 0.495361
O O1 0.203160 0.610942 0.146612
O O2 0.144474 0.807772 0.203295
O O3 0.116147 0.825339 0.072951
O O4 0.263290 0.884671 0.164920
O O5 0.250000 0.750000 0.500000
O O6 0.309948 0.967266 0.579710
O O7 0.264078 0.006078 0.453778
O O8 0.150298 0.952432 0.507937
O O9 0.723094 0.647583 0.835988
O O10 0.648419 0.395686 0.852153
O O11 0.366100 0.105125 0.207614
O O12 0.414925 0.861000 0.159299
O O13 0.572435 0.379197 0.282765
O O14 0.504224 0.394433 0.689823
O O15 0.429181 0.317676 0.561287
O O16 0.000000 0.000000 0.500000
#
# Coordination Sequence:
#
# PCOD8131769 Si02
#       8
#     8   8   8   8   8   8   4   8
#     4  10  20  34  54  83 112 143 184 231 285 331
#     4  10  18  34  58  85 108 143 191 236 275 331
#     4   9  18  33  55  80 108 142 187 231 274 330
#     4  10  20  34  58  84 108 143 193 240 275 329
#     4  11  20  34  54  82 112 148 183 231 283 338
#     4   9  19  36  56  81 107 146 192 232 275 337
#     4  10  22  36  56  76 110 152 190 224 286 346
#     4  10  20  35  59  83 114 151 187 231 288 344
#
# _framework density 19.264999
#
# number of rings (size 3 to 8) (size 9 to 14) (size 15 to 20)
#    0.000    2.133    1.333    2.400    0.000    3.733 
#    0.000    0.000    2.933    1.600    0.000    0.000 
#    0.000    0.000    0.000    0.000    0.000    0.000 
#
# Total GULP energy -371737.545965 kJ/mol
# GULP energy per Si atom -12391.251532 kJ/mol
# Density = 1.922115 g / cm^3
# Si number density = 19.264999 Si / 1000 Ang^3
#
#
#
# Elastic Constant Matrix: (Units=GPa)
#
#
# Indices 1 2 3 4 5 6 
#
# 1 47.3716 31.9649 22.8484 0.0000 -2.4250 0.0000
# 2 31.9649 127.9361 41.2158 0.0000 -0.9132 0.0000
# 3 22.8484 41.2158 117.6389 0.0000 -9.3091 0.0000
# 4 0.0000 0.0000 0.0000 31.5821 0.0000 -4.1645
# 5 -2.4250 -0.9132 -9.3091 0.0000 25.8763 0.0000
# 6 0.0000 0.0000 0.0000 -4.1645 0.0000 22.6140
#
#
#
# Elastic Compliance Matrix: (Units=1/GPa)
#
#
# Indices 1 2 3 4 5 6 
#
# 1 0.026437 -0.005605 -0.003078 0.000000 0.001172 0.000000
# 2 -0.005605 0.010016 -0.002506 0.000000 -0.001073 0.000000
# 3 -0.003078 -0.002506 0.010238 0.000000 0.003306 0.000000
# 4 0.000000 0.000000 0.000000 0.032452 0.000000 0.005976
# 5 0.001172 -0.001073 0.003306 0.000000 0.039907 0.000000
# 6 0.000000 0.000000 0.000000 0.005976 0.000000 0.045321
#
#
# Mechanical properties :
#
#
# Convention : Reuss Voigt Hill
#
# Bulk Modulus (GPa) = 41.12991 53.88943 47.50967
# Shear Modulus (GPa) = 25.66048 29.14231 27.40140
#
# Velocity S-wave (km/s) = 3.65358 3.89357 3.77549
# Velocity P-wave (km/s) = 6.26052 6.94598 6.61214
#
# Compressibility (1/GPa) = 0.02431321
#
# Stress axis : x y z
#
# Youngs Moduli (GPa) = 37.82639 99.83632 97.67624
#
# Poissons Ratio (x) = 0.55960 0.30065
# Poissons Ratio (y) = 0.21202 0.24474
# Poissons Ratio (z) = 0.11643 0.25015
#
# Static dielectric constant tensor:
#      x y z
#    x 3.232430 0.000000 0.059570 
#    y 0.000000 3.319270 0.000000 
#    z 0.059570 0.000000 3.205340 
# 
# 
# High freq. dielectric constant tensor:
#      x y z
#    x 1.712550 0.000000 -0.003510 
#    y 0.000000 1.754480 0.000000 
#    z -0.003510 0.000000 1.766350 
# 
# From -- ./inp_files/247556.got.cif
#   From: 2010.06.25/outbox.cif.g09.slc.cpg/sg15_124_cif.got.tgz:247556.got - 2010.06.28 07:06:18.
