data_PCOD8131788
_publ_section_title
;
Structure prediction by ZEFSAII (Michael W. Deem and Ramdas Pophale) SiO2 
 PCOD8131788
Probable space group: C 2/C
;
_chemical_formula_sum "Si O2"
_cell_formula_units_Z 60
_cell_length_a 12.958779
_cell_length_b 10.294734
_cell_length_c 17.006869
_cell_angle_alpha 90.000000
_cell_angle_beta 98.291574
_cell_angle_gamma 90.000000
_cell_volume 2245.122330
_symmetry_space_group_name_H-M "C 2/C"
_symmetry_group_IT_number 15
_symmetry_cell_setting 'monoclinic'
loop_
_space_group_symop_operation_xyz
x,y,z
-x,y,1/2-z
-x,-y,-z
x,-y,1/2+z
1/2+x,1/2+y,z
1/2-x,1/2+y,1/2-z
1/2-x,1/2-y,-z
1/2+x,1/2-y,1/2+z
loop_
_atom_site_type_symbol
_atom_site_label
_atom_site_fract_x
_atom_site_fract_y
_atom_site_fract_z
Si Si1 0.483928 0.864009 0.101235
Si Si2 0.020589 0.353177 0.926074
Si Si3 0.838910 0.062518 0.416791
Si Si4 0.308113 0.347134 0.067458
Si Si5 0.930166 0.904821 0.594578
Si Si6 0.817289 0.272907 0.303444
Si Si7 0.500000 0.450177 0.250000
Si Si8 0.657763 0.695377 0.656751
O O1 0.395750 0.748718 0.091763
O O2 0.564304 0.825367 0.180471
O O3 0.442714 0.010634 0.111126
O O4 0.539143 0.866116 0.021332
O O5 0.090876 0.237529 0.898716
O O6 0.899655 0.319549 0.889705
O O7 0.767424 0.159969 0.469451
O O8 0.809837 0.121780 0.328293
O O9 0.961770 0.092771 0.443208
O O10 0.817727 0.908717 0.409706
O O11 0.347589 0.496868 0.045839
O O12 0.235809 0.362756 0.134486
O O13 0.940022 0.955992 0.684058
O O14 0.767680 0.274913 0.211463
O O15 0.417056 0.360456 0.284470
#
# Coordination Sequence:
#
# PCOD8131788 Si02
#       8
#     8   8   8   8   8   8   4   8
#     4  10  24  40  61  90 129 166 198 255 322 377
#     4  11  21  39  65  88 122 167 209 243 308 389
#     4  10  21  34  61  90 117 157 212 252 309 365
#     4  12  19  38  69  91 113 160 223 261 289 375
#     4  10  18  36  60  88 115 159 205 248 301 370
#     4  11  23  37  61  95 125 156 206 272 311 351
#     4  10  18  34  58  92 116 152 210 258 292 362
#     4  11  21  37  61  93 123 166 209 261 309 377
#
# _framework density 26.724601
#
# number of rings (size 3 to 8) (size 9 to 14) (size 15 to 20)
#    0.000    1.333    6.667    1.600    1.867    0.000 
#    0.000    2.000    5.867    2.400    0.000    0.000 
#    0.000    0.000    0.000    0.000    0.000    0.000 
#
# Total GULP energy -371683.263732 kJ/mol
# GULP energy per Si atom -12389.442124 kJ/mol
# Density = 2.666377 g / cm^3
# Si number density = 26.724601 Si / 1000 Ang^3
#
#
#
# Elastic Constant Matrix: (Units=GPa)
#
#
# Indices 1 2 3 4 5 6 
#
# 1 22.9781 10.0202 6.0823 0.0000 8.8568 0.0000
# 2 10.0202 165.5400 -5.2319 0.0000 16.0693 0.0000
# 3 6.0823 -5.2319 74.7739 0.0000 17.5107 0.0000
# 4 0.0000 0.0000 0.0000 33.6352 0.0000 5.9293
# 5 8.8568 16.0693 17.5107 0.0000 44.9334 0.0000
# 6 0.0000 0.0000 0.0000 5.9293 0.0000 9.1143
#
#
#
# Elastic Compliance Matrix: (Units=1/GPa)
#
#
# Indices 1 2 3 4 5 6 
#
# 1 0.048093 -0.002223 -0.002238 0.000000 -0.007812 0.000000
# 2 -0.002223 0.006438 0.001175 0.000000 -0.002322 0.000000
# 3 -0.002238 0.001175 0.015002 0.000000 -0.005825 0.000000
# 4 0.000000 0.000000 0.000000 0.033582 0.000000 -0.021847
# 5 -0.007812 -0.002322 -0.005825 0.000000 0.026896 0.000000
# 6 0.000000 0.000000 0.000000 -0.021847 0.000000 0.123931
#
#
# Mechanical properties :
#
#
# Convention : Reuss Voigt Hill
#
# Bulk Modulus (GPa) = 15.88306 31.67034 23.77670
# Shear Modulus (GPa) = 17.76193 34.36468 26.06330
#
# Velocity S-wave (km/s) = 2.58084 3.58981 3.12630
# Velocity P-wave (km/s) = 3.85189 5.39061 4.68486
#
# Compressibility (1/GPa) = 0.06296016
#
# Stress axis : x y z
#
# Youngs Moduli (GPa) = 20.79309 155.32843 66.65709
#
# Poissons Ratio (x) = 0.34537 0.14918
# Poissons Ratio (y) = 0.04623 -0.07833
# Poissons Ratio (z) = 0.04654 -0.18253
#
# Static dielectric constant tensor:
#      x y z
#    x 4.675030 0.000000 0.235190 
#    y 0.000000 5.561710 0.000000 
#    z 0.235190 0.000000 4.934960 
# 
# 
# High freq. dielectric constant tensor:
#      x y z
#    x 2.035750 0.000000 0.008690 
#    y 0.000000 2.090860 0.000000 
#    z 0.008690 0.000000 2.081640 
# 
# From -- ./inp_files/247511.got.cif
#   From: 2010.06.25/outbox.cif.g09.slc.cpg/sg15_124_cif.got.tgz:247511.got - 2010.06.28 07:06:18.
