data_PCOD8131483
_publ_section_title
;
Structure prediction by ZEFSAII (Michael W. Deem and Ramdas Pophale) SiO2 
 PCOD8131483
Probable space group: C 2/C
;
_chemical_formula_sum "Si O2"
_cell_formula_units_Z 60
_cell_length_a 27.841400
_cell_length_b 23.260397
_cell_length_c 13.490075
_cell_angle_alpha 90.000000
_cell_angle_beta 158.006778
_cell_angle_gamma 90.000000
_cell_volume 3271.679791
_symmetry_space_group_name_H-M "C 2/C"
_symmetry_group_IT_number 15
_symmetry_cell_setting 'monoclinic'
loop_
_space_group_symop_operation_xyz
x,y,z
-x,y,1/2-z
-x,-y,-z
x,-y,1/2+z
1/2+x,1/2+y,z
1/2-x,1/2+y,1/2-z
1/2-x,1/2-y,-z
1/2+x,1/2-y,1/2+z
loop_
_atom_site_type_symbol
_atom_site_label
_atom_site_fract_x
_atom_site_fract_y
_atom_site_fract_z
Si Si1 0.336540 0.584115 0.768819
Si Si2 0.857528 0.208626 0.747772
Si Si3 0.500000 0.460917 0.750000
Si Si4 0.587912 0.195787 0.014063
Si Si5 0.068967 0.467804 0.780906
Si Si6 0.836510 0.051052 0.552232
Si Si7 0.617963 0.325830 0.413902
Si Si8 0.953130 0.426836 0.972999
O O1 0.298572 0.651560 0.686618
O O2 0.217521 0.546386 0.577866
O O3 0.390094 0.558684 0.767095
O O4 0.442293 0.580102 0.055965
O O5 0.750000 0.250000 0.500000
O O6 0.947497 0.246079 0.992999
O O7 0.930910 0.187451 0.790775
O O8 0.393102 0.497490 0.602436
O O9 0.741677 0.199417 0.286592
O O10 0.550254 0.140129 0.006432
O O11 0.500000 0.195347 0.750000
O O12 0.012183 0.432829 0.577369
O O13 0.000000 0.448631 0.750000
O O14 0.053736 0.536725 0.731843
O O15 0.871119 0.105922 0.551392
O O16 0.683778 0.043627 0.268041
O O17 0.500000 0.299874 0.250000
#
# Coordination Sequence:
#
# PCOD8131483 Si02
#       8
#     8   8   4   8   8   8   8   8
#     4  10  22  34  52  79 111 145 181 223 271 338
#     4   9  19  38  58  76 105 149 192 226 274 338
#     4  12  20  30  52  78 112 138 174 220 272 328
#     4  10  20  35  59  81 109 146 188 235 287 326
#     4  10  18  33  55  78 111 141 176 220 281 337
#     4   9  18  34  52  77 108 144 179 210 275 334
#     4   9  17  35  59  80 102 146 194 225 265 338
#     4   9  19  34  54  81 110 137 181 233 271 335
#
# _framework density 18.339203000000001
#
# number of rings (size 3 to 8) (size 9 to 14) (size 15 to 20)
#    0.000    2.400    0.667    4.000    0.933    1.067 
#    0.000    6.667    2.933    0.000    0.000    0.000 
#    0.000    0.000    0.000    0.000    0.000    0.000 
#
# Total GULP energy -371722.021314 kJ/mol
# GULP energy per Si atom -12390.734044 kJ/mol
# Density = 1.829746 g / cm^3
# Si number density = 18.339203 Si / 1000 Ang^3
#
#
#
# Elastic Constant Matrix: (Units=GPa)
#
#
# Indices 1 2 3 4 5 6 
#
# 1 105.3473 37.9843 43.8885 0.0000 -0.1105 0.0000
# 2 37.9843 100.2218 36.6573 0.0000 -1.6576 0.0000
# 3 43.8885 36.6573 81.2966 0.0000 -12.5943 0.0000
# 4 0.0000 0.0000 0.0000 24.4074 0.0000 -7.3349
# 5 -0.1105 -1.6576 -12.5943 0.0000 29.1476 0.0000
# 6 0.0000 0.0000 0.0000 -7.3349 0.0000 17.3562
#
#
#
# Elastic Compliance Matrix: (Units=1/GPa)
#
#
# Indices 1 2 3 4 5 6 
#
# 1 0.013081 -0.002708 -0.006277 0.000000 -0.002817 0.000000
# 2 -0.002708 0.012595 -0.004402 0.000000 -0.001196 0.000000
# 3 -0.006277 -0.004402 0.018897 0.000000 0.007891 0.000000
# 4 0.000000 0.000000 0.000000 0.046932 0.000000 0.019834
# 5 -0.002817 -0.001196 0.007891 0.000000 0.037639 0.000000
# 6 0.000000 0.000000 0.000000 0.019834 0.000000 0.065998
#
#
# Mechanical properties :
#
#
# Convention : Reuss Voigt Hill
#
# Bulk Modulus (GPa) = 56.18838 58.21398 57.20118
# Shear Modulus (GPa) = 21.94434 25.40460 23.67447
#
# Velocity S-wave (km/s) = 3.46292 3.72595 3.59684
# Velocity P-wave (km/s) = 6.83330 7.09381 6.96477
#
# Compressibility (1/GPa) = 0.01779728
#
# Stress axis : x y z
#
# Youngs Moduli (GPa) = 76.44636 79.39814 52.91915
#
# Poissons Ratio (x) = 0.21505 0.33217
# Poissons Ratio (y) = 0.20705 0.23296
# Poissons Ratio (z) = 0.47985 0.34953
#
# Static dielectric constant tensor:
#      x y z
#    x 3.585000 0.000000 -0.212460 
#    y 0.000000 3.622560 0.000000 
#    z -0.212460 0.000000 3.249930 
# 
# 
# High freq. dielectric constant tensor:
#      x y z
#    x 1.714320 0.000000 -0.014940 
#    y 0.000000 1.706500 0.000000 
#    z -0.014940 0.000000 1.689450 
# 
# From -- ./inp_files/183206.got.cif
#   From: 2010.06.25/outbox.cif.g09.slc.cpg/sg15_92_cif.got.tgz:183206.got - 2010.06.28 07:06:18.
