data_PCOD8131897
_publ_section_title
;
Structure prediction by ZEFSAII (Michael W. Deem and Ramdas Pophale) SiO2 
 PCOD8131897
Probable space group: C 2/C
;
_chemical_formula_sum "Si O2"
_cell_formula_units_Z 52
_cell_length_a 7.401131
_cell_length_b 12.583859
_cell_length_c 23.723945
_cell_angle_alpha 90.000000
_cell_angle_beta 92.216539
_cell_angle_gamma 90.000000
_cell_volume 2207.871430
_symmetry_space_group_name_H-M "C 2/C"
_symmetry_group_IT_number 15
_symmetry_cell_setting 'monoclinic'
loop_
_space_group_symop_operation_xyz
x,y,z
-x,y,1/2-z
-x,-y,-z
x,-y,1/2+z
1/2+x,1/2+y,z
1/2-x,1/2+y,1/2-z
1/2-x,1/2-y,-z
1/2+x,1/2-y,1/2+z
loop_
_atom_site_type_symbol
_atom_site_label
_atom_site_fract_x
_atom_site_fract_y
_atom_site_fract_z
Si Si1 0.564126 0.575249 0.049684
Si Si2 0.022507 0.987111 0.165310
Si Si3 0.580404 0.117757 0.504531
Si Si4 0.698316 0.826752 0.579650
Si Si5 0.700011 0.172199 0.823177
Si Si6 0.500000 0.330003 0.750000
Si Si7 0.870000 0.555000 0.874352
O O1 0.608473 0.502641 0.104293
O O2 0.404847 0.654997 0.064171
O O3 0.500000 0.500000 0.000000
O O4 0.741360 0.637823 0.031316
O O5 0.147126 0.904491 0.200272
O O6 0.047492 0.099266 0.196773
O O7 0.820344 0.940398 0.160705
O O8 0.426720 0.197748 0.477290
O O9 0.500000 0.000000 0.500000
O O10 0.629584 0.133452 0.570877
O O11 0.607017 0.930751 0.608143
O O12 0.706896 0.727559 0.621454
O O13 0.663107 0.255507 0.772904
O O14 0.524148 0.100474 0.835321
#
# Coordination Sequence:
#
# PCOD8131897 Si02
#       7
#     8   8   8   8   8   4   8
#     4  11  18  39  71  99 148 189 213 293 356 410
#     4  11  25  49  73 103 143 184 240 299 351 418
#     4  10  18  34  68 104 143 188 219 270 353 424
#     4  10  22  41  64 105 148 181 227 279 345 421
#     4  12  27  47  74 101 139 188 237 299 355 413
#     4  12  28  54  70 102 138 182 252 304 350 420
#     4  10  22  44  70 106 143 178 235 280 345 432
#
# _framework density 23.552097
#
# number of rings (size 3 to 8) (size 9 to 14) (size 15 to 20)
#    0.000    1.231    7.692    1.846    2.154    1.846 
#    2.769    3.077    0.000    0.000    0.000    0.000 
#    0.000    0.000    0.000    0.000    0.000    0.000 
#
# Total GULP energy -322267.524191 kJ/mol
# GULP energy per Si atom -12394.904777 kJ/mol
# Density = 2.349849 g / cm^3
# Si number density = 23.552097 Si / 1000 Ang^3
#
#
#
# Elastic Constant Matrix: (Units=GPa)
#
#
# Indices 1 2 3 4 5 6 
#
# 1 141.3779 47.6853 33.0780 0.0000 20.0247 0.0000
# 2 47.6853 85.6523 29.7455 0.0000 18.6262 0.0000
# 3 33.0780 29.7455 89.6418 0.0000 28.9718 0.0000
# 4 0.0000 0.0000 0.0000 7.5137 0.0000 11.5248
# 5 20.0247 18.6262 28.9718 0.0000 25.5146 0.0000
# 6 0.0000 0.0000 0.0000 11.5248 0.0000 32.9006
#
#
#
# Elastic Compliance Matrix: (Units=1/GPa)
#
#
# Indices 1 2 3 4 5 6 
#
# 1 0.009111 -0.004057 -0.001046 0.000000 -0.003002 0.000000
# 2 -0.004057 0.015940 -0.001675 0.000000 -0.006550 0.000000
# 3 -0.001046 -0.001675 0.018067 0.000000 -0.018472 0.000000
# 4 0.000000 0.000000 0.000000 0.287630 0.000000 -0.100754
# 5 -0.003002 -0.006550 -0.018472 0.000000 0.067306 0.000000
# 6 0.000000 0.000000 0.000000 -0.100754 0.000000 0.065688
#
#
# Mechanical properties :
#
#
# Convention : Reuss Voigt Hill
#
# Bulk Modulus (GPa) = 33.82602 59.74328 46.78465
# Shear Modulus (GPa) = 10.26375 26.93000 18.59688
#
# Velocity S-wave (km/s) = 2.08982 3.38512 2.81304
# Velocity P-wave (km/s) = 4.49628 6.37967 5.51891
#
# Compressibility (1/GPa) = 0.02956304
#
# Stress axis : x y z
#
# Youngs Moduli (GPa) = 109.75309 62.73610 55.34874
#
# Poissons Ratio (x) = 0.25449 0.05788
# Poissons Ratio (y) = 0.44522 0.09273
# Poissons Ratio (z) = 0.11478 0.10510
#
# Static dielectric constant tensor:
#      x y z
#    x -9.726250 0.000000 5.833010 
#    y 0.000000 3.532410 0.000000 
#    z 5.833010 0.000000 2.256920 
# 
# 
# High freq. dielectric constant tensor:
#      x y z
#    x 1.932640 0.000000 0.022150 
#    y 0.000000 1.925880 0.000000 
#    z 0.022150 0.000000 1.930690 
# 
# From -- ./inp_files/287670.got.cif
#   From: 2010.06.25/outbox.cif.g09.slc.cpg/sg15_144_cif.got.tgz:287670.got - 2010.06.28 07:06:18.
