data_PCOD8131288
_publ_section_title
;
Structure prediction by ZEFSAII (Michael W. Deem and Ramdas Pophale) SiO2 
 PCOD8131288
Probable space group: C 2/C
;
_chemical_formula_sum "Si O2"
_cell_formula_units_Z 64
_cell_length_a 9.644944
_cell_length_b 20.727529
_cell_length_c 22.766506
_cell_angle_alpha 90.000000
_cell_angle_beta 136.038123
_cell_angle_gamma 90.000000
_cell_volume 3159.478944
_symmetry_space_group_name_H-M "C 2/C"
_symmetry_group_IT_number 15
_symmetry_cell_setting 'monoclinic'
loop_
_space_group_symop_operation_xyz
x,y,z
-x,y,1/2-z
-x,-y,-z
x,-y,1/2+z
1/2+x,1/2+y,z
1/2-x,1/2+y,1/2-z
1/2-x,1/2-y,-z
1/2+x,1/2-y,1/2+z
loop_
_atom_site_type_symbol
_atom_site_label
_atom_site_fract_x
_atom_site_fract_y
_atom_site_fract_z
Si Si1 0.133784 0.399899 0.173288
Si Si2 0.672321 0.120928 0.555415
Si Si3 0.458726 0.903871 0.673148
Si Si4 0.088714 0.013996 0.932208
Si Si5 0.645661 0.467583 0.744146
Si Si6 0.583846 0.201304 0.426840
Si Si7 0.242882 0.537725 0.901902
Si Si8 0.057133 0.203183 0.703247
O O1 0.063635 0.391380 0.084102
O O2 0.286972 0.459284 0.221603
O O3 0.236560 0.335847 0.229873
O O4 0.940845 0.412313 0.155313
O O5 0.729598 0.054554 0.539984
O O6 0.521776 0.162312 0.467284
O O7 0.881335 0.155888 0.630466
O O8 0.500000 0.874324 0.750000
O O9 0.666715 0.919966 0.703605
O O10 0.337758 0.852271 0.596265
O O11 0.327486 0.967564 0.641562
O O12 0.917525 0.059957 0.910329
O O13 0.985462 0.967144 0.854360
O O14 0.177533 0.966193 0.007789
O O15 0.500000 0.441231 0.750000
O O16 0.750000 0.250000 0.500000
O O17 0.416089 0.241267 0.338871
O O18 0.000000 0.232486 0.750000
#
# Coordination Sequence:
#
# PCOD8131288 Si02
#       8
#     8   8   8   8   8   8   8   8
#     4  10  19  33  55  85 113 144 187 229 278 332
#     4  10  18  32  55  81 114 141 187 228 276 333
#     4  11  21  35  54  85 113 144 190 232 274 337
#     4  11  19  36  51  81 123 147 176 217 282 340
#     4  11  20  33  56  85 119 153 174 220 287 341
#     4  10  21  35  56  82 107 148 193 242 276 315
#     4  10  23  33  53  84 121 150 176 224 286 348
#     4   9  17  33  54  79 107 141 190 241 274 317
#
# _framework density 20.256504
#
# number of rings (size 3 to 8) (size 9 to 14) (size 15 to 20)
#    0.000    1.750    5.000    0.750    0.000    1.500 
#    0.000    0.000    0.000    3.000    0.000   19.250 
#    0.000    0.000    0.000    0.000    0.000    0.000 
#
# Total GULP energy -396550.582761 kJ/mol
# GULP energy per Si atom -12392.205711 kJ/mol
# Density = 2.021040 g / cm^3
# Si number density = 20.256504 Si / 1000 Ang^3
#
#
#
# Elastic Constant Matrix: (Units=GPa)
#
#
# Indices 1 2 3 4 5 6 
#
# 1 72.5067 19.4351 26.4611 0.0000 0.6167 0.0000
# 2 19.4351 68.0666 32.5994 -0.0001 -5.2071 0.0000
# 3 26.4611 32.5994 107.6814 0.0000 -24.0620 0.0001
# 4 0.0000 -0.0001 0.0000 34.0310 -0.0001 -5.5529
# 5 0.6167 -5.2071 -24.0620 -0.0001 31.3515 0.0000
# 6 0.0000 0.0000 0.0001 -5.5529 0.0000 8.2260
#
#
#
# Elastic Compliance Matrix: (Units=1/GPa)
#
#
# Indices 1 2 3 4 5 6 
#
# 1 0.016048 -0.003015 -0.003878 0.000000 -0.003793 0.000000
# 2 -0.003015 0.017798 -0.004796 0.000000 -0.000666 0.000000
# 3 -0.003878 -0.004796 0.013918 0.000000 0.009961 0.000000
# 4 0.000000 0.000000 0.000000 0.033022 0.000000 0.022292
# 5 -0.003793 -0.000666 0.009961 0.000000 0.039506 0.000000
# 6 0.000000 0.000000 0.000000 0.022292 0.000000 0.136613
#
#
# Mechanical properties :
#
#
# Convention : Reuss Voigt Hill
#
# Bulk Modulus (GPa) = 41.00873 45.02731 43.01802
# Shear Modulus (GPa) = 17.33631 26.03897 21.68764
#
# Velocity S-wave (km/s) = 2.92865 3.58922 3.27563
# Velocity P-wave (km/s) = 5.63246 6.28120 5.96566
#
# Compressibility (1/GPa) = 0.02438505
#
# Stress axis : x y z
#
# Youngs Moduli (GPa) = 62.31475 56.18467 71.85145
#
# Poissons Ratio (x) = 0.16938 0.27866
# Poissons Ratio (y) = 0.18786 0.34461
# Poissons Ratio (z) = 0.24168 0.26947
#
# Static dielectric constant tensor:
#      x y z
#    x 3.535150 0.000000 -0.343780 
#    y 0.000000 3.538070 0.000000 
#    z -0.343780 0.000000 4.112790 
# 
# 
# High freq. dielectric constant tensor:
#      x y z
#    x 1.761150 0.000000 -0.029410 
#    y 0.000000 1.759640 0.000000 
#    z -0.029410 0.000000 1.813550 
# 
# From -- ./inp_files/234456.got.cif
#   From: 2010.06.25/outbox.cif.g09.slc.cpg/sg15_118_cif.got.tgz:234456.got - 2010.06.28 07:06:18.
