data_PCOD8131000
_publ_section_title
;
Structure prediction by ZEFSAII (Michael W. Deem and Ramdas Pophale) SiO2 
 PCOD8131000
Probable space group: C 2/C
;
_chemical_formula_sum "Si O2"
_cell_formula_units_Z 64
_cell_length_a 14.144429
_cell_length_b 14.516681
_cell_length_c 18.092640
_cell_angle_alpha 90.000000
_cell_angle_beta 101.473085
_cell_angle_gamma 90.000000
_cell_volume 3640.733239
_symmetry_space_group_name_H-M "C 2/C"
_symmetry_group_IT_number 15
_symmetry_cell_setting 'monoclinic'
loop_
_space_group_symop_operation_xyz
x,y,z
-x,y,1/2-z
-x,-y,-z
x,-y,1/2+z
1/2+x,1/2+y,z
1/2-x,1/2+y,1/2-z
1/2-x,1/2-y,-z
1/2+x,1/2-y,1/2+z
loop_
_atom_site_type_symbol
_atom_site_label
_atom_site_fract_x
_atom_site_fract_y
_atom_site_fract_z
Si Si1 0.775450 0.124285 0.572532
Si Si2 0.660670 0.928048 0.355789
Si Si3 0.986419 0.864189 0.946477
Si Si4 0.849490 0.985191 0.467592
Si Si5 0.145608 0.426210 0.179595
Si Si6 0.515485 0.223772 0.835718
Si Si7 0.496109 0.959424 0.582433
Si Si8 0.897059 0.718544 0.037373
O O1 0.743893 0.097285 0.650614
O O2 0.851798 0.209277 0.589770
O O3 0.685715 0.153209 0.508086
O O4 0.820472 0.034691 0.539787
O O5 0.764181 0.938564 0.408906
O O6 0.668287 0.943810 0.268816
O O7 0.618316 0.826392 0.364853
O O8 0.590258 0.001473 0.381474
O O9 0.017728 0.823946 0.872947
O O10 0.077990 0.903000 0.003624
O O11 0.902954 0.940399 0.923589
O O12 0.946117 0.775448 0.980990
O O13 0.070683 0.343650 0.152235
O O14 0.097820 0.518710 0.137966
O O15 0.500000 0.249697 0.750000
O O16 0.479383 0.849052 0.582377
O O17 0.500000 0.000000 0.500000
#
# Coordination Sequence:
#
# PCOD8131000 Si02
#       8
#     8   8   8   8   8   8   8   8
#     4  10  18  33  55  82  99 140 184 217 251 320
#     4  10  20  34  53  79 112 143 170 222 268 318
#     4  10  20  36  56  77 104 140 175 222 261 313
#     4  10  21  36  56  77 107 138 181 218 265 307
#     4  10  19  33  55  79 112 140 174 216 278 312
#     4   9  18  33  53  77 105 139 173 212 267 320
#     4  11  17  30  55  86 104 135 178 224 260 311
#     4  10  18  30  59  79 101 133 184 222 256 302
#
# _framework density 17.578875
#
# number of rings (size 3 to 8) (size 9 to 14) (size 15 to 20)
#    0.000    2.000    3.750    1.875    0.000    0.500 
#    2.250    0.000    8.250    0.000    0.000    0.000 
#    0.000    0.000    0.000    0.000    0.000    0.000 
#
# Total GULP energy -396659.052561 kJ/mol
# GULP energy per Si atom -12395.595393 kJ/mol
# Density = 1.753886 g / cm^3
# Si number density = 17.578875 Si / 1000 Ang^3
#
#
#
# Elastic Constant Matrix: (Units=GPa)
#
#
# Indices 1 2 3 4 5 6 
#
# 1 75.8937 26.7115 35.4947 0.0000 1.8897 0.0000
# 2 26.7115 71.6161 29.2769 0.0000 7.5107 0.0000
# 3 35.4947 29.2769 72.3666 0.0000 -7.2734 0.0000
# 4 0.0000 0.0000 0.0000 14.7988 0.0000 1.0896
# 5 1.8897 7.5107 -7.2734 0.0000 12.8673 0.0000
# 6 0.0000 0.0000 0.0000 1.0896 0.0000 12.8120
#
#
#
# Elastic Compliance Matrix: (Units=1/GPa)
#
#
# Indices 1 2 3 4 5 6 
#
# 1 0.018223 -0.002746 -0.008413 0.000000 -0.005829 0.000000
# 2 -0.002746 0.020111 -0.008406 0.000000 -0.016087 0.000000
# 3 -0.008413 -0.008406 0.023286 0.000000 0.019305 0.000000
# 4 0.000000 0.000000 0.000000 0.067999 0.000000 -0.005783
# 5 -0.005829 -0.016087 0.019305 0.000000 0.098875 0.000000
# 6 0.000000 0.000000 0.000000 -0.005783 0.000000 0.078543
#
#
# Mechanical properties :
#
#
# Convention : Reuss Voigt Hill
#
# Bulk Modulus (GPa) = 44.46517 44.76030 44.61273
# Shear Modulus (GPa) = 14.13773 16.65518 15.39645
#
# Velocity S-wave (km/s) = 2.83900 3.08141 2.96269
# Velocity P-wave (km/s) = 6.00801 6.17883 6.09402
#
# Compressibility (1/GPa) = 0.02248951
#
# Stress axis : x y z
#
# Youngs Moduli (GPa) = 54.87703 49.72333 42.94447
#
# Poissons Ratio (x) = 0.13656 0.36128
# Poissons Ratio (y) = 0.15071 0.36100
# Poissons Ratio (z) = 0.46166 0.41798
#
# Static dielectric constant tensor:
#      x y z
#    x 3.486370 0.000000 -0.295090 
#    y 0.000000 3.401620 0.000000 
#    z -0.295090 0.000000 3.212810 
# 
# 
# High freq. dielectric constant tensor:
#      x y z
#    x 1.680450 0.000000 -0.020850 
#    y 0.000000 1.677070 0.000000 
#    z -0.020850 0.000000 1.659020 
# 
# From -- ./inp_files/205125.got.cif
#   From: 2010.06.25/outbox.cif.g09.slc.cpg/sg15_103_cif.got.tgz:205125.got - 2010.06.28 07:06:18.
