data_PCOD8131682
_publ_section_title
;
Structure prediction by ZEFSAII (Michael W. Deem and Ramdas Pophale) SiO2 
 PCOD8131682
Probable space group: C 2/C
;
_chemical_formula_sum "Si O2"
_cell_formula_units_Z 64
_cell_length_a 10.227519
_cell_length_b 21.672721
_cell_length_c 20.242712
_cell_angle_alpha 90.000000
_cell_angle_beta 130.105425
_cell_angle_gamma 90.000000
_cell_volume 3431.899907
_symmetry_space_group_name_H-M "C 2/C"
_symmetry_group_IT_number 15
_symmetry_cell_setting 'monoclinic'
loop_
_space_group_symop_operation_xyz
x,y,z
-x,y,1/2-z
-x,-y,-z
x,-y,1/2+z
1/2+x,1/2+y,z
1/2-x,1/2+y,1/2-z
1/2-x,1/2-y,-z
1/2+x,1/2-y,1/2+z
loop_
_atom_site_type_symbol
_atom_site_label
_atom_site_fract_x
_atom_site_fract_y
_atom_site_fract_z
Si Si1 0.581008 0.848572 0.345747
Si Si2 0.007771 0.625506 0.481395
Si Si3 0.537618 0.634801 0.491456
Si Si4 0.813013 0.063328 0.523072
Si Si5 0.535307 0.961942 0.412839
Si Si6 0.945890 0.737010 0.548551
Si Si7 0.762363 0.559255 0.322200
Si Si8 0.979638 0.952286 0.635618
O O1 0.500000 0.830755 0.250000
O O2 0.788321 0.845753 0.413723
O O3 0.529488 0.918058 0.347466
O O4 0.488940 0.800565 0.366294
O O5 0.977507 0.695304 0.494003
O O6 0.902898 0.613688 0.378842
O O7 0.208918 0.611387 0.535412
O O8 0.929455 0.577209 0.509251
O O9 0.402110 0.602944 0.495124
O O10 0.458992 0.697843 0.434106
O O11 0.580278 0.587967 0.446287
O O12 0.681868 0.013190 0.450120
O O13 0.955442 0.025056 0.610598
O O14 0.351041 0.992934 0.359020
O O15 0.750000 0.750000 0.500000
O O16 0.625868 0.567230 0.335279
O O17 0.676327 0.561608 0.221191
#
# Coordination Sequence:
#
# PCOD8131682 Si02
#       8
#     8   8   8   8   8   8   8   8
#     4  10  21  36  58  83 105 146 190 232 282 328
#     4  10  18  38  59  82 111 153 190 227 283 331
#     4  11  23  38  53  83 117 148 186 233 283 329
#     4  11  20  34  59  81 116 152 178 230 285 345
#     4  10  18  34  55  81 117 143 180 234 282 338
#     4   9  20  40  60  77 112 144 194 235 269 328
#     4  10  19  31  56  85 111 145 188 226 277 340
#     4  11  20  34  52  86 116 147 181 229 282 332
#
# _framework density 18.648562999999999
#
# number of rings (size 3 to 8) (size 9 to 14) (size 15 to 20)
#    0.000    1.750    3.750    2.625    1.750    0.500 
#    6.750    1.875    0.000    0.000    6.500    0.000 
#    0.000    0.000    0.000    0.000    0.000    0.000 
#
# Total GULP energy -396581.957366 kJ/mol
# GULP energy per Si atom -12393.186168 kJ/mol
# Density = 1.860612 g / cm^3
# Si number density = 18.648563 Si / 1000 Ang^3
#
#
#
# Elastic Constant Matrix: (Units=GPa)
#
#
# Indices 1 2 3 4 5 6 
#
# 1 86.0364 55.0290 28.4360 0.0000 -7.4306 0.0000
# 2 55.0290 108.9728 27.0753 0.0000 -6.7011 0.0000
# 3 28.4360 27.0753 105.1099 0.0000 1.4083 0.0000
# 4 0.0000 0.0000 0.0000 12.3278 0.0000 -3.8364
# 5 -7.4306 -6.7011 1.4083 0.0000 19.2055 0.0000
# 6 0.0000 0.0000 0.0000 -3.8364 0.0000 34.4800
#
#
#
# Elastic Compliance Matrix: (Units=1/GPa)
#
#
# Indices 1 2 3 4 5 6 
#
# 1 0.018200 -0.008208 -0.002868 0.000000 0.004388 0.000000
# 2 -0.008208 0.013762 -0.001348 0.000000 0.001725 0.000000
# 3 -0.002868 -0.001348 0.010669 0.000000 -0.002362 0.000000
# 4 0.000000 0.000000 0.000000 0.084027 0.000000 0.009349
# 5 0.004388 0.001725 -0.002362 0.000000 0.054541 0.000000
# 6 0.000000 0.000000 0.000000 0.009349 0.000000 0.030043
#
#
# Mechanical properties :
#
#
# Convention : Reuss Voigt Hill
#
# Bulk Modulus (GPa) = 56.23316 57.91108 57.07212
# Shear Modulus (GPa) = 20.65975 25.84126 23.25050
#
# Velocity S-wave (km/s) = 3.33204 3.72653 3.53480
# Velocity P-wave (km/s) = 6.70992 7.04538 6.87969
#
# Compressibility (1/GPa) = 0.01778310
#
# Stress axis : x y z
#
# Youngs Moduli (GPa) = 54.94557 72.66164 93.73321
#
# Poissons Ratio (x) = 0.59641 0.26884
# Poissons Ratio (y) = 0.45100 0.12631
# Poissons Ratio (z) = 0.15759 0.09792
#
# Static dielectric constant tensor:
#      x y z
#    x 3.336890 0.000000 0.038870 
#    y 0.000000 3.638650 0.000000 
#    z 0.038870 0.000000 3.525760 
# 
# 
# High freq. dielectric constant tensor:
#      x y z
#    x 1.711310 0.000000 0.000290 
#    y 0.000000 1.718840 0.000000 
#    z 0.000290 0.000000 1.705820 
# 
# From -- ./inp_files/240274.got.cif
#   From: 2010.06.25/outbox.cif.g09.slc.cpg/sg15_121_cif.got.tgz:240274.got - 2010.06.28 07:06:18.
