data_PCOD8131014
_publ_section_title
;
Structure prediction by ZEFSAII (Michael W. Deem and Ramdas Pophale) SiO2 
 PCOD8131014
Probable space group: C 2/C
;
_chemical_formula_sum "Si O2"
_cell_formula_units_Z 48
_cell_length_a 24.759037
_cell_length_b 19.494117
_cell_length_c 8.342388
_cell_angle_alpha 90.000000
_cell_angle_beta 140.995844
_cell_angle_gamma 90.000000
_cell_volume 2534.185517
_symmetry_space_group_name_H-M "C 2/C"
_symmetry_group_IT_number 15
_symmetry_cell_setting 'monoclinic'
loop_
_space_group_symop_operation_xyz
x,y,z
-x,y,1/2-z
-x,-y,-z
x,-y,1/2+z
1/2+x,1/2+y,z
1/2-x,1/2+y,1/2-z
1/2-x,1/2-y,-z
1/2+x,1/2-y,1/2+z
loop_
_atom_site_type_symbol
_atom_site_label
_atom_site_fract_x
_atom_site_fract_y
_atom_site_fract_z
Si Si1 0.833340 0.709237 0.755659
Si Si2 0.273888 0.435253 0.968207
Si Si3 0.754166 0.583467 0.453311
Si Si4 0.110095 0.828653 0.779184
Si Si5 0.247232 0.810063 0.366258
Si Si6 0.026149 0.926865 0.125036
O O1 0.750000 0.750000 0.500000
O O2 0.834183 0.630460 0.696466
O O3 0.910065 0.755954 0.860453
O O4 0.827844 0.705939 0.935583
O O5 0.250276 0.510716 0.971043
O O6 0.236097 0.382348 0.009665
O O7 0.373591 0.419701 0.172904
O O8 0.229033 0.425173 0.695078
O O9 0.666458 0.622465 0.293702
O O10 0.019910 0.868147 0.589855
O O11 0.157819 0.815168 0.059160
O O12 0.250000 0.750000 0.500000
O O13 0.000000 0.918704 0.250000
O O14 0.000000 0.000000 0.000000
#
# Coordination Sequence:
#
# PCOD8131014 Si02
#       6
#     8   8   8   8   8   8
#     4   8  17  32  50  64  90 126 179 222 267 279
#     4  12  20  31  48  72 103 135 177 204 269 305
#     4  10  18  31  47  69  96 133 173 221 249 314
#     4  10  19  34  48  68  97 137 179 214 257 304
#     4  10  20  32  51  68  93 129 175 230 268 311
#     4  12  24  33  48  69 110 150 181 207 242 319
#
# _framework density 18.940995999999998
#
# number of rings (size 3 to 8) (size 9 to 14) (size 15 to 20)
#    0.000    2.000    3.333    5.000    2.333    0.000 
#    0.000    0.000    0.000    0.000    0.000    0.000 
#    0.000    1.333    1.000    1.667    0.000   10.500 
#
# Total GULP energy -297348.968044 kJ/mol
# GULP energy per Si atom -12389.540335 kJ/mol
# Density = 1.889789 g / cm^3
# Si number density = 18.940996 Si / 1000 Ang^3
#
#
#
# Elastic Constant Matrix: (Units=GPa)
#
#
# Indices 1 2 3 4 5 6 
#
# 1 55.0126 53.5234 34.5894 0.0000 -28.9343 0.0000
# 2 53.5234 176.8641 51.7137 0.0000 -18.6423 0.0000
# 3 34.5894 51.7137 75.0342 0.0000 -32.2887 0.0000
# 4 0.0000 0.0000 0.0000 34.1595 0.0000 -8.9072
# 5 -28.9343 -18.6423 -32.2887 0.0000 35.8857 0.0000
# 6 0.0000 0.0000 0.0000 -8.9072 0.0000 43.0678
#
#
#
# Elastic Compliance Matrix: (Units=1/GPa)
#
#
# Indices 1 2 3 4 5 6 
#
# 1 0.043833 -0.009971 -0.000579 0.000000 0.029642 0.000000
# 2 -0.009971 0.009379 -0.005272 0.000000 -0.007911 0.000000
# 3 -0.000579 -0.005272 0.025861 0.000000 0.020064 0.000000
# 4 0.000000 0.000000 0.000000 0.030943 0.000000 0.006400
# 5 0.029642 -0.007911 0.020064 0.000000 0.065709 0.000000
# 6 0.000000 0.000000 0.000000 0.006400 0.000000 0.024543
#
#
# Mechanical properties :
#
#
# Convention : Reuss Voigt Hill
#
# Bulk Modulus (GPa) = 21.08372 65.17379 43.12876
# Shear Modulus (GPa) = 20.18395 33.76157 26.97276
#
# Velocity S-wave (km/s) = 3.26793 4.22650 3.77774
# Velocity P-wave (km/s) = 5.03930 7.63553 6.46900
#
# Compressibility (1/GPa) = 0.04742995
#
# Stress axis : x y z
#
# Youngs Moduli (GPa) = 22.81377 106.61851 38.66826
#
# Poissons Ratio (x) = 1.06314 0.02237
# Poissons Ratio (y) = 0.22749 0.20385
# Poissons Ratio (z) = 0.01320 0.56206
#
# Static dielectric constant tensor:
#      x y z
#    x 3.615170 0.000000 -0.287000 
#    y 0.000000 3.527510 0.000000 
#    z -0.287000 0.000000 3.475130 
# 
# 
# High freq. dielectric constant tensor:
#      x y z
#    x 1.707470 0.000000 -0.048510 
#    y 0.000000 1.756850 0.000000 
#    z -0.048510 0.000000 1.707270 
# 
# From -- ./inp_files/66768.got.cif
#   From: 2010.06.25/outbox.cif.g09.slc.cpg/sg15_34_cif.got.tgz:66768.got - 2010.06.28 07:06:18.
