data_PCOD8131304
_publ_section_title
;
Structure prediction by ZEFSAII (Michael W. Deem and Ramdas Pophale) SiO2 
 PCOD8131304
Probable space group: C 2/C
;
_chemical_formula_sum "Si O2"
_cell_formula_units_Z 48
_cell_length_a 18.010722
_cell_length_b 16.636655
_cell_length_c 23.076229
_cell_angle_alpha 90.000000
_cell_angle_beta 23.326836
_cell_angle_gamma 90.000000
_cell_volume 2737.981067
_symmetry_space_group_name_H-M "C 2/C"
_symmetry_group_IT_number 15
_symmetry_cell_setting 'monoclinic'
loop_
_space_group_symop_operation_xyz
x,y,z
-x,y,1/2-z
-x,-y,-z
x,-y,1/2+z
1/2+x,1/2+y,z
1/2-x,1/2+y,1/2-z
1/2-x,1/2-y,-z
1/2+x,1/2-y,1/2+z
loop_
_atom_site_type_symbol
_atom_site_label
_atom_site_fract_x
_atom_site_fract_y
_atom_site_fract_z
Si Si1 0.186653 0.632027 0.578079
Si Si2 0.430896 0.229022 0.946854
Si Si3 0.478146 0.829766 0.883151
Si Si4 0.354165 0.231483 0.129565
Si Si5 0.816803 0.452846 0.918953
Si Si6 0.683927 0.313136 0.943885
O O1 0.349118 0.682431 0.493007
O O2 0.147690 0.665555 0.542297
O O3 0.266319 0.541767 0.511993
O O4 0.000000 0.637808 0.750000
O O5 0.653603 0.231207 0.786378
O O6 0.363770 0.197612 0.057722
O O7 0.593994 0.839151 0.860979
O O8 0.370819 0.911369 0.941881
O O9 0.620584 0.804868 0.729990
O O10 0.326080 0.758490 0.001216
O O11 0.505346 0.304737 0.028719
O O12 0.671376 0.397584 0.987315
O O13 0.000000 0.465068 0.750000
#
# Coordination Sequence:
#
# PCOD8131304 Si02
#       6
#     8   8   8   8   8   8
#     4  10  21  35  57  75 101 139 175 221 251 300
#     4  11  20  36  56  74 102 137 181 209 259 306
#     4   9  17  31  56  80 105 138 166 210 258 304
#     4  10  18  32  56  79 103 134 173 214 252 314
#     4   9  18  34  52  82 107 133 177 208 254 308
#     4   9  17  31  56  81 103 138 168 210 259 301
#
# _framework density 17.531165000000001
#
# number of rings (size 3 to 8) (size 9 to 14) (size 15 to 20)
#    1.000    1.333    3.333    0.500    0.000    0.000 
#    0.000    3.333    7.333    0.000    0.000    0.000 
#    0.000    0.000    0.000    0.000    0.000    0.000 
#
# Total GULP energy -297362.994428 kJ/mol
# GULP energy per Si atom -12390.124768 kJ/mol
# Density = 1.749126 g / cm^3
# Si number density = 17.531165 Si / 1000 Ang^3
#
#
#
# Elastic Constant Matrix: (Units=GPa)
#
#
# Indices 1 2 3 4 5 6 
#
# 1 113.3315 45.4828 21.2909 -0.0258 18.3707 0.0055
# 2 45.4828 121.5033 26.7139 -0.0462 9.9860 0.0109
# 3 21.2909 26.7139 56.6359 -0.1062 10.2967 0.0170
# 4 -0.0258 -0.0462 -0.1062 15.7618 0.0139 1.5088
# 5 18.3707 9.9860 10.2967 0.0139 26.7902 0.0029
# 6 0.0055 0.0109 0.0170 1.5088 0.0029 9.9699
#
#
#
# Elastic Compliance Matrix: (Units=1/GPa)
#
#
# Indices 1 2 3 4 5 6 
#
# 1 0.011478 -0.003454 -0.001601 0.000003 -0.005968 0.000001
# 2 -0.003454 0.010312 -0.003545 0.000001 -0.000113 -0.000003
# 3 -0.001601 -0.003545 0.020955 0.000138 -0.005635 -0.000050
# 4 0.000003 0.000001 0.000138 0.064378 -0.000088 -0.009743
# 5 -0.005968 -0.000113 -0.005635 -0.000088 0.043627 0.000014
# 6 0.000001 -0.000003 -0.000050 -0.009743 0.000014 0.101777
#
#
# Mechanical properties :
#
#
# Convention : Reuss Voigt Hill
#
# Bulk Modulus (GPa) = 39.14548 53.16065 46.15306
# Shear Modulus (GPa) = 17.96998 23.70326 20.83662
#
# Velocity S-wave (km/s) = 3.20508 3.68103 3.45127
# Velocity P-wave (km/s) = 6.00619 6.96103 6.50117
#
# Compressibility (1/GPa) = 0.02554574
#
# Stress axis : x y z
#
# Youngs Moduli (GPa) = 87.12301 96.97536 47.72088
#
# Poissons Ratio (x) = 0.33497 0.07638
# Poissons Ratio (y) = 0.30094 0.16917
# Poissons Ratio (z) = 0.13945 0.34377
#
# Static dielectric constant tensor:
#      x y z
#    x 3.394420 -0.000010 0.068520 
#    y -0.000010 3.205230 0.000110 
#    z 0.068520 0.000110 3.142120 
# 
# 
# High freq. dielectric constant tensor:
#      x y z
#    x 1.690690 0.000000 0.003920 
#    y 0.000000 1.645930 0.000010 
#    z 0.003920 0.000010 1.670100 
# 
# From -- ./inp_files/277380.got.cif
#   From: 2010.06.25/outbox.cif.g09.slc.cpg/sg15_139_cif.got.tgz:277380.got - 2010.06.28 07:06:18.
