data_PCOD8131726
_publ_section_title
;
Structure prediction by ZEFSAII (Michael W. Deem and Ramdas Pophale) SiO2 
 PCOD8131726
Probable space group: C 2/C
;
_chemical_formula_sum "Si O2"
_cell_formula_units_Z 56
_cell_length_a 15.272740
_cell_length_b 24.487437
_cell_length_c 11.851817
_cell_angle_alpha 90.000000
_cell_angle_beta 37.245320
_cell_angle_gamma 90.000000
_cell_volume 2682.655673
_symmetry_space_group_name_H-M "C 2/C"
_symmetry_group_IT_number 15
_symmetry_cell_setting 'monoclinic'
loop_
_space_group_symop_operation_xyz
x,y,z
-x,y,1/2-z
-x,-y,-z
x,-y,1/2+z
1/2+x,1/2+y,z
1/2-x,1/2+y,1/2-z
1/2-x,1/2-y,-z
1/2+x,1/2-y,1/2+z
loop_
_atom_site_type_symbol
_atom_site_label
_atom_site_fract_x
_atom_site_fract_y
_atom_site_fract_z
Si Si1 0.433543 0.773304 0.579160
Si Si2 0.965410 0.389398 0.651923
Si Si3 0.016420 0.835685 0.362831
Si Si4 0.747320 0.384979 0.270453
Si Si5 0.794336 0.723142 0.836131
Si Si6 0.024775 0.965070 0.603773
Si Si7 0.166217 0.067174 0.390421
O O1 0.422808 0.827408 0.665411
O O2 0.501380 0.727801 0.591640
O O3 0.277121 0.757796 0.692013
O O4 0.534203 0.776324 0.363670
O O5 0.835503 0.430369 0.749017
O O6 0.000000 0.395350 0.750000
O O7 0.098610 0.405830 0.434041
O O8 0.174831 0.855654 0.237462
O O9 0.000000 0.846880 0.250000
O O10 0.894025 0.871165 0.551065
O O11 0.750351 0.340882 0.370529
O O12 0.656504 0.436330 0.403973
O O13 0.750000 0.750000 0.000000
O O14 0.000000 0.937775 0.750000
O O15 0.872561 0.959584 0.692354
O O16 0.076867 0.027957 0.568023
#
# Coordination Sequence:
#
# PCOD8131726 Si02
#       7
#     8   8   8   8   8   8   8
#     4  10  21  34  53  84 114 151 199 234 283 356
#     4  11  22  38  58  87 127 158 187 243 307 359
#     4  10  18  34  57  81 112 151 195 239 280 334
#     4   9  22  36  54  87 116 148 197 242 293 359
#     4  10  20  35  53  76 113 154 194 242 292 346
#     4  10  22  43  65  86 113 149 199 255 293 339
#     4  10  22  38  63  88 112 153 203 238 289 360
#
# _framework density 20.874838
#
# number of rings (size 3 to 8) (size 9 to 14) (size 15 to 20)
#    0.000    2.000    0.000    3.000    0.000    7.429 
#    0.000    7.857    0.000    0.000    0.000    0.000 
#    0.000    0.000    0.000    0.000    0.000    0.000 
#
# Total GULP energy -346978.587042 kJ/mol
# GULP energy per Si atom -12392.092394 kJ/mol
# Density = 2.082733 g / cm^3
# Si number density = 20.874838 Si / 1000 Ang^3
#
#
#
# Elastic Constant Matrix: (Units=GPa)
#
#
# Indices 1 2 3 4 5 6 
#
# 1 121.6330 45.3714 64.2078 0.0001 -2.2352 -0.0002
# 2 45.3714 83.5618 28.6116 0.0002 2.6216 -0.0001
# 3 64.2078 28.6116 86.0271 0.0005 0.9782 -0.0003
# 4 0.0001 0.0002 0.0005 24.2672 -0.0002 -0.0406
# 5 -2.2352 2.6216 0.9782 -0.0002 33.9667 0.0002
# 6 -0.0002 -0.0001 -0.0003 -0.0406 0.0002 19.8479
#
#
#
# Elastic Compliance Matrix: (Units=1/GPa)
#
#
# Indices 1 2 3 4 5 6 
#
# 1 0.015264 -0.005003 -0.009748 0.000000 0.001671 0.000000
# 2 -0.005003 0.015173 -0.001296 0.000000 -0.001463 0.000000
# 3 -0.009748 -0.001296 0.019343 0.000000 -0.001098 0.000000
# 4 0.000000 0.000000 0.000000 0.041208 0.000000 0.000084
# 5 0.001671 -0.001463 -0.001098 0.000000 0.029695 0.000000
# 6 0.000000 0.000000 0.000000 0.000084 0.000000 0.050383
#
#
# Mechanical properties :
#
#
# Convention : Reuss Voigt Hill
#
# Bulk Modulus (GPa) = 56.53682 63.06704 59.80193
# Shear Modulus (GPa) = 23.91720 25.81845 24.86783
#
# Velocity S-wave (km/s) = 3.38856 3.52066 3.45524
# Velocity P-wave (km/s) = 6.51554 6.84137 6.68044
#
# Compressibility (1/GPa) = 0.01768759
#
# Stress axis : x y z
#
# Youngs Moduli (GPa) = 65.51447 65.90617 51.69821
#
# Poissons Ratio (x) = 0.32970 0.50393
# Poissons Ratio (y) = 0.32774 0.06700
# Poissons Ratio (z) = 0.63861 0.08541
#
# Static dielectric constant tensor:
#      x y z
#    x 3.836990 0.000000 -0.201700 
#    y 0.000000 3.797780 0.000000 
#    z -0.201700 0.000000 3.762600 
# 
# 
# High freq. dielectric constant tensor:
#      x y z
#    x 1.819670 0.000000 -0.009740 
#    y 0.000000 1.818230 0.000000 
#    z -0.009740 0.000000 1.803550 
# 
# From -- ./inp_files/101082.got.cif
#   From: 2010.06.25/outbox.cif.g09.slc.cpg/sg15_51_cif.got.tgz:101082.got - 2010.06.28 07:06:18.
