data_PCOD8131608
_publ_section_title
;
Structure prediction by ZEFSAII (Michael W. Deem and Ramdas Pophale) SiO2 
 PCOD8131608
Probable space group: C 2/C
;
_chemical_formula_sum "Si O2"
_cell_formula_units_Z 52
_cell_length_a 11.412542
_cell_length_b 17.100852
_cell_length_c 19.416221
_cell_angle_alpha 90.000000
_cell_angle_beta 41.863398
_cell_angle_gamma 90.000000
_cell_volume 2528.849717
_symmetry_space_group_name_H-M "C 2/C"
_symmetry_group_IT_number 15
_symmetry_cell_setting 'monoclinic'
loop_
_space_group_symop_operation_xyz
x,y,z
-x,y,1/2-z
-x,-y,-z
x,-y,1/2+z
1/2+x,1/2+y,z
1/2-x,1/2+y,1/2-z
1/2-x,1/2-y,-z
1/2+x,1/2-y,1/2+z
loop_
_atom_site_type_symbol
_atom_site_label
_atom_site_fract_x
_atom_site_fract_y
_atom_site_fract_z
Si Si1 0.000000 0.357593 0.750000
Si Si2 0.413426 0.269274 0.191502
Si Si3 0.353378 0.401701 0.364506
Si Si4 0.548720 0.702486 0.974753
Si Si5 0.200455 0.936070 0.957393
Si Si6 0.417460 0.154253 0.615089
Si Si7 0.150813 0.595470 0.628872
O O1 0.873295 0.305982 0.756120
O O2 0.894313 0.407280 0.852229
O O3 0.582812 0.312507 0.150497
O O4 0.461227 0.248654 0.092087
O O5 0.246306 0.327056 0.262777
O O6 0.500000 0.443144 0.250000
O O7 0.334916 0.443841 0.445610
O O8 0.161522 0.397529 0.412934
O O9 0.748503 0.676261 0.900939
O O10 0.432890 0.623005 0.021580
O O11 0.494506 0.762375 0.057667
O O12 0.202434 0.026102 0.931268
O O13 0.561337 0.102950 0.592428
O O14 0.000000 0.580013 0.750000
#
# Coordination Sequence:
#
# PCOD8131608 Si02
#       7
#     4   8   8   8   8   8   8
#     4  12  18  34  62 102 116 142 202 264 310 348
#     4  10  18  33  62  93 115 143 200 259 307 339
#     4   9  19  38  62  90 116 155 200 256 310 351
#     4  11  22  40  63  86 117 163 209 250 295 365
#     4  11  23  38  64  89 122 158 204 255 308 368
#     4  11  20  38  62  86 118 155 202 251 300 362
#     4  12  25  40  57  87 126 169 195 241 316 382
#
# _framework density 20.562709000000002
#
# number of rings (size 3 to 8) (size 9 to 14) (size 15 to 20)
#    0.000    1.231    6.154    1.846    0.000    3.077 
#    0.000    0.000    3.385    0.000    0.000    0.000 
#    0.000    0.000    0.000    0.000    0.000    0.000 
#
# Total GULP energy -322178.159478 kJ/mol
# GULP energy per Si atom -12391.467672 kJ/mol
# Density = 2.051591 g / cm^3
# Si number density = 20.562709 Si / 1000 Ang^3
#
#
#
# Elastic Constant Matrix: (Units=GPa)
#
#
# Indices 1 2 3 4 5 6 
#
# 1 66.3306 20.2271 15.1975 0.0003 9.9844 -0.0003
# 2 20.2271 65.6837 25.4328 -0.0035 6.0953 0.0004
# 3 15.1975 25.4328 101.0778 -0.0110 16.6858 0.0011
# 4 0.0003 -0.0035 -0.0110 21.8601 0.0024 -7.8911
# 5 9.9844 6.0953 16.6858 0.0024 20.9034 0.0001
# 6 -0.0003 0.0004 0.0011 -7.8911 0.0001 24.3361
#
#
#
# Elastic Compliance Matrix: (Units=1/GPa)
#
#
# Indices 1 2 3 4 5 6 
#
# 1 0.017594 -0.004652 -0.000359 0.000000 -0.006761 0.000000
# 2 -0.004652 0.018154 -0.003872 0.000001 0.000019 0.000000
# 3 -0.000359 -0.003872 0.012332 0.000007 -0.008543 0.000002
# 4 0.000000 0.000001 0.000007 0.051810 -0.000012 0.016800
# 5 -0.006761 0.000019 -0.008543 -0.000012 0.057882 -0.000004
# 6 0.000000 0.000000 0.000002 0.016800 -0.000004 0.046539
#
#
# Mechanical properties :
#
#
# Convention : Reuss Voigt Hill
#
# Bulk Modulus (GPa) = 32.98573 39.42297 36.20435
# Shear Modulus (GPa) = 21.53491 24.90225 23.21858
#
# Velocity S-wave (km/s) = 3.23968 3.48377 3.36394
# Velocity P-wave (km/s) = 5.48365 5.94945 5.72129
#
# Compressibility (1/GPa) = 0.03031614
#
# Stress axis : x y z
#
# Youngs Moduli (GPa) = 56.83610 55.08327 81.09118
#
# Poissons Ratio (x) = 0.25624 0.02910
# Poissons Ratio (y) = 0.26439 0.31395
# Poissons Ratio (z) = 0.02039 0.21326
#
# Static dielectric constant tensor:
#      x y z
#    x 3.605900 0.000000 0.049040 
#    y 0.000000 3.373670 0.000010 
#    z 0.049040 0.000010 3.837130 
# 
# 
# High freq. dielectric constant tensor:
#      x y z
#    x 1.796930 0.000000 0.005200 
#    y 0.000000 1.769870 0.000000 
#    z 0.005200 0.000000 1.816020 
# 
# From -- ./inp_files/144313.got.cif
#   From: 2010.06.25/outbox.cif.g09.slc.cpg/sg15_73_cif.got.tgz:144313.got - 2010.06.28 07:06:18.
