data_PCOD8131603
_publ_section_title
;
Structure prediction by ZEFSAII (Michael W. Deem and Ramdas Pophale) SiO2 
 PCOD8131603
Probable space group: C 2/C
;
_chemical_formula_sum "Si O2"
_cell_formula_units_Z 64
_cell_length_a 27.006996
_cell_length_b 11.883576
_cell_length_c 16.619927
_cell_angle_alpha 90.000000
_cell_angle_beta 31.972618
_cell_angle_gamma 90.000000
_cell_volume 2824.424165
_symmetry_space_group_name_H-M "C 2/C"
_symmetry_group_IT_number 15
_symmetry_cell_setting 'monoclinic'
loop_
_space_group_symop_operation_xyz
x,y,z
-x,y,1/2-z
-x,-y,-z
x,-y,1/2+z
1/2+x,1/2+y,z
1/2-x,1/2+y,1/2-z
1/2-x,1/2-y,-z
1/2+x,1/2-y,1/2+z
loop_
_atom_site_type_symbol
_atom_site_label
_atom_site_fract_x
_atom_site_fract_y
_atom_site_fract_z
Si Si1 0.641029 0.888881 0.006013
Si Si2 0.837970 0.021824 0.178888
Si Si3 0.816630 0.112503 0.857407
Si Si4 0.984650 0.550680 0.151593
Si Si5 0.393533 0.752626 0.047430
Si Si6 0.808316 0.439033 0.385588
Si Si7 0.711117 0.338392 0.370820
Si Si8 0.374304 0.778671 0.897522
O O1 0.651038 0.882952 0.089007
O O2 0.552582 0.956145 0.094290
O O3 0.731422 0.946741 0.843335
O O4 0.633627 0.759329 0.987186
O O5 0.902985 0.133719 0.081787
O O6 0.872605 0.947938 0.207421
O O7 0.840043 0.949762 0.093200
O O8 0.891123 0.189609 0.802242
O O9 0.734932 0.193885 0.937232
O O10 0.773761 0.026197 0.980839
O O11 0.900045 0.495480 0.215972
O O12 0.928563 0.605797 0.304635
O O13 0.034864 0.646372 0.026926
O O14 0.288747 0.798919 0.200181
O O15 0.414703 0.728610 0.924299
O O16 0.763339 0.352815 0.384674
#
# Coordination Sequence:
#
# PCOD8131603 Si02
#       8
#     8   8   8   8   8   8   8   8
#     4  10  20  37  59  83 120 159 204 247 301 365
#     4  10  20  36  56  82 122 154 193 259 305 358
#     4   9  18  35  56  88 113 156 210 248 292 365
#     4  11  21  39  62  89 121 158 208 260 299 352
#     4  11  20  34  56  87 117 156 199 250 311 354
#     4  10  20  35  59  87 119 160 203 249 299 365
#     4  11  21  35  57  87 122 154 199 250 305 369
#     4  10  18  33  62  84 115 154 211 252 294 359
#
# _framework density 22.659486999999999
#
# number of rings (size 3 to 8) (size 9 to 14) (size 15 to 20)
#    0.000    1.750    2.500    4.125    0.000    0.500 
#    0.000    0.625    0.000    9.000    0.000    0.000 
#    0.000    0.000    0.000    0.000    0.000    0.000 
#
# Total GULP energy -396569.040813 kJ/mol
# GULP energy per Si atom -12392.782525 kJ/mol
# Density = 2.260791 g / cm^3
# Si number density = 22.659487 Si / 1000 Ang^3
#
#
#
# Elastic Constant Matrix: (Units=GPa)
#
#
# Indices 1 2 3 4 5 6 
#
# 1 74.4255 49.4263 23.4863 0.0000 6.6374 0.0000
# 2 49.4263 133.2478 43.3196 0.0000 5.6444 0.0000
# 3 23.4863 43.3196 57.0039 0.0000 0.7996 0.0000
# 4 0.0000 0.0000 0.0000 42.1545 0.0000 -0.9828
# 5 6.6374 5.6444 0.7996 0.0000 23.2926 0.0000
# 6 0.0000 0.0000 0.0000 -0.9828 0.0000 38.8886
#
#
#
# Elastic Compliance Matrix: (Units=1/GPa)
#
#
# Indices 1 2 3 4 5 6 
#
# 1 0.018573 -0.005655 -0.003302 0.000000 -0.003809 0.000000
# 2 -0.005655 0.011798 -0.006622 0.000000 -0.001020 0.000000
# 3 -0.003302 -0.006622 0.023911 0.000000 0.001725 0.000000
# 4 0.000000 0.000000 0.000000 0.023736 0.000000 0.000600
# 5 -0.003809 -0.001020 0.001725 0.000000 0.044205 0.000000
# 6 0.000000 0.000000 0.000000 0.000600 0.000000 0.025730
#
#
# Mechanical properties :
#
#
# Convention : Reuss Voigt Hill
#
# Bulk Modulus (GPa) = 43.24152 55.23795 49.23973
# Shear Modulus (GPa) = 26.76382 30.76348 28.76365
#
# Velocity S-wave (km/s) = 3.44049 3.68862 3.56671
# Velocity P-wave (km/s) = 5.90823 6.52469 6.22410
#
# Compressibility (1/GPa) = 0.02312592
#
# Stress axis : x y z
#
# Youngs Moduli (GPa) = 53.84110 84.75731 41.82159
#
# Poissons Ratio (x) = 0.47928 0.13808
# Poissons Ratio (y) = 0.30445 0.27694
# Poissons Ratio (z) = 0.17777 0.56126
#
# Static dielectric constant tensor:
#      x y z
#    x 3.792660 0.000000 0.047520 
#    y 0.000000 4.315400 0.000000 
#    z 0.047520 0.000000 4.061250 
# 
# 
# High freq. dielectric constant tensor:
#      x y z
#    x 1.868920 0.000000 0.007720 
#    y 0.000000 1.896130 0.000000 
#    z 0.007720 0.000000 1.880970 
# 
# From -- ./inp_files/225136.got.cif
#   From: 2010.06.25/outbox.cif.g09.slc.cpg/sg15_113_cif.got.tgz:225136.got - 2010.06.28 07:06:18.
