data_PCOD8131814
_publ_section_title
;
Structure prediction by ZEFSAII (Michael W. Deem and Ramdas Pophale) SiO2 
 PCOD8131814
Probable space group: C 2/C
;
_chemical_formula_sum "Si O2"
_cell_formula_units_Z 56
_cell_length_a 15.702629
_cell_length_b 8.954004
_cell_length_c 28.699609
_cell_angle_alpha 90.000000
_cell_angle_beta 133.321592
_cell_angle_gamma 90.000000
_cell_volume 2935.669366
_symmetry_space_group_name_H-M "C 2/C"
_symmetry_group_IT_number 15
_symmetry_cell_setting 'monoclinic'
loop_
_space_group_symop_operation_xyz
x,y,z
-x,y,1/2-z
-x,-y,-z
x,-y,1/2+z
1/2+x,1/2+y,z
1/2-x,1/2+y,1/2-z
1/2-x,1/2-y,-z
1/2+x,1/2-y,1/2+z
loop_
_atom_site_type_symbol
_atom_site_label
_atom_site_fract_x
_atom_site_fract_y
_atom_site_fract_z
Si Si1 0.205877 0.919450 0.978093
Si Si2 0.732868 0.221584 0.332034
Si Si3 0.049835 0.259397 0.315936
Si Si4 0.645285 0.946202 0.889199
Si Si5 0.531397 0.703245 0.684797
Si Si6 0.056482 0.080448 0.144246
Si Si7 0.313223 0.485213 0.130086
O O1 0.242273 0.993062 0.942028
O O2 0.065553 0.915577 0.929569
O O3 0.250000 0.750000 0.000000
O O4 0.255260 0.036858 0.034231
O O5 0.699900 0.111596 0.361649
O O6 0.627830 0.229942 0.255632
O O7 0.845951 0.155073 0.350299
O O8 0.767718 0.387135 0.365517
O O9 0.096551 0.388537 0.365809
O O10 0.155943 0.149858 0.339479
O O11 0.000000 0.329729 0.250000
O O12 0.955367 0.168778 0.311201
O O13 0.538279 0.840392 0.865920
O O14 0.590086 0.592719 0.668510
O O15 0.434355 0.608533 0.676030
#
# Coordination Sequence:
#
# PCOD8131814 Si02
#       7
#     8   8   8   8   8   8   8
#     4  10  19  40  61  83 116 155 212 234 280 362
#     4  11  22  37  56  92 122 145 193 253 309 345
#     4  10  18  34  60  84 107 157 201 229 290 355
#     4  11  20  35  63  84 113 154 202 243 279 358
#     4   9  20  37  56  85 117 153 195 236 294 363
#     4  10  23  39  59  83 122 158 183 255 301 343
#     4   9  18  35  61  81 114 160 193 242 286 357
#
# _framework density 19.075717999999998
#
# number of rings (size 3 to 8) (size 9 to 14) (size 15 to 20)
#    0.000    2.286    2.857    4.286    0.000    8.000 
#    0.000    2.143    0.000    0.000    0.000    0.000 
#    0.000    0.000    0.000    0.000    0.000    0.000 
#
# Total GULP energy -346924.440541 kJ/mol
# GULP energy per Si atom -12390.158591 kJ/mol
# Density = 1.903230 g / cm^3
# Si number density = 19.075718 Si / 1000 Ang^3
#
#
#
# Elastic Constant Matrix: (Units=GPa)
#
#
# Indices 1 2 3 4 5 6 
#
# 1 87.6135 44.3899 41.0079 0.0000 -5.0861 0.0000
# 2 44.3899 106.7193 33.1261 0.0000 2.5193 0.0000
# 3 41.0079 33.1261 139.6074 0.0000 -1.9289 0.0000
# 4 0.0000 0.0000 0.0000 37.5927 0.0000 -6.3086
# 5 -5.0861 2.5193 -1.9289 0.0000 12.6574 0.0000
# 6 0.0000 0.0000 0.0000 -6.3086 0.0000 39.9859
#
#
#
# Elastic Compliance Matrix: (Units=1/GPa)
#
#
# Indices 1 2 3 4 5 6 
#
# 1 0.016407 -0.005971 -0.003302 0.000000 0.007278 0.000000
# 2 -0.005971 0.012361 -0.001249 0.000000 -0.005050 0.000000
# 3 -0.003302 -0.001249 0.008432 0.000000 0.000207 0.000000
# 4 0.000000 0.000000 0.000000 0.027324 0.000000 0.004311
# 5 0.007278 -0.005050 0.000207 0.000000 0.082966 0.000000
# 6 0.000000 0.000000 0.000000 0.004311 0.000000 0.025689
#
#
# Mechanical properties :
#
#
# Convention : Reuss Voigt Hill
#
# Bulk Modulus (GPa) = 61.89676 63.44312 62.66994
# Shear Modulus (GPa) = 25.04889 32.40829 28.72859
#
# Velocity S-wave (km/s) = 3.62764 4.12628 3.88497
# Velocity P-wave (km/s) = 7.07565 7.48548 7.28344
#
# Compressibility (1/GPa) = 0.01615594
#
# Stress axis : x y z
#
# Youngs Moduli (GPa) = 60.94867 80.89922 118.59561
#
# Poissons Ratio (x) = 0.48309 0.39160
# Poissons Ratio (y) = 0.36395 0.14810
# Poissons Ratio (z) = 0.20125 0.10102
#
# Static dielectric constant tensor:
#      x y z
#    x 3.195660 0.000000 -0.093050 
#    y 0.000000 4.040430 0.000000 
#    z -0.093050 0.000000 3.546090 
# 
# 
# High freq. dielectric constant tensor:
#      x y z
#    x 1.694240 0.000000 -0.011520 
#    y 0.000000 1.763520 0.000000 
#    z -0.011520 0.000000 1.747310 
# 
# From -- ./inp_files/315543.got.cif
#   From: 2010.06.25/outbox.cif.g09.slc.cpg/sg15_158_cif.got.tgz:315543.got - 2010.06.28 07:06:18.
