data_PCOD8131211
_publ_section_title
;
Structure prediction by ZEFSAII (Michael W. Deem and Ramdas Pophale) SiO2 
 PCOD8131211
Probable space group: C 2/C
;
_chemical_formula_sum "Si O2"
_cell_formula_units_Z 44
_cell_length_a 20.434120
_cell_length_b 17.536332
_cell_length_c 19.571652
_cell_angle_alpha 90.000000
_cell_angle_beta 20.351198
_cell_angle_gamma 90.000000
_cell_volume 2439.039180
_symmetry_space_group_name_H-M "C 2/C"
_symmetry_group_IT_number 15
_symmetry_cell_setting 'monoclinic'
loop_
_space_group_symop_operation_xyz
x,y,z
-x,y,1/2-z
-x,-y,-z
x,-y,1/2+z
1/2+x,1/2+y,z
1/2-x,1/2+y,1/2-z
1/2-x,1/2-y,-z
1/2+x,1/2-y,1/2+z
loop_
_atom_site_type_symbol
_atom_site_label
_atom_site_fract_x
_atom_site_fract_y
_atom_site_fract_z
Si Si1 0.213136 0.631726 0.521704
Si Si2 0.529995 0.504600 0.572682
Si Si3 0.701393 0.960572 0.805633
Si Si4 0.000000 0.997434 0.750000
Si Si5 0.179863 0.837912 0.441357
Si Si6 0.596283 0.176496 0.494773
O O1 0.311590 0.550247 0.421827
O O2 0.315087 0.681527 0.481656
O O3 0.230689 0.670126 0.430219
O O4 0.000000 0.615391 0.750000
O O5 0.331082 0.513303 0.728273
O O6 0.700008 0.544181 0.365010
O O7 0.524979 0.543462 0.653649
O O8 0.559753 0.413480 0.548000
O O9 0.683970 0.873061 0.848007
O O10 0.500000 0.000000 0.000000
O O11 0.388989 0.855641 0.210336
O O12 0.090067 0.767590 0.486330
#
# Coordination Sequence:
#
# PCOD8131211 Si02
#       6
#     8   8   8   4   8   8
#     4   9  19  30  45  72 104 138 174 208 249 299
#     4  10  21  35  53  73 103 139 181 215 265 309
#     4  11  21  36  50  71 105 147 176 219 259 313
#     4  10  18  32  52  72  98 138 178 220 254 304
#     4  10  20  31  49  75 102 140 177 217 254 302
#     4  11  19  32  48  71 107 141 178 214 253 307
#
# _framework density 18.03989
#
# number of rings (size 3 to 8) (size 9 to 14) (size 15 to 20)
#    0.000    1.818    3.636    1.636    2.545    0.000 
#    1.636    0.000    0.000    0.000    0.000    0.000 
#    0.000   13.091    0.000    1.091    0.000    0.000 
#
# Total GULP energy -272647.274537 kJ/mol
# GULP energy per Si atom -12393.057934 kJ/mol
# Density = 1.799883 g / cm^3
# Si number density = 18.039890 Si / 1000 Ang^3
#
#
#
# Elastic Constant Matrix: (Units=GPa)
#
#
# Indices 1 2 3 4 5 6 
#
# 1 104.3656 26.7161 51.2840 -0.0153 24.7295 0.0369
# 2 26.7161 50.3200 20.9224 0.0058 11.0846 0.0043
# 3 51.2840 20.9224 71.7445 0.2282 6.8777 0.0840
# 4 -0.0153 0.0058 0.2282 22.6825 -0.0249 4.2176
# 5 24.7295 11.0846 6.8777 -0.0249 39.0909 -0.0245
# 6 0.0369 0.0043 0.0840 4.2176 -0.0245 17.9926
#
#
#
# Elastic Compliance Matrix: (Units=1/GPa)
#
#
# Indices 1 2 3 4 5 6 
#
# 1 0.017762 -0.002989 -0.011015 0.000119 -0.008451 -0.000024
# 2 -0.002989 0.024271 -0.004540 0.000031 -0.004193 0.000009
# 3 -0.011015 -0.004540 0.022729 -0.000226 0.004257 -0.000024
# 4 0.000119 0.000031 -0.000226 0.046098 -0.000022 -0.010805
# 5 -0.008451 -0.004193 0.004257 -0.000022 0.031368 0.000046
# 6 -0.000024 0.000009 -0.000024 -0.010805 0.000046 0.058112
#
#
# Mechanical properties :
#
#
# Convention : Reuss Voigt Hill
#
# Bulk Modulus (GPa) = 36.13468 47.14169 41.63818
# Shear Modulus (GPa) = 20.27158 24.45370 22.36264
#
# Velocity S-wave (km/s) = 3.35581 3.68575 3.52465
# Velocity P-wave (km/s) = 5.92362 6.65595 6.30043
#
# Compressibility (1/GPa) = 0.02767425
#
# Stress axis : x y z
#
# Youngs Moduli (GPa) = 56.30007 41.20189 43.99721
#
# Poissons Ratio (x) = 0.12314 0.48464
# Poissons Ratio (y) = 0.16827 0.19973
# Poissons Ratio (z) = 0.62015 0.18704
#
# Static dielectric constant tensor:
#      x y z
#    x 3.647580 -0.000200 0.088910 
#    y -0.000200 2.890800 0.000140 
#    z 0.088910 0.000140 3.568170 
# 
# 
# High freq. dielectric constant tensor:
#      x y z
#    x 1.687640 -0.000010 -0.004310 
#    y -0.000010 1.634110 0.000020 
#    z -0.004310 0.000020 1.727160 
# 
# From -- ./inp_files/49359.got.cif
#   From: 2010.06.25/outbox.cif.g09.slc.cpg/sg15_25_cif.got.tgz:49359.got - 2010.06.28 07:06:18.
