data_PCOD8132763
_publ_section_title
;
Structure prediction by ZEFSAII (Michael W. Deem and Ramdas Pophale) SiO2 
 PCOD8132763
Probable space group: C 2/C
;
_chemical_formula_sum "Si O2"
_cell_formula_units_Z 44
_cell_length_a 8.620968
_cell_length_b 11.649549
_cell_length_c 29.304795
_cell_angle_alpha 90.000000
_cell_angle_beta 52.297420
_cell_angle_gamma 90.000000
_cell_volume 2328.562577
_symmetry_space_group_name_H-M "C 2/C"
_symmetry_group_IT_number 15
_symmetry_cell_setting 'monoclinic'
loop_
_space_group_symop_operation_xyz
x,y,z
-x,y,1/2-z
-x,-y,-z
x,-y,1/2+z
1/2+x,1/2+y,z
1/2-x,1/2+y,1/2-z
1/2-x,1/2-y,-z
1/2+x,1/2-y,1/2+z
loop_
_atom_site_type_symbol
_atom_site_label
_atom_site_fract_x
_atom_site_fract_y
_atom_site_fract_z
Si Si1 0.137102 0.209084 0.564526
Si Si2 0.009620 0.403283 0.343802
Si Si3 0.391241 0.153532 0.172520
Si Si4 0.209962 0.226879 0.374332
Si Si5 0.910982 0.991384 0.065821
Si Si6 0.000000 0.289001 0.250000
O O1 0.250000 0.250000 0.500000
O O2 0.288983 0.196409 0.579483
O O3 0.967537 0.301955 0.608956
O O4 0.043491 0.086078 0.574141
O O5 0.145413 0.516623 0.321830
O O6 0.111012 0.297037 0.351461
O O7 0.973712 0.370088 0.298063
O O8 0.802448 0.435962 0.403351
O O9 0.563625 0.189468 0.177875
O O10 0.188764 0.209940 0.223645
O O11 0.089682 0.111893 0.407596
O O12 0.000000 0.000000 0.000000
#
# Coordination Sequence:
#
# PCOD8132763 Si02
#       6
#     8   8   8   8   8   4
#     4  10  18  41  62  86 129 157 197 257 305 358
#     4  11  23  42  62  91 122 164 214 250 322 367
#     4   9  23  40  59  91 120 158 205 252 310 363
#     4   9  22  37  61  89 120 161 206 251 301 372
#     4  11  20  40  65  90 130 166 205 255 312 375
#     4  12  24  40  64  86 126 164 200 268 308 386
#
# _framework density 18.895776999999999
#
# number of rings (size 3 to 8) (size 9 to 14) (size 15 to 20)
#    1.091    0.727    3.636    0.000    0.000    7.273 
#    0.000    1.818    0.000    0.000    0.000    0.000 
#    0.000    0.000    0.000    0.000    0.000    0.000 
#
# Total GULP energy -272633.542982 kJ/mol
# GULP energy per Si atom -12392.433772 kJ/mol
# Density = 1.885277 g / cm^3
# Si number density = 18.895777 Si / 1000 Ang^3
#
#
#
# Elastic Constant Matrix: (Units=GPa)
#
#
# Indices 1 2 3 4 5 6 
#
# 1 82.8503 63.7775 36.1822 0.0000 8.6154 0.0000
# 2 63.7775 152.7973 41.0546 0.0000 1.2142 0.0000
# 3 36.1822 41.0546 92.0282 0.0000 -9.5467 0.0000
# 4 0.0000 0.0000 0.0000 26.5531 0.0000 -3.0206
# 5 8.6154 1.2142 -9.5467 0.0000 31.3994 0.0000
# 6 0.0000 0.0000 0.0000 -3.0206 0.0000 45.8276
#
#
#
# Elastic Compliance Matrix: (Units=1/GPa)
#
#
# Indices 1 2 3 4 5 6 
#
# 1 0.020770 -0.007065 -0.005759 0.000000 -0.007176 0.000000
# 2 -0.007065 0.009894 -0.001523 0.000000 0.001093 0.000000
# 3 -0.005759 -0.001523 0.014435 0.000000 0.006028 0.000000
# 4 0.000000 0.000000 0.000000 0.037945 0.000000 0.002501
# 5 -0.007176 0.001093 0.006028 0.000000 0.035607 0.000000
# 6 0.000000 0.000000 0.000000 0.002501 0.000000 0.021986
#
#
# Mechanical properties :
#
#
# Convention : Reuss Voigt Hill
#
# Bulk Modulus (GPa) = 60.95347 67.74497 64.34922
# Shear Modulus (GPa) = 28.60448 33.20011 30.90230
#
# Velocity S-wave (km/s) = 3.89498 4.19622 4.04840
# Velocity P-wave (km/s) = 7.24952 7.70762 7.48208
#
# Compressibility (1/GPa) = 0.01640596
#
# Stress axis : x y z
#
# Youngs Moduli (GPa) = 48.14715 101.07159 69.27641
#
# Poissons Ratio (x) = 0.71407 0.39894
# Poissons Ratio (y) = 0.34016 0.10549
# Poissons Ratio (z) = 0.27726 0.15390
#
# Static dielectric constant tensor:
#      x y z
#    x 3.295480 0.000000 -0.128860 
#    y 0.000000 3.354220 0.000000 
#    z -0.128860 0.000000 3.405480 
# 
# 
# High freq. dielectric constant tensor:
#      x y z
#    x 1.719170 0.000000 -0.005280 
#    y 0.000000 1.741240 0.000000 
#    z -0.005280 0.000000 1.733440 
# 
# From -- ./inp_files/307033.got.cif
#   From: 2010.06.25/outbox.cif.g09.slc.cpg/sg15_154_cif.got.tgz:307033.got - 2010.06.28 07:06:18.
