data_PCOD8132129
_publ_section_title
;
Structure prediction by ZEFSAII (Michael W. Deem and Ramdas Pophale) SiO2 
 PCOD8132129
Probable space group: C 2/C
;
_chemical_formula_sum "Si O2"
_cell_formula_units_Z 52
_cell_length_a 8.714309
_cell_length_b 14.724110
_cell_length_c 29.070018
_cell_angle_alpha 90.000000
_cell_angle_beta 43.444454
_cell_angle_gamma 90.000000
_cell_volume 2564.929353
_symmetry_space_group_name_H-M "C 2/C"
_symmetry_group_IT_number 15
_symmetry_cell_setting 'monoclinic'
loop_
_space_group_symop_operation_xyz
x,y,z
-x,y,1/2-z
-x,-y,-z
x,-y,1/2+z
1/2+x,1/2+y,z
1/2-x,1/2+y,1/2-z
1/2-x,1/2-y,-z
1/2+x,1/2-y,1/2+z
loop_
_atom_site_type_symbol
_atom_site_label
_atom_site_fract_x
_atom_site_fract_y
_atom_site_fract_z
Si Si1 0.403203 0.686314 0.906198
Si Si2 0.443399 0.981148 0.132871
Si Si3 0.468750 0.703340 0.341944
Si Si4 0.506006 0.860240 0.551971
Si Si5 0.000000 0.082579 0.250000
Si Si6 0.356646 0.102121 0.825901
Si Si7 0.204581 0.801125 0.171956
O O1 0.447762 0.777002 0.924441
O O2 0.595535 0.610193 0.869993
O O3 0.395838 0.720700 0.855733
O O4 0.172980 0.639550 0.972549
O O5 0.610248 0.972003 0.140426
O O6 0.383179 0.882184 0.126349
O O7 0.544854 0.045378 0.070940
O O8 0.212746 0.021197 0.199494
O O9 0.557128 0.642165 0.281703
O O10 0.437913 0.802158 0.327199
O O11 0.659525 0.712463 0.339494
O O12 0.246231 0.655993 0.411482
O O13 0.500000 0.073476 0.750000
O O14 0.000000 0.826438 0.250000
#
# Coordination Sequence:
#
# PCOD8132129 Si02
#       7
#     8   8   8   8   4   8   8
#     4  10  21  39  61  80 119 150 201 234 290 354
#     4  10  21  35  55  83 116 145 198 236 294 343
#     4   9  19  35  60  78 112 155 194 226 303 342
#     4   9  21  40  58  83 110 163 192 242 286 347
#     4  10  18  36  56  80 120 150 184 254 280 354
#     4  10  19  35  58  83 112 158 185 237 299 361
#     4  11  22  35  57  89 112 150 190 248 288 362
#
# _framework density 20.273463
#
# number of rings (size 3 to 8) (size 9 to 14) (size 15 to 20)
#    0.000    2.154    1.538    1.846    4.308    1.846 
#    2.769    0.000    0.000    0.000    0.000    0.000 
#    0.000    0.000    0.000    0.000    0.000    0.000 
#
# Total GULP energy -322300.433416 kJ/mol
# GULP energy per Si atom -12396.170516 kJ/mol
# Density = 2.022732 g / cm^3
# Si number density = 20.273463 Si / 1000 Ang^3
#
#
#
# Elastic Constant Matrix: (Units=GPa)
#
#
# Indices 1 2 3 4 5 6 
#
# 1 125.8987 24.3014 36.0281 -0.0009 4.5046 0.0003
# 2 24.3014 51.8799 8.9438 0.0007 2.3511 0.0009
# 3 36.0281 8.9438 94.5125 0.0011 6.2594 0.0035
# 4 -0.0009 0.0007 0.0011 5.9267 0.0003 -8.5824
# 5 4.5046 2.3511 6.2594 0.0003 20.4037 0.0001
# 6 0.0003 0.0009 0.0035 -8.5824 0.0001 28.8820
#
#
#
# Elastic Compliance Matrix: (Units=1/GPa)
#
#
# Indices 1 2 3 4 5 6 
#
# 1 0.009661 -0.003931 -0.003266 0.000006 -0.000678 0.000002
# 2 -0.003931 0.021255 -0.000416 -0.000007 -0.001453 -0.000003
# 3 -0.003266 -0.000416 0.012059 -0.000008 -0.002930 -0.000004
# 4 0.000006 -0.000007 -0.000008 0.296168 -0.000003 0.088007
# 5 -0.000678 -0.001453 -0.002930 -0.000003 0.050227 -0.000001
# 6 0.000002 -0.000003 -0.000004 0.088007 -0.000001 0.060775
#
#
# Mechanical properties :
#
#
# Convention : Reuss Voigt Hill
#
# Bulk Modulus (GPa) = 36.03996 45.64864 40.84430
# Shear Modulus (GPa) = 10.53474 24.57702 17.55588
#
# Velocity S-wave (km/s) = 2.28202 3.48555 2.94590
# Velocity P-wave (km/s) = 4.97584 6.22608 5.63574
#
# Compressibility (1/GPa) = 0.02774698
#
# Stress axis : x y z
#
# Youngs Moduli (GPa) = 103.51393 47.04884 82.92583
#
# Poissons Ratio (x) = 0.18497 0.27081
# Poissons Ratio (y) = 0.40696 0.03453
# Poissons Ratio (z) = 0.33804 0.01959
#
# Static dielectric constant tensor:
#      x y z
#    x 8.288040 -0.000150 -0.322710 
#    y -0.000150 3.703950 0.000000 
#    z -0.322710 0.000000 3.936470 
# 
# 
# High freq. dielectric constant tensor:
#      x y z
#    x 1.792060 0.000000 -0.004460 
#    y 0.000000 1.779520 0.000000 
#    z -0.004460 0.000000 1.786450 
# 
# From -- ./inp_files/264439.got.cif
#   From: 2010.06.25/outbox.cif.g09.slc.cpg/sg15_133_cif.got.tgz:264439.got - 2010.06.28 07:06:18.
