data_PCOD8132114
_publ_section_title
;
Structure prediction by ZEFSAII (Michael W. Deem and Ramdas Pophale) SiO2 
 PCOD8132114
Probable space group: C 2/C
;
_chemical_formula_sum "Si O2"
_cell_formula_units_Z 36
_cell_length_a 27.053269
_cell_length_b 11.830409
_cell_length_c 18.171407
_cell_angle_alpha 90.000000
_cell_angle_beta 160.726477
_cell_angle_gamma 90.000000
_cell_volume 1919.662717
_symmetry_space_group_name_H-M "C 2/C"
_symmetry_group_IT_number 15
_symmetry_cell_setting 'monoclinic'
loop_
_space_group_symop_operation_xyz
x,y,z
-x,y,1/2-z
-x,-y,-z
x,-y,1/2+z
1/2+x,1/2+y,z
1/2-x,1/2+y,1/2-z
1/2-x,1/2-y,-z
1/2+x,1/2-y,1/2+z
loop_
_atom_site_type_symbol
_atom_site_label
_atom_site_fract_x
_atom_site_fract_y
_atom_site_fract_z
Si Si1 0.936070 0.151732 0.394380
Si Si2 0.768710 0.041571 0.722392
Si Si3 0.000000 0.486622 0.250000
Si Si4 0.361565 0.914245 0.304591
Si Si5 0.758100 0.381625 0.007027
O O1 0.917627 0.285420 0.375737
O O2 0.111825 0.126623 0.646527
O O3 0.834180 0.087264 0.312421
O O4 0.882756 0.089122 0.242978
O O5 0.738762 0.072371 0.764640
O O6 0.618514 0.060921 0.462994
O O7 0.084410 0.409117 0.310004
O O8 0.256730 0.940058 0.085765
O O9 0.500000 0.000000 0.500000
O O10 0.750000 0.250000 0.000000
#
# Coordination Sequence:
#
# PCOD8132114 Si02
#       5
#     8   8   4   8   8
#     4   9  22  38  58  86 117 154 189 242 304 339
#     4  10  21  38  59  79 120 153 192 239 296 352
#     4  10  18  36  54  76 114 156 186 234 298 342
#     4  11  21  34  61  90 112 148 201 243 287 354
#     4   9  19  33  56  86 110 143 192 245 290 335
#
# _framework density 18.753295000000001
#
# number of rings (size 3 to 8) (size 9 to 14) (size 15 to 20)
#    0.000    2.222    2.222    0.000    3.111    6.222 
#    0.000    1.111    0.000    0.000    0.000    0.000 
#    0.000    0.000    0.000    0.000    0.000    0.000 
#
# Total GULP energy -222992.153995 kJ/mol
# GULP energy per Si atom -12388.453000 kJ/mol
# Density = 1.871061 g / cm^3
# Si number density = 18.753295 Si / 1000 Ang^3
#
#
#
# Elastic Constant Matrix: (Units=GPa)
#
#
# Indices 1 2 3 4 5 6 
#
# 1 134.2265 40.0239 59.4247 0.0000 -16.1558 0.0000
# 2 40.0239 94.6215 42.7933 0.0000 -5.2215 0.0000
# 3 59.4247 42.7933 127.3640 0.0000 -3.4334 0.0000
# 4 0.0000 0.0000 0.0000 25.0815 0.0000 -0.2354
# 5 -16.1558 -5.2215 -3.4334 0.0000 27.0128 0.0000
# 6 0.0000 0.0000 0.0000 -0.2354 0.0000 30.3817
#
#
#
# Elastic Compliance Matrix: (Units=1/GPa)
#
#
# Indices 1 2 3 4 5 6 
#
# 1 0.010568 -0.002370 -0.003990 0.000000 0.005355 0.000000
# 2 -0.002370 0.013090 -0.003273 0.000000 0.000697 0.000000
# 3 -0.003990 -0.003273 0.010769 0.000000 -0.001650 0.000000
# 4 0.000000 0.000000 0.000000 0.039873 0.000000 0.000309
# 5 0.005355 0.000697 -0.001650 0.000000 0.040147 0.000000
# 6 0.000000 0.000000 0.000000 0.000309 0.000000 0.032917
#
#
# Mechanical properties :
#
#
# Convention : Reuss Voigt Hill
#
# Bulk Modulus (GPa) = 65.96702 71.18844 68.57773
# Shear Modulus (GPa) = 29.12338 30.75986 29.94162
#
# Velocity S-wave (km/s) = 3.94505 4.05438 4.00009
# Velocity P-wave (km/s) = 7.48357 7.74340 7.61459
#
# Compressibility (1/GPa) = 0.01515909
#
# Stress axis : x y z
#
# Youngs Moduli (GPa) = 94.62712 76.39511 92.86335
#
# Poissons Ratio (x) = 0.18106 0.37052
# Poissons Ratio (y) = 0.22427 0.30399
# Poissons Ratio (z) = 0.37756 0.25008
#
# Static dielectric constant tensor:
#      x y z
#    x 3.929790 0.000000 -1.189120 
#    y 0.000000 3.273970 0.000000 
#    z -1.189120 0.000000 5.162050 
# 
# 
# High freq. dielectric constant tensor:
#      x y z
#    x 1.735110 0.000000 -0.004200 
#    y 0.000000 1.706060 0.000000 
#    z -0.004200 0.000000 1.736280 
# 
# From -- ./inp_files/84446.got.cif
#   From: 2010.06.25/outbox.cif.g09.slc.cpg/sg15_43_cif.got.tgz:84446.got - 2010.06.28 07:06:18.
