data_PCOD8132281
_publ_section_title
;
Structure prediction by ZEFSAII (Michael W. Deem and Ramdas Pophale) SiO2 
 PCOD8132281
Probable space group: C 2/C
;
_chemical_formula_sum "Si O2"
_cell_formula_units_Z 60
_cell_length_a 18.078484
_cell_length_b 28.288206
_cell_length_c 11.518338
_cell_angle_alpha 90.000000
_cell_angle_beta 150.181370
_cell_angle_gamma 90.000000
_cell_volume 2929.121233
_symmetry_space_group_name_H-M "C 2/C"
_symmetry_group_IT_number 15
_symmetry_cell_setting 'monoclinic'
loop_
_space_group_symop_operation_xyz
x,y,z
-x,y,1/2-z
-x,-y,-z
x,-y,1/2+z
1/2+x,1/2+y,z
1/2-x,1/2+y,1/2-z
1/2-x,1/2-y,-z
1/2+x,1/2-y,1/2+z
loop_
_atom_site_type_symbol
_atom_site_label
_atom_site_fract_x
_atom_site_fract_y
_atom_site_fract_z
Si Si1 0.130309 0.859996 0.755271
Si Si2 0.468500 0.446385 0.430524
Si Si3 0.642241 0.087645 0.501780
Si Si4 0.864990 0.791971 0.397641
Si Si5 0.347983 0.141542 0.759918
Si Si6 0.345126 0.185625 0.363607
Si Si7 0.000000 0.098455 0.750000
Si Si8 0.262189 0.331500 0.028577
O O1 0.215148 0.842406 0.754405
O O2 0.033116 0.907600 0.607779
O O3 0.017395 0.818500 0.640400
O O4 0.244212 0.872937 0.011608
O O5 0.500000 0.500000 0.500000
O O6 0.290144 0.442223 0.179507
O O7 0.553478 0.435925 0.425629
O O8 0.627613 0.096988 0.620401
O O9 0.641850 0.138498 0.436255
O O10 0.500000 0.060567 0.250000
O O11 0.724171 0.814759 0.269926
O O12 0.871398 0.738026 0.450032
O O13 0.843357 0.795489 0.227776
O O14 0.504923 0.156018 0.918714
O O15 0.307733 0.194573 0.176971
O O16 0.874925 0.130549 0.633081
#
# Coordination Sequence:
#
# PCOD8132281 Si02
#       8
#     8   8   8   8   8   8   4   8
#     4  12  24  42  60  90 136 170 218 271 319 396
#     4  11  24  42  72  99 121 170 220 265 332 392
#     4  10  20  41  67  91 121 160 209 267 325 376
#     4  11  23  38  62  90 125 179 224 270 314 387
#     4  11  24  38  61  88 127 178 212 266 325 387
#     4  12  23  37  60  93 133 173 220 268 328 383
#     4  10  18  40  66  92 126 158 206 282 312 364
#     4  10  18  36  62  87 120 164 212 267 321 359
#
# _framework density 20.483958999999999
#
# number of rings (size 3 to 8) (size 9 to 14) (size 15 to 20)
#    0.000    1.067    6.667    2.000    0.000    4.267 
#    0.000    4.000    0.000    3.200    0.000    0.000 
#    0.000    0.000    0.000    0.000    0.000    0.000 
#
# Total GULP energy -371864.953046 kJ/mol
# GULP energy per Si atom -12395.498435 kJ/mol
# Density = 2.043734 g / cm^3
# Si number density = 20.483959 Si / 1000 Ang^3
#
#
#
# Elastic Constant Matrix: (Units=GPa)
#
#
# Indices 1 2 3 4 5 6 
#
# 1 70.2136 20.1592 26.6350 0.0000 3.9666 0.0000
# 2 20.1592 102.3578 30.8290 0.0000 8.8589 0.0000
# 3 26.6350 30.8290 126.2328 0.0000 -0.3829 0.0000
# 4 0.0000 0.0000 0.0000 28.8024 0.0000 -7.7506
# 5 3.9666 8.8589 -0.3829 0.0000 44.8589 0.0000
# 6 0.0000 0.0000 0.0000 -7.7506 0.0000 23.6567
#
#
#
# Elastic Compliance Matrix: (Units=1/GPa)
#
#
# Indices 1 2 3 4 5 6 
#
# 1 0.016012 -0.002211 -0.002842 0.000000 -0.001003 0.000000
# 2 -0.002211 0.011053 -0.002239 0.000000 -0.002006 0.000000
# 3 -0.002842 -0.002239 0.009071 0.000000 0.000771 0.000000
# 4 0.000000 0.000000 0.000000 0.038076 0.000000 0.012475
# 5 -0.001003 -0.002006 0.000771 0.000000 0.022784 0.000000
# 6 0.000000 0.000000 0.000000 0.012475 0.000000 0.046358
#
#
# Mechanical properties :
#
#
# Convention : Reuss Voigt Hill
#
# Bulk Modulus (GPa) = 46.39817 50.45006 48.42412
# Shear Modulus (GPa) = 30.28092 34.20900 32.24496
#
# Velocity S-wave (km/s) = 3.84900 4.09104 3.97187
# Velocity P-wave (km/s) = 6.51562 6.85551 6.68772
#
# Compressibility (1/GPa) = 0.02155258
#
# Stress axis : x y z
#
# Youngs Moduli (GPa) = 62.45467 90.47249 110.24634
#
# Poissons Ratio (x) = 0.20001 0.31327
# Poissons Ratio (y) = 0.13807 0.24685
# Poissons Ratio (z) = 0.17747 0.20257
#
# Static dielectric constant tensor:
#      x y z
#    x 4.492520 0.000000 -0.358530 
#    y 0.000000 3.342720 0.000000 
#    z -0.358530 0.000000 3.831510 
# 
# 
# High freq. dielectric constant tensor:
#      x y z
#    x 1.812200 0.000000 -0.002460 
#    y 0.000000 1.760650 0.000000 
#    z -0.002460 0.000000 1.810860 
# 
# From -- ./inp_files/108437.got.cif
#   From: 2010.06.25/outbox.cif.g09.slc.cpg/sg15_55_cif.got.tgz:108437.got - 2010.06.28 07:06:18.
