data_PCOD8132720
_publ_section_title
;
Structure prediction by ZEFSAII (Michael W. Deem and Ramdas Pophale) SiO2 
 PCOD8132720
Probable space group: C 2/C
;
_chemical_formula_sum "Si O2"
_cell_formula_units_Z 52
_cell_length_a 14.269096
_cell_length_b 13.884891
_cell_length_c 18.101241
_cell_angle_alpha 90.000000
_cell_angle_beta 142.700927
_cell_angle_gamma 90.000000
_cell_volume 2173.213391
_symmetry_space_group_name_H-M "C 2/C"
_symmetry_group_IT_number 15
_symmetry_cell_setting 'monoclinic'
loop_
_space_group_symop_operation_xyz
x,y,z
-x,y,1/2-z
-x,-y,-z
x,-y,1/2+z
1/2+x,1/2+y,z
1/2-x,1/2+y,1/2-z
1/2-x,1/2-y,-z
1/2+x,1/2-y,1/2+z
loop_
_atom_site_type_symbol
_atom_site_label
_atom_site_fract_x
_atom_site_fract_y
_atom_site_fract_z
Si Si1 0.000000 0.636934 0.750000
Si Si2 0.669231 0.353713 0.065597
Si Si3 0.192263 0.430474 0.643441
Si Si4 0.428683 0.992286 0.075120
Si Si5 0.172691 0.935774 0.512881
Si Si6 0.667122 0.307329 0.649570
Si Si7 0.651035 0.377457 0.222502
O O1 0.166104 0.693132 0.860768
O O2 0.975668 0.569230 0.805841
O O3 0.698199 0.381949 0.167420
O O4 0.628415 0.451901 0.996205
O O5 0.518625 0.284331 0.963822
O O6 0.153257 0.415008 0.532255
O O7 0.285483 0.341239 0.737661
O O8 0.290842 0.527453 0.701732
O O9 0.038010 0.439828 0.595379
O O10 0.316409 0.066881 0.047348
O O11 0.208096 0.889277 0.615230
O O12 0.035191 0.875774 0.387337
O O13 0.764550 0.213790 0.687219
#
# Coordination Sequence:
#
# PCOD8132720 Si02
#       7
#     4   8   8   8   8   8   8
#     4  10  18  40  64  94 122 178 228 266 332 416
#     4  10  19  40  69  89 127 183 223 265 336 404
#     4  11  21  42  62  99 131 174 218 286 330 389
#     4  10  22  35  69  90 133 174 221 271 339 383
#     4  10  20  42  66  95 127 188 220 264 335 410
#     4  11  22  39  69  98 131 174 228 270 336 402
#     4  11  21  39  67  98 135 173 222 274 331 407
#
# _framework density 23.927700999999999
#
# number of rings (size 3 to 8) (size 9 to 14) (size 15 to 20)
#    0.000    1.538    4.615    1.846    0.000    5.538 
#    0.000    5.385    3.385    0.000    0.000    0.000 
#    0.000    0.000    0.000    0.000    0.000    0.000 
#
# Total GULP energy -322190.450215 kJ/mol
# GULP energy per Si atom -12391.940393 kJ/mol
# Density = 2.387324 g / cm^3
# Si number density = 23.927701 Si / 1000 Ang^3
#
#
#
# Elastic Constant Matrix: (Units=GPa)
#
#
# Indices 1 2 3 4 5 6 
#
# 1 99.6111 -9.1483 42.0990 0.0002 15.7205 0.0004
# 2 -9.1483 51.0865 7.0353 -0.0003 6.1910 0.0000
# 3 42.0990 7.0353 105.7340 -0.0003 8.4236 0.0000
# 4 0.0002 -0.0003 -0.0003 26.8722 -0.0001 7.9417
# 5 15.7205 6.1910 8.4236 -0.0001 45.8614 0.0001
# 6 0.0004 0.0000 0.0000 7.9417 0.0001 8.5592
#
#
#
# Elastic Compliance Matrix: (Units=1/GPa)
#
#
# Indices 1 2 3 4 5 6 
#
# 1 0.013189 0.003564 -0.005166 0.000000 -0.004053 -0.000001
# 2 0.003564 0.020997 -0.002530 0.000000 -0.003592 0.000000
# 3 -0.005166 -0.002530 0.011686 0.000000 -0.000034 0.000000
# 4 0.000000 0.000000 0.000000 0.051273 0.000000 -0.047573
# 5 -0.004053 -0.003592 -0.000034 0.000000 0.023685 0.000000
# 6 -0.000001 0.000000 0.000000 -0.047573 0.000000 0.160974
#
#
# Mechanical properties :
#
#
# Convention : Reuss Voigt Hill
#
# Bulk Modulus (GPa) = 26.58959 37.37819 31.98389
# Shear Modulus (GPa) = 16.52331 30.68827 23.60579
#
# Velocity S-wave (km/s) = 2.63069 3.58514 3.14434
# Velocity P-wave (km/s) = 4.51264 5.72651 5.15543
#
# Compressibility (1/GPa) = 0.03760871
#
# Stress axis : x y z
#
# Youngs Moduli (GPa) = 75.81897 47.62668 85.57594
#
# Poissons Ratio (x) = -0.16976 0.44206
# Poissons Ratio (y) = -0.27026 0.21652
# Poissons Ratio (z) = 0.39166 0.12050
#
# Static dielectric constant tensor:
#      x y z
#    x 4.277100 0.000000 0.079330 
#    y 0.000000 3.818390 0.000000 
#    z 0.079330 0.000000 4.698880 
# 
# 
# High freq. dielectric constant tensor:
#      x y z
#    x 1.942810 0.000000 0.009620 
#    y 0.000000 1.905470 0.000000 
#    z 0.009620 0.000000 1.970350 
# 
# From -- ./inp_files/205770.got.cif
#   From: 2010.06.25/outbox.cif.g09.slc.cpg/sg15_103_cif.got.tgz:205770.got - 2010.06.28 07:06:18.
