data_PCOD8132308
_publ_section_title
;
Structure prediction by ZEFSAII (Michael W. Deem and Ramdas Pophale) SiO2 
 PCOD8132308
Probable space group: C 2/C
;
_chemical_formula_sum "Si O2"
_cell_formula_units_Z 44
_cell_length_a 10.664817
_cell_length_b 14.791541
_cell_length_c 23.316039
_cell_angle_alpha 90.000000
_cell_angle_beta 36.145849
_cell_angle_gamma 90.000000
_cell_volume 2169.490922
_symmetry_space_group_name_H-M "C 2/C"
_symmetry_group_IT_number 15
_symmetry_cell_setting 'monoclinic'
loop_
_space_group_symop_operation_xyz
x,y,z
-x,y,1/2-z
-x,-y,-z
x,-y,1/2+z
1/2+x,1/2+y,z
1/2-x,1/2+y,1/2-z
1/2-x,1/2-y,-z
1/2+x,1/2-y,1/2+z
loop_
_atom_site_type_symbol
_atom_site_label
_atom_site_fract_x
_atom_site_fract_y
_atom_site_fract_z
Si Si1 0.098179 0.051451 0.050877
Si Si2 0.184014 0.939138 0.275829
Si Si3 0.704491 0.397811 0.931078
Si Si4 0.500000 0.024502 0.750000
Si Si5 0.629288 0.289541 0.146345
Si Si6 0.459125 0.926808 0.064465
O O1 0.991150 0.114625 0.041772
O O2 0.314897 0.099194 0.990765
O O3 0.940923 0.032609 0.162758
O O4 0.130887 0.948724 0.015461
O O5 0.298387 0.961647 0.173300
O O6 0.024405 0.854586 0.332523
O O7 0.347221 0.913855 0.266985
O O8 0.806466 0.301742 0.911109
O O9 0.877174 0.462162 0.839414
O O10 0.500000 0.258242 0.250000
O O11 0.852766 0.338293 0.077090
O O12 0.500000 0.000000 0.000000
#
# Coordination Sequence:
#
# PCOD8132308 Si02
#       6
#     8   8   8   4   8   8
#     4  10  21  37  62  88 114 160 202 239 301 362
#     4  10  21  37  60  88 118 159 202 245 297 364
#     4  10  20  37  60  90 113 156 201 248 295 353
#     4  10  18  36  64  82 116 156 200 246 298 354
#     4  10  21  36  60  88 122 156 200 246 303 351
#     4  11  21  38  58  88 122 163 195 248 298 359
#
# _framework density 20.281255000000002
#
# number of rings (size 3 to 8) (size 9 to 14) (size 15 to 20)
#    0.000    1.818    4.545    0.000    0.000    1.455 
#    0.000    0.000    0.000    2.182    4.727    0.000 
#    0.000    0.000    0.000    0.000    0.000    0.000 
#
# Total GULP energy -272680.096679 kJ/mol
# GULP energy per Si atom -12394.549849 kJ/mol
# Density = 2.023509 g / cm^3
# Si number density = 20.281255 Si / 1000 Ang^3
#
#
#
# Elastic Constant Matrix: (Units=GPa)
#
#
# Indices 1 2 3 4 5 6 
#
# 1 113.7849 41.1041 35.8359 0.0009 -31.6049 -0.0004
# 2 41.1041 75.3609 23.6842 0.0024 -6.9746 0.0001
# 3 35.8359 23.6842 85.9307 0.0071 -7.7833 -0.0029
# 4 0.0009 0.0024 0.0071 23.7543 -0.0001 -0.5039
# 5 -31.6049 -6.9746 -7.7833 -0.0001 45.5202 0.0010
# 6 -0.0004 0.0001 -0.0029 -0.5039 0.0010 16.8016
#
#
#
# Elastic Compliance Matrix: (Units=1/GPa)
#
#
# Indices 1 2 3 4 5 6 
#
# 1 0.014435 -0.005953 -0.003610 0.000001 0.008493 -0.000001
# 2 -0.005953 0.017093 -0.002403 -0.000001 -0.001925 -0.000001
# 3 -0.003610 -0.002403 0.013758 -0.000004 -0.000522 0.000002
# 4 0.000001 -0.000001 -0.000004 0.042124 0.000000 0.001263
# 5 0.008493 -0.001925 -0.000522 0.000000 0.027481 -0.000001
# 6 -0.000001 -0.000001 0.000002 0.001263 -0.000001 0.059556
#
#
# Mechanical properties :
#
#
# Convention : Reuss Voigt Hill
#
# Bulk Modulus (GPa) = 46.82840 52.92500 49.87670
# Shear Modulus (GPa) = 24.33131 28.84536 26.58834
#
# Velocity S-wave (km/s) = 3.46742 3.77539 3.62467
# Velocity P-wave (km/s) = 6.25862 6.71989 6.49335
#
# Compressibility (1/GPa) = 0.02135456
#
# Stress axis : x y z
#
# Youngs Moduli (GPa) = 69.27728 58.50224 72.68617
#
# Poissons Ratio (x) = 0.34824 0.26239
# Poissons Ratio (y) = 0.41238 0.17468
# Poissons Ratio (z) = 0.25008 0.14059
#
# Static dielectric constant tensor:
#      x y z
#    x 3.935910 0.000010 0.036180 
#    y 0.000010 3.214410 0.000050 
#    z 0.036180 0.000050 4.972060 
# 
# 
# High freq. dielectric constant tensor:
#      x y z
#    x 1.797890 0.000000 -0.007040 
#    y 0.000000 1.743630 0.000000 
#    z -0.007040 0.000000 1.815610 
# 
# From -- ./inp_files/143013.got.cif
#   From: 2010.06.25/outbox.cif.g09.slc.cpg/sg15_72_cif.got.tgz:143013.got - 2010.06.28 07:06:18.
