data_PCOD8132247
_publ_section_title
;
Structure prediction by ZEFSAII (Michael W. Deem and Ramdas Pophale) SiO2 
 PCOD8132247
Probable space group: C 2/C
;
_chemical_formula_sum "Si O2"
_cell_formula_units_Z 52
_cell_length_a 11.650353
_cell_length_b 22.830157
_cell_length_c 15.817878
_cell_angle_alpha 90.000000
_cell_angle_beta 143.485288
_cell_angle_gamma 90.000000
_cell_volume 2503.424308
_symmetry_space_group_name_H-M "C 2/C"
_symmetry_group_IT_number 15
_symmetry_cell_setting 'monoclinic'
loop_
_space_group_symop_operation_xyz
x,y,z
-x,y,1/2-z
-x,-y,-z
x,-y,1/2+z
1/2+x,1/2+y,z
1/2-x,1/2+y,1/2-z
1/2-x,1/2-y,-z
1/2+x,1/2-y,1/2+z
loop_
_atom_site_type_symbol
_atom_site_label
_atom_site_fract_x
_atom_site_fract_y
_atom_site_fract_z
Si Si1 0.894366 0.495581 0.848056
Si Si2 0.079786 0.288821 0.938008
Si Si3 0.500000 0.612090 0.750000
Si Si4 0.574311 0.438385 0.574184
Si Si5 0.684752 0.891147 0.301346
Si Si6 0.312538 0.085335 0.053439
Si Si7 0.230322 0.198934 0.778813
O O1 0.705724 0.451598 0.735973
O O2 0.827236 0.559787 0.779220
O O3 0.039195 0.468615 0.863397
O O4 0.000000 0.500000 0.000000
O O5 0.079498 0.353088 0.897244
O O6 0.870940 0.261221 0.797461
O O7 0.250000 0.250000 0.000000
O O8 0.104361 0.292847 0.053627
O O9 0.335005 0.572201 0.611443
O O10 0.569195 0.653313 0.714796
O O11 0.500000 0.500000 0.500000
O O12 0.383357 0.398102 0.474328
O O13 0.711086 0.410691 0.583564
O O14 0.500000 0.896051 0.250000
O O15 0.681238 0.827490 0.254891
#
# Coordination Sequence:
#
# PCOD8132247 Si02
#       7
#     8   8   4   8   8   8   8
#     4  11  23  38  60  96 127 163 209 271 320 384
#     4  11  20  35  59  94 123 153 198 266 333 386
#     4  10  18  36  60  92 124 164 194 262 332 382
#     4  10  21  37  58  84 120 168 211 247 311 384
#     4  11  23  45  62  83 127 179 221 253 314 394
#     4  11  21  35  61  92 129 159 206 260 328 381
#     4  11  21  38  62  91 126 161 203 263 335 387
#
# _framework density 20.771549
#
# number of rings (size 3 to 8) (size 9 to 14) (size 15 to 20)
#    0.000    1.231    4.615    4.154    2.154    3.692 
#    0.000    0.769    0.000    0.000    0.000    0.000 
#    0.000    0.000    0.000    0.000    0.000    0.000 
#
# Total GULP energy -322246.150657 kJ/mol
# GULP energy per Si atom -12394.082718 kJ/mol
# Density = 2.072427 g / cm^3
# Si number density = 20.771549 Si / 1000 Ang^3
#
#
#
# Elastic Constant Matrix: (Units=GPa)
#
#
# Indices 1 2 3 4 5 6 
#
# 1 77.4980 20.6511 39.6389 0.0000 5.1569 0.0000
# 2 20.6511 80.2411 29.6181 0.0000 0.0054 0.0000
# 3 39.6389 29.6181 148.5052 0.0001 -2.9275 -0.0001
# 4 0.0000 0.0000 0.0001 31.5567 0.0001 -0.6163
# 5 5.1569 0.0054 -2.9275 0.0001 22.9349 0.0000
# 6 0.0000 0.0000 -0.0001 -0.6163 0.0000 30.8985
#
#
#
# Elastic Compliance Matrix: (Units=1/GPa)
#
#
# Indices 1 2 3 4 5 6 
#
# 1 0.015812 -0.002679 -0.003766 0.000000 -0.004035 0.000000
# 2 -0.002679 0.013909 -0.002052 0.000000 0.000337 0.000000
# 3 -0.003766 -0.002052 0.008186 0.000000 0.001892 0.000000
# 4 0.000000 0.000000 0.000000 0.031701 0.000000 0.000632
# 5 -0.004035 0.000337 0.001892 0.000000 0.044750 0.000000
# 6 0.000000 0.000000 0.000000 0.000632 0.000000 0.032377
#
#
# Mechanical properties :
#
#
# Convention : Reuss Voigt Hill
#
# Bulk Modulus (GPa) = 47.81816 54.00671 50.91244
# Shear Modulus (GPa) = 29.29095 31.50042 30.39569
#
# Velocity S-wave (km/s) = 3.75927 3.89847 3.82950
# Velocity P-wave (km/s) = 6.47408 6.80595 6.64209
#
# Compressibility (1/GPa) = 0.02091256
#
# Stress axis : x y z
#
# Youngs Moduli (GPa) = 63.24247 71.89333 122.16638
#
# Poissons Ratio (x) = 0.19262 0.46005
# Poissons Ratio (y) = 0.16944 0.25073
# Poissons Ratio (z) = 0.23816 0.14755
#
# Static dielectric constant tensor:
#      x y z
#    x 3.217660 0.000000 -0.032300 
#    y 0.000000 3.794950 0.000000 
#    z -0.032300 0.000000 4.111300 
# 
# 
# High freq. dielectric constant tensor:
#      x y z
#    x 1.773290 0.000000 0.008480 
#    y 0.000000 1.800250 0.000000 
#    z 0.008480 0.000000 1.834030 
# 
# From -- ./inp_files/148144.got.cif
#   From: 2010.06.25/outbox.cif.g09.slc.cpg/sg15_75_cif.got.tgz:148144.got - 2010.06.28 07:06:18.
