data_PCOD8132038
_publ_section_title
;
Structure prediction by ZEFSAII (Michael W. Deem and Ramdas Pophale) SiO2 
 PCOD8132038
Probable space group: C 2/C
;
_chemical_formula_sum "Si O2"
_cell_formula_units_Z 64
_cell_length_a 30.116010
_cell_length_b 11.801741
_cell_length_c 17.076823
_cell_angle_alpha 90.000000
_cell_angle_beta 32.137141
_cell_angle_gamma 90.000000
_cell_volume 3228.638661
_symmetry_space_group_name_H-M "C 2/C"
_symmetry_group_IT_number 15
_symmetry_cell_setting 'monoclinic'
loop_
_space_group_symop_operation_xyz
x,y,z
-x,y,1/2-z
-x,-y,-z
x,-y,1/2+z
1/2+x,1/2+y,z
1/2-x,1/2+y,1/2-z
1/2-x,1/2-y,-z
1/2+x,1/2-y,1/2+z
loop_
_atom_site_type_symbol
_atom_site_label
_atom_site_fract_x
_atom_site_fract_y
_atom_site_fract_z
Si Si1 0.713609 0.672976 0.123297
Si Si2 0.078661 0.866447 0.239495
Si Si3 0.970597 0.074837 0.116561
Si Si4 0.314753 0.078126 0.266956
Si Si5 0.167094 0.245439 0.475514
Si Si6 0.351017 0.162509 0.664036
Si Si7 0.525977 0.781444 0.959483
Si Si8 0.260434 0.064288 0.522180
O O1 0.621285 0.626968 0.246467
O O2 0.714200 0.747866 0.201105
O O3 0.768909 0.559166 0.050273
O O4 0.750000 0.750000 0.000000
O O5 0.037906 0.771379 0.355123
O O6 0.166475 0.894485 0.149901
O O7 0.024522 0.984935 0.318241
O O8 0.092245 0.823193 0.130471
O O9 0.029660 0.185606 0.023629
O O10 0.000000 0.000000 0.000000
O O11 0.243468 0.161897 0.341737
O O12 0.405769 0.129243 0.116008
O O13 0.306900 0.055669 0.370467
O O14 0.308249 0.960866 0.228954
O O15 0.130138 0.298672 0.452292
O O16 0.194654 0.344745 0.491514
O O17 0.435658 0.158260 0.589180
#
# Coordination Sequence:
#
# PCOD8132038 Si02
#       8
#     8   8   8   8   8   8   8   8
#     4  10  19  35  56  82 115 151 198 246 290 356
#     4   9  16  34  57  83 108 153 197 234 280 358
#     4   8  17  30  55  87 108 141 194 245 280 343
#     4  11  20  39  60  83 114 158 196 235 290 365
#     4  11  22  36  58  86 115 150 198 249 297 336
#     4  11  25  35  53  93 121 148 191 255 304 339
#     4  10  18  36  58  83 118 151 197 233 288 362
#     4  10  18  35  61  79 108 154 207 232 278 358
#
# _framework density 19.822596000000001
#
# number of rings (size 3 to 8) (size 9 to 14) (size 15 to 20)
#    0.000    2.000    3.750    1.125    1.750    0.500 
#    0.000    0.000    0.000    0.000    0.000    0.000 
#    0.000    0.000    0.000    0.000    0.000    0.000 
#
# Total GULP energy -396466.227657 kJ/mol
# GULP energy per Si atom -12389.569614 kJ/mol
# Density = 1.977748 g / cm^3
# Si number density = 19.822596 Si / 1000 Ang^3
#
#
#
# Elastic Constant Matrix: (Units=GPa)
#
#
# Indices 1 2 3 4 5 6 
#
# 1 38.9004 30.2998 15.6605 0.0000 17.1223 0.0000
# 2 30.2998 136.7399 44.5776 0.0000 11.5531 0.0000
# 3 15.6605 44.5776 86.2567 0.0000 12.1275 0.0000
# 4 0.0000 0.0000 0.0000 44.0094 0.0000 12.0312
# 5 17.1223 11.5531 12.1275 0.0000 24.7253 0.0000
# 6 0.0000 0.0000 0.0000 12.0312 0.0000 17.7024
#
#
#
# Elastic Compliance Matrix: (Units=1/GPa)
#
#
# Indices 1 2 3 4 5 6 
#
# 1 0.043009 -0.007181 -0.000410 0.000000 -0.026227 0.000000
# 2 -0.007181 0.010089 -0.004239 0.000000 0.002338 0.000000
# 3 -0.000410 -0.004239 0.014543 0.000000 -0.004869 0.000000
# 4 0.000000 0.000000 0.000000 0.027908 0.000000 -0.018967
# 5 -0.026227 0.002338 -0.004869 0.000000 0.059903 0.000000
# 6 0.000000 0.000000 0.000000 -0.018967 0.000000 0.069380
#
#
# Mechanical properties :
#
#
# Convention : Reuss Voigt Hill
#
# Bulk Modulus (GPa) = 22.73682 49.21920 35.97801
# Shear Modulus (GPa) = 19.00052 28.71134 23.85593
#
# Velocity S-wave (km/s) = 3.09937 3.80993 3.47287
# Velocity P-wave (km/s) = 4.92983 6.65116 5.85410
#
# Compressibility (1/GPa) = 0.04398152
#
# Stress axis : x y z
#
# Youngs Moduli (GPa) = 23.25095 99.12132 68.76212
#
# Poissons Ratio (x) = 0.71175 0.02820
# Poissons Ratio (y) = 0.16696 0.29147
# Poissons Ratio (z) = 0.00953 0.42016
#
# Static dielectric constant tensor:
#      x y z
#    x 3.021330 0.000000 0.228860 
#    y 0.000000 4.153340 0.000000 
#    z 0.228860 0.000000 3.962900 
# 
# 
# High freq. dielectric constant tensor:
#      x y z
#    x 1.708280 0.000000 0.014310 
#    y 0.000000 1.797700 0.000000 
#    z 0.014310 0.000000 1.790170 
# 
# From -- ./inp_files/225160.got.cif
#   From: 2010.06.25/outbox.cif.g09.slc.cpg/sg15_113_cif.got.tgz:225160.got - 2010.06.28 07:06:18.
