data_PCOD8132859
_publ_section_title
;
Structure prediction by ZEFSAII (Michael W. Deem and Ramdas Pophale) SiO2 
 PCOD8132859
Probable space group: C 2/C
;
_chemical_formula_sum "Si O2"
_cell_formula_units_Z 44
_cell_length_a 22.512103
_cell_length_b 15.553011
_cell_length_c 10.785779
_cell_angle_alpha 90.000000
_cell_angle_beta 32.849709
_cell_angle_gamma 90.000000
_cell_volume 2048.479325
_symmetry_space_group_name_H-M "C 2/C"
_symmetry_group_IT_number 15
_symmetry_cell_setting 'monoclinic'
loop_
_space_group_symop_operation_xyz
x,y,z
-x,y,1/2-z
-x,-y,-z
x,-y,1/2+z
1/2+x,1/2+y,z
1/2-x,1/2+y,1/2-z
1/2-x,1/2-y,-z
1/2+x,1/2-y,1/2+z
loop_
_atom_site_type_symbol
_atom_site_label
_atom_site_fract_x
_atom_site_fract_y
_atom_site_fract_z
Si Si1 0.500000 0.743180 0.750000
Si Si2 0.913895 0.259815 0.147138
Si Si3 0.315841 0.508698 0.835656
Si Si4 0.295958 0.154409 0.058768
Si Si5 0.774965 0.825835 0.552914
Si Si6 0.501619 0.603299 0.111752
O O1 0.537332 0.802360 0.566048
O O2 0.602229 0.681669 0.606912
O O3 0.798135 0.217200 0.323112
O O4 0.902276 0.323596 0.285640
O O5 0.000640 0.183474 0.020189
O O6 0.228847 0.446041 0.922459
O O7 0.388253 0.549653 0.599559
O O8 0.394829 0.456177 0.788240
O O9 0.256385 0.583513 0.016806
O O10 0.311145 0.173042 0.179636
O O11 0.750000 0.750000 0.500000
O O12 0.500000 0.643865 0.250000
#
# Coordination Sequence:
#
# PCOD8132859 Si02
#       6
#     4   8   8   8   8   8
#     4  10  20  40  60  86 126 156 210 260 312 372
#     4   9  18  34  56  82 118 167 191 248 310 376
#     4  10  20  35  54  90 123 161 196 260 320 371
#     4   9  20  36  54  87 128 157 203 248 311 382
#     4  11  23  38  61  93 126 165 210 257 320 381
#     4  10  19  29  56  88 120 150 199 248 323 376
#
# _framework density 21.479348000000002
#
# number of rings (size 3 to 8) (size 9 to 14) (size 15 to 20)
#    0.000    2.182    1.818    1.091    6.364    0.000 
#    6.545    0.000    0.000    1.091    2.364    0.000 
#    0.000    0.000    0.000    0.000    0.000    0.000 
#
# Total GULP energy -272565.920701 kJ/mol
# GULP energy per Si atom -12389.360032 kJ/mol
# Density = 2.143046 g / cm^3
# Si number density = 21.479348 Si / 1000 Ang^3
#
#
#
# Elastic Constant Matrix: (Units=GPa)
#
#
# Indices 1 2 3 4 5 6 
#
# 1 67.2494 39.0033 58.6928 0.0000 44.4657 0.0000
# 2 39.0033 105.1459 61.3005 0.0000 26.5875 0.0000
# 3 58.6928 61.3005 117.2397 0.0000 50.5246 0.0000
# 4 0.0000 0.0000 0.0000 35.9466 0.0000 7.4672
# 5 44.4657 26.5875 50.5246 0.0000 47.7129 0.0000
# 6 0.0000 0.0000 0.0000 7.4672 0.0000 20.8735
#
#
#
# Elastic Compliance Matrix: (Units=1/GPa)
#
#
# Indices 1 2 3 4 5 6 
#
# 1 0.043900 -0.004919 -0.005437 0.000000 -0.032415 0.000000
# 2 -0.004919 0.014232 -0.006506 0.000000 0.003542 0.000000
# 3 -0.005437 -0.006506 0.020063 0.000000 -0.012553 0.000000
# 4 0.000000 0.000000 0.000000 0.030052 0.000000 -0.010751
# 5 -0.032415 0.003542 -0.012553 0.000000 0.062486 0.000000
# 6 0.000000 0.000000 0.000000 -0.010751 0.000000 0.051754
#
#
# Mechanical properties :
#
#
# Convention : Reuss Voigt Hill
#
# Bulk Modulus (GPa) = 22.48523 67.51425 44.99974
# Shear Modulus (GPa) = 18.44789 29.61584 24.03186
#
# Velocity S-wave (km/s) = 2.93382 3.71725 3.34853
# Velocity P-wave (km/s) = 4.68694 7.06572 5.99549
#
# Compressibility (1/GPa) = 0.04447364
#
# Stress axis : x y z
#
# Youngs Moduli (GPa) = 22.77881 70.26281 49.84418
#
# Poissons Ratio (x) = 0.34559 0.27098
# Poissons Ratio (y) = 0.11204 0.32427
# Poissons Ratio (z) = 0.12384 0.45711
#
# Static dielectric constant tensor:
#      x y z
#    x 3.840610 0.000000 0.393600 
#    y 0.000000 3.600470 0.000000 
#    z 0.393600 0.000000 4.082650 
# 
# 
# High freq. dielectric constant tensor:
#      x y z
#    x 1.828330 0.000000 0.037430 
#    y 0.000000 1.807960 0.000000 
#    z 0.037430 0.000000 1.843540 
# 
# From -- ./inp_files/123260.got.cif
#   From: 2010.06.25/outbox.cif.g09.slc.cpg/sg15_62_cif.got.tgz:123260.got - 2010.06.28 07:06:18.
