data_PCOD8132447
_publ_section_title
;
Structure prediction by ZEFSAII (Michael W. Deem and Ramdas Pophale) SiO2 
 PCOD8132447
Probable space group: C 2/C
;
_chemical_formula_sum "Si O2"
_cell_formula_units_Z 60
_cell_length_a 30.186468
_cell_length_b 18.375970
_cell_length_c 17.044365
_cell_angle_alpha 90.000000
_cell_angle_beta 161.032473
_cell_angle_gamma 90.000000
_cell_volume 3073.051322
_symmetry_space_group_name_H-M "C 2/C"
_symmetry_group_IT_number 15
_symmetry_cell_setting 'monoclinic'
loop_
_space_group_symop_operation_xyz
x,y,z
-x,y,1/2-z
-x,-y,-z
x,-y,1/2+z
1/2+x,1/2+y,z
1/2-x,1/2+y,1/2-z
1/2-x,1/2-y,-z
1/2+x,1/2-y,1/2+z
loop_
_atom_site_type_symbol
_atom_site_label
_atom_site_fract_x
_atom_site_fract_y
_atom_site_fract_z
Si Si1 0.500000 0.986501 0.250000
Si Si2 0.040634 0.918225 0.550657
Si Si3 0.395810 0.381512 0.007179
Si Si4 0.240069 0.470868 0.253802
Si Si5 0.459071 0.644650 0.067158
Si Si6 0.654878 0.877213 0.413826
Si Si7 0.708227 0.761121 0.627220
Si Si8 0.228259 0.366784 0.363605
O O1 0.540606 0.935919 0.244147
O O2 0.623576 0.034682 0.491270
O O3 0.007217 0.897387 0.405423
O O4 0.202663 0.915103 0.829487
O O5 0.968493 0.860549 0.488175
O O6 0.000000 0.000000 0.500000
O O7 0.500000 0.364682 0.250000
O O8 0.293951 0.447708 0.855492
O O9 0.301722 0.311237 0.837941
O O10 0.365089 0.420739 0.438054
O O11 0.183987 0.440406 0.243499
O O12 0.608333 0.632592 0.352612
O O13 0.401894 0.722423 0.000072
O O14 0.634246 0.806056 0.433417
O O15 0.645279 0.858061 0.305540
O O16 0.806507 0.702243 0.749551
#
# Coordination Sequence:
#
# PCOD8132447 Si02
#       8
#     4   8   8   8   8   8   8   8
#     4  12  22  38  58  80 132 160 184 244 320 366
#     4  10  18  37  63  92 116 150 208 257 296 347
#     4  11  22  38  60  89 123 157 199 255 300 354
#     4  11  21  37  59  90 117 160 200 249 308 354
#     4  10  20  37  66  92 113 152 211 257 294 355
#     4  10  22  36  58  90 118 157 197 252 305 354
#     4  10  20  38  56  91 120 155 191 246 317 349
#     4  10  22  38  64  89 114 152 216 251 290 358
#
# _framework density 19.524567999999999
#
# number of rings (size 3 to 8) (size 9 to 14) (size 15 to 20)
#    0.000    1.600    4.000    2.800    3.733    0.533 
#    4.800    0.667    0.000    0.000    0.000    0.000 
#    0.000    0.000    0.000    0.000    0.000    0.000 
#
# Total GULP energy -371919.712776 kJ/mol
# GULP energy per Si atom -12397.323759 kJ/mol
# Density = 1.948013 g / cm^3
# Si number density = 19.524568 Si / 1000 Ang^3
#
#
#
# Elastic Constant Matrix: (Units=GPa)
#
#
# Indices 1 2 3 4 5 6 
#
# 1 144.0209 61.6331 35.3645 0.0000 -9.4362 0.0000
# 2 61.6331 116.4453 39.4684 0.0000 -7.3221 0.0000
# 3 35.3645 39.4684 59.6731 0.0000 -10.1546 0.0000
# 4 0.0000 0.0000 0.0000 24.0644 0.0000 -0.3420
# 5 -9.4362 -7.3221 -10.1546 0.0000 32.9052 0.0000
# 6 0.0000 0.0000 0.0000 -0.3420 0.0000 32.9669
#
#
#
# Elastic Compliance Matrix: (Units=1/GPa)
#
#
# Indices 1 2 3 4 5 6 
#
# 1 0.009385 -0.003966 -0.002776 0.000000 0.000952 0.000000
# 2 -0.003966 0.012747 -0.006112 0.000000 -0.000187 0.000000
# 3 -0.002776 -0.006112 0.023303 0.000000 0.005035 0.000000
# 4 0.000000 0.000000 0.000000 0.041561 0.000000 0.000431
# 5 0.000952 -0.000187 0.005035 0.000000 0.032176 0.000000
# 6 0.000000 0.000000 0.000000 0.000431 0.000000 0.030338
#
#
# Mechanical properties :
#
#
# Convention : Reuss Voigt Hill
#
# Bulk Modulus (GPa) = 50.69787 65.89680 58.29733
# Shear Modulus (GPa) = 27.50352 30.23217 28.86785
#
# Velocity S-wave (km/s) = 3.75729 3.93926 3.84935
# Velocity P-wave (km/s) = 6.69668 7.38338 7.04840
#
# Compressibility (1/GPa) = 0.01972469
#
# Stress axis : x y z
#
# Youngs Moduli (GPa) = 106.55316 78.44958 42.91309
#
# Poissons Ratio (x) = 0.31117 0.11915
# Poissons Ratio (y) = 0.42264 0.26229
# Poissons Ratio (z) = 0.29584 0.47950
#
# Static dielectric constant tensor:
#      x y z
#    x 4.318500 0.000000 0.060620 
#    y 0.000000 3.671360 0.000000 
#    z 0.060620 0.000000 3.312390 
# 
# 
# High freq. dielectric constant tensor:
#      x y z
#    x 1.774140 0.000000 0.004690 
#    y 0.000000 1.762030 0.000000 
#    z 0.004690 0.000000 1.732610 
# 
# From -- ./inp_files/225806.got.cif
#   From: 2010.06.25/outbox.cif.g09.slc.cpg/sg15_113_cif.got.tgz:225806.got - 2010.06.28 07:06:18.
