data_PCOD8132837
_publ_section_title
;
Structure prediction by ZEFSAII (Michael W. Deem and Ramdas Pophale) SiO2 
 PCOD8132837
Probable space group: C 2/C
;
_chemical_formula_sum "Si O2"
_cell_formula_units_Z 44
_cell_length_a 24.086289
_cell_length_b 13.845817
_cell_length_c 8.719342
_cell_angle_alpha 90.000000
_cell_angle_beta 74.997179
_cell_angle_gamma 90.000000
_cell_volume 2808.731602
_symmetry_space_group_name_H-M "C 2/C"
_symmetry_group_IT_number 15
_symmetry_cell_setting 'monoclinic'
loop_
_space_group_symop_operation_xyz
x,y,z
-x,y,1/2-z
-x,-y,-z
x,-y,1/2+z
1/2+x,1/2+y,z
1/2-x,1/2+y,1/2-z
1/2-x,1/2-y,-z
1/2+x,1/2-y,1/2+z
loop_
_atom_site_type_symbol
_atom_site_label
_atom_site_fract_x
_atom_site_fract_y
_atom_site_fract_z
Si Si1 0.240322 0.432093 0.123631
Si Si2 0.324286 0.691077 0.745762
Si Si3 0.000000 0.988577 0.750000
Si Si4 0.218344 0.611407 0.310355
Si Si5 0.580588 0.560326 0.941471
Si Si6 0.673577 0.586402 0.444090
O O1 0.264134 0.351032 0.223092
O O2 0.200375 0.507102 0.250074
O O3 0.207840 0.385337 0.001612
O O4 0.292990 0.493070 0.009953
O O5 0.322027 0.806640 0.734722
O O6 0.376599 0.649969 0.607884
O O7 0.334604 0.664111 0.915683
O O8 0.962948 0.058683 0.669037
O O9 0.956479 0.921841 0.878574
O O10 0.286107 0.631269 0.219804
O O11 0.613278 0.455588 0.923906
#
# Coordination Sequence:
#
# PCOD8132837 Si02
#       6
#     8   8   4   8   8   8
#     4   9  17  30  41  63  96 126 159 188 223 277
#     4  11  18  30  47  69  94 129 163 191 232 284
#     4  10  20  32  50  64  90 136 150 206 238 274
#     4  10  19  28  47  65  96 137 156 190 228 282
#     4  10  19  32  48  67  94 126 163 187 240 277
#     4   9  17  30  45  63  97 128 154 186 228 281
#
# _framework density 15.665435
#
# number of rings (size 3 to 8) (size 9 to 14) (size 15 to 20)
#    1.091    1.091    3.636    1.091    2.545    0.000 
#    0.000    0.000    0.000    0.000    0.000    0.000 
#    0.000    4.364    0.000    0.000    0.000    0.000 
#
# Total GULP energy -272554.818448 kJ/mol
# GULP energy per Si atom -12388.855384 kJ/mol
# Density = 1.562978 g / cm^3
# Si number density = 15.665435 Si / 1000 Ang^3
#
#
#
# Elastic Constant Matrix: (Units=GPa)
#
#
# Indices 1 2 3 4 5 6 
#
# 1 45.1603 21.0328 19.9758 0.0000 -0.7862 0.0000
# 2 21.0328 56.3493 15.7839 0.0000 0.4611 0.0000
# 3 19.9758 15.7839 74.1190 0.0000 0.3758 0.0000
# 4 0.0000 0.0000 0.0000 19.6577 0.0000 2.7958
# 5 -0.7862 0.4611 0.3758 0.0000 21.2506 0.0000
# 6 0.0000 0.0000 0.0000 2.7958 0.0000 12.0316
#
#
#
# Elastic Compliance Matrix: (Units=1/GPa)
#
#
# Indices 1 2 3 4 5 6 
#
# 1 0.029056 -0.009211 -0.005877 0.000000 0.001379 0.000000
# 2 -0.009211 0.021794 -0.002155 0.000000 -0.000776 0.000000
# 3 -0.005877 -0.002155 0.015537 0.000000 -0.000445 0.000000
# 4 0.000000 0.000000 0.000000 0.052609 0.000000 -0.012225
# 5 0.001379 -0.000776 -0.000445 0.000000 0.047133 0.000000
# 6 0.000000 0.000000 0.000000 -0.012225 0.000000 0.085955
#
#
# Mechanical properties :
#
#
# Convention : Reuss Voigt Hill
#
# Bulk Modulus (GPa) = 31.34472 32.13483 31.73977
# Shear Modulus (GPa) = 16.82347 18.51040 17.66693
#
# Velocity S-wave (km/s) = 3.28063 3.44118 3.36186
# Velocity P-wave (km/s) = 5.86535 6.02882 5.94765
#
# Compressibility (1/GPa) = 0.03190330
#
# Stress axis : x y z
#
# Youngs Moduli (GPa) = 34.41571 45.88343 64.36360
#
# Poissons Ratio (x) = 0.42262 0.37823
# Poissons Ratio (y) = 0.31699 0.13869
# Poissons Ratio (z) = 0.20224 0.09887
#
# Static dielectric constant tensor:
#      x y z
#    x 2.743670 0.000000 0.003990 
#    y 0.000000 2.694470 0.000000 
#    z 0.003990 0.000000 2.997620 
# 
# 
# High freq. dielectric constant tensor:
#      x y z
#    x 1.558640 0.000000 0.011610 
#    y 0.000000 1.567250 0.000000 
#    z 0.011610 0.000000 1.614050 
# 
# From -- ./inp_files/61025.got.cif
#   From: 2010.06.25/outbox.cif.g09.slc.cpg/sg15_31_cif.got.tgz:61025.got - 2010.06.28 07:06:18.
