data_PCOD8132096
_publ_section_title
;
Structure prediction by ZEFSAII (Michael W. Deem and Ramdas Pophale) SiO2 
 PCOD8132096
Probable space group: C 2/C
;
_chemical_formula_sum "Si O2"
_cell_formula_units_Z 56
_cell_length_a 11.387128
_cell_length_b 29.919100
_cell_length_c 10.385232
_cell_angle_alpha 90.000000
_cell_angle_beta 50.505849
_cell_angle_gamma 90.000000
_cell_volume 2730.370161
_symmetry_space_group_name_H-M "C 2/C"
_symmetry_group_IT_number 15
_symmetry_cell_setting 'monoclinic'
loop_
_space_group_symop_operation_xyz
x,y,z
-x,y,1/2-z
-x,-y,-z
x,-y,1/2+z
1/2+x,1/2+y,z
1/2-x,1/2+y,1/2-z
1/2-x,1/2-y,-z
1/2+x,1/2-y,1/2+z
loop_
_atom_site_type_symbol
_atom_site_label
_atom_site_fract_x
_atom_site_fract_y
_atom_site_fract_z
Si Si1 0.894815 0.470011 0.445590
Si Si2 0.841558 0.355516 0.927732
Si Si3 0.308036 0.697234 0.177554
Si Si4 0.226588 0.898863 0.423815
Si Si5 0.013058 0.283972 0.501920
Si Si6 0.679602 0.059182 0.893349
Si Si7 0.500000 0.831980 0.250000
Si Si8 0.000000 0.849426 0.750000
O O1 0.775405 0.431396 0.503216
O O2 0.786632 0.510881 0.567329
O O3 0.000000 0.483693 0.250000
O O4 0.002034 0.447481 0.478946
O O5 0.710199 0.341460 0.917671
O O6 0.000000 0.365310 0.750000
O O7 0.863830 0.317075 0.019738
O O8 0.790749 0.401921 0.025501
O O9 0.422237 0.734227 0.044786
O O10 0.367941 0.679321 0.273614
O O11 0.141566 0.718898 0.308781
O O12 0.212126 0.928453 0.303602
O O13 0.355647 0.861719 0.312091
O O14 0.069656 0.877391 0.581886
O O15 0.966130 0.300167 0.393271
#
# Coordination Sequence:
#
# PCOD8132096 Si02
#       8
#     8   8   8   8   8   8   4   4
#     4   9  18  33  62 103 127 154 206 263 301 358
#     4  10  21  38  61  93 127 164 203 261 317 373
#     4  11  26  41  62  90 124 165 211 261 320 374
#     4  11  21  40  62  93 125 162 207 261 306 366
#     4  11  23  40  62  93 122 159 208 261 319 378
#     4  10  18  35  65  96 125 161 206 254 312 364
#     4  12  19  38  70  88 124 160 208 264 309 374
#     4  12  27  44  60  92 126 168 212 262 311 382
#
# _framework density 20.51004
#
# number of rings (size 3 to 8) (size 9 to 14) (size 15 to 20)
#    0.000    1.429    5.000    1.286    4.000    1.143 
#    0.000    2.857    0.000    0.000    0.000    0.000 
#    0.000    0.000    0.000    0.000    0.000    0.000 
#
# Total GULP energy -347108.500545 kJ/mol
# GULP energy per Si atom -12396.732162 kJ/mol
# Density = 2.046336 g / cm^3
# Si number density = 20.510040 Si / 1000 Ang^3
#
#
#
# Elastic Constant Matrix: (Units=GPa)
#
#
# Indices 1 2 3 4 5 6 
#
# 1 76.2958 32.9573 8.9755 0.0000 9.2457 0.0000
# 2 32.9573 106.3653 30.7792 0.0000 -2.0524 0.0000
# 3 8.9755 30.7792 70.3985 0.0000 -5.9923 0.0000
# 4 0.0000 0.0000 0.0000 46.6115 0.0000 32.9178
# 5 9.2457 -2.0524 -5.9923 0.0000 27.0927 0.0000
# 6 0.0000 0.0000 0.0000 32.9178 0.0000 131.5402
#
#
#
# Elastic Compliance Matrix: (Units=1/GPa)
#
#
# Indices 1 2 3 4 5 6 
#
# 1 0.016015 -0.004968 -0.000374 0.000000 -0.005924 0.000000
# 2 -0.004968 0.012306 -0.004610 0.000000 0.001608 0.000000
# 3 -0.000374 -0.004610 0.016561 0.000000 0.003441 0.000000
# 4 0.000000 0.000000 0.000000 0.026059 0.000000 -0.006521
# 5 -0.005924 0.001608 0.003441 0.000000 0.039815 0.000000
# 6 0.000000 0.000000 0.000000 -0.006521 0.000000 0.009234
#
#
# Mechanical properties :
#
#
# Convention : Reuss Voigt Hill
#
# Bulk Modulus (GPa) = 40.03612 44.27595 42.15603
# Shear Modulus (GPa) = 33.73340 53.07206 43.40273
#
# Velocity S-wave (km/s) = 4.05992 5.09238 4.60518
# Velocity P-wave (km/s) = 6.44515 7.49738 6.99109
#
# Compressibility (1/GPa) = 0.02497745
#
# Stress axis : x y z
#
# Youngs Moduli (GPa) = 62.44166 81.26082 60.38275
#
# Poissons Ratio (x) = 0.40373 0.02258
# Poissons Ratio (y) = 0.31023 0.27837
# Poissons Ratio (z) = 0.02335 0.37462
#
# Static dielectric constant tensor:
#      x y z
#    x 3.704900 0.000000 0.316210 
#    y 0.000000 3.782600 0.000000 
#    z 0.316210 0.000000 3.572320 
# 
# 
# High freq. dielectric constant tensor:
#      x y z
#    x 1.786880 0.000000 0.025750 
#    y 0.000000 1.806020 0.000000 
#    z 0.025750 0.000000 1.788990 
# 
# From -- ./inp_files/92035.got.cif
#   From: 2010.06.25/outbox.cif.g09.slc.cpg/sg15_47_cif.got.tgz:92035.got - 2010.06.28 07:06:18.
