data_PCOD8132820
_publ_section_title
;
Structure prediction by ZEFSAII (Michael W. Deem and Ramdas Pophale) SiO2 
 PCOD8132820
Probable space group: C 2/C
;
_chemical_formula_sum "Si O2"
_cell_formula_units_Z 56
_cell_length_a 20.486699
_cell_length_b 11.037450
_cell_length_c 14.973362
_cell_angle_alpha 90.000000
_cell_angle_beta 55.213346
_cell_angle_gamma 90.000000
_cell_volume 2780.689073
_symmetry_space_group_name_H-M "C 2/C"
_symmetry_group_IT_number 15
_symmetry_cell_setting 'monoclinic'
loop_
_space_group_symop_operation_xyz
x,y,z
-x,y,1/2-z
-x,-y,-z
x,-y,1/2+z
1/2+x,1/2+y,z
1/2-x,1/2+y,1/2-z
1/2-x,1/2-y,-z
1/2+x,1/2-y,1/2+z
loop_
_atom_site_type_symbol
_atom_site_label
_atom_site_fract_x
_atom_site_fract_y
_atom_site_fract_z
Si Si1 0.879127 0.037174 0.982185
Si Si2 0.449020 0.824444 0.700369
Si Si3 0.289321 0.897639 0.887293
Si Si4 0.281992 0.135158 0.589486
Si Si5 0.436501 0.774643 0.035186
Si Si6 0.493924 0.351283 0.652805
Si Si7 0.618618 0.568657 0.727196
O O1 0.884554 0.084844 0.876917
O O2 0.785754 0.016652 0.082333
O O3 0.921320 0.139477 0.008793
O O4 0.924582 0.908446 0.950722
O O5 0.500000 0.838595 0.750000
O O6 0.370727 0.912103 0.766138
O O7 0.502512 0.853999 0.572142
O O8 0.423224 0.686623 0.701372
O O9 0.258699 0.762190 0.900562
O O10 0.313242 0.921720 0.971941
O O11 0.354358 0.149552 0.602083
O O12 0.210803 0.053960 0.686878
O O13 0.469760 0.762029 0.109833
O O14 0.500000 0.304201 0.750000
O O15 0.425990 0.452545 0.700903
#
# Coordination Sequence:
#
# PCOD8132820 Si02
#       7
#     8   8   8   8   8   8   8
#     4   9  15  25  37  55  83 117 139 166 210 272
#     4  11  14  21  36  60  89 112 128 164 214 267
#     4   8  14  22  35  55  84 115 134 159 217 270
#     4   8  14  23  36  55  80 114 142 169 207 263
#     4  11  17  23  39  62  88 111 143 173 214 263
#     4  10  19  28  38  58  92 123 145 171 204 253
#     4   9  15  25  37  53  86 119 138 163 216 260
#
# _framework density 20.138894000000001
#
# number of rings (size 3 to 8) (size 9 to 14) (size 15 to 20)
#    0.000    2.571    4.286    2.571    0.000    0.000 
#    0.000    0.000    0.000    0.000    0.000    9.000 
#    0.000   12.571    0.000    7.571    0.000    0.000 
#
# Total GULP energy -346893.952282 kJ/mol
# GULP energy per Si atom -12389.069724 kJ/mol
# Density = 2.009306 g / cm^3
# Si number density = 20.138894 Si / 1000 Ang^3
#
#
#
# Elastic Constant Matrix: (Units=GPa)
#
#
# Indices 1 2 3 4 5 6 
#
# 1 125.5927 24.9598 71.3275 0.0000 -24.0114 0.0000
# 2 24.9598 9.2378 17.9724 0.0000 -2.6240 0.0000
# 3 71.3275 17.9724 87.7056 0.0000 -18.9572 0.0000
# 4 0.0000 0.0000 0.0000 4.3641 0.0000 2.3630
# 5 -24.0114 -2.6240 -18.9572 0.0000 31.9125 0.0000
# 6 0.0000 0.0000 0.0000 2.3630 0.0000 16.5586
#
#
#
# Elastic Compliance Matrix: (Units=1/GPa)
#
#
# Indices 1 2 3 4 5 6 
#
# 1 0.022740 -0.044394 -0.007443 0.000000 0.009038 0.000000
# 2 -0.044394 0.268559 -0.024524 0.000000 -0.025889 0.000000
# 3 -0.007443 -0.024524 0.023903 0.000000 0.006583 0.000000
# 4 0.000000 0.000000 0.000000 0.248328 0.000000 -0.035438
# 5 0.009038 -0.025889 0.006583 0.000000 0.039918 0.000000
# 6 0.000000 0.000000 0.000000 -0.035438 0.000000 0.065449
#
#
# Mechanical properties :
#
#
# Convention : Reuss Voigt Hill
#
# Bulk Modulus (GPa) = 6.15461 50.11729 28.13595
# Shear Modulus (GPa) = 5.70920 17.78546 11.74733
#
# Velocity S-wave (km/s) = 1.68555 2.97499 2.41781
# Velocity P-wave (km/s) = 2.61741 6.06140 4.66859
#
# Compressibility (1/GPa) = 0.16247973
#
# Stress axis : x y z
#
# Youngs Moduli (GPa) = 43.97563 3.72358 41.83585
#
# Poissons Ratio (x) = 0.16530 0.31137
# Poissons Ratio (y) = 1.95225 1.02599
# Poissons Ratio (z) = 0.32730 0.09132
#
# Static dielectric constant tensor:
#      x y z
#    x 4.069900 0.000000 -0.598930 
#    y 0.000000 2.878280 0.000000 
#    z -0.598930 0.000000 3.912120 
# 
# 
# High freq. dielectric constant tensor:
#      x y z
#    x 1.789410 0.000000 -0.024900 
#    y 0.000000 1.698280 0.000000 
#    z -0.024900 0.000000 1.784040 
# 
# From -- ./inp_files/161867.got.cif
#   From: 2010.06.25/outbox.cif.g09.slc.cpg/sg15_81_cif.got.tgz:161867.got - 2010.06.28 07:06:18.
