data_PCOD8132123
_publ_section_title
;
Structure prediction by ZEFSAII (Michael W. Deem and Ramdas Pophale) SiO2 
 PCOD8132123
Probable space group: C 2/C
;
_chemical_formula_sum "Si O2"
_cell_formula_units_Z 44
_cell_length_a 10.267123
_cell_length_b 21.043476
_cell_length_c 10.858330
_cell_angle_alpha 90.000000
_cell_angle_beta 89.627581
_cell_angle_gamma 90.000000
_cell_volume 2345.957315
_symmetry_space_group_name_H-M "C 2/C"
_symmetry_group_IT_number 15
_symmetry_cell_setting 'monoclinic'
loop_
_space_group_symop_operation_xyz
x,y,z
-x,y,1/2-z
-x,-y,-z
x,-y,1/2+z
1/2+x,1/2+y,z
1/2-x,1/2+y,1/2-z
1/2-x,1/2-y,-z
1/2+x,1/2-y,1/2+z
loop_
_atom_site_type_symbol
_atom_site_label
_atom_site_fract_x
_atom_site_fract_y
_atom_site_fract_z
Si Si1 0.871141 0.874678 0.918790
Si Si2 0.128266 0.689766 0.311773
Si Si3 0.133927 0.096481 0.799570
Si Si4 0.528267 0.239304 0.568011
Si Si5 0.000000 0.974841 0.750000
Si Si6 0.795784 0.297559 0.211860
O O1 0.738238 0.863017 0.841183
O O2 0.966968 0.814657 0.908919
O O3 0.953882 0.933017 0.865079
O O4 0.834857 0.887979 0.059502
O O5 0.085590 0.724371 0.435938
O O6 0.182463 0.744406 0.220294
O O7 0.000000 0.657961 0.250000
O O8 0.241345 0.130149 0.711521
O O9 0.000000 0.127317 0.750000
O O10 0.123998 0.019736 0.785327
O O11 0.617285 0.205555 0.667361
O O12 0.379934 0.214997 0.587747
#
# Coordination Sequence:
#
# PCOD8132123 Si02
#       6
#     8   8   8   8   4   8
#     4  11  19  42  57  83 124 145 194 244 287 342
#     4  11  21  35  57  89 122 151 183 239 297 348
#     4  10  21  36  60  84 111 152 193 243 282 334
#     4  10  20  33  63  87 114 158 176 241 307 339
#     4  10  24  36  64  86 104 160 204 234 288 330
#     4  10  18  36  55  86 119 147 191 231 295 348
#
# _framework density 18.755669000000001
#
# number of rings (size 3 to 8) (size 9 to 14) (size 15 to 20)
#    0.545    1.091    3.636    4.364    0.000    0.727 
#    3.273    0.000    4.000    2.182    0.000    0.000 
#    0.000    0.000    0.000    0.000    0.000    0.000 
#
# Total GULP energy -272636.500769 kJ/mol
# GULP energy per Si atom -12392.568217 kJ/mol
# Density = 1.871298 g / cm^3
# Si number density = 18.755669 Si / 1000 Ang^3
#
#
#
# Elastic Constant Matrix: (Units=GPa)
#
#
# Indices 1 2 3 4 5 6 
#
# 1 68.2674 42.7875 12.4292 0.0000 -12.5658 0.0000
# 2 42.7875 114.4239 14.2105 0.0000 -10.8885 0.0000
# 3 12.4292 14.2105 22.5470 0.0000 -9.8710 0.0000
# 4 0.0000 0.0000 0.0000 18.0412 0.0000 -3.1279
# 5 -12.5658 -10.8885 -9.8710 0.0000 34.7775 0.0000
# 6 0.0000 0.0000 0.0000 -3.1279 0.0000 31.7449
#
#
#
# Elastic Compliance Matrix: (Units=1/GPa)
#
#
# Indices 1 2 3 4 5 6 
#
# 1 0.020491 -0.006624 -0.005467 0.000000 0.003778 0.000000
# 2 -0.006624 0.011687 -0.003609 0.000000 0.000242 0.000000
# 3 -0.005467 -0.003609 0.055131 0.000000 0.012543 0.000000
# 4 0.000000 0.000000 0.000000 0.056392 0.000000 0.005556
# 5 0.003778 0.000242 0.012543 0.000000 0.033755 0.000000
# 6 0.000000 0.000000 0.000000 0.005556 0.000000 0.032049
#
#
# Mechanical properties :
#
#
# Convention : Reuss Voigt Hill
#
# Bulk Modulus (GPa) = 17.88580 38.23251 28.05916
# Shear Modulus (GPa) = 19.26477 25.96679 22.61578
#
# Velocity S-wave (km/s) = 3.20839 3.72489 3.47625
# Velocity P-wave (km/s) = 4.82513 6.23927 5.57720
#
# Compressibility (1/GPa) = 0.05591026
#
# Stress axis : x y z
#
# Youngs Moduli (GPa) = 48.80304 85.56150 18.13848
#
# Poissons Ratio (x) = 0.56674 0.09916
# Poissons Ratio (y) = 0.32326 0.06546
# Poissons Ratio (z) = 0.26680 0.30879
#
# Static dielectric constant tensor:
#      x y z
#    x 3.698050 0.000000 -0.133450 
#    y 0.000000 3.280440 0.000000 
#    z -0.133450 0.000000 3.437180 
# 
# 
# High freq. dielectric constant tensor:
#      x y z
#    x 1.724280 0.000000 -0.004350 
#    y 0.000000 1.703110 0.000000 
#    z -0.004350 0.000000 1.729640 
# 
# From -- ./inp_files/78224.got.cif
#   From: 2010.06.25/outbox.cif.g09.slc.cpg/sg15_40_cif.got.tgz:78224.got - 2010.06.28 07:06:18.
