data_PCOD8132076
_publ_section_title
;
Structure prediction by ZEFSAII (Michael W. Deem and Ramdas Pophale) SiO2 
 PCOD8132076
Probable space group: C 2/C
;
_chemical_formula_sum "Si O2"
_cell_formula_units_Z 44
_cell_length_a 9.767077
_cell_length_b 17.476861
_cell_length_c 18.193227
_cell_angle_alpha 90.000000
_cell_angle_beta 41.328960
_cell_angle_gamma 90.000000
_cell_volume 2050.843659
_symmetry_space_group_name_H-M "C 2/C"
_symmetry_group_IT_number 15
_symmetry_cell_setting 'monoclinic'
loop_
_space_group_symop_operation_xyz
x,y,z
-x,y,1/2-z
-x,-y,-z
x,-y,1/2+z
1/2+x,1/2+y,z
1/2-x,1/2+y,1/2-z
1/2-x,1/2-y,-z
1/2+x,1/2-y,1/2+z
loop_
_atom_site_type_symbol
_atom_site_label
_atom_site_fract_x
_atom_site_fract_y
_atom_site_fract_z
Si Si1 0.000000 0.362146 0.750000
Si Si2 0.018500 0.838011 0.637574
Si Si3 0.485864 0.201607 0.956797
Si Si4 0.888166 0.284073 0.648493
Si Si5 0.373416 0.474575 0.620615
Si Si6 0.328591 0.871664 0.254935
O O1 0.999401 0.308488 0.678609
O O2 0.803713 0.417172 0.833238
O O3 0.237340 0.801221 0.567738
O O4 0.935419 0.784201 0.603153
O O5 0.836949 0.827450 0.771821
O O6 0.030468 0.927187 0.610156
O O7 0.565479 0.136494 0.868606
O O8 0.548158 0.192484 0.017761
O O9 0.845690 0.192955 0.663375
O O10 0.500000 0.500000 0.500000
O O11 0.280837 0.546363 0.701455
O O12 0.500000 0.866036 0.250000
#
# Coordination Sequence:
#
# PCOD8132076 Si02
#       6
#     4   8   8   8   8   8
#     4  10  24  42  62  88 126 170 210 252 320 378
#     4   9  19  33  58  93 120 154 208 259 311 361
#     4  10  18  35  63  91 118 160 210 266 298 363
#     4  10  20  38  62  88 122 162 213 262 307 368
#     4  11  21  38  62  88 126 166 200 253 317 381
#     4  11  21  36  64  95 122 160 217 255 308 377
#
# _framework density 21.454585999999999
#
# number of rings (size 3 to 8) (size 9 to 14) (size 15 to 20)
#    0.000    1.818    0.909    6.000    0.000    0.000 
#    0.000   18.182   16.000    0.000    0.000    0.000 
#    0.000    0.000    0.000    0.000    0.000    0.000 
#
# Total GULP energy -272615.375296 kJ/mol
# GULP energy per Si atom -12391.607968 kJ/mol
# Density = 2.140575 g / cm^3
# Si number density = 21.454586 Si / 1000 Ang^3
#
#
#
# Elastic Constant Matrix: (Units=GPa)
#
#
# Indices 1 2 3 4 5 6 
#
# 1 35.7475 26.1555 18.4430 -0.0045 15.1875 -0.0089
# 2 26.1555 155.1823 44.9274 -0.0129 10.1568 0.0039
# 3 18.4430 44.9274 143.4632 -0.0163 40.5422 0.0083
# 4 -0.0045 -0.0129 -0.0163 20.9992 0.0148 -5.3551
# 5 15.1875 10.1568 40.5422 0.0148 33.3787 -0.0030
# 6 -0.0089 0.0039 0.0083 -5.3551 -0.0030 32.7954
#
#
#
# Elastic Compliance Matrix: (Units=1/GPa)
#
#
# Indices 1 2 3 4 5 6 
#
# 1 0.039149 -0.005987 0.002073 0.000023 -0.018508 0.000013
# 2 -0.005987 0.008017 -0.002773 -0.000002 0.003653 -0.000002
# 3 0.002073 -0.002773 0.011573 0.000018 -0.014156 0.000000
# 4 0.000023 -0.000002 0.000018 0.049690 -0.000053 0.008114
# 5 -0.018508 0.003653 -0.014156 -0.000053 0.054463 -0.000005
# 6 0.000013 -0.000002 0.000000 0.008114 -0.000005 0.031817
#
#
# Mechanical properties :
#
#
# Convention : Reuss Voigt Hill
#
# Bulk Modulus (GPa) = 22.04446 57.04942 39.54694
# Shear Modulus (GPa) = 22.40095 33.75912 28.08003
#
# Velocity S-wave (km/s) = 3.23477 3.97106 3.62168
# Velocity P-wave (km/s) = 4.92432 6.90466 5.99680
#
# Compressibility (1/GPa) = 0.04536288
#
# Stress axis : x y z
#
# Youngs Moduli (GPa) = 25.54368 124.73588 86.40913
#
# Poissons Ratio (x) = 0.74680 -0.17909
# Poissons Ratio (y) = 0.15293 0.23964
# Poissons Ratio (z) = -0.05294 0.34593
#
# Static dielectric constant tensor:
#      x y z
#    x 3.738980 -0.000010 0.111220 
#    y -0.000010 4.006010 -0.000010 
#    z 0.111220 -0.000010 4.170610 
# 
# 
# High freq. dielectric constant tensor:
#      x y z
#    x 1.817690 0.000000 0.008910 
#    y 0.000000 1.832090 0.000000 
#    z 0.008910 0.000000 1.862470 
# 
# From -- ./inp_files/190779.got.cif
#   From: 2010.06.25/outbox.cif.g09.slc.cpg/sg15_96_cif.got.tgz:190779.got - 2010.06.28 07:06:18.
