data_PCOD8132053
_publ_section_title
;
Structure prediction by ZEFSAII (Michael W. Deem and Ramdas Pophale) SiO2 
 PCOD8132053
Probable space group: C 2/C
;
_chemical_formula_sum "Si O2"
_cell_formula_units_Z 60
_cell_length_a 18.761767
_cell_length_b 6.413629
_cell_length_c 27.494042
_cell_angle_alpha 90.000000
_cell_angle_beta 110.995037
_cell_angle_gamma 90.000000
_cell_volume 3088.747029
_symmetry_space_group_name_H-M "C 2/C"
_symmetry_group_IT_number 15
_symmetry_cell_setting 'monoclinic'
loop_
_space_group_symop_operation_xyz
x,y,z
-x,y,1/2-z
-x,-y,-z
x,-y,1/2+z
1/2+x,1/2+y,z
1/2-x,1/2+y,1/2-z
1/2-x,1/2-y,-z
1/2+x,1/2-y,1/2+z
loop_
_atom_site_type_symbol
_atom_site_label
_atom_site_fract_x
_atom_site_fract_y
_atom_site_fract_z
Si Si1 0.000000 0.818383 0.750000
Si Si2 0.867893 0.858179 0.204480
Si Si3 0.532337 0.960924 0.831219
Si Si4 0.520821 0.902299 0.430598
Si Si5 0.291481 0.962072 0.366682
Si Si6 0.608412 0.421274 0.609457
Si Si7 0.098349 0.304334 0.545258
Si Si8 0.629206 0.766772 0.692409
O O1 0.008993 0.674783 0.799407
O O2 0.074024 0.963158 0.764799
O O3 0.905404 0.670391 0.183205
O O4 0.800179 0.962840 0.156747
O O5 0.831320 0.766095 0.245366
O O6 0.563697 0.013843 0.892935
O O7 0.457921 0.821642 0.818242
O O8 0.469057 0.707631 0.401933
O O9 0.585255 0.832820 0.484729
O O10 0.467708 0.082773 0.439775
O O11 0.319629 0.727360 0.381804
O O12 0.319571 0.100937 0.419283
O O13 0.326546 0.051135 0.324987
O O14 0.596916 0.560948 0.558325
O O15 0.628738 0.556000 0.661393
#
# Coordination Sequence:
#
# PCOD8132053 Si02
#       8
#     4   8   8   8   8   8   8   8
#     4  12  24  40  62  78 122 162 198 240 300 362
#     4  12  26  39  58  89 121 163 198 247 298 364
#     4  12  22  40  59  91 120 153 203 243 296 367
#     4  10  19  34  62  89 117 155 196 253 298 351
#     4  10  24  38  59  88 123 155 197 248 301 347
#     4  10  18  35  62  86 118 150 197 248 301 350
#     4   9  19  37  58  90 120 148 203 251 295 357
#     4  11  21  39  57  88 120 153 202 240 292 369
#
# _framework density 19.425352
#
# number of rings (size 3 to 8) (size 9 to 14) (size 15 to 20)
#    0.000    1.333    6.667    1.200    1.867    2.133 
#    0.000    0.667    0.000    1.600    0.000    0.000 
#    0.000    0.000    0.000    0.000    0.000    0.000 
#
# Total GULP energy -372000.930328 kJ/mol
# GULP energy per Si atom -12400.031011 kJ/mol
# Density = 1.938114 g / cm^3
# Si number density = 19.425352 Si / 1000 Ang^3
#
#
#
# Elastic Constant Matrix: (Units=GPa)
#
#
# Indices 1 2 3 4 5 6 
#
# 1 63.0246 26.5208 38.4807 0.0000 17.4591 0.0001
# 2 26.5208 94.5629 24.2031 0.0001 -1.3698 0.0003
# 3 38.4807 24.2031 122.3942 0.0000 -5.1159 0.0000
# 4 0.0000 0.0001 0.0000 16.1738 0.0000 -1.8217
# 5 17.4591 -1.3698 -5.1159 0.0000 30.4783 0.0000
# 6 0.0001 0.0003 0.0000 -1.8217 0.0000 16.1145
#
#
#
# Elastic Compliance Matrix: (Units=1/GPa)
#
#
# Indices 1 2 3 4 5 6 
#
# 1 0.028708 -0.006120 -0.008575 0.000000 -0.018159 0.000000
# 2 -0.006120 0.012444 -0.000369 0.000000 0.004003 0.000000
# 3 -0.008575 -0.000369 0.011223 0.000000 0.006779 0.000000
# 4 0.000000 0.000000 0.000000 0.062626 0.000000 0.007079
# 5 -0.018159 0.004003 0.006779 0.000000 0.044530 0.000000
# 6 0.000000 0.000000 0.000000 0.007079 0.000000 0.062856
#
#
# Mechanical properties :
#
#
# Convention : Reuss Voigt Hill
#
# Bulk Modulus (GPa) = 44.95024 50.93231 47.94128
# Shear Modulus (GPa) = 19.23599 25.27180 22.25389
#
# Velocity S-wave (km/s) = 3.15024 3.61081 3.38836
# Velocity P-wave (km/s) = 6.03508 6.60760 6.32782
#
# Compressibility (1/GPa) = 0.02224682
#
# Stress axis : x y z
#
# Youngs Moduli (GPa) = 34.83367 80.36115 89.10612
#
# Poissons Ratio (x) = 0.49179 0.76405
# Poissons Ratio (y) = 0.21317 0.03291
# Poissons Ratio (z) = 0.29869 0.02968
#
# Static dielectric constant tensor:
#      x y z
#    x 3.198130 0.000000 -0.031550 
#    y 0.000000 3.714770 0.000000 
#    z -0.031550 0.000000 3.988570 
# 
# 
# High freq. dielectric constant tensor:
#      x y z
#    x 1.715220 0.000000 0.002650 
#    y 0.000000 1.771510 0.000000 
#    z 0.002650 0.000000 1.765290 
# 
# From -- ./inp_files/299894.got.cif
#   From: 2010.06.25/outbox.cif.g09.slc.cpg/sg15_150_cif.got.tgz:299894.got - 2010.06.28 07:06:18.
