data_PCOD8132803
_publ_section_title
;
Structure prediction by ZEFSAII (Michael W. Deem and Ramdas Pophale) SiO2 
 PCOD8132803
Probable space group: C 2/C
;
_chemical_formula_sum "Si O2"
_cell_formula_units_Z 48
_cell_length_a 24.247939
_cell_length_b 12.359981
_cell_length_c 18.758227
_cell_angle_alpha 90.000000
_cell_angle_beta 156.827459
_cell_angle_gamma 90.000000
_cell_volume 2212.231992
_symmetry_space_group_name_H-M "C 2/C"
_symmetry_group_IT_number 15
_symmetry_cell_setting 'monoclinic'
loop_
_space_group_symop_operation_xyz
x,y,z
-x,y,1/2-z
-x,-y,-z
x,-y,1/2+z
1/2+x,1/2+y,z
1/2-x,1/2+y,1/2-z
1/2-x,1/2-y,-z
1/2+x,1/2-y,1/2+z
loop_
_atom_site_type_symbol
_atom_site_label
_atom_site_fract_x
_atom_site_fract_y
_atom_site_fract_z
Si Si1 0.842088 0.833796 0.068538
Si Si2 0.154000 0.282582 0.592252
Si Si3 0.976387 0.073962 0.039054
Si Si4 0.350934 0.150057 0.723118
Si Si5 0.130933 0.926717 0.856882
Si Si6 0.238812 0.558348 0.314069
O O1 0.000000 0.788175 0.250000
O O2 0.842449 0.945769 0.111232
O O3 0.750000 0.750000 0.000000
O O4 0.762544 0.846562 0.898678
O O5 0.109267 0.179891 0.588759
O O6 0.276000 0.242838 0.683582
O O7 0.204599 0.385329 0.698242
O O8 0.005834 0.316378 0.380348
O O9 0.110142 0.105924 0.248242
O O10 0.885512 0.004971 0.986794
O O11 0.000000 0.000000 0.000000
O O12 0.265243 0.135282 0.548107
O O13 0.369035 0.035866 0.788543
O O14 0.000000 0.892128 0.750000
#
# Coordination Sequence:
#
# PCOD8132803 Si02
#       6
#     8   8   8   8   8   8
#     4  10  20  36  65  90 121 169 212 259 324 379
#     4  11  22  37  62  93 124 167 210 251 320 373
#     4  11  22  38  63  94 125 164 219 258 311 384
#     4  10  22  40  63  91 123 169 208 257 312 377
#     4  10  18  43  63  83 126 174 204 256 318 379
#     4  10  21  39  61  90 132 162 209 267 319 371
#
# _framework density 21.697543
#
# number of rings (size 3 to 8) (size 9 to 14) (size 15 to 20)
#    0.000    1.667    6.667    1.500    2.333    2.000 
#    0.000    1.667    7.333    0.000    0.000    0.000 
#    0.000    0.000    0.000    0.000    0.000    0.000 
#
# Total GULP energy -297332.701722 kJ/mol
# GULP energy per Si atom -12388.862572 kJ/mol
# Density = 2.164816 g / cm^3
# Si number density = 21.697543 Si / 1000 Ang^3
#
#
#
# Elastic Constant Matrix: (Units=GPa)
#
#
# Indices 1 2 3 4 5 6 
#
# 1 52.6912 26.4941 28.9099 0.0004 -12.9173 0.0002
# 2 26.4941 82.5286 32.3347 0.0003 0.6016 0.0002
# 3 28.9099 32.3347 108.5404 0.0006 -4.0470 0.0004
# 4 0.0004 0.0003 0.0006 32.9937 0.0004 -1.6435
# 5 -12.9173 0.6016 -4.0470 0.0004 37.3946 0.0003
# 6 0.0002 0.0002 0.0004 -1.6435 0.0003 39.7338
#
#
#
# Elastic Compliance Matrix: (Units=1/GPa)
#
#
# Indices 1 2 3 4 5 6 
#
# 1 0.027361 -0.006936 -0.004885 0.000000 0.009034 0.000000
# 2 -0.006936 0.015493 -0.002878 0.000000 -0.002957 0.000000
# 3 -0.004885 -0.002878 0.011356 0.000000 -0.000412 0.000000
# 4 0.000000 0.000000 0.000000 0.030371 0.000000 0.001256
# 5 0.009034 -0.002957 -0.000412 0.000000 0.029866 0.000000
# 6 0.000000 0.000000 0.000000 0.001256 0.000000 0.025219
#
#
# Mechanical properties :
#
#
# Convention : Reuss Voigt Hill
#
# Bulk Modulus (GPa) = 40.30191 46.58197 43.44194
# Shear Modulus (GPa) = 28.19536 32.42583 30.31059
#
# Velocity S-wave (km/s) = 3.60873 3.87000 3.74165
# Velocity P-wave (km/s) = 5.99822 6.44085 6.22347
#
# Compressibility (1/GPa) = 0.02481272
#
# Stress axis : x y z
#
# Youngs Moduli (GPa) = 36.54886 64.54591 88.05709
#
# Poissons Ratio (x) = 0.44767 0.43012
# Poissons Ratio (y) = 0.25349 0.25346
# Poissons Ratio (z) = 0.17852 0.18578
#
# Static dielectric constant tensor:
#      x y z
#    x 4.093620 0.000000 -0.005590 
#    y 0.000000 4.126710 0.000000 
#    z -0.005590 0.000000 4.060520 
# 
# 
# High freq. dielectric constant tensor:
#      x y z
#    x 1.829170 0.000000 -0.003580 
#    y 0.000000 1.868180 0.000000 
#    z -0.003580 0.000000 1.851850 
# 
# From -- ./inp_files/257630.got.cif
#   From: 2010.06.25/outbox.cif.g09.slc.cpg/sg15_129_cif.got.tgz:257630.got - 2010.06.28 07:06:18.
