data_PCOD8132146
_publ_section_title
;
Structure prediction by ZEFSAII (Michael W. Deem and Ramdas Pophale) SiO2 
 PCOD8132146
Probable space group: C 2/C
;
_chemical_formula_sum "Si O2"
_cell_formula_units_Z 64
_cell_length_a 17.104291
_cell_length_b 9.543786
_cell_length_c 25.730906
_cell_angle_alpha 90.000000
_cell_angle_beta 130.289601
_cell_angle_gamma 90.000000
_cell_volume 3203.932770
_symmetry_space_group_name_H-M "C 2/C"
_symmetry_group_IT_number 15
_symmetry_cell_setting 'monoclinic'
loop_
_space_group_symop_operation_xyz
x,y,z
-x,y,1/2-z
-x,-y,-z
x,-y,1/2+z
1/2+x,1/2+y,z
1/2-x,1/2+y,1/2-z
1/2-x,1/2-y,-z
1/2+x,1/2-y,1/2+z
loop_
_atom_site_type_symbol
_atom_site_label
_atom_site_fract_x
_atom_site_fract_y
_atom_site_fract_z
Si Si1 0.341636 0.429465 0.687953
Si Si2 0.890146 0.113502 0.566375
Si Si3 0.045997 0.651694 0.473966
Si Si4 0.236595 0.808977 0.391127
Si Si5 0.241767 0.493169 0.919379
Si Si6 0.335087 0.233771 0.430396
Si Si7 0.504818 0.369229 0.837320
Si Si8 0.910153 0.619757 0.563376
O O1 0.327162 0.599342 0.678626
O O2 0.227671 0.371539 0.632892
O O3 0.391477 0.382579 0.763816
O O4 0.409690 0.365055 0.670820
O O5 0.938349 0.262193 0.572362
O O6 0.800131 0.137963 0.568492
O O7 0.840999 0.047004 0.494560
O O8 0.979537 0.010025 0.623111
O O9 0.141700 0.660248 0.555286
O O10 0.028198 0.491314 0.446987
O O11 0.952025 0.722542 0.463404
O O12 0.209802 0.644160 0.371658
O O13 0.281644 0.615437 0.898446
O O14 0.148476 0.541989 0.915439
O O15 0.329412 0.197557 0.489963
O O16 0.512382 0.231809 0.877011
#
# Coordination Sequence:
#
# PCOD8132146 Si02
#       8
#     8   8   8   8   8   8   8   8
#     4  10  21  38  59  86 118 152 198 251 303 353
#     4  10  18  36  57  85 115 153 199 247 295 359
#     4  11  22  35  58  89 124 151 195 252 302 354
#     4  10  19  35  59  85 116 154 194 247 301 355
#     4  11  19  34  60  87 115 150 200 250 290 350
#     4  12  23  35  57  93 125 150 195 261 301 344
#     4  10  21  37  62  83 113 161 202 242 300 362
#     4  12  19  37  60  90 114 158 201 242 297 357
#
# _framework density 19.975449999999999
#
# number of rings (size 3 to 8) (size 9 to 14) (size 15 to 20)
#    0.000    1.250    6.250    2.250    0.000    2.000 
#    0.000    2.500    2.750    0.000    0.000    0.000 
#    0.000    0.000    0.000    0.000    0.000    0.000 
#
# Total GULP energy -396658.874179 kJ/mol
# GULP energy per Si atom -12395.589818 kJ/mol
# Density = 1.992999 g / cm^3
# Si number density = 19.975450 Si / 1000 Ang^3
#
#
#
# Elastic Constant Matrix: (Units=GPa)
#
#
# Indices 1 2 3 4 5 6 
#
# 1 41.1517 12.9010 8.5538 0.0000 18.4229 0.0000
# 2 12.9010 132.5006 40.4463 0.0000 -1.9899 0.0000
# 3 8.5538 40.4463 101.1094 0.0000 2.1995 0.0000
# 4 0.0000 0.0000 0.0000 31.2388 0.0000 0.6734
# 5 18.4229 -1.9899 2.1995 0.0000 18.7664 0.0000
# 6 0.0000 0.0000 0.0000 0.6734 0.0000 25.2401
#
#
#
# Elastic Compliance Matrix: (Units=1/GPa)
#
#
# Indices 1 2 3 4 5 6 
#
# 1 0.046816 -0.004959 -0.000968 0.000000 -0.046371 0.000000
# 2 -0.004959 0.009155 -0.003378 0.000000 0.006235 0.000000
# 3 -0.000968 -0.003378 0.011340 0.000000 -0.000737 0.000000
# 4 0.000000 0.000000 0.000000 0.032030 0.000000 -0.000855
# 5 -0.046371 0.006235 -0.000737 0.000000 0.099556 0.000000
# 6 0.000000 0.000000 0.000000 -0.000855 0.000000 0.039642
#
#
# Mechanical properties :
#
#
# Convention : Reuss Voigt Hill
#
# Bulk Modulus (GPa) = 20.53420 44.28489 32.40955
# Shear Modulus (GPa) = 18.28938 29.23978 23.76458
#
# Velocity S-wave (km/s) = 3.02916 3.83010 3.45293
# Velocity P-wave (km/s) = 4.74726 6.46354 5.67070
#
# Compressibility (1/GPa) = 0.04869924
#
# Stress axis : x y z
#
# Youngs Moduli (GPa) = 21.36034 109.23179 88.18659
#
# Poissons Ratio (x) = 0.54169 0.08537
# Poissons Ratio (y) = 0.10593 0.29792
# Poissons Ratio (z) = 0.02068 0.36901
#
# Static dielectric constant tensor:
#      x y z
#    x 3.308520 0.000000 -0.018290 
#    y 0.000000 4.136430 0.000000 
#    z -0.018290 0.000000 3.435520 
# 
# 
# High freq. dielectric constant tensor:
#      x y z
#    x 1.748730 0.000000 0.010580 
#    y 0.000000 1.801130 0.000000 
#    z 0.010580 0.000000 1.744360 
# 
# From -- ./inp_files/315747.got.cif
#   From: 2010.06.25/outbox.cif.g09.slc.cpg/sg15_158_cif.got.tgz:315747.got - 2010.06.28 07:06:18.
