data_PCOD8132050
_publ_section_title
;
Structure prediction by ZEFSAII (Michael W. Deem and Ramdas Pophale) SiO2 
 PCOD8132050
Probable space group: C 2/C
;
_chemical_formula_sum "Si O2"
_cell_formula_units_Z 56
_cell_length_a 12.012352
_cell_length_b 13.546283
_cell_length_c 17.360765
_cell_angle_alpha 90.000000
_cell_angle_beta 108.956283
_cell_angle_gamma 90.000000
_cell_volume 2671.782348
_symmetry_space_group_name_H-M "C 2/C"
_symmetry_group_IT_number 15
_symmetry_cell_setting 'monoclinic'
loop_
_space_group_symop_operation_xyz
x,y,z
-x,y,1/2-z
-x,-y,-z
x,-y,1/2+z
1/2+x,1/2+y,z
1/2-x,1/2+y,1/2-z
1/2-x,1/2-y,-z
1/2+x,1/2-y,1/2+z
loop_
_atom_site_type_symbol
_atom_site_label
_atom_site_fract_x
_atom_site_fract_y
_atom_site_fract_z
Si Si1 0.063971 0.956078 0.905711
Si Si2 0.779488 0.459153 0.369904
Si Si3 0.376953 0.039686 0.251240
Si Si4 0.849728 0.164949 0.317442
Si Si5 0.860072 0.282311 0.475245
Si Si6 0.554883 0.649881 0.559695
Si Si7 0.229340 0.654316 0.779948
O O1 0.957961 0.910924 0.829898
O O2 0.096813 0.883739 0.984022
O O3 0.179621 0.968262 0.879645
O O4 0.028688 0.064273 0.926474
O O5 0.872642 0.527716 0.343755
O O6 0.847343 0.398799 0.452457
O O7 0.723151 0.382051 0.294162
O O8 0.500000 0.084661 0.250000
O O9 0.357654 0.931264 0.207406
O O10 0.272902 0.109050 0.199804
O O11 0.870352 0.219646 0.400955
O O12 0.841853 0.242847 0.245175
O O13 0.750000 0.250000 0.500000
O O14 0.981435 0.253100 0.545590
O O15 0.665563 0.671202 0.637790
#
# Coordination Sequence:
#
# PCOD8132050 Si02
#       7
#     8   8   8   8   8   8   8
#     4  10  18  35  61  96 121 158 206 259 312 366
#     4   9  20  38  61  93 122 161 210 257 306 364
#     4  10  22  41  59  85 124 166 205 255 312 363
#     4  10  21  38  60  94 120 166 213 252 314 365
#     4  10  19  34  59  96 127 158 198 260 314 371
#     4  10  19  32  61  93 129 159 197 259 318 365
#     4   9  21  39  58  94 121 161 215 253 307 366
#
# _framework density 20.959790999999999
#
# number of rings (size 3 to 8) (size 9 to 14) (size 15 to 20)
#    0.857    1.429    2.857    0.000    0.000    3.429 
#    2.571    0.000    0.000    9.429    0.000    0.000 
#    0.000    0.000    0.000    0.000    0.000    0.000 
#
# Total GULP energy -346939.836726 kJ/mol
# GULP energy per Si atom -12390.708455 kJ/mol
# Density = 2.091209 g / cm^3
# Si number density = 20.959791 Si / 1000 Ang^3
#
#
#
# Elastic Constant Matrix: (Units=GPa)
#
#
# Indices 1 2 3 4 5 6 
#
# 1 79.8297 23.1917 10.7038 0.0000 -10.9218 0.0000
# 2 23.1917 60.9994 6.4063 0.0000 11.1019 0.0000
# 3 10.7038 6.4063 61.4983 0.0000 11.3203 0.0000
# 4 0.0000 0.0000 0.0000 20.0955 0.0000 11.9620
# 5 -10.9218 11.1019 11.3203 0.0000 26.3233 0.0000
# 6 0.0000 0.0000 0.0000 11.9620 0.0000 27.2840
#
#
#
# Elastic Compliance Matrix: (Units=1/GPa)
#
#
# Indices 1 2 3 4 5 6 
#
# 1 0.017297 -0.008409 -0.004462 0.000000 0.012642 0.000000
# 2 -0.008409 0.021859 0.001657 0.000000 -0.013420 0.000000
# 3 -0.004462 0.001657 0.018824 0.000000 -0.010645 0.000000
# 4 0.000000 0.000000 0.000000 0.067335 0.000000 -0.029521
# 5 0.012642 -0.013420 -0.010645 0.000000 0.053473 0.000000
# 6 0.000000 0.000000 0.000000 -0.029521 0.000000 0.049594
#
#
# Mechanical properties :
#
#
# Convention : Reuss Voigt Hill
#
# Bulk Modulus (GPa) = 28.12670 31.43677 29.78174
# Shear Modulus (GPa) = 19.03596 25.54227 22.28911
#
# Velocity S-wave (km/s) = 3.01693 3.49468 3.26455
# Velocity P-wave (km/s) = 5.05809 5.59597 5.33381
#
# Compressibility (1/GPa) = 0.03555341
#
# Stress axis : x y z
#
# Youngs Moduli (GPa) = 57.81235 45.74762 53.12338
#
# Poissons Ratio (x) = 0.38467 0.23702
# Poissons Ratio (y) = 0.48612 -0.08802
# Poissons Ratio (z) = 0.25794 -0.07580
#
# Static dielectric constant tensor:
#      x y z
#    x 3.452470 0.000000 0.033820 
#    y 0.000000 3.918870 0.000000 
#    z 0.033820 0.000000 3.777120 
# 
# 
# High freq. dielectric constant tensor:
#      x y z
#    x 1.797170 0.000000 0.001120 
#    y 0.000000 1.817920 0.000000 
#    z 0.001120 0.000000 1.813770 
# 
# From -- ./inp_files/197966.got.cif
#   From: 2010.06.25/outbox.cif.g09.slc.cpg/sg15_99_cif.got.tgz:197966.got - 2010.06.28 07:06:18.
