data_PCOD8132089
_publ_section_title
;
Structure prediction by ZEFSAII (Michael W. Deem and Ramdas Pophale) SiO2 
 PCOD8132089
Probable space group: C 2/C
;
_chemical_formula_sum "Si O2"
_cell_formula_units_Z 48
_cell_length_a 7.603815
_cell_length_b 16.942987
_cell_length_c 21.934551
_cell_angle_alpha 90.000000
_cell_angle_beta 51.791292
_cell_angle_gamma 90.000000
_cell_volume 2220.454028
_symmetry_space_group_name_H-M "C 2/C"
_symmetry_group_IT_number 15
_symmetry_cell_setting 'monoclinic'
loop_
_space_group_symop_operation_xyz
x,y,z
-x,y,1/2-z
-x,-y,-z
x,-y,1/2+z
1/2+x,1/2+y,z
1/2-x,1/2+y,1/2-z
1/2-x,1/2-y,-z
1/2+x,1/2-y,1/2+z
loop_
_atom_site_type_symbol
_atom_site_label
_atom_site_fract_x
_atom_site_fract_y
_atom_site_fract_z
Si Si1 0.813752 0.398146 0.339793
Si Si2 0.376494 0.901266 0.565671
Si Si3 0.736376 0.772049 0.814877
Si Si4 0.500000 0.529147 0.750000
Si Si5 0.424447 0.072580 0.598862
Si Si6 0.387635 0.450934 0.656095
Si Si7 0.000000 0.664701 0.250000
O O1 0.697818 0.316480 0.346418
O O2 0.633880 0.468750 0.378495
O O3 0.000000 0.421584 0.250000
O O4 0.914154 0.389640 0.385559
O O5 0.377066 0.828617 0.611359
O O6 0.536975 0.882735 0.473567
O O7 0.130160 0.915233 0.590184
O O8 0.465190 0.978634 0.582091
O O9 0.607612 0.780301 0.778691
O O10 0.000000 0.791141 0.750000
O O11 0.668607 0.584872 0.675950
O O12 0.364345 0.471625 0.733325
O O13 0.194990 0.389474 0.679299
#
# Coordination Sequence:
#
# PCOD8132089 Si02
#       7
#     8   8   8   4   8   8   4
#     4  11  22  38  59  96 126 175 217 267 325 395
#     4  10  22  40  64  99 127 172 219 275 323 386
#     4  11  24  41  62  97 134 173 221 271 334 382
#     4  10  18  35  64  97 120 166 212 272 326 381
#     4  10  21  39  67  93 130 171 218 271 327 389
#     4  11  19  35  64  91 123 166 222 267 321 385
#     4  12  20  39  68  93 128 176 220 278 318 389
#
# _framework density 21.617201000000001
#
# number of rings (size 3 to 8) (size 9 to 14) (size 15 to 20)
#    0.000    1.333    4.167    3.000    1.167    2.000 
#    3.000    1.667    0.000   10.000    0.000    0.000 
#    0.000    0.000    0.000    0.000    0.000    0.000 
#
# Total GULP energy -297622.900556 kJ/mol
# GULP energy per Si atom -12400.954190 kJ/mol
# Density = 2.156800 g / cm^3
# Si number density = 21.617201 Si / 1000 Ang^3
#
#
#
# Elastic Constant Matrix: (Units=GPa)
#
#
# Indices 1 2 3 4 5 6 
#
# 1 127.2380 51.2495 41.1489 0.0001 18.8478 -0.0004
# 2 51.2495 102.2596 28.0514 -0.0001 11.7990 0.0001
# 3 41.1489 28.0514 131.3257 -0.0001 7.2204 -0.0002
# 4 0.0001 -0.0001 -0.0001 14.5569 -0.0002 6.7766
# 5 18.8478 11.7990 7.2204 -0.0002 31.9880 0.0005
# 6 -0.0004 0.0001 -0.0002 6.7766 0.0005 33.2882
#
#
#
# Elastic Compliance Matrix: (Units=1/GPa)
#
#
# Indices 1 2 3 4 5 6 
#
# 1 0.011008 -0.004391 -0.002272 0.000000 -0.004353 0.000000
# 2 -0.004391 0.012512 -0.001200 0.000000 -0.001757 0.000000
# 3 -0.002272 -0.001200 0.008591 0.000000 -0.000158 0.000000
# 4 0.000000 0.000000 0.000000 0.075888 0.000001 -0.015449
# 5 -0.004353 -0.001757 -0.000158 0.000001 0.034511 -0.000001
# 6 0.000000 0.000000 0.000000 -0.015449 -0.000001 0.033186
#
#
# Mechanical properties :
#
#
# Convention : Reuss Voigt Hill
#
# Bulk Modulus (GPa) = 61.03210 66.85811 63.94510
# Shear Modulus (GPa) = 25.39592 31.99151 28.69372
#
# Velocity S-wave (km/s) = 3.43126 3.85113 3.64724
# Velocity P-wave (km/s) = 6.63268 7.12533 6.88341
#
# Compressibility (1/GPa) = 0.01638482
#
# Stress axis : x y z
#
# Youngs Moduli (GPa) = 90.84695 79.92554 116.39430
#
# Poissons Ratio (x) = 0.35097 0.26442
# Poissons Ratio (y) = 0.39893 0.13967
# Poissons Ratio (z) = 0.20638 0.09591
#
# Static dielectric constant tensor:
#      x y z
#    x 3.970910 0.000000 0.040410 
#    y 0.000000 3.700820 0.000000 
#    z 0.040410 0.000000 3.868170 
# 
# 
# High freq. dielectric constant tensor:
#      x y z
#    x 1.853480 0.000000 0.008710 
#    y 0.000000 1.831720 0.000000 
#    z 0.008710 0.000000 1.833120 
# 
# From -- ./inp_files/232558.got.cif
#   From: 2010.06.25/outbox.cif.g09.slc.cpg/sg15_117_cif.got.tgz:232558.got - 2010.06.28 07:06:18.
