data_PCOD8132650
_publ_section_title
;
Structure prediction by ZEFSAII (Michael W. Deem and Ramdas Pophale) SiO2 
 PCOD8132650
Probable space group: C 2/C
;
_chemical_formula_sum "Si O2"
_cell_formula_units_Z 60
_cell_length_a 22.915765
_cell_length_b 8.697822
_cell_length_c 17.605861
_cell_angle_alpha 90.000000
_cell_angle_beta 59.850398
_cell_angle_gamma 90.000000
_cell_volume 3034.422891
_symmetry_space_group_name_H-M "C 2/C"
_symmetry_group_IT_number 15
_symmetry_cell_setting 'monoclinic'
loop_
_space_group_symop_operation_xyz
x,y,z
-x,y,1/2-z
-x,-y,-z
x,-y,1/2+z
1/2+x,1/2+y,z
1/2-x,1/2+y,1/2-z
1/2-x,1/2-y,-z
1/2+x,1/2-y,1/2+z
loop_
_atom_site_type_symbol
_atom_site_label
_atom_site_fract_x
_atom_site_fract_y
_atom_site_fract_z
Si Si1 0.889266 0.353900 0.326491
Si Si2 0.974338 0.905698 0.847270
Si Si3 0.244963 0.570150 0.520284
Si Si4 0.807304 0.877383 0.346788
Si Si5 0.500000 0.083370 0.250000
Si Si6 0.408385 0.712714 0.901181
Si Si7 0.688739 0.660372 0.412186
Si Si8 0.621894 0.624302 0.295050
O O1 0.833263 0.454929 0.406557
O O2 0.856318 0.257617 0.278708
O O3 0.927184 0.242879 0.362822
O O4 0.941317 0.473905 0.255951
O O5 0.040303 0.872134 0.854690
O O6 0.000000 0.970972 0.750000
O O7 0.931171 0.041514 0.912596
O O8 0.250000 0.750000 0.500000
O O9 0.264469 0.486049 0.430388
O O10 0.291565 0.500430 0.558006
O O11 0.865796 0.787984 0.352063
O O12 0.756248 0.752562 0.346258
O O13 0.844800 0.966945 0.255433
O O14 0.527001 0.180108 0.159334
O O15 0.359420 0.765007 0.001785
O O16 0.648771 0.640515 0.361353
#
# Coordination Sequence:
#
# PCOD8132650 Si02
#       8
#     8   8   8   8   4   8   8   8
#     4  11  20  37  61  91 113 155 210 258 294 361
#     4  10  18  39  63  82 114 158 201 246 290 357
#     4  11  21  39  67  90 117 161 211 253 295 365
#     4  11  21  41  62  86 124 162 204 253 301 372
#     4  12  20  32  68  88 110 152 216 258 298 348
#     4  11  20  40  61  91 116 157 209 252 298 369
#     4  11  26  38  59  94 133 158 196 259 314 361
#     4  11  22  39  61  87 127 160 201 249 312 365
#
# _framework density 19.773118
#
# number of rings (size 3 to 8) (size 9 to 14) (size 15 to 20)
#    0.000    1.067    6.667    4.000    1.867    0.533 
#    0.000    0.667    2.933    0.000    0.000    0.000 
#    0.000    0.000    0.000    0.000    0.000    0.000 
#
# Total GULP energy -371783.760725 kJ/mol
# GULP energy per Si atom -12392.792024 kJ/mol
# Density = 1.972811 g / cm^3
# Si number density = 19.773118 Si / 1000 Ang^3
#
#
#
# Elastic Constant Matrix: (Units=GPa)
#
#
# Indices 1 2 3 4 5 6 
#
# 1 122.5010 40.7633 35.0271 0.0000 7.0824 0.0000
# 2 40.7633 84.6384 26.2530 0.0000 4.4334 -0.0001
# 3 35.0271 26.2530 44.3078 0.0001 -6.7707 0.0001
# 4 0.0000 0.0000 0.0001 25.2167 0.0000 -18.4391
# 5 7.0824 4.4334 -6.7707 0.0000 38.7904 0.0000
# 6 0.0000 -0.0001 0.0001 -18.4391 0.0000 25.2639
#
#
#
# Elastic Compliance Matrix: (Units=1/GPa)
#
#
# Indices 1 2 3 4 5 6 
#
# 1 0.011588 -0.002971 -0.007882 0.000000 -0.003152 0.000000
# 2 -0.002971 0.015644 -0.007306 0.000000 -0.002521 0.000000
# 3 -0.007882 -0.007306 0.034394 -0.000001 0.008277 -0.000001
# 4 0.000000 0.000000 -0.000001 0.085043 0.000000 0.062069
# 5 -0.003152 -0.002521 0.008277 0.000000 0.028088 0.000000
# 6 0.000000 0.000000 -0.000001 0.062069 0.000000 0.084884
#
#
# Mechanical properties :
#
#
# Convention : Reuss Voigt Hill
#
# Bulk Modulus (GPa) = 39.51258 50.61489 45.06373
# Shear Modulus (GPa) = 16.42609 27.81447 22.12028
#
# Velocity S-wave (km/s) = 2.88536 3.75464 3.34833
# Velocity P-wave (km/s) = 5.57914 6.66707 6.14722
#
# Compressibility (1/GPa) = 0.02530840
#
# Stress axis : x y z
#
# Youngs Moduli (GPa) = 86.29822 63.92236 29.07489
#
# Poissons Ratio (x) = 0.18991 0.22916
# Poissons Ratio (y) = 0.25639 0.21242
# Poissons Ratio (z) = 0.68019 0.46700
#
# Static dielectric constant tensor:
#      x y z
#    x 3.807940 0.000000 -0.647550 
#    y 0.000000 3.745760 0.000000 
#    z -0.647550 0.000000 4.047430 
# 
# 
# High freq. dielectric constant tensor:
#      x y z
#    x 1.767790 0.000000 -0.038690 
#    y 0.000000 1.774150 0.000000 
#    z -0.038690 0.000000 1.753230 
# 
# From -- ./inp_files/213859.got.cif
#   From: 2010.06.25/outbox.cif.g09.slc.cpg/sg15_107_cif.got.tgz:213859.got - 2010.06.28 07:06:18.
