data_PCOD8132222
_publ_section_title
;
Structure prediction by ZEFSAII (Michael W. Deem and Ramdas Pophale) SiO2 
 PCOD8132222
Probable space group: C 2/C
;
_chemical_formula_sum "Si O2"
_cell_formula_units_Z 64
_cell_length_a 29.470243
_cell_length_b 11.003446
_cell_length_c 16.838809
_cell_angle_alpha 90.000000
_cell_angle_beta 143.456676
_cell_angle_gamma 90.000000
_cell_volume 3251.283535
_symmetry_space_group_name_H-M "C 2/C"
_symmetry_group_IT_number 15
_symmetry_cell_setting 'monoclinic'
loop_
_space_group_symop_operation_xyz
x,y,z
-x,y,1/2-z
-x,-y,-z
x,-y,1/2+z
1/2+x,1/2+y,z
1/2-x,1/2+y,1/2-z
1/2-x,1/2-y,-z
1/2+x,1/2-y,1/2+z
loop_
_atom_site_type_symbol
_atom_site_label
_atom_site_fract_x
_atom_site_fract_y
_atom_site_fract_z
Si Si1 0.685510 0.687911 0.586382
Si Si2 0.860549 0.753842 0.806321
Si Si3 0.949944 0.564958 0.027619
Si Si4 0.376965 0.069546 0.206042
Si Si5 0.832824 0.698830 0.601286
Si Si6 0.666328 0.874357 0.685213
Si Si7 0.583646 0.230536 0.379797
Si Si8 0.166807 0.925572 0.599471
O O1 0.777602 0.689153 0.703383
O O2 0.643533 0.759222 0.454312
O O3 0.665087 0.741685 0.644066
O O4 0.644084 0.557067 0.534434
O O5 0.926284 0.667298 0.931596
O O6 0.879821 0.763964 0.739316
O O7 0.865637 0.883930 0.859363
O O8 0.906806 0.440941 0.952005
O O9 0.929293 0.610626 0.086108
O O10 0.038924 0.535148 0.145196
O O11 0.330719 0.124558 0.215220
O O12 0.378219 0.181254 0.146675
O O13 0.337163 0.948042 0.115026
O O14 0.750000 0.750000 0.500000
O O15 0.742979 0.937030 0.762146
O O16 0.500000 0.292318 0.250000
O O17 0.641695 0.325725 0.499695
#
# Coordination Sequence:
#
# PCOD8132222 Si02
#       8
#     8   8   8   8   8   8   8   8
#     4  10  20  35  54  82 114 147 186 233 279 339
#     4   9  18  34  59  79 105 151 186 230 285 333
#     4  10  18  36  60  82 112 141 189 240 280 327
#     4  11  21  35  59  86 114 143 188 240 279 328
#     4  10  19  35  53  82 114 146 183 229 286 336
#     4  11  20  33  55  87 114 138 187 236 282 331
#     4   9  21  38  59  81 108 152 188 225 283 333
#     4  10  20  38  56  78 116 150 184 228 282 339
#
# _framework density 19.684535
#
# number of rings (size 3 to 8) (size 9 to 14) (size 15 to 20)
#    0.000    2.000    2.500    1.875    0.000    0.500 
#    2.250    1.250    0.000    2.250    0.000    0.000 
#    0.000    0.000    0.000    0.000    0.000    0.000 
#
# Total GULP energy -396485.900267 kJ/mol
# GULP energy per Si atom -12390.184383 kJ/mol
# Density = 1.963973 g / cm^3
# Si number density = 19.684535 Si / 1000 Ang^3
#
#
#
# Elastic Constant Matrix: (Units=GPa)
#
#
# Indices 1 2 3 4 5 6 
#
# 1 76.9268 45.2820 11.2419 0.0000 -22.8245 0.0000
# 2 45.2820 103.7081 21.4594 0.0000 -11.8925 0.0000
# 3 11.2419 21.4594 63.6289 0.0000 -12.4572 0.0000
# 4 0.0000 0.0000 0.0000 26.1257 0.0000 -5.5716
# 5 -22.8245 -11.8925 -12.4572 0.0000 31.7223 0.0000
# 6 0.0000 0.0000 0.0000 -5.5716 0.0000 21.4375
#
#
#
# Elastic Compliance Matrix: (Units=1/GPa)
#
#
# Indices 1 2 3 4 5 6 
#
# 1 0.021442 -0.008189 0.001509 0.000000 0.012950 0.000000
# 2 -0.008189 0.013715 -0.003603 0.000000 -0.002165 0.000000
# 3 0.001509 -0.003603 0.017996 0.000000 0.006802 0.000000
# 4 0.000000 0.000000 0.000000 0.040522 0.000000 0.010532
# 5 0.012950 -0.002165 0.006802 0.000000 0.042700 0.000000
# 6 0.000000 0.000000 0.000000 0.010532 0.000000 0.049384
#
#
# Mechanical properties :
#
#
# Convention : Reuss Voigt Hill
#
# Bulk Modulus (GPa) = 30.68689 44.47005 37.57847
# Shear Modulus (GPa) = 23.02143 26.94248 24.98196
#
# Velocity S-wave (km/s) = 3.42353 3.70363 3.56633
# Velocity P-wave (km/s) = 5.59023 6.39762 6.00750
#
# Compressibility (1/GPa) = 0.03258720
#
# Stress axis : x y z
#
# Youngs Moduli (GPa) = 46.63822 72.91133 55.56714
#
# Poissons Ratio (x) = 0.59709 -0.08385
# Poissons Ratio (y) = 0.38193 0.20019
# Poissons Ratio (z) = -0.07037 0.26267
#
# Static dielectric constant tensor:
#      x y z
#    x 3.833350 0.000000 -0.477860 
#    y 0.000000 3.467100 0.000000 
#    z -0.477860 0.000000 3.919500 
# 
# 
# High freq. dielectric constant tensor:
#      x y z
#    x 1.761800 0.000000 -0.024860 
#    y 0.000000 1.747180 0.000000 
#    z -0.024860 0.000000 1.767320 
# 
# From -- ./inp_files/225189.got.cif
#   From: 2010.06.25/outbox.cif.g09.slc.cpg/sg15_113_cif.got.tgz:225189.got - 2010.06.28 07:06:18.
