data_PCOD8132829
_publ_section_title
;
Structure prediction by ZEFSAII (Michael W. Deem and Ramdas Pophale) SiO2 
 PCOD8132829
Probable space group: C 2/C
;
_chemical_formula_sum "Si O2"
_cell_formula_units_Z 64
_cell_length_a 17.197788
_cell_length_b 22.152884
_cell_length_c 13.492044
_cell_angle_alpha 90.000000
_cell_angle_beta 50.406822
_cell_angle_gamma 90.000000
_cell_volume 3960.987697
_symmetry_space_group_name_H-M "C 2/C"
_symmetry_group_IT_number 15
_symmetry_cell_setting 'monoclinic'
loop_
_space_group_symop_operation_xyz
x,y,z
-x,y,1/2-z
-x,-y,-z
x,-y,1/2+z
1/2+x,1/2+y,z
1/2-x,1/2+y,1/2-z
1/2-x,1/2-y,-z
1/2+x,1/2-y,1/2+z
loop_
_atom_site_type_symbol
_atom_site_label
_atom_site_fract_x
_atom_site_fract_y
_atom_site_fract_z
Si Si1 0.806266 0.532751 0.052197
Si Si2 0.240066 0.177994 0.834000
Si Si3 0.545161 0.907364 0.923677
Si Si4 0.431196 0.749878 0.216792
Si Si5 0.324064 0.072006 0.666003
Si Si6 0.397989 0.000122 0.283208
Si Si7 0.391537 0.217248 0.052196
Si Si8 0.281162 0.657363 0.423677
O O1 0.912376 0.555846 0.015256
O O2 0.762895 0.482103 0.162233
O O3 0.728690 0.588205 0.104429
O O4 0.819148 0.497397 0.938006
O O5 0.355221 0.196476 0.755892
O O6 0.242898 0.125000 0.750001
O O7 0.175127 0.232104 0.837769
O O8 0.194611 0.159975 0.978819
O O9 0.588831 0.936690 0.786753
O O10 0.583121 0.838206 0.895570
O O11 0.423429 0.909975 0.021185
O O12 0.500000 0.772063 0.250000
O O13 0.374415 0.686689 0.286751
O O14 0.507152 0.747399 0.061994
O O15 0.361110 0.053524 0.744113
O O16 0.500000 0.977935 0.250000
O O17 0.322368 0.194153 0.015255
#
# Coordination Sequence:
#
# PCOD8132829 Si02
#       8
#     8   8   8   8   8   8   8   8
#     4  10  19  30  42  66 101 118 153 194 221 284
#     4  11  19  27  44  69  93 126 151 182 238 274
#     4  10  19  28  43  69  95 128 150 182 238 277
#     4  11  17  27  45  66  93 126 151 179 230 284
#     4  11  19  27  44  69  93 126 151 182 238 274
#     4  11  17  27  45  66  93 126 151 179 230 284
#     4  10  19  30  42  66 101 118 153 194 221 284
#     4  10  19  28  43  69  95 128 150 182 238 277
#
# _framework density 16.157585999999998
#
# number of rings (size 3 to 8) (size 9 to 14) (size 15 to 20)
#    0.000    1.500    7.500    1.500    0.000    0.500 
#    0.000    0.000    0.000    1.500    0.000    0.000 
#    0.000    0.000    0.000    0.000    0.000    0.000 
#
# Total GULP energy -396533.857350 kJ/mol
# GULP energy per Si atom -12391.683042 kJ/mol
# Density = 1.612081 g / cm^3
# Si number density = 16.157586 Si / 1000 Ang^3
#
#
#
# Elastic Constant Matrix: (Units=GPa)
#
#
# Indices 1 2 3 4 5 6 
#
# 1 29.9775 25.0459 22.6440 0.0000 -1.8411 0.0000
# 2 25.0459 125.5041 60.0880 0.0000 -2.2543 0.0000
# 3 22.6440 60.0880 74.0930 0.0000 -0.9970 0.0000
# 4 0.0000 0.0000 0.0000 32.6232 0.0000 -0.8635
# 5 -1.8411 -2.2543 -0.9970 0.0000 17.9192 0.0000
# 6 0.0000 0.0000 0.0000 -0.8635 0.0000 19.2072
#
#
#
# Elastic Compliance Matrix: (Units=1/GPa)
#
#
# Indices 1 2 3 4 5 6 
#
# 1 0.044714 -0.003825 -0.010516 0.000000 0.003528 0.000000
# 2 -0.003825 0.013372 -0.009666 0.000000 0.000751 0.000000
# 3 -0.010516 -0.009666 0.024536 0.000000 -0.000931 0.000000
# 4 0.000000 0.000000 0.000000 0.030690 0.000000 0.001380
# 5 0.003528 0.000751 -0.000931 0.000000 0.056211 0.000000
# 6 0.000000 0.000000 0.000000 0.001380 0.000000 0.052126
#
#
# Mechanical properties :
#
#
# Convention : Reuss Voigt Hill
#
# Bulk Modulus (GPa) = 28.89345 49.45893 39.17619
# Shear Modulus (GPa) = 17.78096 22.06967 19.92532
#
# Velocity S-wave (km/s) = 3.32093 3.69982 3.51549
# Velocity P-wave (km/s) = 5.71191 6.99488 6.38570
#
# Compressibility (1/GPa) = 0.03460992
#
# Stress axis : x y z
#
# Youngs Moduli (GPa) = 22.36422 74.78115 40.75585
#
# Poissons Ratio (x) = 0.28606 0.42858
# Poissons Ratio (y) = 0.08555 0.39393
# Poissons Ratio (z) = 0.23518 0.72280
#
# Static dielectric constant tensor:
#      x y z
#    x 2.833510 0.000000 -0.010220 
#    y 0.000000 3.125290 0.000000 
#    z -0.010220 0.000000 2.992310 
# 
# 
# High freq. dielectric constant tensor:
#      x y z
#    x 1.579180 0.000000 -0.001370 
#    y 0.000000 1.620720 0.000000 
#    z -0.001370 0.000000 1.600540 
# 
# From -- ./inp_files/107938.got.cif
#   From: 2010.06.25/outbox.cif.g09.slc.cpg/sg15_54_cif.got.tgz:107938.got - 2010.06.28 07:06:18.
