data_PCOD8132574
_publ_section_title
;
Structure prediction by ZEFSAII (Michael W. Deem and Ramdas Pophale) SiO2 
 PCOD8132574
Probable space group: C 2/C
;
_chemical_formula_sum "Si O2"
_cell_formula_units_Z 52
_cell_length_a 14.663241
_cell_length_b 16.727188
_cell_length_c 11.520649
_cell_angle_alpha 90.000000
_cell_angle_beta 64.567155
_cell_angle_gamma 90.000000
_cell_volume 2551.881663
_symmetry_space_group_name_H-M "C 2/C"
_symmetry_group_IT_number 15
_symmetry_cell_setting 'monoclinic'
loop_
_space_group_symop_operation_xyz
x,y,z
-x,y,1/2-z
-x,-y,-z
x,-y,1/2+z
1/2+x,1/2+y,z
1/2-x,1/2+y,1/2-z
1/2-x,1/2-y,-z
1/2+x,1/2-y,1/2+z
loop_
_atom_site_type_symbol
_atom_site_label
_atom_site_fract_x
_atom_site_fract_y
_atom_site_fract_z
Si Si1 0.368924 0.081738 0.940371
Si Si2 0.000000 0.543061 0.250000
Si Si3 0.970131 0.353161 0.987773
Si Si4 0.918705 0.027253 0.893346
Si Si5 0.777702 0.547237 0.634452
Si Si6 0.012511 0.183019 0.881599
Si Si7 0.816811 0.102516 0.594567
O O1 0.276342 0.133208 0.936075
O O2 0.404927 0.015186 0.826465
O O3 0.460905 0.136574 0.934417
O O4 0.330521 0.036506 0.076593
O O5 0.981716 0.598685 0.147402
O O6 0.961473 0.259515 0.966681
O O7 0.857428 0.380655 0.078414
O O8 0.814743 0.062784 0.901249
O O9 0.000000 0.005060 0.750000
O O10 0.960528 0.099906 0.950116
O O11 0.898962 0.947349 0.976899
O O12 0.733759 0.541661 0.787144
O O13 0.128574 0.175646 0.866400
O O14 0.000000 0.189643 0.750000
#
# Coordination Sequence:
#
# PCOD8132574 Si02
#       7
#     8   4   8   8   8   8   8
#     4  10  21  35  60  91 118 157 208 243 294 353
#     4  10  18  38  64  82 124 160 198 254 288 346
#     4  11  22  37  60  92 126 156 196 243 307 361
#     4  10  21  39  65  90 115 155 210 246 291 349
#     4  10  20  36  62  91 115 155 206 246 294 351
#     4  11  22  40  60  86 124 160 194 246 300 355
#     4  11  21  39  65  85 121 159 199 255 291 346
#
# _framework density 20.377120999999999
#
# number of rings (size 3 to 8) (size 9 to 14) (size 15 to 20)
#    0.000    1.538    3.846    4.154    0.000    1.231 
#    0.000    0.000    5.077    0.000    0.000    0.000 
#    0.000    0.000    0.000    0.000    0.000    0.000 
#
# Total GULP energy -322185.580434 kJ/mol
# GULP energy per Si atom -12391.753094 kJ/mol
# Density = 2.033074 g / cm^3
# Si number density = 20.377121 Si / 1000 Ang^3
#
#
#
# Elastic Constant Matrix: (Units=GPa)
#
#
# Indices 1 2 3 4 5 6 
#
# 1 149.1488 42.8863 32.6206 0.0000 1.2722 0.0000
# 2 42.8863 48.8708 30.6589 0.0000 3.7421 0.0000
# 3 32.6206 30.6589 90.2296 0.0000 -8.7340 0.0000
# 4 0.0000 0.0000 0.0000 7.3728 0.0000 11.1931
# 5 1.2722 3.7421 -8.7340 0.0000 26.6261 0.0000
# 6 0.0000 0.0000 0.0000 11.1931 0.0000 10.0720
#
#
#
# Elastic Compliance Matrix: (Units=1/GPa)
#
#
# Indices 1 2 3 4 5 6 
#
# 1 0.009009 -0.007522 -0.000661 0.000000 0.000410 0.000000
# 2 -0.007522 0.033524 -0.009391 0.000000 -0.007433 0.000000
# 3 -0.000661 -0.009391 0.015124 0.000000 0.006312 0.000000
# 4 0.000000 0.000000 0.000000 -0.197389 0.000000 0.219360
# 5 0.000410 -0.007433 0.006312 0.000000 0.040653 0.000000
# 6 0.000000 0.000000 0.000000 0.219360 0.000000 -0.144491
#
#
# Mechanical properties :
#
#
# Convention : Reuss Voigt Hill
#
# Bulk Modulus (GPa) = 44.42955 55.62009 50.02482
# Shear Modulus (GPa) = -24.88556 20.95307 -1.96624
#
# Velocity S-wave (km/s) = -3.49843 3.21014 -0.98337
# Velocity P-wave (km/s) = 2.35208 6.41050 4.82840
#
# Compressibility (1/GPa) = 0.02250754
#
# Stress axis : x y z
#
# Youngs Moduli (GPa) = 111.00309 29.82978 66.12053
#
# Poissons Ratio (x) = 0.22438 0.04373
# Poissons Ratio (y) = 0.83497 0.62093
# Poissons Ratio (z) = 0.07341 0.28013
#
# Static dielectric constant tensor:
#      x y z
#    x 4.012110 0.000000 -0.022160 
#    y 0.000000 3.385010 0.000000 
#    z -0.022160 0.000000 3.758170 
# 
# 
# High freq. dielectric constant tensor:
#      x y z
#    x 1.823670 0.000000 0.004320 
#    y 0.000000 1.752850 0.000000 
#    z 0.004320 0.000000 1.790100 
# 
# From -- ./inp_files/98204.got.cif
#   From: 2010.06.25/outbox.cif.g09.slc.cpg/sg15_50_cif.got.tgz:98204.got - 2010.06.28 07:06:18.
