data_PCOD8133013
_publ_section_title
;
Structure prediction by ZEFSAII (Michael W. Deem and Ramdas Pophale) SiO2 
 PCOD8133013
Probable space group: C 2/C
;
_chemical_formula_sum "Si O2"
_cell_formula_units_Z 64
_cell_length_a 20.529065
_cell_length_b 11.902399
_cell_length_c 27.394634
_cell_angle_alpha 90.000000
_cell_angle_beta 32.180960
_cell_angle_gamma 90.000000
_cell_volume 3565.055547
_symmetry_space_group_name_H-M "C 2/C"
_symmetry_group_IT_number 15
_symmetry_cell_setting 'monoclinic'
loop_
_space_group_symop_operation_xyz
x,y,z
-x,y,1/2-z
-x,-y,-z
x,-y,1/2+z
1/2+x,1/2+y,z
1/2-x,1/2+y,1/2-z
1/2-x,1/2-y,-z
1/2+x,1/2-y,1/2+z
loop_
_atom_site_type_symbol
_atom_site_label
_atom_site_fract_x
_atom_site_fract_y
_atom_site_fract_z
Si Si1 0.525727 0.000502 0.540701
Si Si2 0.955785 0.842695 0.143517
Si Si3 0.093536 0.297852 0.733924
Si Si4 0.330505 0.015064 0.244102
Si Si5 0.456929 0.758264 0.488916
Si Si6 0.860236 0.277351 0.040035
Si Si7 0.099743 0.909700 0.839241
Si Si8 0.245804 0.223401 0.804044
O O1 0.565941 0.127749 0.528270
O O2 0.500000 0.000000 0.500000
O O3 0.404259 0.964315 0.647064
O O4 0.627225 0.905559 0.488323
O O5 0.962345 0.791834 0.193144
O O6 0.835560 0.792771 0.193084
O O7 0.949659 0.976988 0.154197
O O8 0.076415 0.810934 0.036682
O O9 0.109863 0.418019 0.749286
O O10 0.219225 0.251631 0.632471
O O11 0.000000 0.316835 0.750000
O O12 0.191552 0.056491 0.324778
O O13 0.333185 0.883733 0.255874
O O14 0.576253 0.771981 0.447269
O O15 0.483769 0.656258 0.435121
O O16 0.336505 0.733664 0.595995
O O17 0.169566 0.832985 0.755262
#
# Coordination Sequence:
#
# PCOD8133013 Si02
#       8
#     8   8   8   8   8   8   8   8
#     4  10  19  32  55  83 118 149 179 226 295 353
#     4  10  22  35  54  84 114 150 184 231 291 336
#     4  12  25  40  57  79 113 160 200 231 272 327
#     4  11  20  36  54  80 120 151 187 231 279 339
#     4  10  19  31  53  91 112 146 171 217 305 348
#     4  10  20  36  54  79 118 144 188 235 272 341
#     4  11  19  32  56  84 120 141 173 233 293 343
#     4  10  20  32  56  87 120 141 176 230 290 350
#
# _framework density 17.952034000000001
#
# number of rings (size 3 to 8) (size 9 to 14) (size 15 to 20)
#    0.000    1.500    5.000    1.500    8.750    2.000 
#    0.000    0.000    0.000    0.750    0.000    2.625 
#    0.000    0.000    0.000    0.000    0.000    0.000 
#
# Total GULP energy -396805.534147 kJ/mol
# GULP energy per Si atom -12400.172942 kJ/mol
# Density = 1.791117 g / cm^3
# Si number density = 17.952034 Si / 1000 Ang^3
#
#
#
# Elastic Constant Matrix: (Units=GPa)
#
#
# Indices 1 2 3 4 5 6 
#
# 1 57.3106 30.9043 22.2859 0.0000 2.9812 0.0000
# 2 30.9043 116.8072 22.7549 0.0000 1.9366 0.0000
# 3 22.2859 22.7549 90.0542 0.0003 4.7540 -0.0002
# 4 0.0000 0.0000 0.0003 34.0030 -0.0002 6.7232
# 5 2.9812 1.9366 4.7540 -0.0002 14.1212 0.0001
# 6 0.0000 0.0000 -0.0002 6.7232 0.0001 16.4188
#
#
#
# Elastic Compliance Matrix: (Units=1/GPa)
#
#
# Indices 1 2 3 4 5 6 
#
# 1 0.021810 -0.004946 -0.004012 0.000000 -0.002576 0.000000
# 2 -0.004946 0.010129 -0.001341 0.000000 0.000107 0.000000
# 3 -0.004012 -0.001341 0.012606 0.000000 -0.003213 0.000000
# 4 0.000000 0.000000 0.000000 0.032000 0.000001 -0.013103
# 5 -0.002576 0.000107 -0.003213 0.000001 0.072426 -0.000001
# 6 0.000000 0.000000 0.000000 -0.013103 -0.000001 0.066272
#
#
# Mechanical properties :
#
#
# Convention : Reuss Voigt Hill
#
# Bulk Modulus (GPa) = 41.75855 46.22912 43.99384
# Shear Modulus (GPa) = 20.50670 25.45704 22.98187
#
# Velocity S-wave (km/s) = 3.38347 3.76980 3.58184
# Velocity P-wave (km/s) = 6.21092 6.68998 6.45490
#
# Compressibility (1/GPa) = 0.02394719
#
# Stress axis : x y z
#
# Youngs Moduli (GPa) = 45.85079 98.72417 79.32954
#
# Poissons Ratio (x) = 0.48831 0.31824
# Poissons Ratio (y) = 0.22679 0.10638
# Poissons Ratio (z) = 0.18393 0.13239
#
# Static dielectric constant tensor:
#      x y z
#    x 2.683190 0.000000 0.131270 
#    y 0.000000 4.002890 0.000000 
#    z 0.131270 0.000000 3.386060 
# 
# 
# High freq. dielectric constant tensor:
#      x y z
#    x 1.611100 0.000000 0.019240 
#    y 0.000000 1.721260 0.000000 
#    z 0.019240 0.000000 1.711140 
# 
# From -- ./inp_files/181745.got.cif
#   From: 2010.06.25/outbox.cif.g09.slc.cpg/sg15_91_cif.got.tgz:181745.got - 2010.06.28 07:06:18.
