data_PCOD8133520
_publ_section_title
;
Structure prediction by ZEFSAII (Michael W. Deem and Ramdas Pophale) SiO2 
 PCOD8133520
Probable space group: C 2/C
;
_chemical_formula_sum "Si O2"
_cell_formula_units_Z 44
_cell_length_a 28.048118
_cell_length_b 8.955483
_cell_length_c 13.401900
_cell_angle_alpha 90.000000
_cell_angle_beta 140.539049
_cell_angle_gamma 90.000000
_cell_volume 2139.490333
_symmetry_space_group_name_H-M "C 2/C"
_symmetry_group_IT_number 15
_symmetry_cell_setting 'monoclinic'
loop_
_space_group_symop_operation_xyz
x,y,z
-x,y,1/2-z
-x,-y,-z
x,-y,1/2+z
1/2+x,1/2+y,z
1/2-x,1/2+y,1/2-z
1/2-x,1/2-y,-z
1/2+x,1/2-y,1/2+z
loop_
_atom_site_type_symbol
_atom_site_label
_atom_site_fract_x
_atom_site_fract_y
_atom_site_fract_z
Si Si1 0.163460 0.828771 0.076082
Si Si2 0.264748 0.208659 0.911190
Si Si3 0.800456 0.310077 0.170431
Si Si4 0.500000 0.157191 0.250000
Si Si5 0.369167 0.951125 0.107887
Si Si6 0.617519 0.356776 0.530898
O O1 0.187832 0.770420 0.224842
O O2 0.241959 0.887997 0.152248
O O3 0.105330 0.964968 0.999503
O O4 0.123857 0.699191 0.947634
O O5 0.329262 0.315877 0.975034
O O6 0.250000 0.250000 0.000000
O O7 0.294793 0.038039 0.950725
O O8 0.860433 0.418502 0.212986
O O9 0.845782 0.181743 0.302683
O O10 0.750000 0.250000 0.000000
O O11 0.540283 0.264578 0.395809
O O12 0.442719 0.051287 0.216195
#
# Coordination Sequence:
#
# PCOD8133520 Si02
#       6
#     8   8   8   4   8   8
#     4  10  19  35  60  88 113 146 191 246 295 331
#     4  10  19  33  57  89 116 143 185 240 296 336
#     4   9  18  34  60  90 112 138 183 241 297 335
#     4  10  24  40  52  80 118 164 198 224 280 346
#     4  10  21  37  59  82 117 156 192 232 285 356
#     4  10  21  36  56  82 118 149 188 238 279 342
#
# _framework density 20.565646000000001
#
# number of rings (size 3 to 8) (size 9 to 14) (size 15 to 20)
#    0.000    2.182    0.000    4.364    0.000    5.818 
#    0.000    1.818    0.000    9.818    0.000    0.000 
#    0.000    0.000    0.000    0.000    0.000    0.000 
#
# Total GULP energy -272627.528986 kJ/mol
# GULP energy per Si atom -12392.160408 kJ/mol
# Density = 2.051884 g / cm^3
# Si number density = 20.565646 Si / 1000 Ang^3
#
#
#
# Elastic Constant Matrix: (Units=GPa)
#
#
# Indices 1 2 3 4 5 6 
#
# 1 74.4352 34.0225 49.6110 0.0000 -7.9435 0.0000
# 2 34.0225 124.6029 49.4811 0.0000 8.8446 0.0000
# 3 49.6110 49.4811 116.3517 0.0000 -9.7648 0.0000
# 4 0.0000 0.0000 0.0000 33.7632 0.0000 2.2218
# 5 -7.9435 8.8446 -9.7648 0.0000 34.0987 0.0000
# 6 0.0000 0.0000 0.0000 2.2218 0.0000 32.9419
#
#
#
# Elastic Compliance Matrix: (Units=1/GPa)
#
#
# Indices 1 2 3 4 5 6 
#
# 1 0.019706 -0.002881 -0.006895 0.000000 0.003364 0.000000
# 2 -0.002881 0.010575 -0.003643 0.000000 -0.004457 0.000000
# 3 -0.006895 -0.003643 0.013349 0.000000 0.003161 0.000000
# 4 0.000000 0.000000 0.000000 0.029750 0.000000 -0.002007
# 5 0.003364 -0.004457 0.003161 0.000000 0.032172 0.000000
# 6 0.000000 0.000000 0.000000 -0.002007 0.000000 0.030492
#
#
# Mechanical properties :
#
#
# Convention : Reuss Voigt Hill
#
# Bulk Modulus (GPa) = 59.55158 64.62433 62.08795
# Shear Modulus (GPa) = 29.67731 32.31243 30.99487
#
# Velocity S-wave (km/s) = 3.80287 3.96812 3.88637
# Velocity P-wave (km/s) = 6.94998 7.24474 7.09889
#
# Compressibility (1/GPa) = 0.01679217
#
# Stress axis : x y z
#
# Youngs Moduli (GPa) = 50.74663 94.56016 74.91225
#
# Poissons Ratio (x) = 0.27247 0.51649
# Poissons Ratio (y) = 0.14622 0.27289
# Poissons Ratio (z) = 0.34988 0.34447
#
# Static dielectric constant tensor:
#      x y z
#    x 4.018550 0.000000 -0.294890 
#    y 0.000000 3.809680 0.000000 
#    z -0.294890 0.000000 3.710250 
# 
# 
# High freq. dielectric constant tensor:
#      x y z
#    x 1.783150 0.000000 -0.020440 
#    y 0.000000 1.807760 0.000000 
#    z -0.020440 0.000000 1.794400 
# 
# From -- ./inp_files/121778.got.cif
#   From: 2010.06.25/outbox.cif.g09.slc.cpg/sg15_61_cif.got.tgz:121778.got - 2010.06.28 07:06:18.
