data_PCOD8133474
_publ_section_title
;
Structure prediction by ZEFSAII (Michael W. Deem and Ramdas Pophale) SiO2 
 PCOD8133474
Probable space group: C 2/C
;
_chemical_formula_sum "Si O2"
_cell_formula_units_Z 64
_cell_length_a 13.894007
_cell_length_b 17.281851
_cell_length_c 14.241281
_cell_angle_alpha 90.000000
_cell_angle_beta 105.906889
_cell_angle_gamma 90.000000
_cell_volume 3288.593682
_symmetry_space_group_name_H-M "C 2/C"
_symmetry_group_IT_number 15
_symmetry_cell_setting 'monoclinic'
loop_
_space_group_symop_operation_xyz
x,y,z
-x,y,1/2-z
-x,-y,-z
x,-y,1/2+z
1/2+x,1/2+y,z
1/2-x,1/2+y,1/2-z
1/2-x,1/2-y,-z
1/2+x,1/2-y,1/2+z
loop_
_atom_site_type_symbol
_atom_site_label
_atom_site_fract_x
_atom_site_fract_y
_atom_site_fract_z
Si Si1 0.384256 0.023039 0.064007
Si Si2 0.535404 0.261542 0.103104
Si Si3 0.403962 0.492457 0.768549
Si Si4 0.215796 0.092745 0.905339
Si Si5 0.343871 0.251974 0.182053
Si Si6 0.722961 0.912799 0.793382
Si Si7 0.017568 0.078006 0.947260
Si Si8 0.589393 0.097895 0.076494
O O1 0.334795 0.025496 0.154532
O O2 0.496758 0.053491 0.099653
O O3 0.324463 0.075380 0.973828
O O4 0.381398 0.936932 0.017630
O O5 0.432890 0.246524 0.131171
O O6 0.621292 0.269818 0.203590
O O7 0.528997 0.338461 0.034076
O O8 0.562007 0.187070 0.047377
O O9 0.500000 0.445603 0.750000
O O10 0.321237 0.527497 0.677039
O O11 0.341001 0.435602 0.819764
O O12 0.460561 0.564003 0.833735
O O13 0.228188 0.177399 0.864058
O O14 0.135772 0.090863 0.968640
O O15 0.283567 0.171486 0.160655
O O16 0.677181 0.910881 0.676619
O O17 0.000000 0.000000 0.000000
#
# Coordination Sequence:
#
# PCOD8133474 Si02
#       8
#     8   8   8   8   8   8   8   8
#     4  11  21  34  56  87 117 151 192 234 287 347
#     4   9  16  33  55  81 115 146 189 234 285 348
#     4  10  20  36  56  82 112 150 186 238 290 342
#     4  10  19  35  53  83 116 141 191 244 288 335
#     4   9  17  31  57  82 109 148 184 236 299 331
#     4  11  20  36  59  84 113 153 195 235 290 358
#     4  10  19  33  56  83 110 148 191 239 289 341
#     4  10  21  36  55  84 120 153 187 239 288 342
#
# _framework density 19.461207000000002
#
# number of rings (size 3 to 8) (size 9 to 14) (size 15 to 20)
#    0.000    2.000    3.750    1.125    0.000    0.500 
#    2.250    0.000    0.000    6.000    0.000    0.000 
#    0.000    0.000    0.000    0.000    0.000    0.000 
#
# Total GULP energy -396467.783701 kJ/mol
# GULP energy per Si atom -12389.618241 kJ/mol
# Density = 1.941691 g / cm^3
# Si number density = 19.461207 Si / 1000 Ang^3
#
#
#
# Elastic Constant Matrix: (Units=GPa)
#
#
# Indices 1 2 3 4 5 6 
#
# 1 74.6146 34.9620 4.6249 0.0000 -6.4428 0.0000
# 2 34.9620 148.3406 33.0576 0.0000 -18.5686 0.0000
# 3 4.6249 33.0576 36.9726 0.0000 -9.4185 0.0000
# 4 0.0000 0.0000 0.0000 32.5617 0.0000 0.2433
# 5 -6.4428 -18.5686 -9.4185 0.0000 26.0475 0.0000
# 6 0.0000 0.0000 0.0000 0.2433 0.0000 28.9628
#
#
#
# Elastic Compliance Matrix: (Units=1/GPa)
#
#
# Indices 1 2 3 4 5 6 
#
# 1 0.015213 -0.003798 0.001940 0.000000 0.001757 0.000000
# 2 -0.003798 0.009687 -0.007343 0.000000 0.003311 0.000000
# 3 0.001940 -0.007343 0.035421 0.000000 0.008053 0.000000
# 4 0.000000 0.000000 0.000000 0.030713 0.000000 -0.000258
# 5 0.001757 0.003311 0.008053 0.000000 0.044098 0.000000
# 6 0.000000 0.000000 0.000000 -0.000258 0.000000 0.034529
#
#
# Mechanical properties :
#
#
# Convention : Reuss Voigt Hill
#
# Bulk Modulus (GPa) = 23.85451 45.02409 34.43930
# Shear Modulus (GPa) = 24.74798 29.99997 27.37397
#
# Velocity S-wave (km/s) = 3.56990 3.93049 3.75452
# Velocity P-wave (km/s) = 5.41076 6.61694 6.04401
#
# Compressibility (1/GPa) = 0.04192079
#
# Stress axis : x y z
#
# Youngs Moduli (GPa) = 65.73200 103.22860 28.23171
#
# Poissons Ratio (x) = 0.39207 -0.05478
# Poissons Ratio (y) = 0.24965 0.20730
# Poissons Ratio (z) = -0.12755 0.75799
#
# Static dielectric constant tensor:
#      x y z
#    x 3.471420 0.000000 0.123120 
#    y 0.000000 3.677520 0.000000 
#    z 0.123120 0.000000 3.467720 
# 
# 
# High freq. dielectric constant tensor:
#      x y z
#    x 1.742090 0.000000 0.023810 
#    y 0.000000 1.754970 0.000000 
#    z 0.023810 0.000000 1.743010 
# 
# From -- ./inp_files/154880.got.cif
#   From: 2010.06.25/outbox.cif.g09.slc.cpg/sg15_78_cif.got.tgz:154880.got - 2010.06.28 07:06:18.
