data_PCOD8133910
_publ_section_title
;
Structure prediction by ZEFSAII (Michael W. Deem and Ramdas Pophale) SiO2 
 PCOD8133910
Probable space group: C 2/C
;
_chemical_formula_sum "Si O2"
_cell_formula_units_Z 60
_cell_length_a 27.355032
_cell_length_b 19.129161
_cell_length_c 13.655690
_cell_angle_alpha 90.000000
_cell_angle_beta 155.362066
_cell_angle_gamma 90.000000
_cell_volume 2978.932433
_symmetry_space_group_name_H-M "C 2/C"
_symmetry_group_IT_number 15
_symmetry_cell_setting 'monoclinic'
loop_
_space_group_symop_operation_xyz
x,y,z
-x,y,1/2-z
-x,-y,-z
x,-y,1/2+z
1/2+x,1/2+y,z
1/2-x,1/2+y,1/2-z
1/2-x,1/2-y,-z
1/2+x,1/2-y,1/2+z
loop_
_atom_site_type_symbol
_atom_site_label
_atom_site_fract_x
_atom_site_fract_y
_atom_site_fract_z
Si Si1 0.231821 0.748093 0.318296
Si Si2 0.450659 0.672269 0.440917
Si Si3 0.887567 0.516770 0.227614
Si Si4 0.000000 0.413217 0.750000
Si Si5 0.294354 0.865708 0.047330
Si Si6 0.204296 0.862644 0.425147
Si Si7 0.976181 0.740018 0.813724
Si Si8 0.360771 0.198178 0.872114
O O1 0.252610 0.817038 0.422391
O O2 0.304658 0.682889 0.492101
O O3 0.264358 0.765810 0.265990
O O4 0.099764 0.720134 0.088370
O O5 0.564149 0.620942 0.655279
O O6 0.428040 0.694986 0.287298
O O7 0.458926 0.743222 0.522696
O O8 0.326734 0.635186 0.235228
O O9 0.924274 0.538428 0.184612
O O10 0.816098 0.446610 0.094388
O O11 0.000000 0.500000 0.500000
O O12 0.792999 0.572339 0.099370
O O13 0.920415 0.365881 0.535518
O O14 0.393005 0.827780 0.161558
O O15 0.294516 0.828506 0.154417
O O16 0.000000 0.768810 0.750000
#
# Coordination Sequence:
#
# PCOD8133910 Si02
#       8
#     8   8   8   4   8   8   8   8
#     4  10  19  35  63  90 121 152 210 265 307 362
#     4  10  22  38  61  92 125 161 208 261 322 368
#     4  12  25  44  63  92 130 167 214 260 315 387
#     4  12  24  40  68  90 122 170 214 264 322 378
#     4  11  23  39  60  91 134 168 203 254 321 386
#     4  10  22  38  59  92 119 161 209 259 308 368
#     4  10  19  34  59  93 123 156 204 263 315 360
#     4  11  20  39  64  94 123 163 209 265 325 376
#
# _framework density 20.141444
#
# number of rings (size 3 to 8) (size 9 to 14) (size 15 to 20)
#    0.000    1.333    2.667    4.800    4.667    0.533 
#    2.400    0.000    0.000    0.000    3.467    0.000 
#    0.000    0.000    0.000    0.000    0.000    0.000 
#
# Total GULP energy -371701.468255 kJ/mol
# GULP energy per Si atom -12390.048942 kJ/mol
# Density = 2.009560 g / cm^3
# Si number density = 20.141444 Si / 1000 Ang^3
#
#
#
# Elastic Constant Matrix: (Units=GPa)
#
#
# Indices 1 2 3 4 5 6 
#
# 1 97.0743 31.9963 15.1024 0.0000 3.7630 0.0000
# 2 31.9963 95.7296 54.9695 0.0000 12.4271 0.0000
# 3 15.1024 54.9695 118.2458 0.0000 13.9080 0.0000
# 4 0.0000 0.0000 0.0000 32.2771 0.0000 -0.8187
# 5 3.7630 12.4271 13.9080 0.0000 27.6779 0.0000
# 6 0.0000 0.0000 0.0000 -0.8187 0.0000 23.9287
#
#
#
# Elastic Compliance Matrix: (Units=1/GPa)
#
#
# Indices 1 2 3 4 5 6 
#
# 1 0.011593 -0.004131 0.000433 0.000000 0.000061 0.000000
# 2 -0.004131 0.016005 -0.006519 0.000000 -0.003349 0.000000
# 3 0.000433 -0.006519 0.011792 0.000000 -0.003057 0.000000
# 4 0.000000 0.000000 0.000000 0.031009 0.000000 0.001061
# 5 0.000061 -0.003349 -0.003057 0.000000 0.039161 0.000000
# 6 0.000000 0.000000 0.000000 0.001061 0.000000 0.041827
#
#
# Mechanical properties :
#
#
# Convention : Reuss Voigt Hill
#
# Bulk Modulus (GPa) = 52.75632 57.24290 54.99961
# Shear Modulus (GPa) = 28.06779 30.70883 29.38831
#
# Velocity S-wave (km/s) = 3.73706 3.90892 3.82396
# Velocity P-wave (km/s) = 6.69855 6.98964 6.84564
#
# Compressibility (1/GPa) = 0.01895507
#
# Stress axis : x y z
#
# Youngs Moduli (GPa) = 86.25585 62.48132 84.80570
#
# Poissons Ratio (x) = 0.25813 -0.03669
# Poissons Ratio (y) = 0.35635 0.55282
# Poissons Ratio (z) = -0.03732 0.40730
#
# Static dielectric constant tensor:
#      x y z
#    x 3.857220 0.000000 0.049420 
#    y 0.000000 3.449700 0.000000 
#    z 0.049420 0.000000 3.827120 
# 
# 
# High freq. dielectric constant tensor:
#      x y z
#    x 1.791180 0.000000 0.004020 
#    y 0.000000 1.753830 0.000000 
#    z 0.004020 0.000000 1.803860 
# 
# From -- ./inp_files/183091.got.cif
#   From: 2010.06.25/outbox.cif.g09.slc.cpg/sg15_92_cif.got.tgz:183091.got - 2010.06.28 07:06:18.
