data_PCOD8133682
_publ_section_title
;
Structure prediction by ZEFSAII (Michael W. Deem and Ramdas Pophale) SiO2 
 PCOD8133682
Probable space group: C 2/C
;
_chemical_formula_sum "Si O2"
_cell_formula_units_Z 64
_cell_length_a 18.038883
_cell_length_b 20.507917
_cell_length_c 12.135625
_cell_angle_alpha 90.000000
_cell_angle_beta 130.616539
_cell_angle_gamma 90.000000
_cell_volume 3407.868657
_symmetry_space_group_name_H-M "C 2/C"
_symmetry_group_IT_number 15
_symmetry_cell_setting 'monoclinic'
loop_
_space_group_symop_operation_xyz
x,y,z
-x,y,1/2-z
-x,-y,-z
x,-y,1/2+z
1/2+x,1/2+y,z
1/2-x,1/2+y,1/2-z
1/2-x,1/2-y,-z
1/2+x,1/2-y,1/2+z
loop_
_atom_site_type_symbol
_atom_site_label
_atom_site_fract_x
_atom_site_fract_y
_atom_site_fract_z
Si Si1 0.736403 0.911606 0.169541
Si Si2 0.397506 0.292551 0.684375
Si Si3 0.196090 0.555111 0.197366
Si Si4 0.392799 0.082211 0.610589
Si Si5 0.415816 0.584169 0.352743
Si Si6 0.387494 0.066757 0.152244
Si Si7 0.454468 0.558986 0.822146
Si Si8 0.729215 0.178814 0.866367
O O1 0.843982 0.917618 0.224964
O O2 0.731390 0.850979 0.247109
O O3 0.698729 0.976175 0.196986
O O4 0.667784 0.895973 0.999087
O O5 0.500000 0.258720 0.750000
O O6 0.426595 0.357665 0.777384
O O7 0.335056 0.244471 0.701560
O O8 0.338420 0.306748 0.514403
O O9 0.304144 0.580423 0.281142
O O10 0.156638 0.585792 0.272405
O O11 0.120444 0.583188 0.033938
O O12 0.500000 0.105209 0.750000
O O13 0.314015 0.129696 0.586009
O O14 0.370024 0.010086 0.629318
O O15 0.481761 0.595707 0.524028
O O16 0.456365 0.519138 0.334039
O O17 0.500000 0.086245 0.250000
O O18 0.500000 0.579584 0.750000
#
# Coordination Sequence:
#
# PCOD8133682 Si02
#       8
#     8   8   8   8   8   8   8   8
#     4  10  21  34  55  82 117 151 189 238 286 354
#     4  11  23  39  60  85 115 154 196 243 289 344
#     4  10  19  34  54  82 117 151 186 239 294 348
#     4  10  20  32  55  81 112 151 190 237 287 345
#     4  10  20  35  57  88 116 150 189 243 297 356
#     4  10  21  33  52  82 116 155 186 234 292 340
#     4  10  20  34  59  89 118 152 186 239 304 353
#     4  11  22  39  58  85 117 151 193 240 294 341
#
# _framework density 18.780066000000001
#
# number of rings (size 3 to 8) (size 9 to 14) (size 15 to 20)
#    0.000    1.750    2.500    2.250    1.750    3.500 
#    0.000    0.000    0.000    3.750    0.000    0.000 
#    0.000    0.000    0.000    0.000    0.000    0.000 
#
# Total GULP energy -396845.270001 kJ/mol
# GULP energy per Si atom -12401.414688 kJ/mol
# Density = 1.873732 g / cm^3
# Si number density = 18.780066 Si / 1000 Ang^3
#
#
#
# Elastic Constant Matrix: (Units=GPa)
#
#
# Indices 1 2 3 4 5 6 
#
# 1 96.0826 20.9450 67.7334 0.0000 -7.6834 0.0000
# 2 20.9450 53.9548 36.7105 0.0000 -2.0616 0.0000
# 3 67.7334 36.7105 163.2035 0.0000 5.8410 0.0000
# 4 0.0000 0.0000 0.0000 17.9234 0.0000 -5.5158
# 5 -7.6834 -2.0616 5.8410 0.0000 34.8342 0.0000
# 6 0.0000 0.0000 0.0000 -5.5158 0.0000 17.7158
#
#
#
# Elastic Compliance Matrix: (Units=1/GPa)
#
#
# Indices 1 2 3 4 5 6 
#
# 1 0.015497 -0.001614 -0.006225 0.000000 0.004366 0.000000
# 2 -0.001614 0.022210 -0.004387 0.000000 0.001694 0.000000
# 3 -0.006225 -0.004387 0.009815 0.000000 -0.003278 0.000000
# 4 0.000000 0.000000 0.000000 0.061705 0.000000 0.019212
# 5 0.004366 0.001694 -0.003278 0.000000 0.030321 0.000000
# 6 0.000000 0.000000 0.000000 0.019212 0.000000 0.062428
#
#
# Mechanical properties :
#
#
# Convention : Reuss Voigt Hill
#
# Bulk Modulus (GPa) = 43.34426 62.66876 53.00651
# Shear Modulus (GPa) = 21.35686 26.61813 23.98750
#
# Velocity S-wave (km/s) = 3.37591 3.76887 3.57779
# Velocity P-wave (km/s) = 6.19078 7.23750 6.73451
#
# Compressibility (1/GPa) = 0.02307110
#
# Stress axis : x y z
#
# Youngs Moduli (GPa) = 64.52916 45.02497 101.88613
#
# Poissons Ratio (x) = 0.07265 0.63423
# Poissons Ratio (y) = 0.10413 0.44695
# Poissons Ratio (z) = 0.40169 0.19751
#
# Static dielectric constant tensor:
#      x y z
#    x 3.364710 0.000000 0.117790 
#    y 0.000000 3.195630 0.000000 
#    z 0.117790 0.000000 3.690580 
# 
# 
# High freq. dielectric constant tensor:
#      x y z
#    x 1.733760 0.000000 0.010220 
#    y 0.000000 1.691990 0.000000 
#    z 0.010220 0.000000 1.745920 
# 
# From -- ./inp_files/107499.got.cif
#   From: 2010.06.25/outbox.cif.g09.slc.cpg/sg15_54_cif.got.tgz:107499.got - 2010.06.28 07:06:18.
