data_PCOD8133621
_publ_section_title
;
Structure prediction by ZEFSAII (Michael W. Deem and Ramdas Pophale) SiO2 
 PCOD8133621
Probable space group: C 2/C
;
_chemical_formula_sum "Si O2"
_cell_formula_units_Z 48
_cell_length_a 30.293870
_cell_length_b 17.224753
_cell_length_c 5.301736
_cell_angle_alpha 90.000000
_cell_angle_beta 116.961391
_cell_angle_gamma 90.000000
_cell_volume 2465.787983
_symmetry_space_group_name_H-M "C 2/C"
_symmetry_group_IT_number 15
_symmetry_cell_setting 'monoclinic'
loop_
_space_group_symop_operation_xyz
x,y,z
-x,y,1/2-z
-x,-y,-z
x,-y,1/2+z
1/2+x,1/2+y,z
1/2-x,1/2+y,1/2-z
1/2-x,1/2-y,-z
1/2+x,1/2-y,1/2+z
loop_
_atom_site_type_symbol
_atom_site_label
_atom_site_fract_x
_atom_site_fract_y
_atom_site_fract_z
Si Si1 0.738762 0.027538 0.160539
Si Si2 0.613062 0.203240 0.557730
Si Si3 0.441234 0.043412 0.097350
Si Si4 0.365834 0.718323 0.897554
Si Si5 0.349381 0.463493 0.397953
Si Si6 0.787123 0.304911 0.956022
O O1 0.709581 0.991387 0.324437
O O2 0.791355 0.984985 0.256377
O O3 0.743319 0.119765 0.212208
O O4 0.575662 0.132203 0.439767
O O5 0.608227 0.255982 0.294765
O O6 0.669101 0.170988 0.735448
O O7 0.600468 0.255797 0.773628
O O8 0.500000 0.043116 0.250000
O O9 0.420837 0.998658 0.292118
O O10 0.357634 0.626943 0.880230
O O11 0.311794 0.760086 0.781614
O O12 0.374209 0.492178 0.723566
O O13 0.750000 0.250000 0.000000
#
# Coordination Sequence:
#
# PCOD8133621 Si02
#       6
#     8   8   8   8   8   8
#     4  10  22  32  47  67  92 134 189 234 260 325
#     4  10  23  37  56  82 114 148 189 236 283 354
#     4  10  21  40  67  92 121 154 189 237 295 358
#     4  10  22  37  54  75 113 148 186 245 288 337
#     4  10  19  34  52  70  97 139 189 237 266 326
#     4  10  23  36  52  74 108 157 190 238 291 331
#
# _framework density 19.466393
#
# number of rings (size 3 to 8) (size 9 to 14) (size 15 to 20)
#    1.000    1.000    0.000    4.000    7.000    2.000 
#    0.000    0.000    0.000    0.000    0.000    0.000 
#    0.000   13.333    0.000    0.000    0.000    0.000 
#
# Total GULP energy -297363.244173 kJ/mol
# GULP energy per Si atom -12390.135174 kJ/mol
# Density = 1.942209 g / cm^3
# Si number density = 19.466393 Si / 1000 Ang^3
#
#
#
# Elastic Constant Matrix: (Units=GPa)
#
#
# Indices 1 2 3 4 5 6 
#
# 1 22.8490 26.5212 34.7084 0.0000 -21.3771 0.0000
# 2 26.5212 167.8188 49.2829 0.0000 -24.2428 0.0000
# 3 34.7084 49.2829 122.4360 0.0000 -49.4725 0.0000
# 4 0.0000 0.0000 0.0000 35.8985 0.0000 -3.8537
# 5 -21.3771 -24.2428 -49.4725 0.0000 31.3902 0.0000
# 6 0.0000 0.0000 0.0000 -3.8537 0.0000 32.0684
#
#
#
# Elastic Compliance Matrix: (Units=1/GPa)
#
#
# Indices 1 2 3 4 5 6 
#
# 1 0.131286 -0.008755 -0.000822 0.000000 0.081350 0.000000
# 2 -0.008755 0.007417 -0.001647 0.000000 -0.002830 0.000000
# 3 -0.000822 -0.001647 0.022919 0.000000 0.034289 0.000000
# 4 0.000000 0.000000 0.000000 0.028220 0.000000 0.003391
# 5 0.081350 -0.002830 0.034289 0.000000 0.139113 0.000000
# 6 0.000000 0.000000 0.000000 0.003391 0.000000 0.031591
#
#
# Mechanical properties :
#
#
# Convention : Reuss Voigt Hill
#
# Bulk Modulus (GPa) = 7.18528 59.34766 33.26647
# Shear Modulus (GPa) = 11.64455 33.37750 22.51102
#
# Velocity S-wave (km/s) = 2.44844 4.14529 3.40428
# Velocity P-wave (km/s) = 3.41940 7.31195 5.70776
#
# Compressibility (1/GPa) = 0.13917345
#
# Stress axis : x y z
#
# Youngs Moduli (GPa) = 7.61697 134.81995 43.63244
#
# Poissons Ratio (x) = 1.18029 0.03589
# Poissons Ratio (y) = 0.06668 0.07187
# Poissons Ratio (z) = 0.00626 0.22208
#
# Static dielectric constant tensor:
#      x y z
#    x 3.060110 0.000000 -0.541650 
#    y 0.000000 3.682980 0.000000 
#    z -0.541650 0.000000 4.354670 
# 
# 
# High freq. dielectric constant tensor:
#      x y z
#    x 1.703260 0.000000 -0.041150 
#    y 0.000000 1.767710 0.000000 
#    z -0.041150 0.000000 1.767330 
# 
# From -- ./inp_files/18155.got.cif
#   From: 2010.06.25/outbox.cif.g09.slc.cpg/sg15_10_cif.got.tgz:18155.got - 2010.06.28 07:06:18.
