data_PCOD8133476
_publ_section_title
;
Structure prediction by ZEFSAII (Michael W. Deem and Ramdas Pophale) SiO2 
 PCOD8133476
Probable space group: C 2/C
;
_chemical_formula_sum "Si O2"
_cell_formula_units_Z 52
_cell_length_a 10.080467
_cell_length_b 15.564538
_cell_length_c 22.749863
_cell_angle_alpha 90.000000
_cell_angle_beta 133.697754
_cell_angle_gamma 90.000000
_cell_volume 2580.658288
_symmetry_space_group_name_H-M "C 2/C"
_symmetry_group_IT_number 15
_symmetry_cell_setting 'monoclinic'
loop_
_space_group_symop_operation_xyz
x,y,z
-x,y,1/2-z
-x,-y,-z
x,-y,1/2+z
1/2+x,1/2+y,z
1/2-x,1/2+y,1/2-z
1/2-x,1/2-y,-z
1/2+x,1/2-y,1/2+z
loop_
_atom_site_type_symbol
_atom_site_label
_atom_site_fract_x
_atom_site_fract_y
_atom_site_fract_z
Si Si1 0.483153 0.755241 0.869895
Si Si2 0.149640 0.192894 0.338818
Si Si3 0.248209 0.570994 0.031550
Si Si4 0.623574 0.371118 0.590458
Si Si5 0.555558 0.785258 0.420450
Si Si6 0.000000 0.666509 0.250000
Si Si7 0.274036 0.616402 0.506922
O O1 0.290143 0.750697 0.843859
O O2 0.456529 0.774388 0.793027
O O3 0.586463 0.664552 0.906886
O O4 0.595363 0.828691 0.938060
O O5 0.250382 0.114737 0.403725
O O6 0.040339 0.260755 0.347216
O O7 0.000000 0.150389 0.250000
O O8 0.454261 0.582586 0.069482
O O9 0.209249 0.469877 0.020432
O O10 0.078307 0.613138 0.941470
O O11 0.599139 0.265899 0.588778
O O12 0.622482 0.401859 0.522935
O O13 0.820352 0.392648 0.681411
O O14 0.750000 0.750000 0.500000
#
# Coordination Sequence:
#
# PCOD8133476 Si02
#       7
#     8   8   8   8   8   4   8
#     4  10  20  36  54  77 102 147 187 215 268 332
#     4  10  19  34  57  77 110 144 179 216 270 328
#     4  10  19  33  56  84 106 137 176 236 268 304
#     4   9  17  33  56  78 106 141 178 214 270 328
#     4   8  16  31  55  80 101 135 182 219 262 310
#     4  10  20  34  56  70 104 144 178 214 264 328
#     4  10  20  33  56  80 106 140 180 228 266 315
#
# _framework density 20.149898
#
# number of rings (size 3 to 8) (size 9 to 14) (size 15 to 20)
#    0.000    2.769    0.000    5.077    0.000    0.615 
#    1.385    0.000   25.385    0.000    0.000    0.000 
#    0.000    0.000    0.000    0.000    0.000    0.000 
#
# Total GULP energy -322129.626765 kJ/mol
# GULP energy per Si atom -12389.601029 kJ/mol
# Density = 2.010404 g / cm^3
# Si number density = 20.149898 Si / 1000 Ang^3
#
#
#
# Elastic Constant Matrix: (Units=GPa)
#
#
# Indices 1 2 3 4 5 6 
#
# 1 39.1304 1.1384 12.5537 0.0000 -13.1281 0.0000
# 2 1.1384 116.4056 26.8365 0.0000 -7.5445 0.0000
# 3 12.5537 26.8365 89.3371 0.0000 -20.4140 0.0000
# 4 0.0000 0.0000 0.0000 12.7731 0.0000 3.2461
# 5 -13.1281 -7.5445 -20.4140 0.0000 33.8399 0.0000
# 6 0.0000 0.0000 0.0000 3.2461 0.0000 16.0300
#
#
#
# Elastic Compliance Matrix: (Units=1/GPa)
#
#
# Indices 1 2 3 4 5 6 
#
# 1 0.029702 0.000858 -0.002035 0.000000 0.010486 0.000000
# 2 0.000858 0.009260 -0.002731 0.000000 0.000750 0.000000
# 3 -0.002035 -0.002731 0.013896 0.000000 0.006984 0.000000
# 4 0.000000 0.000000 0.000000 0.082538 0.000000 -0.016714
# 5 0.010486 0.000750 0.006984 0.000000 0.037999 0.000000
# 6 0.000000 0.000000 0.000000 -0.016714 0.000000 0.065768
#
#
# Mechanical properties :
#
#
# Convention : Reuss Voigt Hill
#
# Bulk Modulus (GPa) = 22.20150 36.21449 29.20799
# Shear Modulus (GPa) = 19.08446 26.15154 22.61800
#
# Velocity S-wave (km/s) = 3.08088 3.60648 3.35399
# Velocity P-wave (km/s) = 4.86804 5.94591 5.43377
#
# Compressibility (1/GPa) = 0.04504201
#
# Stress axis : x y z
#
# Youngs Moduli (GPa) = 33.66812 107.98558 71.96366
#
# Poissons Ratio (x) = -0.09270 0.14648
# Poissons Ratio (y) = -0.02890 0.19654
# Poissons Ratio (z) = 0.06853 0.29491
#
# Static dielectric constant tensor:
#      x y z
#    x 3.853890 0.000000 -0.193170 
#    y 0.000000 4.139140 0.000000 
#    z -0.193170 0.000000 4.247490 
# 
# 
# High freq. dielectric constant tensor:
#      x y z
#    x 1.796850 0.000000 -0.001270 
#    y 0.000000 1.743760 0.000000 
#    z -0.001270 0.000000 1.781570 
# 
# From -- ./inp_files/269985.got.cif
#   From: 2010.06.25/outbox.cif.g09.slc.cpg/sg15_135_cif.got.tgz:269985.got - 2010.06.28 07:06:18.
