data_PCOD8133641
_publ_section_title
;
Structure prediction by ZEFSAII (Michael W. Deem and Ramdas Pophale) SiO2 
 PCOD8133641
Probable space group: C 2/C
;
_chemical_formula_sum "Si O2"
_cell_formula_units_Z 40
_cell_length_a 12.867948
_cell_length_b 32.679871
_cell_length_c 5.122919
_cell_angle_alpha 90.000000
_cell_angle_beta 99.907349
_cell_angle_gamma 90.000000
_cell_volume 2122.178082
_symmetry_space_group_name_H-M "C 2/C"
_symmetry_group_IT_number 15
_symmetry_cell_setting 'monoclinic'
loop_
_space_group_symop_operation_xyz
x,y,z
-x,y,1/2-z
-x,-y,-z
x,-y,1/2+z
1/2+x,1/2+y,z
1/2-x,1/2+y,1/2-z
1/2-x,1/2-y,-z
1/2+x,1/2-y,1/2+z
loop_
_atom_site_type_symbol
_atom_site_label
_atom_site_fract_x
_atom_site_fract_y
_atom_site_fract_z
Si Si1 0.068975 0.682225 0.037454
Si Si2 0.931332 0.774976 0.463749
Si Si3 0.882686 0.981848 0.977191
Si Si4 0.114499 0.886839 0.402144
Si Si5 0.793214 0.151701 0.042017
O O1 0.107653 0.728735 0.106370
O O2 0.170394 0.653273 0.059862
O O3 0.000000 0.666331 0.250000
O O4 0.000000 0.678788 0.750000
O O5 0.830427 0.804022 0.453620
O O6 0.000000 0.790965 0.250000
O O7 0.000000 0.776678 0.750000
O O8 0.822492 0.994873 0.686853
O O9 0.884297 0.933756 0.014962
O O10 0.000000 0.000000 0.000000
O O11 0.141833 0.860959 0.672163
O O12 0.000000 0.873196 0.250000
O O13 0.193696 0.879884 0.193517
#
# Coordination Sequence:
#
# PCOD8133641 Si02
#       5
#     8   8   8   8   8
#     4  10  22  40  59  73 104 152 200 240 278 323
#     4  10  20  36  54  79 109 149 184 224 285 344
#     4  10  19  34  53  73 110 161 180 190 249 339
#     4  12  23  34  54  84 120 152 173 218 275 334
#     4  12  23  35  54  85 114 141 192 237 283 319
#
# _framework density 18.848559000000002
#
# number of rings (size 3 to 8) (size 9 to 14) (size 15 to 20)
#    0.000    1.200    2.000    6.600    2.800    0.000 
#    0.000    8.000    0.000    0.000    0.000    0.000 
#    0.000   56.000    0.000    0.000    0.000    0.000 
#
# Total GULP energy -247977.743727 kJ/mol
# GULP energy per Si atom -12398.887186 kJ/mol
# Density = 1.880566 g / cm^3
# Si number density = 18.848559 Si / 1000 Ang^3
#
#
#
# Elastic Constant Matrix: (Units=GPa)
#
#
# Indices 1 2 3 4 5 6 
#
# 1 110.3937 51.1972 46.8972 0.0000 -21.2398 0.0000
# 2 51.1972 86.5914 39.2167 0.0000 -5.9147 0.0000
# 3 46.8972 39.2167 143.8632 0.0000 -33.4439 0.0000
# 4 0.0000 0.0000 0.0000 36.6697 0.0000 -12.8241
# 5 -21.2398 -5.9147 -33.4439 0.0000 32.2265 0.0000
# 6 0.0000 0.0000 0.0000 -12.8241 0.0000 20.3169
#
#
#
# Elastic Compliance Matrix: (Units=1/GPa)
#
#
# Indices 1 2 3 4 5 6 
#
# 1 0.014330 -0.007550 -0.000975 0.000000 0.007047 0.000000
# 2 -0.007550 0.017226 -0.003501 0.000000 -0.005447 0.000000
# 3 -0.000975 -0.003501 0.010444 0.000000 0.009553 0.000000
# 4 0.000000 0.000000 0.000000 0.034996 0.000000 0.022089
# 5 0.007047 -0.005447 0.009553 0.000000 0.044589 0.000000
# 6 0.000000 0.000000 0.000000 0.022089 0.000000 0.063163
#
#
# Mechanical properties :
#
#
# Convention : Reuss Voigt Hill
#
# Bulk Modulus (GPa) = 55.71552 68.38559 62.05056
# Shear Modulus (GPa) = 23.27947 31.41176 27.34561
#
# Velocity S-wave (km/s) = 3.51818 4.08675 3.81308
# Velocity P-wave (km/s) = 6.79170 7.65696 7.23727
#
# Compressibility (1/GPa) = 0.01794832
#
# Stress axis : x y z
#
# Youngs Moduli (GPa) = 69.78466 58.05298 95.74698
#
# Poissons Ratio (x) = 0.43827 0.09337
# Poissons Ratio (y) = 0.52684 0.33521
# Poissons Ratio (z) = 0.06805 0.20324
#
# Static dielectric constant tensor:
#      x y z
#    x 3.149890 0.000000 -0.344580 
#    y 0.000000 3.455080 0.000000 
#    z -0.344580 0.000000 3.974790 
# 
# 
# High freq. dielectric constant tensor:
#      x y z
#    x 1.693020 0.000000 -0.032290 
#    y 0.000000 1.724110 0.000000 
#    z -0.032290 0.000000 1.758150 
# 
# From -- ./inp_files/5557.got.cif
#   From: 2010.06.25/outbox.cif.g09.slc.cpg/sg15_3_cif.got.tgz:5557.got - 2010.06.28 07:06:18.
