data_PCOD8133616
_publ_section_title
;
Structure prediction by ZEFSAII (Michael W. Deem and Ramdas Pophale) SiO2 
 PCOD8133616
Probable space group: C 2/C
;
_chemical_formula_sum "Si O2"
_cell_formula_units_Z 60
_cell_length_a 26.060708
_cell_length_b 23.918920
_cell_length_c 8.053747
_cell_angle_alpha 90.000000
_cell_angle_beta 141.363323
_cell_angle_gamma 90.000000
_cell_volume 3134.545414
_symmetry_space_group_name_H-M "C 2/C"
_symmetry_group_IT_number 15
_symmetry_cell_setting 'monoclinic'
loop_
_space_group_symop_operation_xyz
x,y,z
-x,y,1/2-z
-x,-y,-z
x,-y,1/2+z
1/2+x,1/2+y,z
1/2-x,1/2+y,1/2-z
1/2-x,1/2-y,-z
1/2+x,1/2-y,1/2+z
loop_
_atom_site_type_symbol
_atom_site_label
_atom_site_fract_x
_atom_site_fract_y
_atom_site_fract_z
Si Si1 0.652976 0.266290 0.516577
Si Si2 0.904350 0.728519 0.486668
Si Si3 0.339050 0.569435 0.063980
Si Si4 0.000000 0.184022 0.750000
Si Si5 0.986126 0.897100 0.527556
Si Si6 0.291730 0.314467 0.359347
Si Si7 0.814550 0.955672 0.138524
Si Si8 0.264903 0.147816 0.144875
O O1 0.612255 0.249938 0.239747
O O2 0.581582 0.277422 0.472080
O O3 0.712247 0.216916 0.734256
O O4 0.708328 0.321630 0.637743
O O5 0.869369 0.772769 0.533269
O O6 0.858622 0.668661 0.398058
O O7 0.000000 0.718136 0.750000
O O8 0.315212 0.634215 0.043074
O O9 0.298513 0.554224 0.788760
O O10 0.437422 0.562075 0.313389
O O11 0.303333 0.522483 0.095661
O O12 0.014612 0.149551 0.617499
O O13 0.000000 0.870656 0.750000
O O14 0.904177 0.933720 0.308155
O O15 0.271668 0.336155 0.126070
O O16 0.745978 0.919512 0.863111
#
# Coordination Sequence:
#
# PCOD8133616 Si02
#       8
#     8   8   8   4   8   8   8   8
#     4   9  18  32  49  76 107 141 176 217 268 326
#     4   9  17  28  55  78 102 136 178 223 273 323
#     4  10  21  32  53  75 102 145 178 221 263 314
#     4  12  22  32  60  78 110 150 178 216 274 314
#     4  10  23  36  50  79 116 144 183 220 261 323
#     4   8  17  32  50  74 107 139 176 216 272 320
#     4  10  19  34  51  74 105 140 181 219 265 316
#     4   8  15  32  49  74 103 140 176 220 268 324
#
# _framework density 19.141532000000002
#
# number of rings (size 3 to 8) (size 9 to 14) (size 15 to 20)
#    0.000    2.667    1.333    2.000    5.600    0.000 
#    0.000    0.667    2.933    0.000    1.733    2.800 
#    0.000    0.000    0.000    0.000    0.000    0.000 
#
# Total GULP energy -371644.169444 kJ/mol
# GULP energy per Si atom -12388.138981 kJ/mol
# Density = 1.909796 g / cm^3
# Si number density = 19.141532 Si / 1000 Ang^3
#
#
#
# Elastic Constant Matrix: (Units=GPa)
#
#
# Indices 1 2 3 4 5 6 
#
# 1 57.3235 23.3168 24.8873 0.0000 15.3774 0.0000
# 2 23.3168 99.6843 41.8222 0.0000 9.3872 0.0000
# 3 24.8873 41.8222 74.3121 0.0000 23.5905 0.0000
# 4 0.0000 0.0000 0.0000 16.6880 0.0000 4.2217
# 5 15.3774 9.3872 23.5905 0.0000 26.9740 0.0000
# 6 0.0000 0.0000 0.0000 4.2217 0.0000 24.8659
#
#
#
# Elastic Compliance Matrix: (Units=1/GPa)
#
#
# Indices 1 2 3 4 5 6 
#
# 1 0.022436 -0.003216 -0.002767 0.000000 -0.009251 0.000000
# 2 -0.003216 0.013729 -0.007911 0.000000 0.003974 0.000000
# 3 -0.002767 -0.007911 0.024172 0.000000 -0.016809 0.000000
# 4 0.000000 0.000000 0.000000 0.062613 0.000000 -0.010630
# 5 -0.009251 0.003974 -0.016809 0.000000 0.055664 0.000000
# 6 0.000000 0.000000 0.000000 -0.010630 0.000000 0.042021
#
#
# Mechanical properties :
#
#
# Convention : Reuss Voigt Hill
#
# Bulk Modulus (GPa) = 30.72351 45.70806 38.21579
# Shear Modulus (GPa) = 19.28482 23.12516 21.20499
#
# Velocity S-wave (km/s) = 3.17753 3.47957 3.33197
# Velocity P-wave (km/s) = 5.43579 6.33040 5.90008
#
# Compressibility (1/GPa) = 0.03254836
#
# Stress axis : x y z
#
# Youngs Moduli (GPa) = 44.57124 72.84046 41.37040
#
# Poissons Ratio (x) = 0.23424 0.11448
# Poissons Ratio (y) = 0.14333 0.32728
# Poissons Ratio (z) = 0.12334 0.57624
#
# Static dielectric constant tensor:
#      x y z
#    x 3.375600 0.000000 0.137070 
#    y 0.000000 3.954230 0.000000 
#    z 0.137070 0.000000 3.478720 
# 
# 
# High freq. dielectric constant tensor:
#      x y z
#    x 1.723750 0.000000 -0.004450 
#    y 0.000000 1.730930 0.000000 
#    z -0.004450 0.000000 1.724900 
# 
# From -- ./inp_files/67674.got.cif
#   From: 2010.06.25/outbox.cif.g09.slc.cpg/sg15_34_cif.got.tgz:67674.got - 2010.06.28 07:06:18.
