data_PCOD8133865
_publ_section_title
;
Structure prediction by ZEFSAII (Michael W. Deem and Ramdas Pophale) SiO2 
 PCOD8133865
Probable space group: C 2/C
;
_chemical_formula_sum "Si O2"
_cell_formula_units_Z 40
_cell_length_a 14.092322
_cell_length_b 24.214707
_cell_length_c 8.729646
_cell_angle_alpha 90.000000
_cell_angle_beta 36.456253
_cell_angle_gamma 90.000000
_cell_volume 1770.098856
_symmetry_space_group_name_H-M "C 2/C"
_symmetry_group_IT_number 15
_symmetry_cell_setting 'monoclinic'
loop_
_space_group_symop_operation_xyz
x,y,z
-x,y,1/2-z
-x,-y,-z
x,-y,1/2+z
1/2+x,1/2+y,z
1/2-x,1/2+y,1/2-z
1/2-x,1/2-y,-z
1/2+x,1/2-y,1/2+z
loop_
_atom_site_type_symbol
_atom_site_label
_atom_site_fract_x
_atom_site_fract_y
_atom_site_fract_z
Si Si1 0.832892 0.429328 0.538115
Si Si2 0.165708 0.468462 0.621904
Si Si3 0.582665 0.712028 0.990774
Si Si4 0.191562 0.648880 0.002149
Si Si5 0.718665 0.314594 0.790073
O O1 0.860517 0.460115 0.664455
O O2 0.743281 0.473801 0.540537
O O3 0.728430 0.374437 0.696947
O O4 0.000000 0.409099 0.250000
O O5 0.251073 0.414526 0.439604
O O6 0.000000 0.478671 0.750000
O O7 0.500000 0.687584 0.250000
O O8 0.454727 0.711015 0.019274
O O9 0.735799 0.674504 0.746794
O O10 0.643781 0.773614 0.950036
O O11 0.260987 0.683100 0.054080
O O12 0.000000 0.650884 0.250000
#
# Coordination Sequence:
#
# PCOD8133865 Si02
#       5
#     8   8   8   8   8
#     4  10  19  34  58  89 123 161 205 254 305 366
#     4   9  18  32  57  88 120 160 205 248 304 370
#     4  12  25  41  63  93 127 165 210 260 311 364
#     4  10  22  42  66  92 125 168 208 251 308 375
#     4  11  24  41  62  90 126 168 208 255 310 371
#
# _framework density 22.597608000000001
#
# number of rings (size 3 to 8) (size 9 to 14) (size 15 to 20)
#    0.000    1.600    0.000    6.000    0.000    6.400 
#    0.000    1.000    0.000    0.000    0.000    0.000 
#    0.000    0.000    0.000    0.000    0.000    0.000 
#
# Total GULP energy -247893.379780 kJ/mol
# GULP energy per Si atom -12394.668989 kJ/mol
# Density = 2.254617 g / cm^3
# Si number density = 22.597608 Si / 1000 Ang^3
#
#
#
# Elastic Constant Matrix: (Units=GPa)
#
#
# Indices 1 2 3 4 5 6 
#
# 1 66.0591 28.3587 26.1706 -0.0001 -5.1605 0.0000
# 2 28.3587 132.7996 67.3340 0.0000 3.5606 0.0000
# 3 26.1706 67.3340 128.6095 -0.0001 14.4782 0.0000
# 4 -0.0001 0.0000 -0.0001 23.3991 0.0001 11.8633
# 5 -5.1605 3.5606 14.4782 0.0001 35.6205 0.0000
# 6 0.0000 0.0000 0.0000 11.8633 0.0000 23.1395
#
#
#
# Elastic Compliance Matrix: (Units=1/GPa)
#
#
# Indices 1 2 3 4 5 6 
#
# 1 0.017585 -0.002481 -0.002718 0.000000 0.003900 0.000000
# 2 -0.002481 0.010652 -0.005147 0.000000 0.000668 0.000000
# 3 -0.002718 -0.005147 0.011538 0.000000 -0.004569 0.000000
# 4 0.000000 0.000000 0.000000 0.057747 0.000000 -0.029606
# 5 0.003900 0.000668 -0.004569 0.000000 0.030429 0.000000
# 6 0.000000 0.000000 0.000000 -0.029606 0.000000 0.058395
#
#
# Mechanical properties :
#
#
# Convention : Reuss Voigt Hill
#
# Bulk Modulus (GPa) = 52.40852 63.46610 57.93731
# Shear Modulus (GPa) = 23.43031 30.13881 26.78456
#
# Velocity S-wave (km/s) = 3.22351 3.65597 3.44653
# Velocity P-wave (km/s) = 6.09074 6.77995 6.44457
#
# Compressibility (1/GPa) = 0.01908087
#
# Stress axis : x y z
#
# Youngs Moduli (GPa) = 56.86726 93.88012 86.67234
#
# Poissons Ratio (x) = 0.23296 0.23559
# Poissons Ratio (y) = 0.14112 0.44611
# Poissons Ratio (z) = 0.15458 0.48321
#
# Static dielectric constant tensor:
#      x y z
#    x 3.885340 0.000000 0.206160 
#    y 0.000000 4.543470 0.000000 
#    z 0.206160 0.000000 3.800650 
# 
# 
# High freq. dielectric constant tensor:
#      x y z
#    x 1.870910 0.000000 0.024100 
#    y 0.000000 1.912390 0.000000 
#    z 0.024100 0.000000 1.874890 
# 
# From -- ./inp_files/41960.got.cif
#   From: 2010.06.25/outbox.cif.g09.slc.cpg/sg15_21_cif.got.tgz:41960.got - 2010.06.28 07:06:18.
