data_PCOD8133063
_publ_section_title
;
Structure prediction by ZEFSAII (Michael W. Deem and Ramdas Pophale) SiO2 
 PCOD8133063
Probable space group: C 2/C
;
_chemical_formula_sum "Si O2"
_cell_formula_units_Z 64
_cell_length_a 13.125196
_cell_length_b 18.399835
_cell_length_c 15.162614
_cell_angle_alpha 90.000000
_cell_angle_beta 89.819051
_cell_angle_gamma 90.000000
_cell_volume 3661.774865
_symmetry_space_group_name_H-M "C 2/C"
_symmetry_group_IT_number 15
_symmetry_cell_setting 'monoclinic'
loop_
_space_group_symop_operation_xyz
x,y,z
-x,y,1/2-z
-x,-y,-z
x,-y,1/2+z
1/2+x,1/2+y,z
1/2-x,1/2+y,1/2-z
1/2-x,1/2-y,-z
1/2+x,1/2-y,1/2+z
loop_
_atom_site_type_symbol
_atom_site_label
_atom_site_fract_x
_atom_site_fract_y
_atom_site_fract_z
Si Si1 0.117131 0.510996 0.522605
Si Si2 0.620827 0.193248 0.751806
Si Si3 0.115702 0.763124 0.568879
Si Si4 0.616052 0.266635 0.930484
Si Si5 0.115639 0.461609 0.221832
Si Si6 0.191616 0.353553 0.556201
Si Si7 0.121562 0.619695 0.248556
Si Si8 0.691433 0.849770 0.933918
O O1 0.124633 0.547493 0.617272
O O2 0.175095 0.434176 0.518857
O O3 0.170179 0.565673 0.453935
O O4 0.000000 0.500000 0.500000
O O5 0.500000 0.184738 0.750000
O O6 0.655837 0.230634 0.661238
O O7 0.656267 0.239389 0.835334
O O8 0.667822 0.111352 0.761074
O O9 0.190499 0.830391 0.546829
O O10 0.120086 0.701832 0.493360
O O11 0.000662 0.793475 0.574664
O O12 0.688913 0.333685 0.956475
O O13 0.622643 0.201782 0.000707
O O14 0.166850 0.536994 0.253115
O O15 0.000000 0.466072 0.250000
O O16 0.158567 0.344341 0.657766
O O17 0.164574 0.664265 0.331381
O O18 0.000000 0.619381 0.250000
#
# Coordination Sequence:
#
# PCOD8133063 Si02
#       8
#     8   8   8   8   8   8   8   8
#     4  11  20  32  52  78 109 130 166 219 265 303
#     4   9  17  29  51  74 100 134 169 208 253 297
#     4  10  20  35  51  76 107 138 174 214 251 312
#     4  10  20  36  53  74 105 139 174 216 257 303
#     4   9  17  28  45  76 102 131 164 204 261 309
#     4  10  22  34  53  79 103 136 176 210 263 317
#     4  10  19  32  48  76 109 135 164 212 266 312
#     4  11  21  32  53  79 105 138 174 207 267 312
#
# _framework density 17.477861999999998
#
# number of rings (size 3 to 8) (size 9 to 14) (size 15 to 20)
#    0.000    2.000    1.250    4.500    5.250    0.000 
#    0.000    0.625    0.000    0.000    0.000    0.000 
#    0.000    0.000    0.000    0.000    0.000    0.000 
#
# Total GULP energy -396686.353116 kJ/mol
# GULP energy per Si atom -12396.448535 kJ/mol
# Density = 1.743808 g / cm^3
# Si number density = 17.477862 Si / 1000 Ang^3
#
#
#
# Elastic Constant Matrix: (Units=GPa)
#
#
# Indices 1 2 3 4 5 6 
#
# 1 83.8100 45.2648 21.2501 0.0000 0.6722 0.0000
# 2 45.2648 88.3325 30.2592 0.0000 2.6066 0.0000
# 3 21.2501 30.2592 96.4804 0.0000 3.0955 0.0000
# 4 0.0000 0.0000 0.0000 16.8035 0.0000 0.5338
# 5 0.6722 2.6066 3.0955 0.0000 21.2731 0.0000
# 6 0.0000 0.0000 0.0000 0.5338 0.0000 27.8781
#
#
#
# Elastic Compliance Matrix: (Units=1/GPa)
#
#
# Indices 1 2 3 4 5 6 
#
# 1 0.016611 -0.008146 -0.001124 0.000000 0.000637 0.000000
# 2 -0.008146 0.016698 -0.003401 0.000000 -0.001294 0.000000
# 3 -0.001124 -0.003401 0.011719 0.000000 -0.001253 0.000000
# 4 0.000000 0.000000 0.000000 0.059548 0.000000 -0.001140
# 5 0.000637 -0.001294 -0.001253 0.000000 0.047329 0.000000
# 6 0.000000 0.000000 0.000000 -0.001140 0.000000 0.035892
#
#
# Mechanical properties :
#
#
# Convention : Reuss Voigt Hill
#
# Bulk Modulus (GPa) = 50.79798 51.35235 51.07516
# Shear Modulus (GPa) = 22.75800 24.64750 23.70275
#
# Velocity S-wave (km/s) = 3.61238 3.75935 3.68660
# Velocity P-wave (km/s) = 6.82102 6.94901 6.88532
#
# Compressibility (1/GPa) = 0.01968582
#
# Stress axis : x y z
#
# Youngs Moduli (GPa) = 60.20037 59.88572 85.32823
#
# Poissons Ratio (x) = 0.48782 0.09594
# Poissons Ratio (y) = 0.49038 0.29024
# Poissons Ratio (z) = 0.06768 0.20370
#
# Static dielectric constant tensor:
#      x y z
#    x 2.938710 0.000000 -0.027180 
#    y 0.000000 3.340980 0.000000 
#    z -0.027180 0.000000 3.499660 
# 
# 
# High freq. dielectric constant tensor:
#      x y z
#    x 1.640320 0.000000 -0.002240 
#    y 0.000000 1.667720 0.000000 
#    z -0.002240 0.000000 1.695840 
# 
# From -- ./inp_files/154831.got.cif
#   From: 2010.06.25/outbox.cif.g09.slc.cpg/sg15_78_cif.got.tgz:154831.got - 2010.06.28 07:06:18.
