data_PCOD8133316
_publ_section_title
;
Structure prediction by ZEFSAII (Michael W. Deem and Ramdas Pophale) SiO2 
 PCOD8133316
Probable space group: C 2/C
;
_chemical_formula_sum "Si O2"
_cell_formula_units_Z 64
_cell_length_a 15.887510
_cell_length_b 14.285313
_cell_length_c 14.892783
_cell_angle_alpha 90.000000
_cell_angle_beta 88.360462
_cell_angle_gamma 90.000000
_cell_volume 3378.653279
_symmetry_space_group_name_H-M "C 2/C"
_symmetry_group_IT_number 15
_symmetry_cell_setting 'monoclinic'
loop_
_space_group_symop_operation_xyz
x,y,z
-x,y,1/2-z
-x,-y,-z
x,-y,1/2+z
1/2+x,1/2+y,z
1/2-x,1/2+y,1/2-z
1/2-x,1/2-y,-z
1/2+x,1/2-y,1/2+z
loop_
_atom_site_type_symbol
_atom_site_label
_atom_site_fract_x
_atom_site_fract_y
_atom_site_fract_z
Si Si1 0.257963 0.297683 0.227768
Si Si2 0.310345 0.878286 0.631509
Si Si3 0.147609 0.218191 0.604914
Si Si4 0.357448 0.085784 0.648869
Si Si5 0.468434 0.025952 0.902484
Si Si6 0.283268 0.083192 0.932918
Si Si7 0.257045 0.882403 0.977243
Si Si8 0.997137 0.328186 0.649795
O O1 0.255325 0.187451 0.199796
O O2 0.336210 0.317221 0.293158
O O3 0.173754 0.335795 0.279802
O O4 0.269628 0.353752 0.134240
O O5 0.267530 0.880880 0.534746
O O6 0.403258 0.833550 0.614423
O O7 0.319208 0.982424 0.673520
O O8 0.168529 0.138502 0.530977
O O9 0.218095 0.300078 0.591503
O O10 0.052680 0.253630 0.591378
O O11 0.458896 0.084644 0.650791
O O12 0.331849 0.110047 0.548113
O O13 0.382904 0.085189 0.906132
O O14 0.454121 0.927756 0.851940
O O15 0.500000 0.000000 0.000000
O O16 0.247300 0.978442 0.923628
O O17 0.000000 0.289985 0.750000
#
# Coordination Sequence:
#
# PCOD8133316 Si02
#       8
#     8   8   8   8   8   8   8   8
#     4  11  23  33  50  79 114 149 180 217 270 331
#     4  10  21  37  52  80 110 143 183 221 275 331
#     4  10  19  33  52  82 108 138 184 223 257 320
#     4   9  20  34  54  83 111 142 178 224 275 325
#     4  11  18  32  53  82 112 140 169 215 283 344
#     4  11  21  34  55  78 116 149 169 219 280 338
#     4   9  18  33  54  77 111 142 175 217 269 311
#     4  11  19  30  55  80 106 134 176 234 272 309
#
# _framework density 18.942457999999998
#
# number of rings (size 3 to 8) (size 9 to 14) (size 15 to 20)
#    0.000    1.750    6.250    0.375    5.250    0.000 
#    0.000    0.000    0.000    0.750    0.000   10.500 
#    0.000    0.000    0.000    0.000    0.000    0.000 
#
# Total GULP energy -396612.952834 kJ/mol
# GULP energy per Si atom -12394.154776 kJ/mol
# Density = 1.889934 g / cm^3
# Si number density = 18.942458 Si / 1000 Ang^3
#
#
#
# Elastic Constant Matrix: (Units=GPa)
#
#
# Indices 1 2 3 4 5 6 
#
# 1 60.9649 36.3568 16.3093 0.0000 -12.6313 0.0000
# 2 36.3568 78.7633 27.0629 0.0000 -12.7745 0.0000
# 3 16.3093 27.0629 60.5291 0.0000 -3.5178 0.0000
# 4 0.0000 0.0000 0.0000 39.0472 0.0000 -10.9888
# 5 -12.6313 -12.7745 -3.5178 0.0000 25.7047 0.0000
# 6 0.0000 0.0000 0.0000 -10.9888 0.0000 32.1784
#
#
#
# Elastic Compliance Matrix: (Units=1/GPa)
#
#
# Indices 1 2 3 4 5 6 
#
# 1 0.023843 -0.009242 -0.001893 0.000000 0.006864 0.000000
# 2 -0.009242 0.019779 -0.006094 0.000000 0.004454 0.000000
# 3 -0.001893 -0.006094 0.019682 0.000000 -0.001265 0.000000
# 4 0.000000 0.000000 0.000000 0.028333 0.000000 0.009676
# 5 0.006864 0.004454 -0.001265 0.000000 0.044317 0.000000
# 6 0.000000 0.000000 0.000000 0.009676 0.000000 0.034381
#
#
# Mechanical properties :
#
#
# Convention : Reuss Voigt Hill
#
# Bulk Modulus (GPa) = 34.66779 39.96836 37.31808
# Shear Modulus (GPa) = 23.31994 27.42127 25.37060
#
# Velocity S-wave (km/s) = 3.51250 3.80887 3.66369
# Velocity P-wave (km/s) = 5.89844 6.36310 6.13517
#
# Compressibility (1/GPa) = 0.02884522
#
# Stress axis : x y z
#
# Youngs Moduli (GPa) = 41.94074 50.55959 50.80712
#
# Poissons Ratio (x) = 0.46727 0.09619
# Poissons Ratio (y) = 0.38762 0.30962
# Poissons Ratio (z) = 0.07941 0.30811
#
# Static dielectric constant tensor:
#      x y z
#    x 3.344820 0.000000 -0.158870 
#    y 0.000000 3.544730 0.000000 
#    z -0.158870 0.000000 3.646690 
# 
# 
# High freq. dielectric constant tensor:
#      x y z
#    x 1.694220 0.000000 -0.007240 
#    y 0.000000 1.716670 0.000000 
#    z -0.007240 0.000000 1.749490 
# 
# From -- ./inp_files/161921.got.cif
#   From: 2010.06.25/outbox.cif.g09.slc.cpg/sg15_81_cif.got.tgz:161921.got - 2010.06.28 07:06:18.
