data_PCOD8133963
_publ_section_title
;
Structure prediction by ZEFSAII (Michael W. Deem and Ramdas Pophale) SiO2 
 PCOD8133963
Probable space group: C 2/C
;
_chemical_formula_sum "Si O2"
_cell_formula_units_Z 48
_cell_length_a 25.187680
_cell_length_b 13.458486
_cell_length_c 19.798291
_cell_angle_alpha 90.000000
_cell_angle_beta 158.838119
_cell_angle_gamma 90.000000
_cell_volume 2422.837840
_symmetry_space_group_name_H-M "C 2/C"
_symmetry_group_IT_number 15
_symmetry_cell_setting 'monoclinic'
loop_
_space_group_symop_operation_xyz
x,y,z
-x,y,1/2-z
-x,-y,-z
x,-y,1/2+z
1/2+x,1/2+y,z
1/2-x,1/2+y,1/2-z
1/2-x,1/2-y,-z
1/2+x,1/2-y,1/2+z
loop_
_atom_site_type_symbol
_atom_site_label
_atom_site_fract_x
_atom_site_fract_y
_atom_site_fract_z
Si Si1 0.657214 0.450519 0.751586
Si Si2 0.913497 0.464836 0.331751
Si Si3 0.021630 0.746168 0.566457
Si Si4 0.358172 0.461442 0.923949
Si Si5 0.574570 0.930816 0.907974
Si Si6 0.194375 0.263313 0.140076
O O1 0.621500 0.333702 0.716191
O O2 0.679877 0.479606 0.699907
O O3 0.529588 0.514007 0.636754
O O4 0.810228 0.478962 0.968910
O O5 0.961938 0.352622 0.368655
O O6 0.740333 0.468067 0.145059
O O7 0.000000 0.500000 0.500000
O O8 0.948072 0.535251 0.309617
O O9 0.074055 0.714846 0.554248
O O10 0.854677 0.783961 0.362455
O O11 0.321554 0.349697 0.903672
O O12 0.500000 0.898973 0.750000
O O13 0.665422 0.836129 0.043162
#
# Coordination Sequence:
#
# PCOD8133963 Si02
#       6
#     8   8   8   8   8   8
#     4  10  20  36  56  90 117 149 192 248 294 330
#     4  12  19  38  61  89 114 153 199 240 285 340
#     4  11  20  32  65  90 111 143 199 252 284 335
#     4  10  19  34  62  87 119 145 196 252 281 336
#     4  12  25  40  56  82 125 161 189 236 301 360
#     4  11  19  34  55  89 114 149 191 238 298 339
#
# _framework density 19.811478999999999
#
# number of rings (size 3 to 8) (size 9 to 14) (size 15 to 20)
#    0.000    1.000    5.000    5.000    0.000    0.000 
#    0.000    9.167    0.000    0.000    0.000    0.000 
#    0.000    0.000    0.000    0.000    0.000    0.000 
#
# Total GULP energy -297645.938882 kJ/mol
# GULP energy per Si atom -12401.914120 kJ/mol
# Density = 1.976639 g / cm^3
# Si number density = 19.811479 Si / 1000 Ang^3
#
#
#
# Elastic Constant Matrix: (Units=GPa)
#
#
# Indices 1 2 3 4 5 6 
#
# 1 67.8355 19.8592 37.4196 -0.0020 13.9265 -0.0018
# 2 19.8592 110.1813 37.5349 -0.0022 -1.9759 -0.0023
# 3 37.4196 37.5349 75.9861 -0.0013 17.2095 -0.0021
# 4 -0.0020 -0.0022 -0.0013 27.5195 -0.0017 10.1547
# 5 13.9265 -1.9759 17.2095 -0.0017 30.9223 -0.0015
# 6 -0.0018 -0.0023 -0.0021 10.1547 -0.0015 23.1549
#
#
#
# Elastic Compliance Matrix: (Units=1/GPa)
#
#
# Indices 1 2 3 4 5 6 
#
# 1 0.020760 -0.000827 -0.008794 0.000001 -0.004508 0.000000
# 2 -0.000827 0.011451 -0.006293 0.000001 0.004606 0.000001
# 3 -0.008794 -0.006293 0.022648 -0.000001 -0.009046 0.000000
# 4 0.000001 0.000001 -0.000001 0.043354 0.000002 -0.019013
# 5 -0.004508 0.004606 -0.009046 0.000002 0.039698 0.000001
# 6 0.000000 0.000001 0.000000 -0.019013 0.000001 0.051526
#
#
# Mechanical properties :
#
#
# Convention : Reuss Voigt Hill
#
# Bulk Modulus (GPa) = 43.41656 49.29225 46.35440
# Shear Modulus (GPa) = 21.83964 26.93195 24.38580
#
# Velocity S-wave (km/s) = 3.32380 3.69102 3.51221
# Velocity P-wave (km/s) = 6.05745 6.56502 6.31633
#
# Compressibility (1/GPa) = 0.02303268
#
# Stress axis : x y z
#
# Youngs Moduli (GPa) = 48.16940 87.32664 44.15402
#
# Poissons Ratio (x) = 0.07221 0.38828
# Poissons Ratio (y) = 0.03983 0.27784
# Poissons Ratio (z) = 0.42359 0.54951
#
# Static dielectric constant tensor:
#      x y z
#    x 3.429890 0.000000 0.516370 
#    y 0.000000 3.859100 0.000000 
#    z 0.516370 0.000000 3.472810 
# 
# 
# High freq. dielectric constant tensor:
#      x y z
#    x 1.738490 0.000000 0.053800 
#    y 0.000000 1.790800 0.000000 
#    z 0.053800 0.000000 1.747840 
# 
# From -- ./inp_files/257759.got.cif
#   From: 2010.06.25/outbox.cif.g09.slc.cpg/sg15_129_cif.got.tgz:257759.got - 2010.06.28 07:06:18.
