data_PCOD8133724
_publ_section_title
;
Structure prediction by ZEFSAII (Michael W. Deem and Ramdas Pophale) SiO2 
 PCOD8133724
Probable space group: C 2/C
;
_chemical_formula_sum "Si O2"
_cell_formula_units_Z 64
_cell_length_a 19.330196
_cell_length_b 14.004119
_cell_length_c 17.692314
_cell_angle_alpha 90.000000
_cell_angle_beta 44.102454
_cell_angle_gamma 90.000000
_cell_volume 3333.118124
_symmetry_space_group_name_H-M "C 2/C"
_symmetry_group_IT_number 15
_symmetry_cell_setting 'monoclinic'
loop_
_space_group_symop_operation_xyz
x,y,z
-x,y,1/2-z
-x,-y,-z
x,-y,1/2+z
1/2+x,1/2+y,z
1/2-x,1/2+y,1/2-z
1/2-x,1/2-y,-z
1/2+x,1/2-y,1/2+z
loop_
_atom_site_type_symbol
_atom_site_label
_atom_site_fract_x
_atom_site_fract_y
_atom_site_fract_z
Si Si1 0.759791 0.009876 0.170841
Si Si2 0.921970 0.817553 0.685027
Si Si3 0.702348 0.181903 0.312844
Si Si4 0.105380 0.999186 0.191660
Si Si5 0.853649 0.132777 0.715762
Si Si6 0.751684 0.899715 0.034436
Si Si7 0.043656 0.096739 0.495320
Si Si8 0.884295 0.717642 0.964546
O O1 0.695697 0.078612 0.276455
O O2 0.807443 0.927205 0.183719
O O3 0.705511 0.958268 0.142566
O O4 0.843609 0.078101 0.067031
O O5 0.805935 0.789814 0.773823
O O6 0.927959 0.912920 0.729286
O O7 0.959642 0.829533 0.570585
O O8 0.001046 0.737728 0.652554
O O9 0.685203 0.259407 0.260019
O O10 0.620930 0.181896 0.443994
O O11 0.000000 0.953972 0.250000
O O12 0.169298 0.919150 0.186998
O O13 0.176603 0.030841 0.068650
O O14 0.974324 0.136854 0.615963
O O15 0.820217 0.813789 0.009261
O O16 0.659500 0.862873 0.056936
O O17 0.000000 0.000000 0.500000
#
# Coordination Sequence:
#
# PCOD8133724 Si02
#       8
#     8   8   8   8   8   8   8   8
#     4  10  19  34  55  83 116 153 192 237 293 346
#     4  11  19  33  53  90 119 139 188 244 291 341
#     4  11  21  35  60  88 111 159 202 232 284 354
#     4  12  21  32  55  90 123 144 179 246 315 357
#     4  11  19  34  56  82 115 150 195 236 294 349
#     4  11  21  33  53  86 126 154 177 241 307 347
#     4   9  14  27  53  78 112 139 178 237 287 329
#     4  11  20  34  56  90 122 147 191 245 300 349
#
# _framework density 19.201239000000001
#
# number of rings (size 3 to 8) (size 9 to 14) (size 15 to 20)
#    0.000    1.250    8.750    1.500    0.000    0.000 
#    0.000    0.625    0.000    3.000    3.250    0.000 
#    0.000    0.000    0.000    0.000    0.000    0.000 
#
# Total GULP energy -396420.087462 kJ/mol
# GULP energy per Si atom -12388.127733 kJ/mol
# Density = 1.915754 g / cm^3
# Si number density = 19.201239 Si / 1000 Ang^3
#
#
#
# Elastic Constant Matrix: (Units=GPa)
#
#
# Indices 1 2 3 4 5 6 
#
# 1 66.7447 30.1009 14.3540 0.0000 13.4471 0.0000
# 2 30.1009 55.3960 18.8148 0.0000 16.7055 0.0000
# 3 14.3540 18.8148 51.9839 0.0000 20.8736 0.0000
# 4 0.0000 0.0000 0.0000 27.7372 0.0000 7.3737
# 5 13.4471 16.7055 20.8736 0.0000 27.2750 0.0000
# 6 0.0000 0.0000 0.0000 7.3737 0.0000 27.8545
#
#
#
# Elastic Compliance Matrix: (Units=1/GPa)
#
#
# Indices 1 2 3 4 5 6 
#
# 1 0.020205 -0.009694 -0.000656 0.000000 -0.003522 0.000000
# 2 -0.009694 0.027299 -0.003478 0.000000 -0.009279 0.000000
# 3 -0.000656 -0.003478 0.028427 0.000000 -0.019302 0.000000
# 4 0.000000 0.000000 0.000000 0.038782 0.000000 -0.010266
# 5 -0.003522 -0.009279 -0.019302 0.000000 0.058855 0.000000
# 6 0.000000 0.000000 0.000000 -0.010266 0.000000 0.038619
#
#
# Mechanical properties :
#
#
# Convention : Reuss Voigt Hill
#
# Bulk Modulus (GPa) = 20.71470 33.40710 27.06090
# Shear Modulus (GPa) = 19.53628 23.96365 21.74996
#
# Velocity S-wave (km/s) = 3.19321 3.53657 3.36927
# Velocity P-wave (km/s) = 4.94035 5.84060 5.40924
#
# Compressibility (1/GPa) = 0.04827489
#
# Stress axis : x y z
#
# Youngs Moduli (GPa) = 49.49275 36.63165 35.17775
#
# Poissons Ratio (x) = 0.35511 0.02309
# Poissons Ratio (y) = 0.47978 0.12234
# Poissons Ratio (z) = 0.03248 0.12739
#
# Static dielectric constant tensor:
#      x y z
#    x 3.646170 0.000000 -0.038530 
#    y 0.000000 3.379640 0.000000 
#    z -0.038530 0.000000 3.696710 
# 
# 
# High freq. dielectric constant tensor:
#      x y z
#    x 1.723440 0.000000 0.011780 
#    y 0.000000 1.716740 0.000000 
#    z 0.011780 0.000000 1.741810 
# 
# From -- ./inp_files/162259.got.cif
#   From: 2010.06.25/outbox.cif.g09.slc.cpg/sg15_82_cif.got.tgz:162259.got - 2010.06.28 07:06:18.
