data_PCOD8133410
_publ_section_title
;
Structure prediction by ZEFSAII (Michael W. Deem and Ramdas Pophale) SiO2 
 PCOD8133410
Probable space group: C 2/C
;
_chemical_formula_sum "Si O2"
_cell_formula_units_Z 56
_cell_length_a 22.933796
_cell_length_b 16.548144
_cell_length_c 12.630668
_cell_angle_alpha 90.000000
_cell_angle_beta 39.750535
_cell_angle_gamma 90.000000
_cell_volume 3065.176973
_symmetry_space_group_name_H-M "C 2/C"
_symmetry_group_IT_number 15
_symmetry_cell_setting 'monoclinic'
loop_
_space_group_symop_operation_xyz
x,y,z
-x,y,1/2-z
-x,-y,-z
x,-y,1/2+z
1/2+x,1/2+y,z
1/2-x,1/2+y,1/2-z
1/2-x,1/2-y,-z
1/2+x,1/2-y,1/2+z
loop_
_atom_site_type_symbol
_atom_site_label
_atom_site_fract_x
_atom_site_fract_y
_atom_site_fract_z
Si Si1 0.755608 0.337813 0.870032
Si Si2 0.595554 0.221483 0.059063
Si Si3 0.741898 0.406969 0.668303
Si Si4 0.868102 0.197425 0.626893
Si Si5 0.223366 0.410464 0.434407
Si Si6 0.427235 0.299801 0.632879
Si Si7 0.339060 0.765297 0.444401
O O1 0.734673 0.400593 0.805152
O O2 0.842819 0.281951 0.719888
O O3 0.669859 0.278680 0.013126
O O4 0.773986 0.392565 0.945011
O O5 0.500000 0.234692 0.250000
O O6 0.629194 0.128437 0.021078
O O7 0.594547 0.244237 0.937396
O O8 0.769242 0.494803 0.592033
O O9 0.644321 0.374605 0.758886
O O10 0.827997 0.354492 0.507589
O O11 0.807560 0.125196 0.753418
O O12 0.851247 0.202932 0.524370
O O13 0.969748 0.169354 0.515084
O O14 0.422469 0.244159 0.745721
O O15 0.250000 0.750000 0.500000
#
# Coordination Sequence:
#
# PCOD8133410 Si02
#       7
#     8   8   8   8   8   8   8
#     4   9  19  35  52  73 102 137 173 214 257 305
#     4  10  19  34  55  77  99 134 182 217 251 305
#     4   9  21  34  50  77 107 135 168 214 266 309
#     4  10  19  33  55  79 101 135 180 215 255 308
#     4  11  20  33  54  77 106 137 168 214 269 314
#     4  10  19  34  55  76 102 137 176 217 255 306
#     4   9  18  35  53  73 103 140 177 208 246 305
#
# _framework density 18.269745
#
# number of rings (size 3 to 8) (size 9 to 14) (size 15 to 20)
#    0.000    2.286    0.000    6.429    0.000    4.000 
#    0.000    2.857    0.000    7.714    0.000    0.000 
#    0.000    0.000    0.000    0.000    0.000    0.000 
#
# Total GULP energy -347062.005375 kJ/mol
# GULP energy per Si atom -12395.071621 kJ/mol
# Density = 1.822816 g / cm^3
# Si number density = 18.269745 Si / 1000 Ang^3
#
#
#
# Elastic Constant Matrix: (Units=GPa)
#
#
# Indices 1 2 3 4 5 6 
#
# 1 46.2050 9.1709 2.4591 0.0000 18.8462 0.0000
# 2 9.1709 86.0037 19.5408 0.0000 19.2614 0.0000
# 3 2.4591 19.5408 80.8051 0.0000 15.4563 0.0000
# 4 0.0000 0.0000 0.0000 19.6301 0.0000 4.7419
# 5 18.8462 19.2614 15.4563 0.0000 32.2248 0.0000
# 6 0.0000 0.0000 0.0000 4.7419 0.0000 16.6783
#
#
#
# Elastic Compliance Matrix: (Units=1/GPa)
#
#
# Indices 1 2 3 4 5 6 
#
# 1 0.028923 0.000463 0.002528 0.000000 -0.018405 0.000000
# 2 0.000463 0.013698 -0.001881 0.000000 -0.007556 0.000000
# 3 0.002528 -0.001881 0.014116 0.000000 -0.007125 0.000000
# 4 0.000000 0.000000 0.000000 0.054699 0.000000 -0.015552
# 5 -0.018405 -0.007556 -0.007125 0.000000 0.049730 0.000000
# 6 0.000000 0.000000 0.000000 -0.015552 0.000000 0.064380
#
#
# Mechanical properties :
#
#
# Convention : Reuss Voigt Hill
#
# Bulk Modulus (GPa) = 16.96129 30.59505 23.77817
# Shear Modulus (GPa) = 20.57803 25.82950 23.20376
#
# Velocity S-wave (km/s) = 3.35975 3.76411 3.56766
# Velocity P-wave (km/s) = 4.93503 5.97277 5.47853
#
# Compressibility (1/GPa) = 0.05895776
#
# Stress axis : x y z
#
# Youngs Moduli (GPa) = 34.57434 73.00491 70.84016
#
# Poissons Ratio (x) = -0.03383 -0.17910
# Poissons Ratio (y) = -0.01602 0.13327
# Poissons Ratio (z) = -0.08741 0.13734
#
# Static dielectric constant tensor:
#      x y z
#    x 3.470170 0.000000 0.135510 
#    y 0.000000 3.079120 0.000000 
#    z 0.135510 0.000000 3.817240 
# 
# 
# High freq. dielectric constant tensor:
#      x y z
#    x 1.714330 0.000000 0.013670 
#    y 0.000000 1.672880 0.000000 
#    z 0.013670 0.000000 1.723530 
# 
# From -- ./inp_files/119211.got.cif
#   From: 2010.06.25/outbox.cif.g09.slc.cpg/sg15_60_cif.got.tgz:119211.got - 2010.06.28 07:06:18.
