data_PCOD8133575
_publ_section_title
;
Structure prediction by ZEFSAII (Michael W. Deem and Ramdas Pophale) SiO2 
 PCOD8133575
Probable space group: C 2/C
;
_chemical_formula_sum "Si O2"
_cell_formula_units_Z 40
_cell_length_a 15.888982
_cell_length_b 18.662152
_cell_length_c 7.631419
_cell_angle_alpha 90.000000
_cell_angle_beta 119.115300
_cell_angle_gamma 90.000000
_cell_volume 1976.954889
_symmetry_space_group_name_H-M "C 2/C"
_symmetry_group_IT_number 15
_symmetry_cell_setting 'monoclinic'
loop_
_space_group_symop_operation_xyz
x,y,z
-x,y,1/2-z
-x,-y,-z
x,-y,1/2+z
1/2+x,1/2+y,z
1/2-x,1/2+y,1/2-z
1/2-x,1/2-y,-z
1/2+x,1/2-y,1/2+z
loop_
_atom_site_type_symbol
_atom_site_label
_atom_site_fract_x
_atom_site_fract_y
_atom_site_fract_z
Si Si1 0.675084 0.079997 0.227033
Si Si2 0.500000 0.697636 0.250000
Si Si3 0.388414 0.580964 0.310101
Si Si4 0.590334 0.057229 0.473819
Si Si5 0.484624 0.187988 0.436452
Si Si6 0.000000 0.957221 0.250000
O O1 0.775627 0.079840 0.231734
O O2 0.685241 0.071034 0.448350
O O3 0.620755 0.154331 0.134381
O O4 0.606061 0.013741 0.100201
O O5 0.408879 0.645616 0.195122
O O6 0.512004 0.744005 0.435678
O O7 0.416174 0.505770 0.249941
O O8 0.450484 0.592060 0.551338
O O9 0.500000 0.051646 0.250000
O O10 0.567026 0.127962 0.569067
O O11 0.500000 0.212730 0.250000
#
# Coordination Sequence:
#
# PCOD8133575 Si02
#       6
#     8   4   8   8   8   4
#     4  10  19  33  60  87 116 144 203 243 281 341
#     4  11  24  38  62  80 123 166 190 226 305 352
#     4  10  21  38  61  89 108 157 195 243 292 343
#     4   9  18  33  56  89 118 151 183 241 301 332
#     4   9  21  38  56  86 122 158 187 232 295 354
#     4   9  20  40  60  82 119 142 200 252 293 328
#
# _framework density 20.233136999999999
#
# number of rings (size 3 to 8) (size 9 to 14) (size 15 to 20)
#    0.000    2.800    0.000    3.600    5.600    0.800 
#    0.000    4.000    4.400    0.000    0.000    0.000 
#    0.000    0.000    0.000    0.000    0.000    0.000 
#
# Total GULP energy -247789.577742 kJ/mol
# GULP energy per Si atom -12389.478887 kJ/mol
# Density = 2.018709 g / cm^3
# Si number density = 20.233137 Si / 1000 Ang^3
#
#
#
# Elastic Constant Matrix: (Units=GPa)
#
#
# Indices 1 2 3 4 5 6 
#
# 1 141.1569 36.9735 26.9166 0.0000 -2.7089 0.0000
# 2 36.9735 97.3129 40.5035 0.0000 -7.5254 0.0000
# 3 26.9166 40.5035 52.6327 0.0000 -10.1309 0.0000
# 4 0.0000 0.0000 0.0000 26.8525 0.0000 -17.8466
# 5 -2.7089 -7.5254 -10.1309 0.0000 25.1785 0.0000
# 6 0.0000 0.0000 0.0000 -17.8466 0.0000 29.9538
#
#
#
# Elastic Compliance Matrix: (Units=1/GPa)
#
#
# Indices 1 2 3 4 5 6 
#
# 1 0.008120 -0.001993 -0.002781 0.000000 -0.000841 0.000000
# 2 -0.001993 0.015608 -0.010987 0.000000 0.000030 0.000000
# 3 -0.002781 -0.010987 0.030553 0.000000 0.008711 0.000000
# 4 0.000000 0.000000 0.000000 0.061655 0.000000 0.036734
# 5 -0.000841 0.000030 0.008711 0.000000 0.043140 0.000000
# 6 0.000000 0.000000 0.000000 0.036734 0.000000 0.055271
#
#
# Mechanical properties :
#
#
# Convention : Reuss Voigt Hill
#
# Bulk Modulus (GPa) = 43.93456 55.54331 49.73894
# Shear Modulus (GPa) = 19.72729 28.84421 24.28575
#
# Velocity S-wave (km/s) = 3.12589 3.77980 3.46829
# Velocity P-wave (km/s) = 5.89826 6.82352 6.37769
#
# Compressibility (1/GPa) = 0.02276112
#
# Stress axis : x y z
#
# Youngs Moduli (GPa) = 123.14534 64.06801 32.72976
#
# Poissons Ratio (x) = 0.12767 0.09103
# Poissons Ratio (y) = 0.24540 0.35959
# Poissons Ratio (z) = 0.34249 0.70389
#
# Static dielectric constant tensor:
#      x y z
#    x 3.964710 0.000000 -0.416550 
#    y 0.000000 3.626720 0.000000 
#    z -0.416550 0.000000 3.433870 
# 
# 
# High freq. dielectric constant tensor:
#      x y z
#    x 1.811770 0.000000 -0.029670 
#    y 0.000000 1.780010 0.000000 
#    z -0.029670 0.000000 1.755380 
# 
# From -- ./inp_files/38999.got.cif
#   From: 2010.06.25/outbox.cif.g09.slc.cpg/sg15_20_cif.got.tgz:38999.got - 2010.06.28 07:06:18.
