data_PCOD8133969
_publ_section_title
;
Structure prediction by ZEFSAII (Michael W. Deem and Ramdas Pophale) SiO2 
 PCOD8133969
Probable space group: C 2/C
;
_chemical_formula_sum "Si O2"
_cell_formula_units_Z 64
_cell_length_a 12.881206
_cell_length_b 19.001997
_cell_length_c 12.663308
_cell_angle_alpha 90.000000
_cell_angle_beta 89.296197
_cell_angle_gamma 90.000000
_cell_volume 3099.346806
_symmetry_space_group_name_H-M "C 2/C"
_symmetry_group_IT_number 15
_symmetry_cell_setting 'monoclinic'
loop_
_space_group_symop_operation_xyz
x,y,z
-x,y,1/2-z
-x,-y,-z
x,-y,1/2+z
1/2+x,1/2+y,z
1/2-x,1/2+y,1/2-z
1/2-x,1/2-y,-z
1/2+x,1/2-y,1/2+z
loop_
_atom_site_type_symbol
_atom_site_label
_atom_site_fract_x
_atom_site_fract_y
_atom_site_fract_z
Si Si1 0.107578 0.960506 0.712322
Si Si2 0.345520 0.160353 0.467579
Si Si3 0.252697 0.393390 0.953796
Si Si4 0.950164 0.332808 0.636143
Si Si5 0.946563 0.091209 0.916844
Si Si6 0.797006 0.030989 0.073190
Si Si7 0.708836 0.295413 0.145401
Si Si8 0.857098 0.819171 0.122660
O O1 0.152297 0.906835 0.626351
O O2 0.192382 0.971153 0.802191
O O3 0.000000 0.924977 0.750000
O O4 0.087272 0.039961 0.675938
O O5 0.468150 0.146840 0.456637
O O6 0.285284 0.088662 0.457715
O O7 0.315386 0.212814 0.370484
O O8 0.318670 0.190818 0.584767
O O9 0.150419 0.380370 0.885186
O O10 0.243998 0.460194 0.030827
O O11 0.276545 0.324345 0.025937
O O12 0.925539 0.250489 0.623614
O O13 0.000000 0.349443 0.750000
O O14 0.881494 0.162931 0.914305
O O15 0.067592 0.112087 0.898258
O O16 0.913486 0.049274 0.024943
O O17 0.709063 0.319528 0.267578
#
# Coordination Sequence:
#
# PCOD8133969 Si02
#       8
#     8   8   8   8   8   8   8   8
#     4  11  21  37  60  92 130 169 199 253 323 382
#     4  10  21  38  61  89 117 164 219 253 302 369
#     4  11  26  40  60  96 129 161 211 264 309 376
#     4  12  23  42  64  89 124 171 212 253 311 375
#     4  10  19  34  62  93 120 158 210 254 310 380
#     4  10  22  39  60  88 130 164 203 262 317 369
#     4  10  19  35  62  92 118 156 213 260 302 369
#     4  12  21  39  64  94 123 160 202 265 318 364
#
# _framework density 20.649512999999999
#
# number of rings (size 3 to 8) (size 9 to 14) (size 15 to 20)
#    0.000    1.250    2.500    4.500    0.000    2.500 
#    0.000    0.625    0.000    0.000    0.000    0.000 
#    0.000    0.000    0.000    0.000    0.000    0.000 
#
# Total GULP energy -396637.919101 kJ/mol
# GULP energy per Si atom -12394.934972 kJ/mol
# Density = 2.060251 g / cm^3
# Si number density = 20.649513 Si / 1000 Ang^3
#
#
#
# Elastic Constant Matrix: (Units=GPa)
#
#
# Indices 1 2 3 4 5 6 
#
# 1 102.7397 21.8139 41.7648 0.0000 -14.8054 0.0000
# 2 21.8139 59.4773 29.8970 0.0000 -0.4501 0.0000
# 3 41.7648 29.8970 120.2431 0.0000 -5.3339 0.0000
# 4 0.0000 0.0000 0.0000 27.4287 0.0000 -1.5870
# 5 -14.8054 -0.4501 -5.3339 0.0000 38.4868 0.0000
# 6 0.0000 0.0000 0.0000 -1.5870 0.0000 30.7101
#
#
#
# Elastic Compliance Matrix: (Units=1/GPa)
#
#
# Indices 1 2 3 4 5 6 
#
# 1 0.012315 -0.002776 -0.003399 0.000000 0.004234 0.000000
# 2 -0.002776 0.019848 -0.004033 0.000000 -0.001395 0.000000
# 3 -0.003399 -0.004033 0.010504 0.000000 0.000101 0.000000
# 4 0.000000 0.000000 0.000000 0.036567 0.000000 0.001890
# 5 0.004234 -0.001395 0.000101 0.000000 0.027609 0.000000
# 6 0.000000 0.000000 0.000000 0.001890 0.000000 0.032660
#
#
# Mechanical properties :
#
#
# Convention : Reuss Voigt Hill
#
# Bulk Modulus (GPa) = 44.94142 52.15684 48.54913
# Shear Modulus (GPa) = 29.87996 31.92409 30.90202
#
# Velocity S-wave (km/s) = 3.80808 3.93618 3.87266
# Velocity P-wave (km/s) = 6.41455 6.78019 6.59990
#
# Compressibility (1/GPa) = 0.02225119
#
# Stress axis : x y z
#
# Youngs Moduli (GPa) = 81.20387 50.38375 95.19861
#
# Poissons Ratio (x) = 0.13985 0.32362
# Poissons Ratio (y) = 0.22540 0.38390
# Poissons Ratio (z) = 0.27604 0.20318
#
# Static dielectric constant tensor:
#      x y z
#    x 3.794240 0.000000 -0.343940 
#    y 0.000000 3.686050 0.000000 
#    z -0.343940 0.000000 3.916740 
# 
# 
# High freq. dielectric constant tensor:
#      x y z
#    x 1.790820 0.000000 -0.019300 
#    y 0.000000 1.808050 0.000000 
#    z -0.019300 0.000000 1.811920 
# 
# From -- ./inp_files/98786.got.cif
#   From: 2010.06.25/outbox.cif.g09.slc.cpg/sg15_50_cif.got.tgz:98786.got - 2010.06.28 07:06:18.
