data_PCOD8133065
_publ_section_title
;
Structure prediction by ZEFSAII (Michael W. Deem and Ramdas Pophale) SiO2 
 PCOD8133065
Probable space group: C 2/C
;
_chemical_formula_sum "Si O2"
_cell_formula_units_Z 56
_cell_length_a 6.142812
_cell_length_b 23.033757
_cell_length_c 23.768140
_cell_angle_alpha 90.000000
_cell_angle_beta 58.106288
_cell_angle_gamma 90.000000
_cell_volume 2855.289001
_symmetry_space_group_name_H-M "C 2/C"
_symmetry_group_IT_number 15
_symmetry_cell_setting 'monoclinic'
loop_
_space_group_symop_operation_xyz
x,y,z
-x,y,1/2-z
-x,-y,-z
x,-y,1/2+z
1/2+x,1/2+y,z
1/2-x,1/2+y,1/2-z
1/2-x,1/2-y,-z
1/2+x,1/2-y,1/2+z
loop_
_atom_site_type_symbol
_atom_site_label
_atom_site_fract_x
_atom_site_fract_y
_atom_site_fract_z
Si Si1 0.500000 0.565471 0.250000
Si Si2 0.026966 0.608486 0.640668
Si Si3 0.599873 0.299580 0.357438
Si Si4 0.479854 0.013591 0.318089
Si Si5 0.756750 0.873451 0.683861
Si Si6 0.500000 0.659002 0.750000
Si Si7 0.161013 0.784941 0.594675
Si Si8 0.971584 0.680550 0.545396
O O1 0.544978 0.606196 0.296726
O O2 0.735585 0.525733 0.199052
O O3 0.223681 0.646736 0.649388
O O4 0.122533 0.541927 0.633854
O O5 0.742352 0.618021 0.704618
O O6 0.018019 0.621937 0.575130
O O7 0.560172 0.299176 0.295265
O O8 0.730810 0.238871 0.360043
O O9 0.326913 0.307361 0.425880
O O10 0.500000 0.997393 0.250000
O O11 0.306367 0.071922 0.349163
O O12 0.500000 0.851255 0.750000
O O13 0.896481 0.820874 0.633470
O O14 0.381561 0.823368 0.534265
O O15 0.096534 0.729872 0.566373
#
# Coordination Sequence:
#
# PCOD8133065 Si02
#       8
#     4   8   8   8   8   4   8   8
#     4   8  17  34  50  78 106 146 178 211 272 328
#     4  10  19  34  54  84 112 142 179 234 280 334
#     4  10  20  34  52  80 110 146 183 227 282 334
#     4   9  17  31  55  77 109 144 179 222 278 335
#     4   9  20  36  53  82 107 141 187 221 276 330
#     4  10  19  32  48  82 120 136 180 233 288 340
#     4  10  20  40  56  75 110 154 184 228 267 336
#     4   9  21  37  57  78 106 148 195 220 274 331
#
# _framework density 19.612727
#
# number of rings (size 3 to 8) (size 9 to 14) (size 15 to 20)
#    0.000    2.857    0.000    2.143    0.000    5.714 
#   21.857    0.714    0.000    1.714    0.000    0.000 
#    0.000    0.000    0.000    0.000    0.000    0.000 
#
# Total GULP energy -347037.611494 kJ/mol
# GULP energy per Si atom -12394.200410 kJ/mol
# Density = 1.956809 g / cm^3
# Si number density = 19.612727 Si / 1000 Ang^3
#
#
#
# Elastic Constant Matrix: (Units=GPa)
#
#
# Indices 1 2 3 4 5 6 
#
# 1 107.7202 25.1009 28.6999 0.0000 -9.2791 0.0000
# 2 25.1009 83.8651 38.2613 0.0000 -1.9078 0.0000
# 3 28.6999 38.2613 76.2967 0.0000 -11.6179 0.0000
# 4 0.0000 0.0000 0.0000 16.5973 0.0000 0.0092
# 5 -9.2791 -1.9078 -11.6179 0.0000 27.3785 0.0000
# 6 0.0000 0.0000 0.0000 0.0092 0.0000 21.6211
#
#
#
# Elastic Compliance Matrix: (Units=1/GPa)
#
#
# Indices 1 2 3 4 5 6 
#
# 1 0.010646 -0.001904 -0.002695 0.000000 0.002332 0.000000
# 2 -0.001904 0.015946 -0.007708 0.000000 -0.002805 0.000000
# 3 -0.002695 -0.007708 0.018992 0.000000 0.006609 0.000000
# 4 0.000000 0.000000 0.000000 0.060251 0.000000 -0.000026
# 5 0.002332 -0.002805 0.006609 0.000000 0.039924 0.000000
# 6 0.000000 0.000000 0.000000 -0.000026 0.000000 0.046251
#
#
# Mechanical properties :
#
#
# Convention : Reuss Voigt Hill
#
# Bulk Modulus (GPa) = 47.68364 50.22290 48.95327
# Shear Modulus (GPa) = 22.36003 24.84072 23.60038
#
# Velocity S-wave (km/s) = 3.38017 3.56274 3.47265
# Velocity P-wave (km/s) = 6.29281 6.52587 6.41040
#
# Compressibility (1/GPa) = 0.02097155
#
# Stress axis : x y z
#
# Youngs Moduli (GPa) = 93.93408 62.71019 52.65383
#
# Poissons Ratio (x) = 0.11939 0.14189
# Poissons Ratio (y) = 0.17884 0.40584
# Poissons Ratio (z) = 0.25312 0.48335
#
# Static dielectric constant tensor:
#      x y z
#    x 3.773300 0.000000 -0.063670 
#    y 0.000000 3.423980 0.000000 
#    z -0.063670 0.000000 3.533460 
# 
# 
# High freq. dielectric constant tensor:
#      x y z
#    x 1.784070 0.000000 -0.006440 
#    y 0.000000 1.748050 0.000000 
#    z -0.006440 0.000000 1.731840 
# 
# From -- ./inp_files/227873.got.cif
#   From: 2010.06.25/outbox.cif.g09.slc.cpg/sg15_114_cif.got.tgz:227873.got - 2010.06.28 07:06:18.
