data_PCOD8133236
_publ_section_title
;
Structure prediction by ZEFSAII (Michael W. Deem and Ramdas Pophale) SiO2 
 PCOD8133236
Probable space group: C 2/C
;
_chemical_formula_sum "Si O2"
_cell_formula_units_Z 64
_cell_length_a 26.042832
_cell_length_b 7.931591
_cell_length_c 20.202633
_cell_angle_alpha 90.000000
_cell_angle_beta 126.040793
_cell_angle_gamma 90.000000
_cell_volume 3374.343732
_symmetry_space_group_name_H-M "C 2/C"
_symmetry_group_IT_number 15
_symmetry_cell_setting 'monoclinic'
loop_
_space_group_symop_operation_xyz
x,y,z
-x,y,1/2-z
-x,-y,-z
x,-y,1/2+z
1/2+x,1/2+y,z
1/2-x,1/2+y,1/2-z
1/2-x,1/2-y,-z
1/2+x,1/2-y,1/2+z
loop_
_atom_site_type_symbol
_atom_site_label
_atom_site_fract_x
_atom_site_fract_y
_atom_site_fract_z
Si Si1 0.851773 0.009358 0.021494
Si Si2 0.185825 0.783081 0.752226
Si Si3 0.072750 0.384925 0.232536
Si Si4 0.928815 0.320133 0.116799
Si Si5 0.773692 0.993541 0.833283
Si Si6 0.210445 0.000009 0.890485
Si Si7 0.659686 0.876126 0.968803
Si Si8 0.338540 0.828220 0.678682
O O1 0.911776 0.137185 0.072625
O O2 0.805272 0.058945 0.047008
O O3 0.870527 0.809624 0.038676
O O4 0.817882 0.051876 0.927022
O O5 0.115601 0.711715 0.711465
O O6 0.238045 0.646939 0.770466
O O7 0.181433 0.914821 0.689241
O O8 0.213078 0.844779 0.843317
O O9 0.081902 0.306814 0.312491
O O10 0.095126 0.581972 0.250725
O O11 0.001013 0.367740 0.154261
O O12 0.889194 0.472477 0.053319
O O13 0.718266 0.869750 0.814998
O O14 0.155033 0.125534 0.820218
O O15 0.277742 0.098337 0.939341
O O16 0.681842 0.889868 0.909791
#
# Coordination Sequence:
#
# PCOD8133236 Si02
#       8
#     8   8   8   8   8   8   8   8
#     4  11  20  35  59  87 115 151 193 245 289 345
#     4  11  23  35  57  84 117 153 188 240 295 354
#     4   9  20  38  54  80 121 155 194 240 274 348
#     4  10  20  37  57  85 116 159 199 234 287 335
#     4  11  21  35  54  85 116 150 185 238 302 344
#     4  11  18  34  58  90 115 141 192 245 303 346
#     4  10  19  32  58  88 119 142 187 248 295 341
#     4   9  17  33  55  82 114 144 181 236 296 340
#
# _framework density 18.966650000000001
#
# number of rings (size 3 to 8) (size 9 to 14) (size 15 to 20)
#    0.000    1.750    3.750    2.250    0.000    1.000 
#    2.250    1.875    0.000    0.750    0.000    0.000 
#    0.000    0.000    0.000    0.000    0.000    0.000 
#
# Total GULP energy -396610.708798 kJ/mol
# GULP energy per Si atom -12394.084650 kJ/mol
# Density = 1.892348 g / cm^3
# Si number density = 18.966650 Si / 1000 Ang^3
#
#
#
# Elastic Constant Matrix: (Units=GPa)
#
#
# Indices 1 2 3 4 5 6 
#
# 1 89.7185 39.8943 45.7342 0.0000 8.5386 0.0000
# 2 39.8943 82.5815 31.9439 0.0001 14.3172 0.0000
# 3 45.7342 31.9439 73.4024 0.0000 7.3191 0.0000
# 4 0.0000 0.0001 0.0000 30.3303 0.0000 -0.4836
# 5 8.5386 14.3172 7.3191 0.0000 29.0647 0.0000
# 6 0.0000 0.0000 0.0000 -0.4836 0.0000 21.7284
#
#
#
# Elastic Compliance Matrix: (Units=1/GPa)
#
#
# Indices 1 2 3 4 5 6 
#
# 1 0.018056 -0.005174 -0.008948 0.000000 -0.000502 0.000000
# 2 -0.005174 0.017033 -0.003594 0.000000 -0.005965 0.000000
# 3 -0.008948 -0.003594 0.020848 0.000000 -0.000851 0.000000
# 4 0.000000 0.000000 0.000000 0.032982 0.000000 0.000734
# 5 -0.000502 -0.005965 -0.000851 0.000000 0.037706 0.000000
# 6 0.000000 0.000000 0.000000 0.000734 0.000000 0.046039
#
#
# Mechanical properties :
#
#
# Convention : Reuss Voigt Hill
#
# Bulk Modulus (GPa) = 48.77056 53.42748 51.09902
# Shear Modulus (GPa) = 23.26320 24.76666 24.01493
#
# Velocity S-wave (km/s) = 3.50599 3.61751 3.56218
# Velocity P-wave (km/s) = 6.49299 6.75861 6.62713
#
# Compressibility (1/GPa) = 0.02050417
#
# Stress axis : x y z
#
# Youngs Moduli (GPa) = 55.38373 58.70843 47.96710
#
# Poissons Ratio (x) = 0.30377 0.42921
# Poissons Ratio (y) = 0.28657 0.17239
# Poissons Ratio (z) = 0.49558 0.21100
#
# Static dielectric constant tensor:
#      x y z
#    x 3.235240 0.000000 0.022570 
#    y 0.000000 3.615780 0.000000 
#    z 0.022570 0.000000 3.242560 
# 
# 
# High freq. dielectric constant tensor:
#      x y z
#    x 1.709420 0.000000 -0.004930 
#    y 0.000000 1.746510 0.000000 
#    z -0.004930 0.000000 1.714040 
# 
# From -- ./inp_files/257018.got.cif
#   From: 2010.06.25/outbox.cif.g09.slc.cpg/sg15_129_cif.got.tgz:257018.got - 2010.06.28 07:06:18.
