data_PCOD8133703
_publ_section_title
;
Structure prediction by ZEFSAII (Michael W. Deem and Ramdas Pophale) SiO2 
 PCOD8133703
Probable space group: C 2/C
;
_chemical_formula_sum "Si O2"
_cell_formula_units_Z 60
_cell_length_a 26.541648
_cell_length_b 14.792159
_cell_length_c 13.508373
_cell_angle_alpha 90.000000
_cell_angle_beta 146.173323
_cell_angle_gamma 90.000000
_cell_volume 2952.364914
_symmetry_space_group_name_H-M "C 2/C"
_symmetry_group_IT_number 15
_symmetry_cell_setting 'monoclinic'
loop_
_space_group_symop_operation_xyz
x,y,z
-x,y,1/2-z
-x,-y,-z
x,-y,1/2+z
1/2+x,1/2+y,z
1/2-x,1/2+y,1/2-z
1/2-x,1/2-y,-z
1/2+x,1/2-y,1/2+z
loop_
_atom_site_type_symbol
_atom_site_label
_atom_site_fract_x
_atom_site_fract_y
_atom_site_fract_z
Si Si1 0.000000 0.013667 0.750000
Si Si2 0.299024 0.373614 0.153128
Si Si3 0.158196 0.694849 0.070274
Si Si4 0.632331 0.630903 0.404797
Si Si5 0.268412 0.419660 0.619399
Si Si6 0.811961 0.788854 0.972142
Si Si7 0.029582 0.214615 0.482711
Si Si8 0.565116 0.661285 0.989381
O O1 0.906182 0.957004 0.601593
O O2 0.994261 0.074904 0.641128
O O3 0.266844 0.473342 0.126778
O O4 0.210936 0.310504 0.025053
O O5 0.380486 0.347137 0.359787
O O6 0.328999 0.360454 0.088060
O O7 0.172721 0.620581 0.006379
O O8 0.231556 0.673432 0.273373
O O9 0.169764 0.794254 0.040782
O O10 0.061004 0.695595 0.971203
O O11 0.716756 0.606898 0.471377
O O12 0.544403 0.663642 0.201621
O O13 0.348853 0.374725 0.811251
O O14 0.903871 0.784019 0.057706
O O15 0.991298 0.230147 0.531515
#
# Coordination Sequence:
#
# PCOD8133703 Si02
#       8
#     4   8   8   8   8   8   8   8
#     4  12  20  30  56  88 118 140 178 232 284 330
#     4  10  19  36  55  82 108 147 181 229 273 327
#     4  10  20  36  51  78 112 153 179 220 272 333
#     4  11  20  33  51  84 112 144 178 228 283 326
#     4  10  21  33  54  78 114 143 191 223 265 330
#     4   9  20  35  54  78 115 148 182 217 282 330
#     4  10  19  34  55  78 113 142 176 227 282 324
#     4  10  20  31  50  86 114 146 178 224 279 333
#
# _framework density 20.322692
#
# number of rings (size 3 to 8) (size 9 to 14) (size 15 to 20)
#    0.000    1.867    1.333    3.600    1.867    2.133 
#    0.000    0.000    0.000    0.800   20.800    0.000 
#    0.000    0.000    0.000    0.000    0.000    0.000 
#
# Total GULP energy -371676.179011 kJ/mol
# GULP energy per Si atom -12389.205967 kJ/mol
# Density = 2.027644 g / cm^3
# Si number density = 20.322692 Si / 1000 Ang^3
#
#
#
# Elastic Constant Matrix: (Units=GPa)
#
#
# Indices 1 2 3 4 5 6 
#
# 1 179.8432 62.4556 6.2843 0.0000 8.2505 0.0000
# 2 62.4556 68.0549 12.4153 0.0000 14.8958 0.0000
# 3 6.2843 12.4153 35.3427 0.0000 -3.5209 0.0000
# 4 0.0000 0.0000 0.0000 21.0002 0.0000 4.6356
# 5 8.2505 14.8958 -3.5209 0.0000 26.8228 0.0000
# 6 0.0000 0.0000 0.0000 4.6356 0.0000 28.3243
#
#
#
# Elastic Compliance Matrix: (Units=1/GPa)
#
#
# Indices 1 2 3 4 5 6 
#
# 1 0.008339 -0.008490 0.001737 0.000000 0.002378 0.000000
# 2 -0.008490 0.027210 -0.009417 0.000000 -0.013736 0.000000
# 3 0.001737 -0.009417 0.032182 0.000000 0.008920 0.000000
# 4 0.000000 0.000000 0.000000 0.049403 0.000000 -0.008085
# 5 0.002378 -0.013736 0.008920 0.000000 0.045349 0.000000
# 6 0.000000 0.000000 0.000000 -0.008085 0.000000 0.036629
#
#
# Mechanical properties :
#
#
# Convention : Reuss Voigt Hill
#
# Bulk Modulus (GPa) = 28.25666 49.50570 38.88118
# Shear Modulus (GPa) = 20.55492 28.70184 24.62838
#
# Velocity S-wave (km/s) = 3.18374 3.76214 3.48496
# Velocity P-wave (km/s) = 5.23919 6.57908 5.94699
#
# Compressibility (1/GPa) = 0.03538989
#
# Stress axis : x y z
#
# Youngs Moduli (GPa) = 119.91668 36.75098 31.07304
#
# Poissons Ratio (x) = 0.31203 -0.05396
# Poissons Ratio (y) = 1.01813 0.29262
# Poissons Ratio (z) = -0.20825 0.34609
#
# Static dielectric constant tensor:
#      x y z
#    x 4.660980 0.000000 -0.023690 
#    y 0.000000 3.470290 0.000000 
#    z -0.023690 0.000000 3.540340 
# 
# 
# High freq. dielectric constant tensor:
#      x y z
#    x 1.823740 0.000000 -0.018200 
#    y 0.000000 1.747590 0.000000 
#    z -0.018200 0.000000 1.775490 
# 
# From -- ./inp_files/182341.got.cif
#   From: 2010.06.25/outbox.cif.g09.slc.cpg/sg15_92_cif.got.tgz:182341.got - 2010.06.28 07:06:18.
