data_PCOD8133219
_publ_section_title
;
Structure prediction by ZEFSAII (Michael W. Deem and Ramdas Pophale) SiO2 
 PCOD8133219
Probable space group: C 2/C
;
_chemical_formula_sum "Si O2"
_cell_formula_units_Z 52
_cell_length_a 32.278310
_cell_length_b 8.688360
_cell_length_c 14.359829
_cell_angle_alpha 90.000000
_cell_angle_beta 37.184033
_cell_angle_gamma 90.000000
_cell_volume 2433.917631
_symmetry_space_group_name_H-M "C 2/C"
_symmetry_group_IT_number 15
_symmetry_cell_setting 'monoclinic'
loop_
_space_group_symop_operation_xyz
x,y,z
-x,y,1/2-z
-x,-y,-z
x,-y,1/2+z
1/2+x,1/2+y,z
1/2-x,1/2+y,1/2-z
1/2-x,1/2-y,-z
1/2+x,1/2-y,1/2+z
loop_
_atom_site_type_symbol
_atom_site_label
_atom_site_fract_x
_atom_site_fract_y
_atom_site_fract_z
Si Si1 0.619894 0.038859 0.051633
Si Si2 0.757543 0.108272 0.365174
Si Si3 0.244539 0.053283 0.923597
Si Si4 0.602581 0.954876 0.883718
Si Si5 0.500000 0.394619 0.250000
Si Si6 0.144462 0.105787 0.470943
Si Si7 0.522284 0.843875 0.870390
O O1 0.559802 0.028183 0.236213
O O2 0.625063 0.213752 0.004335
O O3 0.691487 0.995063 0.968183
O O4 0.604310 0.924267 0.992226
O O5 0.783685 0.084541 0.422837
O O6 0.741068 0.286989 0.372688
O O7 0.818440 0.052493 0.189433
O O8 0.321684 0.991331 0.788135
O O9 0.194292 0.929115 0.967885
O O10 0.571533 0.817641 0.873704
O O11 0.551060 0.098779 0.960647
O O12 0.428422 0.487836 0.391134
O O13 0.488481 0.304869 0.173042
#
# Coordination Sequence:
#
# PCOD8133219 Si02
#       7
#     8   8   8   8   4   8   8
#     4  11  20  36  60  87 115 152 198 239 281 342
#     4  11  21  38  59  84 121 148 187 241 296 342
#     4  11  23  36  58  89 116 156 189 234 296 355
#     4  11  18  33  57  88 118 146 191 238 289 330
#     4  10  20  40  60  80 116 158 198 240 292 340
#     4  11  21  40  62  81 113 154 196 242 287 346
#     4  10  19  32  56  89 115 147 191 241 279 337
#
# _framework density 21.364733000000001
#
# number of rings (size 3 to 8) (size 9 to 14) (size 15 to 20)
#    0.000    1.231    7.692    0.000    0.000    0.615 
#    0.000    0.769    3.385    0.000    0.000    0.000 
#    0.000    0.000    0.000    0.000    0.000    0.000 
#
# Total GULP energy -322130.209359 kJ/mol
# GULP energy per Si atom -12389.623437 kJ/mol
# Density = 2.131611 g / cm^3
# Si number density = 21.364733 Si / 1000 Ang^3
#
#
#
# Elastic Constant Matrix: (Units=GPa)
#
#
# Indices 1 2 3 4 5 6 
#
# 1 120.6270 16.2216 66.4927 -0.0001 3.8296 -0.0001
# 2 16.2216 15.1930 10.5522 0.0004 -2.5626 0.0001
# 3 66.4927 10.5522 113.1364 0.0002 -27.6164 0.0001
# 4 -0.0001 0.0004 0.0002 12.6351 0.0000 -4.5106
# 5 3.8296 -2.5626 -27.6164 0.0000 43.8129 0.0000
# 6 -0.0001 0.0001 0.0001 -4.5106 0.0000 21.3476
#
#
#
# Elastic Compliance Matrix: (Units=1/GPa)
#
#
# Indices 1 2 3 4 5 6 
#
# 1 0.015714 -0.011074 -0.010277 0.000001 -0.008499 0.000000
# 2 -0.011074 0.078183 0.000672 -0.000003 0.005964 -0.000001
# 3 -0.010277 0.000672 0.017781 0.000000 0.012146 0.000000
# 4 0.000001 -0.000003 0.000000 0.085602 -0.000001 0.018087
# 5 -0.008499 0.005964 0.012146 -0.000001 0.031572 0.000000
# 6 0.000000 -0.000001 0.000000 0.018087 0.000000 0.050665
#
#
# Mechanical properties :
#
#
# Convention : Reuss Voigt Hill
#
# Bulk Modulus (GPa) = 14.22072 48.38772 31.30422
# Shear Modulus (GPa) = 14.52160 25.93843 20.23002
#
# Velocity S-wave (km/s) = 2.60993 3.48814 3.08049
# Velocity P-wave (km/s) = 3.96900 6.23862 5.22845
#
# Compressibility (1/GPa) = 0.07031992
#
# Stress axis : x y z
#
# Youngs Moduli (GPa) = 63.63695 12.79057 56.23939
#
# Poissons Ratio (x) = 0.14164 0.57799
# Poissons Ratio (y) = 0.70469 -0.03779
# Poissons Ratio (z) = 0.65402 -0.00859
#
# Static dielectric constant tensor:
#      x y z
#    x 4.146330 0.000000 -0.015030 
#    y 0.000000 3.266660 0.000000 
#    z -0.015030 0.000000 4.364920 
# 
# 
# High freq. dielectric constant tensor:
#      x y z
#    x 1.857320 0.000000 -0.001690 
#    y 0.000000 1.761190 0.000000 
#    z -0.001690 0.000000 1.863220 
# 
# From -- ./inp_files/181055.got.cif
#   From: 2010.06.25/outbox.cif.g09.slc.cpg/sg15_91_cif.got.tgz:181055.got - 2010.06.28 07:06:18.
