data_PCOD8133081
_publ_section_title
;
Structure prediction by ZEFSAII (Michael W. Deem and Ramdas Pophale) SiO2 
 PCOD8133081
Probable space group: C 2/C
;
_chemical_formula_sum "Si O2"
_cell_formula_units_Z 56
_cell_length_a 30.167831
_cell_length_b 11.320455
_cell_length_c 8.496166
_cell_angle_alpha 90.000000
_cell_angle_beta 57.982033
_cell_angle_gamma 90.000000
_cell_volume 2460.176766
_symmetry_space_group_name_H-M "C 2/C"
_symmetry_group_IT_number 15
_symmetry_cell_setting 'monoclinic'
loop_
_space_group_symop_operation_xyz
x,y,z
-x,y,1/2-z
-x,-y,-z
x,-y,1/2+z
1/2+x,1/2+y,z
1/2-x,1/2+y,1/2-z
1/2-x,1/2-y,-z
1/2+x,1/2-y,1/2+z
loop_
_atom_site_type_symbol
_atom_site_label
_atom_site_fract_x
_atom_site_fract_y
_atom_site_fract_z
Si Si1 0.536746 0.272852 0.824681
Si Si2 0.046368 0.120914 0.816309
Si Si3 0.195114 0.897700 0.838738
Si Si4 0.233493 0.489819 0.537946
Si Si5 0.167862 0.370009 0.397627
Si Si6 0.052946 0.642745 0.102172
Si Si7 0.902066 0.060172 0.475531
O O1 0.500000 0.226893 0.750000
O O2 0.590663 0.324665 0.650115
O O3 0.506949 0.377119 0.979556
O O4 0.551944 0.169604 0.916775
O O5 0.050977 0.246360 0.723644
O O6 0.050037 0.026439 0.667685
O O7 0.093959 0.096196 0.848622
O O8 0.224236 0.924135 0.620981
O O9 0.166177 0.772093 0.885295
O O10 0.238145 0.901710 0.894801
O O11 0.153330 0.000650 0.950191
O O12 0.203986 0.404185 0.474505
O O13 0.191056 0.574234 0.696971
O O14 0.108491 0.420098 0.531063
O O15 0.000000 0.568269 0.250000
#
# Coordination Sequence:
#
# PCOD8133081 Si02
#       7
#     8   8   8   8   8   8   8
#     4   9  20  34  51  86 133 175 207 245 307 392
#     4  10  19  32  49  84 130 174 207 239 306 384
#     4  11  22  39  65  97 132 163 216 259 318 386
#     4  10  25  44  65  94 124 170 218 269 319 376
#     4  11  23  46  69  89 127 164 215 270 330 369
#     4  10  21  39  64  92 126 167 214 263 318 383
#     4  11  19  30  53  86 129 171 199 241 306 385
#
# _framework density 22.762594
#
# number of rings (size 3 to 8) (size 9 to 14) (size 15 to 20)
#    0.000    1.714    1.429    3.000    2.000    4.000 
#    0.000    7.857    0.000    0.000    0.000    0.000 
#    0.000    0.000    0.000    0.000    0.000    0.000 
#
# Total GULP energy -347023.134426 kJ/mol
# GULP energy per Si atom -12393.683372 kJ/mol
# Density = 2.271079 g / cm^3
# Si number density = 22.762594 Si / 1000 Ang^3
#
#
#
# Elastic Constant Matrix: (Units=GPa)
#
#
# Indices 1 2 3 4 5 6 
#
# 1 69.5903 17.3107 39.4342 0.0000 -16.3141 0.0000
# 2 17.3107 30.1126 17.1845 0.0000 -4.0663 0.0000
# 3 39.4342 17.1845 120.6251 0.0000 -8.1166 0.0000
# 4 0.0000 0.0000 0.0000 7.4962 0.0000 -6.7076
# 5 -16.3141 -4.0663 -8.1166 0.0000 49.0991 0.0000
# 6 0.0000 0.0000 0.0000 -6.7076 0.0000 23.7393
#
#
#
# Elastic Compliance Matrix: (Units=1/GPa)
#
#
# Indices 1 2 3 4 5 6 
#
# 1 0.020596 -0.008147 -0.005215 0.000000 0.005306 0.000000
# 2 -0.008147 0.039599 -0.002973 0.000000 0.000081 0.000000
# 3 -0.005215 -0.002973 0.010401 0.000000 -0.000260 0.000000
# 4 0.000000 0.000000 0.000000 0.178541 0.000000 0.050447
# 5 0.005306 0.000081 -0.000260 0.000000 0.022094 0.000000
# 6 0.000000 0.000000 0.000000 0.050447 0.000000 0.056378
#
#
# Mechanical properties :
#
#
# Convention : Reuss Voigt Hill
#
# Bulk Modulus (GPa) = 26.36680 40.90963 33.63821
# Shear Modulus (GPa) = 13.40764 25.82682 19.61723
#
# Velocity S-wave (km/s) = 2.42961 3.37206 2.93886
# Velocity P-wave (km/s) = 4.41352 5.75955 5.13087
#
# Compressibility (1/GPa) = 0.03792648
#
# Stress axis : x y z
#
# Youngs Moduli (GPa) = 48.55368 25.25290 96.14329
#
# Poissons Ratio (x) = 0.20573 0.50142
# Poissons Ratio (y) = 0.39557 0.28579
# Poissons Ratio (z) = 0.25323 0.07507
#
# Static dielectric constant tensor:
#      x y z
#    x 4.294750 0.000000 -0.167100 
#    y 0.000000 3.482240 0.000000 
#    z -0.167100 0.000000 4.726650 
# 
# 
# High freq. dielectric constant tensor:
#      x y z
#    x 1.905840 0.000000 0.007650 
#    y 0.000000 1.846200 0.000000 
#    z 0.007650 0.000000 1.921470 
# 
# From -- ./inp_files/69294.got.cif
#   From: 2010.06.25/outbox.cif.g09.slc.cpg/sg15_35_cif.got.tgz:69294.got - 2010.06.28 07:06:18.
