data_PCOD8134013
_publ_section_title
;
Structure prediction by ZEFSAII (Michael W. Deem and Ramdas Pophale) SiO2 
 PCOD8134013
Probable space group: C 2/C
;
_chemical_formula_sum "Si O2"
_cell_formula_units_Z 56
_cell_length_a 19.901629
_cell_length_b 16.064697
_cell_length_c 9.453385
_cell_angle_alpha 90.000000
_cell_angle_beta 98.436060
_cell_angle_gamma 90.000000
_cell_volume 2989.674613
_symmetry_space_group_name_H-M "C 2/C"
_symmetry_group_IT_number 15
_symmetry_cell_setting 'monoclinic'
loop_
_space_group_symop_operation_xyz
x,y,z
-x,y,1/2-z
-x,-y,-z
x,-y,1/2+z
1/2+x,1/2+y,z
1/2-x,1/2+y,1/2-z
1/2-x,1/2-y,-z
1/2+x,1/2-y,1/2+z
loop_
_atom_site_type_symbol
_atom_site_label
_atom_site_fract_x
_atom_site_fract_y
_atom_site_fract_z
Si Si1 0.838373 0.653413 0.601521
Si Si2 0.792685 0.919814 0.298610
Si Si3 0.828598 0.751539 0.853286
Si Si4 0.451624 0.977588 0.111398
Si Si5 0.204974 0.079521 0.036483
Si Si6 0.182002 0.255180 0.682610
Si Si7 0.144524 0.630654 0.390766
O O1 0.784695 0.597100 0.671722
O O2 0.863497 0.729577 0.712206
O O3 0.900226 0.597889 0.563300
O O4 0.801460 0.695039 0.455531
O O5 0.840188 0.840154 0.354487
O O6 0.823469 0.998440 0.391206
O O7 0.796152 0.935775 0.131595
O O8 0.842089 0.842591 0.925586
O O9 0.747483 0.743786 0.806112
O O10 0.856972 0.679392 0.962746
O O11 0.500000 0.946826 0.250000
O O12 0.411401 0.060355 0.137836
O O13 0.500000 0.000000 0.000000
O O14 0.281819 0.090809 0.113764
O O15 0.126954 0.305361 0.757524
#
# Coordination Sequence:
#
# PCOD8134013 Si02
#       7
#     8   8   8   8   8   8   8
#     4  11  22  35  53  74 113 151 188 234 277 320
#     4  11  21  32  51  82 112 141 184 214 280 348
#     4  10  19  35  52  76 106 150 185 218 283 353
#     4  12  26  39  55  82 110 153 209 241 264 313
#     4  11  21  31  53  80 111 144 180 220 275 353
#     4  10  20  33  52  79 106 147 188 220 276 355
#     4  11  19  37  55  68 113 154 184 233 283 313
#
# _framework density 18.731135999999999
#
# number of rings (size 3 to 8) (size 9 to 14) (size 15 to 20)
#    0.000    1.143    5.714    4.286    6.000    0.000 
#    0.000    0.000    0.000    0.000    0.000    0.000 
#    0.000   22.857    0.000    0.000    0.000    0.000 
#
# Total GULP energy -346952.208282 kJ/mol
# GULP energy per Si atom -12391.150296 kJ/mol
# Density = 1.868850 g / cm^3
# Si number density = 18.731136 Si / 1000 Ang^3
#
#
#
# Elastic Constant Matrix: (Units=GPa)
#
#
# Indices 1 2 3 4 5 6 
#
# 1 40.5645 21.3412 5.5431 0.0000 -10.1445 0.0000
# 2 21.3412 118.6455 32.1884 0.0000 -7.2451 0.0000
# 3 5.5431 32.1884 96.1259 0.0000 -13.4831 0.0000
# 4 0.0000 0.0000 0.0000 41.2313 0.0000 -6.8489
# 5 -10.1445 -7.2451 -13.4831 0.0000 23.9385 0.0000
# 6 0.0000 0.0000 0.0000 -6.8489 0.0000 22.2623
#
#
#
# Elastic Compliance Matrix: (Units=1/GPa)
#
#
# Indices 1 2 3 4 5 6 
#
# 1 0.030173 -0.005142 0.001691 0.000000 0.012182 0.000000
# 2 -0.005142 0.010176 -0.003241 0.000000 -0.000924 0.000000
# 3 0.001691 -0.003241 0.012328 0.000000 0.006679 0.000000
# 4 0.000000 0.000000 0.000000 0.025560 0.000000 0.007863
# 5 0.012182 -0.000924 0.006679 0.000000 0.050418 0.000000
# 6 0.000000 0.000000 0.000000 0.007863 0.000000 0.047338
#
#
# Mechanical properties :
#
#
# Convention : Reuss Voigt Hill
#
# Bulk Modulus (GPa) = 25.45017 41.49794 33.47406
# Shear Modulus (GPa) = 24.69450 30.57064 27.63257
#
# Velocity S-wave (km/s) = 3.63487 4.04428 3.84503
# Velocity P-wave (km/s) = 5.58865 6.63407 6.13367
#
# Compressibility (1/GPa) = 0.03929246
#
# Stress axis : x y z
#
# Youngs Moduli (GPa) = 33.14227 98.26913 81.11922
#
# Poissons Ratio (x) = 0.50531 -0.13715
# Poissons Ratio (y) = 0.17042 0.26288
# Poissons Ratio (z) = -0.05603 0.31846
#
# Static dielectric constant tensor:
#      x y z
#    x 2.934530 0.000000 -0.236190 
#    y 0.000000 4.045070 0.000000 
#    z -0.236190 0.000000 3.589800 
# 
# 
# High freq. dielectric constant tensor:
#      x y z
#    x 1.646780 0.000000 -0.022170 
#    y 0.000000 1.747120 0.000000 
#    z -0.022170 0.000000 1.747670 
# 
# From -- ./inp_files/56179.got.cif
#   From: 2010.06.25/outbox.cif.g09.slc.cpg/sg15_29_cif.got.tgz:56179.got - 2010.06.28 07:06:18.
