data_PCOD8134356
_publ_section_title
;
Structure prediction by ZEFSAII (Michael W. Deem and Ramdas Pophale) SiO2 
 PCOD8134356
Probable space group: C 2/C
;
_chemical_formula_sum "Si O2"
_cell_formula_units_Z 56
_cell_length_a 14.785720
_cell_length_b 12.420892
_cell_length_c 30.384644
_cell_angle_alpha 90.000000
_cell_angle_beta 27.545298
_cell_angle_gamma 90.000000
_cell_volume 2580.559958
_symmetry_space_group_name_H-M "C 2/C"
_symmetry_group_IT_number 15
_symmetry_cell_setting 'monoclinic'
loop_
_space_group_symop_operation_xyz
x,y,z
-x,y,1/2-z
-x,-y,-z
x,-y,1/2+z
1/2+x,1/2+y,z
1/2-x,1/2+y,1/2-z
1/2-x,1/2-y,-z
1/2+x,1/2-y,1/2+z
loop_
_atom_site_type_symbol
_atom_site_label
_atom_site_fract_x
_atom_site_fract_y
_atom_site_fract_z
Si Si1 0.349097 0.598457 0.656211
Si Si2 0.398547 0.263542 0.690756
Si Si3 0.717219 0.301628 0.965201
Si Si4 0.303494 0.636158 0.854128
Si Si5 0.105784 0.421414 0.785861
Si Si6 0.516663 0.930366 0.400948
Si Si7 0.105867 0.022870 0.115589
O O1 0.231198 0.708238 0.715478
O O2 0.515706 0.629429 0.549055
O O3 0.188786 0.505230 0.712438
O O4 0.457293 0.552730 0.652945
O O5 0.244132 0.317356 0.723671
O O6 0.526371 0.174886 0.610206
O O7 0.540752 0.353476 0.649143
O O8 0.704160 0.207515 0.935045
O O9 0.882551 0.385181 0.877427
O O10 0.750000 0.250000 0.000000
O O11 0.500000 0.693402 0.750000
O O12 0.142916 0.607370 0.887628
O O13 0.375655 0.523706 0.843638
O O14 0.131604 0.481343 0.822190
O O15 0.313371 0.982753 0.501910
#
# Coordination Sequence:
#
# PCOD8134356 Si02
#       7
#     8   8   8   8   8   8   8
#     4  10  20  35  59  90 115 163 216 251 294 365
#     4  10  20  35  59  88 125 162 209 252 303 370
#     4  12  20  38  64  92 124 170 214 250 309 389
#     4  12  24  39  62  97 131 157 205 265 333 368
#     4  10  19  35  61  89 124 162 214 258 297 374
#     4  11  22  38  60  98 126 162 206 268 319 365
#     4  11  21  38  60  93 124 164 208 260 309 376
#
# _framework density 21.700717000000001
#
# number of rings (size 3 to 8) (size 9 to 14) (size 15 to 20)
#    0.000    1.143    4.286    4.286    0.000    0.000 
#    2.571    0.000    0.000    7.714   11.143    0.000 
#    0.000    0.000    0.000    0.000    0.000    0.000 
#
# Total GULP energy -346998.106376 kJ/mol
# GULP energy per Si atom -12392.789513 kJ/mol
# Density = 2.165132 g / cm^3
# Si number density = 21.700717 Si / 1000 Ang^3
#
#
#
# Elastic Constant Matrix: (Units=GPa)
#
#
# Indices 1 2 3 4 5 6 
#
# 1 51.0349 12.8512 9.5684 0.0031 -1.1131 -0.0019
# 2 12.8512 82.4184 16.9334 -0.0029 1.8031 -0.0018
# 3 9.5684 16.9334 114.2635 -0.0037 -8.3876 -0.0025
# 4 0.0031 -0.0029 -0.0037 53.0127 0.0106 -6.6221
# 5 -1.1131 1.8031 -8.3876 0.0106 20.7710 -0.0002
# 6 -0.0019 -0.0018 -0.0025 -6.6221 -0.0002 17.5982
#
#
#
# Elastic Compliance Matrix: (Units=1/GPa)
#
#
# Indices 1 2 3 4 5 6 
#
# 1 0.020592 -0.002979 -0.001219 -0.000001 0.000870 0.000001
# 2 -0.002979 0.013018 -0.001829 0.000001 -0.002028 0.000001
# 3 -0.001219 -0.001829 0.009411 0.000000 0.003894 0.000001
# 4 -0.000001 0.000001 0.000000 0.019794 -0.000010 0.007448
# 5 0.000870 -0.002028 0.003894 -0.000010 0.049939 -0.000003
# 6 0.000001 0.000001 0.000001 0.007448 -0.000003 0.059627
#
#
# Mechanical properties :
#
#
# Convention : Reuss Voigt Hill
#
# Bulk Modulus (GPa) = 32.29283 36.26918 34.28100
# Shear Modulus (GPa) = 25.67308 32.16729 28.92018
#
# Velocity S-wave (km/s) = 3.44328 3.85426 3.65455
# Velocity P-wave (km/s) = 5.54270 6.04622 5.79993
#
# Compressibility (1/GPa) = 0.03096663
#
# Stress axis : x y z
#
# Youngs Moduli (GPa) = 48.56206 76.81767 106.26351
#
# Poissons Ratio (x) = 0.22887 0.12953
# Poissons Ratio (y) = 0.14469 0.19431
# Poissons Ratio (z) = 0.05920 0.14047
#
# Static dielectric constant tensor:
#      x y z
#    x 3.363980 0.000010 -0.134600 
#    y 0.000010 4.250540 0.000020 
#    z -0.134600 0.000020 4.380050 
# 
# 
# High freq. dielectric constant tensor:
#      x y z
#    x 1.789990 0.000000 -0.012120 
#    y 0.000000 1.869680 0.000000 
#    z -0.012120 0.000000 1.877670 
# 
# From -- ./inp_files/313730.got.cif
#   From: 2010.06.25/outbox.cif.g09.slc.cpg/sg15_157_cif.got.tgz:313730.got - 2010.06.28 07:06:18.
