data_PCOD8134196
_publ_section_title
;
Structure prediction by ZEFSAII (Michael W. Deem and Ramdas Pophale) SiO2 
 PCOD8134196
Probable space group: C 2/C
;
_chemical_formula_sum "Si O2"
_cell_formula_units_Z 40
_cell_length_a 5.261052
_cell_length_b 23.822917
_cell_length_c 16.679222
_cell_angle_alpha 90.000000
_cell_angle_beta 96.634362
_cell_angle_gamma 90.000000
_cell_volume 2076.468537
_symmetry_space_group_name_H-M "C 2/C"
_symmetry_group_IT_number 15
_symmetry_cell_setting 'monoclinic'
loop_
_space_group_symop_operation_xyz
x,y,z
-x,y,1/2-z
-x,-y,-z
x,-y,1/2+z
1/2+x,1/2+y,z
1/2-x,1/2+y,1/2-z
1/2-x,1/2-y,-z
1/2+x,1/2-y,1/2+z
loop_
_atom_site_type_symbol
_atom_site_label
_atom_site_fract_x
_atom_site_fract_y
_atom_site_fract_z
Si Si1 0.340436 0.826464 0.942469
Si Si2 0.233053 0.587146 0.198558
Si Si3 0.137930 0.203355 0.595700
Si Si4 0.229812 0.458582 0.198863
Si Si5 0.639274 0.853293 0.099468
O O1 0.269744 0.876517 0.881427
O O2 0.382296 0.770172 0.892155
O O3 0.117113 0.812411 0.999515
O O4 0.591314 0.845810 0.002128
O O5 0.500000 0.600638 0.250000
O O6 0.221424 0.522741 0.169332
O O7 0.000000 0.601749 0.250000
O O8 0.403147 0.176256 0.639266
O O9 0.899817 0.177581 0.634533
O O10 0.500000 0.444412 0.250000
O O11 0.177027 0.418878 0.120675
O O12 0.000000 0.445999 0.250000
#
# Coordination Sequence:
#
# PCOD8134196 Si02
#       5
#     8   8   8   8   8
#     4   9  21  36  60  78 115 139 186 221 269 326
#     4  10  23  38  56  79 110 148 180 224 276 317
#     4   9  20  34  59  81 110 139 175 227 276 306
#     4  10  21  39  55  77 114 145 179 229 275 318
#     4  10  19  35  58  81 104 145 182 218 273 321
#
# _framework density 19.263477000000002
#
# number of rings (size 3 to 8) (size 9 to 14) (size 15 to 20)
#    1.200    1.200    0.000    1.800    2.800    0.800 
#    0.000    7.000    0.000    0.000    0.000    0.000 
#    0.000    0.000    0.000    0.000    0.000    0.000 
#
# Total GULP energy -247815.032216 kJ/mol
# GULP energy per Si atom -12390.751611 kJ/mol
# Density = 1.921963 g / cm^3
# Si number density = 19.263477 Si / 1000 Ang^3
#
#
#
# Elastic Constant Matrix: (Units=GPa)
#
#
# Indices 1 2 3 4 5 6 
#
# 1 149.6188 44.7169 24.9716 0.0000 17.7317 0.0000
# 2 44.7169 140.0439 50.9990 0.0000 10.9317 0.0000
# 3 24.9716 50.9990 34.1205 0.0000 10.0157 0.0000
# 4 0.0000 0.0000 0.0000 33.9914 0.0000 -6.4321
# 5 17.7317 10.9317 10.0157 0.0000 12.3788 0.0000
# 6 0.0000 0.0000 0.0000 -6.4321 0.0000 19.9441
#
#
#
# Elastic Compliance Matrix: (Units=1/GPa)
#
#
# Indices 1 2 3 4 5 6 
#
# 1 0.008502 -0.001622 -0.000845 0.000000 -0.010063 0.000000
# 2 -0.001622 0.016415 -0.025935 0.000000 0.008810 0.000000
# 3 -0.000845 -0.025935 0.080803 0.000000 -0.041265 0.000000
# 4 0.000000 0.000000 0.000000 0.031331 0.000000 0.010105
# 5 -0.010063 0.008810 -0.041265 0.000000 0.120805 0.000000
# 6 0.000000 0.000000 0.000000 0.010105 0.000000 0.053399
#
#
# Mechanical properties :
#
#
# Convention : Reuss Voigt Hill
#
# Bulk Modulus (GPa) = 20.44241 62.79537 41.61889
# Shear Modulus (GPa) = 13.00855 26.80255 19.90555
#
# Velocity S-wave (km/s) = 2.60147 3.73415 3.21803
# Velocity P-wave (km/s) = 4.43380 7.15966 5.95480
#
# Compressibility (1/GPa) = 0.04891791
#
# Stress axis : x y z
#
# Youngs Moduli (GPa) = 117.62134 60.91916 12.37583
#
# Poissons Ratio (x) = 0.09879 0.01045
# Poissons Ratio (y) = 0.19074 0.32096
# Poissons Ratio (z) = 0.09933 1.57992
#
# Static dielectric constant tensor:
#      x y z
#    x 3.579700 0.000000 0.108270 
#    y 0.000000 3.536650 0.000000 
#    z 0.108270 0.000000 3.054120 
# 
# 
# High freq. dielectric constant tensor:
#      x y z
#    x 1.758280 0.000000 0.009580 
#    y 0.000000 1.758390 0.000000 
#    z 0.009580 0.000000 1.708950 
# 
# From -- ./inp_files/129539.got.cif
#   From: 2010.06.25/outbox.cif.g09.slc.cpg/sg15_65_cif.got.tgz:129539.got - 2010.06.28 07:06:18.
