data_PCOD8134127
_publ_section_title
;
Structure prediction by ZEFSAII (Michael W. Deem and Ramdas Pophale) SiO2 
 PCOD8134127
Probable space group: C 2/C
;
_chemical_formula_sum "Si O2"
_cell_formula_units_Z 48
_cell_length_a 20.571275
_cell_length_b 11.470998
_cell_length_c 14.353878
_cell_angle_alpha 90.000000
_cell_angle_beta 136.202426
_cell_angle_gamma 90.000000
_cell_volume 2344.274310
_symmetry_space_group_name_H-M "C 2/C"
_symmetry_group_IT_number 15
_symmetry_cell_setting 'monoclinic'
loop_
_space_group_symop_operation_xyz
x,y,z
-x,y,1/2-z
-x,-y,-z
x,-y,1/2+z
1/2+x,1/2+y,z
1/2-x,1/2+y,1/2-z
1/2-x,1/2-y,-z
1/2+x,1/2-y,1/2+z
loop_
_atom_site_type_symbol
_atom_site_label
_atom_site_fract_x
_atom_site_fract_y
_atom_site_fract_z
Si Si1 0.221341 0.389233 0.773049
Si Si2 0.920661 0.775640 0.423361
Si Si3 0.184534 0.639969 0.438989
Si Si4 0.690195 0.460605 0.283464
Si Si5 0.912603 0.789658 0.027474
Si Si6 0.496997 0.544764 0.143841
O O1 0.142788 0.337188 0.619543
O O2 0.171143 0.415899 0.821684
O O3 0.258462 0.504512 0.759831
O O4 0.308339 0.300545 0.877336
O O5 0.857158 0.834126 0.276191
O O6 0.020429 0.738370 0.483589
O O7 0.932225 0.866930 0.518816
O O8 0.250000 0.750000 0.500000
O O9 0.235811 0.541226 0.555119
O O10 0.090470 0.693390 0.391358
O O11 0.602217 0.547446 0.211081
O O12 0.949526 0.916853 0.097934
O O13 0.500000 0.596012 0.250000
#
# Coordination Sequence:
#
# PCOD8134127 Si02
#       6
#     8   8   8   8   8   8
#     4  11  21  37  58  91 120 156 199 245 311 351
#     4  11  21  35  60  85 118 160 192 259 304 346
#     4  10  20  35  60  89 119 156 197 249 293 358
#     4  11  20  37  59  88 125 152 199 257 300 350
#     4  10  19  35  56  88 119 145 199 254 295 349
#     4  11  21  34  60  90 117 153 203 257 305 351
#
# _framework density 20.475418999999999
#
# number of rings (size 3 to 8) (size 9 to 14) (size 15 to 20)
#    0.000    1.333    6.667    3.000    2.333    0.000 
#    0.000    1.667    3.667    0.000    0.000    0.000 
#    0.000    0.000    0.000    0.000    0.000    0.000 
#
# Total GULP energy -297332.436819 kJ/mol
# GULP energy per Si atom -12388.851534 kJ/mol
# Density = 2.042882 g / cm^3
# Si number density = 20.475419 Si / 1000 Ang^3
#
#
#
# Elastic Constant Matrix: (Units=GPa)
#
#
# Indices 1 2 3 4 5 6 
#
# 1 109.4825 28.1978 46.1839 0.0000 1.1519 0.0000
# 2 28.1978 27.7602 33.5183 0.0000 3.1380 0.0000
# 3 46.1839 33.5183 94.4214 0.0000 -3.7041 0.0000
# 4 0.0000 0.0000 0.0000 31.8492 0.0000 1.3347
# 5 1.1519 3.1380 -3.7041 0.0000 28.1274 0.0000
# 6 0.0000 0.0000 0.0000 1.3347 0.0000 33.0222
#
#
#
# Elastic Compliance Matrix: (Units=1/GPa)
#
#
# Indices 1 2 3 4 5 6 
#
# 1 0.012803 -0.009574 -0.002857 0.000000 0.000168 0.000000
# 2 -0.009574 0.073153 -0.021702 0.000000 -0.010627 0.000000
# 3 -0.002857 -0.021702 0.019895 0.000000 0.005158 0.000000
# 4 0.000000 0.000000 0.000000 0.031451 0.000000 -0.001271
# 5 0.000168 -0.010627 0.005158 0.000000 0.037411 0.000000
# 6 0.000000 0.000000 0.000000 -0.001271 0.000000 0.030334
#
#
# Mechanical properties :
#
#
# Convention : Reuss Voigt Hill
#
# Bulk Modulus (GPa) = 26.60725 49.71821 38.16273
# Shear Modulus (GPa) = 17.49220 26.85069 22.17145
#
# Velocity S-wave (km/s) = 2.92602 3.62520 3.29421
# Velocity P-wave (km/s) = 4.94352 6.46973 5.75742
#
# Compressibility (1/GPa) = 0.03758375
#
# Stress axis : x y z
#
# Youngs Moduli (GPa) = 78.10508 13.66998 50.26494
#
# Poissons Ratio (x) = 0.13088 0.14361
# Poissons Ratio (y) = 0.74781 1.09086
# Poissons Ratio (z) = 0.22315 0.29667
#
# Static dielectric constant tensor:
#      x y z
#    x 4.959660 0.000000 0.404520 
#    y 0.000000 3.706080 0.000000 
#    z 0.404520 0.000000 3.977850 
# 
# 
# High freq. dielectric constant tensor:
#      x y z
#    x 1.809570 0.000000 0.005330 
#    y 0.000000 1.742700 0.000000 
#    z 0.005330 0.000000 1.794770 
# 
# From -- ./inp_files/167920.got.cif
#   From: 2010.06.25/outbox.cif.g09.slc.cpg/sg15_84_cif.got.tgz:167920.got - 2010.06.28 07:06:18.
