data_PCOD8134380
_publ_section_title
;
Structure prediction by ZEFSAII (Michael W. Deem and Ramdas Pophale) SiO2 
 PCOD8134380
Probable space group: C 2/C
;
_chemical_formula_sum "Si O2"
_cell_formula_units_Z 48
_cell_length_a 13.508914
_cell_length_b 19.748567
_cell_length_c 8.857032
_cell_angle_alpha 90.000000
_cell_angle_beta 71.198179
_cell_angle_gamma 90.000000
_cell_volume 2236.807648
_symmetry_space_group_name_H-M "C 2/C"
_symmetry_group_IT_number 15
_symmetry_cell_setting 'monoclinic'
loop_
_space_group_symop_operation_xyz
x,y,z
-x,y,1/2-z
-x,-y,-z
x,-y,1/2+z
1/2+x,1/2+y,z
1/2-x,1/2+y,1/2-z
1/2-x,1/2-y,-z
1/2+x,1/2-y,1/2+z
loop_
_atom_site_type_symbol
_atom_site_label
_atom_site_fract_x
_atom_site_fract_y
_atom_site_fract_z
Si Si1 0.279074 0.064560 0.388024
Si Si2 0.935530 0.856863 0.027697
Si Si3 0.073527 0.263663 0.514023
Si Si4 0.500000 0.877438 0.750000
Si Si5 0.324485 0.455129 0.870094
Si Si6 0.283256 0.319876 0.348197
Si Si7 0.000000 0.055722 0.750000
O O1 0.402315 0.071956 0.301111
O O2 0.233618 0.076266 0.243598
O O3 0.235065 0.122175 0.519187
O O4 0.253218 0.989700 0.468317
O O5 0.826993 0.848457 0.171110
O O6 0.017232 0.899402 0.091004
O O7 0.996113 0.786844 0.961141
O O8 0.901341 0.896826 0.895738
O O9 0.172877 0.284066 0.361103
O O10 0.127138 0.231738 0.637908
O O11 0.006403 0.329040 0.598620
O O12 0.397220 0.513561 0.768005
#
# Coordination Sequence:
#
# PCOD8134380 Si02
#       7
#     8   8   8   4   8   8   4
#     4  11  23  41  62  94 120 166 200 261 305 369
#     4  12  20  38  64  91 121 164 203 257 300 369
#     4  10  19  35  62  89 114 159 209 245 297 360
#     4  10  21  40  68  86 120 161 218 246 300 368
#     4  12  25  38  60  93 131 157 206 250 319 361
#     4  10  19  35  64  87 119 157 209 246 300 359
#     4  12  21  36  56  92 126 161 196 248 308 370
#
# _framework density 21.459154999999999
#
# number of rings (size 3 to 8) (size 9 to 14) (size 15 to 20)
#    0.000    1.000    6.667    0.500    2.333    0.667 
#    0.000    0.833    3.667    0.000    0.000    0.000 
#    0.000    0.000    0.000    0.000    0.000    0.000 
#
# Total GULP energy -297503.867388 kJ/mol
# GULP energy per Si atom -12395.994474 kJ/mol
# Density = 2.141031 g / cm^3
# Si number density = 21.459155 Si / 1000 Ang^3
#
#
#
# Elastic Constant Matrix: (Units=GPa)
#
#
# Indices 1 2 3 4 5 6 
#
# 1 118.5386 59.1532 43.2879 0.0000 -10.9320 0.0000
# 2 59.1532 88.9575 26.1269 0.0000 -3.4873 0.0000
# 3 43.2879 26.1269 57.7198 0.0000 0.9098 0.0000
# 4 0.0000 0.0000 0.0000 12.7482 0.0000 -9.3184
# 5 -10.9320 -3.4873 0.9098 0.0000 36.6148 0.0000
# 6 0.0000 0.0000 0.0000 -9.3184 0.0000 42.3191
#
#
#
# Elastic Compliance Matrix: (Units=1/GPa)
#
#
# Indices 1 2 3 4 5 6 
#
# 1 0.015811 -0.007898 -0.008349 0.000000 0.004176 0.000000
# 2 -0.007898 0.016981 -0.001752 0.000000 -0.000697 0.000000
# 3 -0.008349 -0.001752 0.024431 0.000000 -0.003267 0.000000
# 4 0.000000 0.000000 0.000000 0.093490 0.000000 0.020586
# 5 0.004176 -0.000697 -0.003267 0.000000 0.028573 0.000000
# 6 0.000000 0.000000 0.000000 0.020586 0.000000 0.028163
#
#
# Mechanical properties :
#
#
# Convention : Reuss Voigt Hill
#
# Bulk Modulus (GPa) = 47.11392 58.03910 52.57651
# Shear Modulus (GPa) = 19.95838 27.44626 23.70232
#
# Velocity S-wave (km/s) = 3.05300 3.58019 3.32706
# Velocity P-wave (km/s) = 5.86776 6.64796 6.27001
#
# Compressibility (1/GPa) = 0.02122515
#
# Stress axis : x y z
#
# Youngs Moduli (GPa) = 63.24590 58.89106 40.93202
#
# Poissons Ratio (x) = 0.46513 0.34173
# Poissons Ratio (y) = 0.49953 0.07171
# Poissons Ratio (z) = 0.52802 0.10317
#
# Static dielectric constant tensor:
#      x y z
#    x 3.866120 0.000000 -0.469600 
#    y 0.000000 4.040330 0.000000 
#    z -0.469600 0.000000 3.721080 
# 
# 
# High freq. dielectric constant tensor:
#      x y z
#    x 1.833040 0.000000 -0.032670 
#    y 0.000000 1.842630 0.000000 
#    z -0.032670 0.000000 1.821080 
# 
# From -- ./inp_files/40727.got.cif
#   From: 2010.06.25/outbox.cif.g09.slc.cpg/sg15_21_cif.got.tgz:40727.got - 2010.06.28 07:06:18.
