data_PCOD8134671
_publ_section_title
;
Structure prediction by ZEFSAII (Michael W. Deem and Ramdas Pophale) SiO2 
 PCOD8134671
Probable space group: C 2/C
;
_chemical_formula_sum "Si O2"
_cell_formula_units_Z 52
_cell_length_a 22.333150
_cell_length_b 5.580109
_cell_length_c 22.404362
_cell_angle_alpha 90.000000
_cell_angle_beta 75.586962
_cell_angle_gamma 90.000000
_cell_volume 2704.187337
_symmetry_space_group_name_H-M "C 2/C"
_symmetry_group_IT_number 15
_symmetry_cell_setting 'monoclinic'
loop_
_space_group_symop_operation_xyz
x,y,z
-x,y,1/2-z
-x,-y,-z
x,-y,1/2+z
1/2+x,1/2+y,z
1/2-x,1/2+y,1/2-z
1/2-x,1/2-y,-z
1/2+x,1/2-y,1/2+z
loop_
_atom_site_type_symbol
_atom_site_label
_atom_site_fract_x
_atom_site_fract_y
_atom_site_fract_z
Si Si1 0.500000 0.706499 0.750000
Si Si2 0.967539 0.895756 0.649557
Si Si3 0.938442 0.520452 0.852369
Si Si4 0.928897 0.143073 0.947747
Si Si5 0.868023 0.853917 0.581923
Si Si6 0.306143 0.143199 0.061628
Si Si7 0.831818 0.202363 0.426306
O O1 0.463534 0.567800 0.707393
O O2 0.442210 0.843069 0.795296
O O3 0.899451 0.856720 0.639391
O O4 0.996169 0.654628 0.668759
O O5 0.013425 0.980765 0.585487
O O6 0.938349 0.403316 0.917831
O O7 0.876253 0.678377 0.865045
O O8 0.863722 0.043483 0.938830
O O9 0.923841 0.158455 0.020195
O O10 0.829082 0.605668 0.586239
O O11 0.831287 0.106435 0.583724
O O12 0.232590 0.144796 0.089384
O O13 0.322199 0.129632 0.987193
#
# Coordination Sequence:
#
# PCOD8134671 Si02
#       7
#     4   8   8   8   8   8   8
#     4  10  22  38  58  86 100 152 204 260 304 344
#     4  10  22  36  55  86 114 152 197 251 302 356
#     4  10  19  36  60  82 112 150 200 250 296 345
#     4   9  19  33  55  87 118 158 190 232 298 356
#     4  11  22  36  55  91 127 160 187 238 299 370
#     4  10  22  34  58  88 129 164 191 228 292 360
#     4   9  19  35  55  88 122 157 199 231 279 365
#
# _framework density 19.229434999999999
#
# number of rings (size 3 to 8) (size 9 to 14) (size 15 to 20)
#    0.000    2.154    1.538    0.923    6.462    2.462 
#    0.000    0.000    0.000    0.000   16.000    0.000 
#    0.000    0.000    0.000    0.000    0.000    0.000 
#
# Total GULP energy -322148.699066 kJ/mol
# GULP energy per Si atom -12390.334579 kJ/mol
# Density = 1.918567 g / cm^3
# Si number density = 19.229435 Si / 1000 Ang^3
#
#
#
# Elastic Constant Matrix: (Units=GPa)
#
#
# Indices 1 2 3 4 5 6 
#
# 1 118.1338 51.7475 48.2507 0.0000 21.0555 0.0000
# 2 51.7475 120.0122 38.3184 -0.0001 11.0920 -0.0002
# 3 48.2507 38.3184 86.4481 0.0000 13.1753 -0.0001
# 4 0.0000 -0.0001 0.0000 16.1594 0.0000 -1.7191
# 5 21.0555 11.0920 13.1753 0.0000 18.6993 0.0000
# 6 0.0000 -0.0002 -0.0001 -1.7191 0.0000 9.8255
#
#
#
# Elastic Compliance Matrix: (Units=1/GPa)
#
#
# Indices 1 2 3 4 5 6 
#
# 1 0.013650 -0.003507 -0.004524 0.000000 -0.010101 0.000000
# 2 -0.003507 0.010766 -0.002737 0.000000 -0.000508 0.000000
# 3 -0.004524 -0.002737 0.016000 0.000000 -0.004556 0.000000
# 4 0.000000 0.000000 0.000000 0.063057 0.000000 0.011033
# 5 -0.010101 -0.000508 -0.004556 0.000000 0.068364 0.000000
# 6 0.000000 0.000000 0.000000 0.011033 0.000000 0.103706
#
#
# Mechanical properties :
#
#
# Convention : Reuss Voigt Hill
#
# Bulk Modulus (GPa) = 52.97016 66.80305 59.88660
# Shear Modulus (GPa) = 16.48138 21.35533 18.91835
#
# Velocity S-wave (km/s) = 2.93079 3.33611 3.14000
# Velocity P-wave (km/s) = 6.24971 7.04663 6.66010
#
# Compressibility (1/GPa) = 0.01887855
#
# Stress axis : x y z
#
# Youngs Moduli (GPa) = 73.26166 92.88822 62.49872
#
# Poissons Ratio (x) = 0.32579 0.28277
# Poissons Ratio (y) = 0.25696 0.17105
# Poissons Ratio (z) = 0.33146 0.25422
#
# Static dielectric constant tensor:
#      x y z
#    x 3.379840 0.000000 -0.129160 
#    y 0.000000 3.695810 0.000000 
#    z -0.129160 0.000000 3.335950 
# 
# 
# High freq. dielectric constant tensor:
#      x y z
#    x 1.731090 0.000000 -0.005940 
#    y 0.000000 1.761000 0.000000 
#    z -0.005940 0.000000 1.720880 
# 
# From -- ./inp_files/251032.got.cif
#   From: 2010.06.25/outbox.cif.g09.slc.cpg/sg15_126_cif.got.tgz:251032.got - 2010.06.28 07:06:18.
