data_PCOD8134984
_publ_section_title
;
Structure prediction by ZEFSAII (Michael W. Deem and Ramdas Pophale) SiO2 
 PCOD8134984
Probable space group: C 2/C
;
_chemical_formula_sum "Si O2"
_cell_formula_units_Z 56
_cell_length_a 13.914337
_cell_length_b 8.817341
_cell_length_c 22.425472
_cell_angle_alpha 90.000000
_cell_angle_beta 76.079179
_cell_angle_gamma 90.000000
_cell_volume 2670.515258
_symmetry_space_group_name_H-M "C 2/C"
_symmetry_group_IT_number 15
_symmetry_cell_setting 'monoclinic'
loop_
_space_group_symop_operation_xyz
x,y,z
-x,y,1/2-z
-x,-y,-z
x,-y,1/2+z
1/2+x,1/2+y,z
1/2-x,1/2+y,1/2-z
1/2-x,1/2-y,-z
1/2+x,1/2-y,1/2+z
loop_
_atom_site_type_symbol
_atom_site_label
_atom_site_fract_x
_atom_site_fract_y
_atom_site_fract_z
Si Si1 0.722651 0.149854 0.335980
Si Si2 0.442950 0.232679 0.607602
Si Si3 0.419536 0.266736 0.311934
Si Si4 0.859747 0.804720 0.497888
Si Si5 0.882893 0.956357 0.900251
Si Si6 0.993244 0.391000 0.599234
Si Si7 0.721721 0.828508 0.279845
O O1 0.782463 0.110045 0.387007
O O2 0.612240 0.192536 0.373665
O O3 0.771067 0.289660 0.291793
O O4 0.724510 0.008693 0.289537
O O5 0.376658 0.312006 0.566201
O O6 0.543089 0.318883 0.604840
O O7 0.379962 0.235545 0.677783
O O8 0.472356 0.063060 0.583778
O O9 0.500000 0.289526 0.250000
O O10 0.428124 0.413984 0.352122
O O11 0.444134 0.119147 0.348423
O O12 0.311979 0.246199 0.300127
O O13 0.750000 0.750000 0.500000
O O14 0.944817 0.691865 0.461333
O O15 0.866043 0.972520 0.468384
#
# Coordination Sequence:
#
# PCOD8134984 Si02
#       7
#     8   8   8   8   8   8   8
#     4  10  21  39  57  89 121 159 199 244 304 356
#     4  11  23  39  59  95 121 156 203 254 308 344
#     4  10  19  37  59  85 116 166 202 233 297 365
#     4  11  22  44  68  84 117 163 204 249 300 377
#     4  10  24  38  60  88 124 153 202 247 304 352
#     4  10  21  39  62  88 119 157 203 250 299 361
#     4  10  22  36  60  86 124 158 203 244 296 365
#
# _framework density 20.969736000000001
#
# number of rings (size 3 to 8) (size 9 to 14) (size 15 to 20)
#    0.000    1.714    1.429    4.286    4.000    1.143 
#    0.000    5.714    0.000    0.000    0.000    0.000 
#    0.000    0.000    0.000    0.000    0.000    0.000 
#
# Total GULP energy -347203.883190 kJ/mol
# GULP energy per Si atom -12400.138685 kJ/mol
# Density = 2.092201 g / cm^3
# Si number density = 20.969736 Si / 1000 Ang^3
#
#
#
# Elastic Constant Matrix: (Units=GPa)
#
#
# Indices 1 2 3 4 5 6 
#
# 1 88.9695 29.1513 22.1027 0.0000 -16.1544 0.0000
# 2 29.1513 36.5859 15.7836 0.0000 -9.2066 0.0000
# 3 22.1027 15.7836 62.7519 0.0000 -9.9017 0.0000
# 4 0.0000 0.0000 0.0000 29.9420 0.0000 -0.9222
# 5 -16.1544 -9.2066 -9.9017 0.0000 40.9465 0.0000
# 6 0.0000 0.0000 0.0000 -0.9222 0.0000 31.8124
#
#
#
# Elastic Compliance Matrix: (Units=1/GPa)
#
#
# Indices 1 2 3 4 5 6 
#
# 1 0.015996 -0.010894 -0.002376 0.000000 0.003287 0.000000
# 2 -0.010894 0.039194 -0.005520 0.000000 0.003180 0.000000
# 3 -0.002376 -0.005520 0.018524 0.000000 0.002301 0.000000
# 4 0.000000 0.000000 0.000000 0.033428 0.000000 0.000969
# 5 0.003287 0.003180 0.002301 0.000000 0.026990 0.000000
# 6 0.000000 0.000000 0.000000 0.000969 0.000000 0.031462
#
#
# Mechanical properties :
#
#
# Convention : Reuss Voigt Hill
#
# Bulk Modulus (GPa) = 27.67247 35.82027 31.74637
# Shear Modulus (GPa) = 23.23228 28.62484 25.92856
#
# Velocity S-wave (km/s) = 3.33212 3.69867 3.52017
# Velocity P-wave (km/s) = 5.29425 5.94636 5.62975
#
# Compressibility (1/GPa) = 0.03613700
#
# Stress axis : x y z
#
# Youngs Moduli (GPa) = 62.51516 25.51395 53.98428
#
# Poissons Ratio (x) = 0.27794 0.12824
# Poissons Ratio (y) = 0.68101 0.29797
# Poissons Ratio (z) = 0.14851 0.14083
#
# Static dielectric constant tensor:
#      x y z
#    x 3.965130 0.000000 -0.038920 
#    y 0.000000 3.662010 0.000000 
#    z -0.038920 0.000000 4.067730 
# 
# 
# High freq. dielectric constant tensor:
#      x y z
#    x 1.832630 0.000000 -0.004480 
#    y 0.000000 1.803610 0.000000 
#    z -0.004480 0.000000 1.823360 
# 
# From -- ./inp_files/272648.got.cif
#   From: 2010.06.25/outbox.cif.g09.slc.cpg/sg15_137_cif.got.tgz:272648.got - 2010.06.28 07:06:18.
