data_PCOD8134302
_publ_section_title
;
Structure prediction by ZEFSAII (Michael W. Deem and Ramdas Pophale) SiO2 
 PCOD8134302
Probable space group: C 2/C
;
_chemical_formula_sum "Si O2"
_cell_formula_units_Z 44
_cell_length_a 15.261241
_cell_length_b 27.338119
_cell_length_c 9.258309
_cell_angle_alpha 90.000000
_cell_angle_beta 145.693065
_cell_angle_gamma 90.000000
_cell_volume 2177.114134
_symmetry_space_group_name_H-M "C 2/C"
_symmetry_group_IT_number 15
_symmetry_cell_setting 'monoclinic'
loop_
_space_group_symop_operation_xyz
x,y,z
-x,y,1/2-z
-x,-y,-z
x,-y,1/2+z
1/2+x,1/2+y,z
1/2-x,1/2+y,1/2-z
1/2-x,1/2-y,-z
1/2+x,1/2-y,1/2+z
loop_
_atom_site_type_symbol
_atom_site_label
_atom_site_fract_x
_atom_site_fract_y
_atom_site_fract_z
Si Si1 0.314247 0.945212 0.493586
Si Si2 0.500000 0.889919 0.250000
Si Si3 0.183198 0.306188 0.648912
Si Si4 0.648423 0.971024 0.259110
Si Si5 0.850498 0.151945 0.636517
Si Si6 0.992135 0.789431 0.900654
O O1 0.500000 0.940883 0.750000
O O2 0.253324 0.954018 0.246862
O O3 0.246007 0.895856 0.461575
O O4 0.255713 0.991329 0.509733
O O5 0.614488 0.857665 0.503328
O O6 0.604161 0.923174 0.288542
O O7 0.046819 0.266659 0.468426
O O8 0.316894 0.288996 0.720750
O O9 0.248773 0.311562 0.900093
O O10 0.500000 0.000000 0.000000
O O11 0.000000 0.135280 0.750000
O O12 0.894109 0.179213 0.843429
O O13 0.000000 0.812113 0.750000
#
# Coordination Sequence:
#
# PCOD8134302 Si02
#       6
#     8   4   8   8   8   8
#     4  10  20  37  63  93 121 162 211 260 305 365
#     4  12  22  36  66  98 130 164 208 260 320 356
#     4  11  24  40  66  90 128 166 206 260 313 375
#     4  10  19  35  59  92 124 159 209 261 300 361
#     4  10  24  43  63  90 130 166 208 257 318 372
#     4  11  24  43  61  92 124 164 210 261 311 375
#
# _framework density 20.210242000000001
#
# number of rings (size 3 to 8) (size 9 to 14) (size 15 to 20)
#    0.000    1.455    3.636    3.273    2.545    1.455 
#    0.000    0.909    0.000    0.000    0.000    0.000 
#    0.000    0.000    0.000    0.000    0.000    0.000 
#
# Total GULP energy -272830.629082 kJ/mol
# GULP energy per Si atom -12401.392231 kJ/mol
# Density = 2.016424 g / cm^3
# Si number density = 20.210242 Si / 1000 Ang^3
#
#
#
# Elastic Constant Matrix: (Units=GPa)
#
#
# Indices 1 2 3 4 5 6 
#
# 1 95.9225 51.6042 30.0635 0.0000 -39.5687 0.0000
# 2 51.6042 121.8934 31.8028 0.0000 -11.6472 0.0000
# 3 30.0635 31.8028 68.5714 0.0000 -28.5829 0.0000
# 4 0.0000 0.0000 0.0000 21.1980 0.0000 -9.6343
# 5 -39.5687 -11.6472 -28.5829 0.0000 38.6173 0.0000
# 6 0.0000 0.0000 0.0000 -9.6343 0.0000 29.6400
#
#
#
# Elastic Compliance Matrix: (Units=1/GPa)
#
#
# Indices 1 2 3 4 5 6 
#
# 1 0.024423 -0.008964 0.003983 0.000000 0.025269 0.000000
# 2 -0.008964 0.012632 -0.006029 0.000000 -0.009838 0.000000
# 3 0.003983 -0.006029 0.023973 0.000000 0.020006 0.000000
# 4 0.000000 0.000000 0.000000 0.055351 0.000000 0.017992
# 5 0.025269 -0.009838 0.020006 0.000000 0.063627 0.000000
# 6 0.000000 0.000000 0.000000 0.017992 0.000000 0.039586
#
#
# Mechanical properties :
#
#
# Convention : Reuss Voigt Hill
#
# Bulk Modulus (GPa) = 25.63684 57.03648 41.33666
# Shear Modulus (GPa) = 19.63746 29.41884 24.52815
#
# Velocity S-wave (km/s) = 3.12053 3.81942 3.48753
# Velocity P-wave (km/s) = 5.06914 6.90894 6.05928
#
# Compressibility (1/GPa) = 0.03900636
#
# Stress axis : x y z
#
# Youngs Moduli (GPa) = 40.94512 79.16433 41.71432
#
# Poissons Ratio (x) = 0.70965 -0.16614
# Poissons Ratio (y) = 0.36704 0.25150
# Poissons Ratio (z) = -0.16307 0.47729
#
# Static dielectric constant tensor:
#      x y z
#    x 4.024430 0.000000 -0.534520 
#    y 0.000000 3.663480 0.000000 
#    z -0.534520 0.000000 3.817800 
# 
# 
# High freq. dielectric constant tensor:
#      x y z
#    x 1.791960 0.000000 -0.030750 
#    y 0.000000 1.796680 0.000000 
#    z -0.030750 0.000000 1.783790 
# 
# From -- ./inp_files/43339.got.cif
#   From: 2010.06.25/outbox.cif.g09.slc.cpg/sg15_22_cif.got.tgz:43339.got - 2010.06.28 07:06:18.
