data_PCOD8134243
_publ_section_title
;
Structure prediction by ZEFSAII (Michael W. Deem and Ramdas Pophale) SiO2 
 PCOD8134243
Probable space group: C 2/C
;
_chemical_formula_sum "Si O2"
_cell_formula_units_Z 60
_cell_length_a 11.534378
_cell_length_b 17.798112
_cell_length_c 23.746307
_cell_angle_alpha 90.000000
_cell_angle_beta 42.384424
_cell_angle_gamma 90.000000
_cell_volume 3286.166461
_symmetry_space_group_name_H-M "C 2/C"
_symmetry_group_IT_number 15
_symmetry_cell_setting 'monoclinic'
loop_
_space_group_symop_operation_xyz
x,y,z
-x,y,1/2-z
-x,-y,-z
x,-y,1/2+z
1/2+x,1/2+y,z
1/2-x,1/2+y,1/2-z
1/2-x,1/2-y,-z
1/2+x,1/2-y,1/2+z
loop_
_atom_site_type_symbol
_atom_site_label
_atom_site_fract_x
_atom_site_fract_y
_atom_site_fract_z
Si Si1 0.093194 0.811673 0.396367
Si Si2 0.500000 0.560105 0.750000
Si Si3 0.643168 0.998404 0.344225
Si Si4 0.321226 0.939584 0.518637
Si Si5 0.540652 0.858611 0.927224
Si Si6 0.228894 0.318700 0.050395
Si Si7 0.414718 0.123774 0.723818
Si Si8 0.664727 0.599397 0.582026
O O1 0.066594 0.724094 0.394625
O O2 0.133197 0.820425 0.448464
O O3 0.243322 0.832119 0.299454
O O4 0.932050 0.864537 0.437460
O O5 0.660071 0.506306 0.706884
O O6 0.552754 0.614282 0.678836
O O7 0.519706 0.964858 0.437646
O O8 0.622069 0.953886 0.294380
O O9 0.579983 0.084976 0.360550
O O10 0.325396 0.885258 0.571850
O O11 0.244508 0.895021 0.493336
O O12 0.190453 0.009412 0.569337
O O13 0.347869 0.860516 0.020323
O O14 0.036122 0.318931 0.145440
O O15 0.250000 0.250000 0.000000
O O16 0.500000 0.095080 0.750000
#
# Coordination Sequence:
#
# PCOD8134243 Si02
#       8
#     8   4   8   8   8   8   8   8
#     4  11  22  37  58  87 121 147 197 245 299 339
#     4  12  18  32  60  86 108 150 198 244 284 344
#     4  10  19  35  59  78 109 150 192 230 285 346
#     4  10  19  37  58  80 112 152 197 228 288 351
#     4  11  20  37  57  85 115 153 188 245 290 349
#     4  10  20  37  58  82 116 156 187 242 297 349
#     4   9  20  37  56  80 109 153 188 235 289 349
#     4  11  22  36  58  87 115 154 195 241 290 356
#
# _framework density 18.258357
#
# number of rings (size 3 to 8) (size 9 to 14) (size 15 to 20)
#    0.000    1.600    5.333    1.200    0.000    0.533 
#    6.000    0.000    1.467    0.000    0.000    0.000 
#    0.000    0.000    0.000    0.000    0.000    0.000 
#
# Total GULP energy -371815.672068 kJ/mol
# GULP energy per Si atom -12393.855736 kJ/mol
# Density = 1.821680 g / cm^3
# Si number density = 18.258357 Si / 1000 Ang^3
#
#
#
# Elastic Constant Matrix: (Units=GPa)
#
#
# Indices 1 2 3 4 5 6 
#
# 1 107.4747 60.6070 53.6643 0.0000 -0.3204 0.0000
# 2 60.6070 116.2214 62.7256 0.0002 -0.4367 0.0000
# 3 53.6643 62.7256 90.8870 0.0003 11.3533 0.0003
# 4 0.0000 0.0002 0.0003 27.2041 -0.0002 4.3556
# 5 -0.3204 -0.4367 11.3533 -0.0002 23.1861 0.0000
# 6 0.0000 0.0000 0.0003 4.3556 0.0000 29.4395
#
#
#
# Elastic Compliance Matrix: (Units=1/GPa)
#
#
# Indices 1 2 3 4 5 6 
#
# 1 0.014867 -0.004453 -0.006093 0.000000 0.003105 0.000000
# 2 -0.004453 0.015663 -0.008745 0.000000 0.004515 0.000000
# 3 -0.006093 -0.008745 0.022013 0.000000 -0.011028 0.000000
# 4 0.000000 0.000000 0.000000 0.037651 0.000001 -0.005571
# 5 0.003105 0.004515 -0.011028 0.000001 0.048657 0.000000
# 6 0.000000 0.000000 0.000000 -0.005571 0.000000 0.034792
#
#
# Mechanical properties :
#
#
# Convention : Reuss Voigt Hill
#
# Bulk Modulus (GPa) = 71.62294 74.28633 72.95463
# Shear Modulus (GPa) = 23.05442 25.13835 24.09639
#
# Velocity S-wave (km/s) = 3.55727 3.71457 3.63677
# Velocity P-wave (km/s) = 7.49566 7.69233 7.59463
#
# Compressibility (1/GPa) = 0.01396201
#
# Stress axis : x y z
#
# Youngs Moduli (GPa) = 67.26221 63.84579 45.42765
#
# Poissons Ratio (x) = 0.28429 0.27680
# Poissons Ratio (y) = 0.29950 0.39725
# Poissons Ratio (z) = 0.40984 0.55830
#
# Static dielectric constant tensor:
#      x y z
#    x 3.442830 0.000000 0.025160 
#    y 0.000000 3.381210 0.000000 
#    z 0.025160 0.000000 3.536460 
# 
# 
# High freq. dielectric constant tensor:
#      x y z
#    x 1.706870 0.000000 -0.000380 
#    y 0.000000 1.695550 0.000000 
#    z -0.000380 0.000000 1.708810 
# 
# From -- ./inp_files/270587.got.cif
#   From: 2010.06.25/outbox.cif.g09.slc.cpg/sg15_136_cif.got.tgz:270587.got - 2010.06.28 07:06:18.
