data_PCOD8134191
_publ_section_title
;
Structure prediction by ZEFSAII (Michael W. Deem and Ramdas Pophale) SiO2 
 PCOD8134191
Probable space group: C 2/C
;
_chemical_formula_sum "Si O2"
_cell_formula_units_Z 52
_cell_length_a 14.968831
_cell_length_b 18.050489
_cell_length_c 14.087029
_cell_angle_alpha 90.000000
_cell_angle_beta 133.539624
_cell_angle_gamma 90.000000
_cell_volume 2759.136958
_symmetry_space_group_name_H-M "C 2/C"
_symmetry_group_IT_number 15
_symmetry_cell_setting 'monoclinic'
loop_
_space_group_symop_operation_xyz
x,y,z
-x,y,1/2-z
-x,-y,-z
x,-y,1/2+z
1/2+x,1/2+y,z
1/2-x,1/2+y,1/2-z
1/2-x,1/2-y,-z
1/2+x,1/2-y,1/2+z
loop_
_atom_site_type_symbol
_atom_site_label
_atom_site_fract_x
_atom_site_fract_y
_atom_site_fract_z
Si Si1 0.500000 0.800991 0.250000
Si Si2 0.317109 0.532688 0.928009
Si Si3 0.914001 0.369867 0.000829
Si Si4 0.228614 0.993417 0.889199
Si Si5 0.703812 0.270071 0.771507
Si Si6 0.312649 0.117569 0.825450
Si Si7 0.422938 0.414122 0.868609
O O1 0.438881 0.854643 0.128860
O O2 0.389099 0.751725 0.211271
O O3 0.208281 0.571097 0.787787
O O4 0.365919 0.458974 0.914146
O O5 0.271630 0.508159 0.997963
O O6 0.429329 0.591279 0.017321
O O7 0.043572 0.377391 0.041423
O O8 0.845327 0.447409 0.936173
O O9 0.833483 0.301262 0.903428
O O10 0.240527 0.077800 0.859229
O O11 0.109043 0.954193 0.755369
O O12 0.735655 0.201118 0.726123
O O13 0.631648 0.332444 0.659833
#
# Coordination Sequence:
#
# PCOD8134191 Si02
#       7
#     4   8   8   8   8   8   8
#     4  10  20  30  52  84 106 142 182 220 290 332
#     4  10  20  36  57  81 108 141 188 228 265 323
#     4  10  20  34  50  80 112 140 176 224 276 328
#     4  10  19  35  58  78 107 147 182 223 269 333
#     4  10  21  33  52  77 115 142 177 228 279 324
#     4  10  22  35  53  82 111 146 180 221 278 323
#     4   9  21  35  54  83 109 140 181 233 275 312
#
# _framework density 18.846473
#
# number of rings (size 3 to 8) (size 9 to 14) (size 15 to 20)
#    0.000    2.154    0.000    3.231    8.615    0.000 
#    0.000    0.769    0.000    0.000    4.000    0.000 
#    0.000    0.000    0.000    0.000    0.000    0.000 
#
# Total GULP energy -322330.353414 kJ/mol
# GULP energy per Si atom -12397.321285 kJ/mol
# Density = 1.880358 g / cm^3
# Si number density = 18.846473 Si / 1000 Ang^3
#
#
#
# Elastic Constant Matrix: (Units=GPa)
#
#
# Indices 1 2 3 4 5 6 
#
# 1 54.9261 32.5517 25.0907 0.0000 -5.2285 0.0000
# 2 32.5517 109.5740 26.8726 0.0000 -2.1809 0.0000
# 3 25.0907 26.8726 81.7772 0.0000 7.6512 0.0000
# 4 0.0000 0.0000 0.0000 25.4834 0.0000 1.2862
# 5 -5.2285 -2.1809 7.6512 0.0000 32.6878 0.0000
# 6 0.0000 0.0000 0.0000 1.2862 0.0000 16.9497
#
#
#
# Elastic Compliance Matrix: (Units=1/GPa)
#
#
# Indices 1 2 3 4 5 6 
#
# 1 0.024965 -0.005787 -0.006232 0.000000 0.005066 0.000000
# 2 -0.005787 0.011336 -0.001977 0.000000 0.000293 0.000000
# 3 -0.006232 -0.001977 0.015229 0.000000 -0.004693 0.000000
# 4 0.000000 0.000000 0.000000 0.039392 0.000000 -0.002989
# 5 0.005066 0.000293 -0.004693 0.000000 0.032521 0.000000
# 6 0.000000 0.000000 0.000000 -0.002989 0.000000 0.059225
#
#
# Mechanical properties :
#
#
# Convention : Reuss Voigt Hill
#
# Bulk Modulus (GPa) = 42.48442 46.14526 44.31484
# Shear Modulus (GPa) = 22.88255 25.80833 24.34544
#
# Velocity S-wave (km/s) = 3.48825 3.70455 3.59803
# Velocity P-wave (km/s) = 6.23018 6.54494 6.38950
#
# Compressibility (1/GPa) = 0.02353804
#
# Stress axis : x y z
#
# Youngs Moduli (GPa) = 40.05584 88.21293 65.66333
#
# Poissons Ratio (x) = 0.51052 0.40921
# Poissons Ratio (y) = 0.23182 0.12981
# Poissons Ratio (z) = 0.24963 0.17439
#
# Static dielectric constant tensor:
#      x y z
#    x 3.174130 0.000000 0.163530 
#    y 0.000000 3.497880 0.000000 
#    z 0.163530 0.000000 3.700870 
# 
# 
# High freq. dielectric constant tensor:
#      x y z
#    x 1.700100 0.000000 0.013940 
#    y 0.000000 1.732110 0.000000 
#    z 0.013940 0.000000 1.747340 
# 
# From -- ./inp_files/98437.got.cif
#   From: 2010.06.25/outbox.cif.g09.slc.cpg/sg15_50_cif.got.tgz:98437.got - 2010.06.28 07:06:18.
