data_PCOD8134043
_publ_section_title
;
Structure prediction by ZEFSAII (Michael W. Deem and Ramdas Pophale) SiO2 
 PCOD8134043
Probable space group: C 2/C
;
_chemical_formula_sum "Si O2"
_cell_formula_units_Z 48
_cell_length_a 27.016165
_cell_length_b 12.311855
_cell_length_c 22.930664
_cell_angle_alpha 90.000000
_cell_angle_beta 159.234450
_cell_angle_gamma 90.000000
_cell_volume 2704.176079
_symmetry_space_group_name_H-M "C 2/C"
_symmetry_group_IT_number 15
_symmetry_cell_setting 'monoclinic'
loop_
_space_group_symop_operation_xyz
x,y,z
-x,y,1/2-z
-x,-y,-z
x,-y,1/2+z
1/2+x,1/2+y,z
1/2-x,1/2+y,1/2-z
1/2-x,1/2-y,-z
1/2+x,1/2-y,1/2+z
loop_
_atom_site_type_symbol
_atom_site_label
_atom_site_fract_x
_atom_site_fract_y
_atom_site_fract_z
Si Si1 0.908715 0.630556 0.941773
Si Si2 0.809751 0.653442 0.489580
Si Si3 0.123324 0.358252 0.305535
Si Si4 0.173195 0.499564 0.754358
Si Si5 0.410843 0.381867 0.956936
Si Si6 0.312630 0.500633 0.736071
O O1 0.851712 0.605472 0.813945
O O2 0.885357 0.754299 0.933554
O O3 0.829540 0.556260 0.900830
O O4 0.070377 0.598250 0.123273
O O5 0.831897 0.612302 0.579706
O O6 0.719535 0.762402 0.387096
O O7 0.720164 0.560873 0.359689
O O8 0.959307 0.674505 0.622969
O O9 0.153127 0.464125 0.298978
O O10 0.325904 0.449473 0.912013
O O11 0.367046 0.415340 0.843688
O O12 0.572276 0.406765 0.147398
#
# Coordination Sequence:
#
# PCOD8134043 Si02
#       6
#     8   8   8   8   8   8
#     4  10  19  35  54  77 111 142 176 219 266 320
#     4  10  21  37  58  80 109 140 177 225 269 320
#     4  10  21  37  57  82 107 141 179 220 273 319
#     4  10  20  34  55  80 108 142 178 219 268 319
#     4  10  21  33  54  81 109 142 177 218 265 323
#     4  10  20  36  53  80 109 140 177 219 270 313
#
# _framework density 17.750323000000002
#
# number of rings (size 3 to 8) (size 9 to 14) (size 15 to 20)
#    0.000    2.000    1.667    2.000    2.333    0.000 
#    6.000    0.000    0.000    6.000    0.000    0.000 
#    0.000    0.000    0.000    0.000    0.000    0.000 
#
# Total GULP energy -297654.152669 kJ/mol
# GULP energy per Si atom -12402.256361 kJ/mol
# Density = 1.770992 g / cm^3
# Si number density = 17.750323 Si / 1000 Ang^3
#
#
#
# Elastic Constant Matrix: (Units=GPa)
#
#
# Indices 1 2 3 4 5 6 
#
# 1 85.5629 36.0203 30.3833 0.0032 3.2453 0.0007
# 2 36.0203 80.7329 24.8085 0.0041 -12.1804 0.0015
# 3 30.3833 24.8085 72.0135 0.0106 2.3304 0.0039
# 4 0.0032 0.0041 0.0106 14.0326 0.0042 -2.3412
# 5 3.2453 -12.1804 2.3304 0.0042 23.7222 0.0011
# 6 0.0007 0.0015 0.0039 -2.3412 0.0011 25.0882
#
#
#
# Elastic Compliance Matrix: (Units=1/GPa)
#
#
# Indices 1 2 3 4 5 6 
#
# 1 0.016262 -0.006698 -0.004385 0.000003 -0.005233 0.000001
# 2 -0.006698 0.018130 -0.003763 -0.000004 0.010595 -0.000001
# 3 -0.004385 -0.003763 0.017130 -0.000010 -0.003015 -0.000003
# 4 0.000003 -0.000004 -0.000010 0.072390 -0.000015 0.006755
# 5 -0.005233 0.010595 -0.003015 -0.000015 0.048607 -0.000003
# 6 0.000001 -0.000001 -0.000003 0.006755 -0.000003 0.040490
#
#
# Mechanical properties :
#
#
# Convention : Reuss Voigt Hill
#
# Bulk Modulus (GPa) = 45.80448 46.74817 46.27633
# Shear Modulus (GPa) = 20.00195 22.37507 21.18851
#
# Velocity S-wave (km/s) = 3.36050 3.55427 3.45874
# Velocity P-wave (km/s) = 6.39673 6.57552 6.48674
#
# Compressibility (1/GPa) = 0.02183192
#
# Stress axis : x y z
#
# Youngs Moduli (GPa) = 61.49132 55.15846 58.37747
#
# Poissons Ratio (x) = 0.36945 0.25596
# Poissons Ratio (y) = 0.41187 0.21965
# Poissons Ratio (z) = 0.26961 0.20753
#
# Static dielectric constant tensor:
#      x y z
#    x 3.251820 0.000000 0.155630 
#    y 0.000000 3.029390 -0.000010 
#    z 0.155630 -0.000010 3.387470 
# 
# 
# High freq. dielectric constant tensor:
#      x y z
#    x 1.681700 0.000000 0.018000 
#    y 0.000000 1.673450 0.000000 
#    z 0.018000 0.000000 1.695500 
# 
# From -- ./inp_files/60530.got.cif
#   From: 2010.06.25/outbox.cif.g09.slc.cpg/sg15_31_cif.got.tgz:60530.got - 2010.06.28 07:06:18.
