data_PCOD8134254
_publ_section_title
;
Structure prediction by ZEFSAII (Michael W. Deem and Ramdas Pophale) SiO2 
 PCOD8134254
Probable space group: C 2/C
;
_chemical_formula_sum "Si O2"
_cell_formula_units_Z 48
_cell_length_a 28.734476
_cell_length_b 8.542754
_cell_length_c 19.918210
_cell_angle_alpha 90.000000
_cell_angle_beta 156.270362
_cell_angle_gamma 90.000000
_cell_volume 1967.580602
_symmetry_space_group_name_H-M "C 2/C"
_symmetry_group_IT_number 15
_symmetry_cell_setting 'monoclinic'
loop_
_space_group_symop_operation_xyz
x,y,z
-x,y,1/2-z
-x,-y,-z
x,-y,1/2+z
1/2+x,1/2+y,z
1/2-x,1/2+y,1/2-z
1/2-x,1/2-y,-z
1/2+x,1/2-y,1/2+z
loop_
_atom_site_type_symbol
_atom_site_label
_atom_site_fract_x
_atom_site_fract_y
_atom_site_fract_z
Si Si1 0.400716 0.070193 0.167496
Si Si2 0.069810 0.699574 0.154228
Si Si3 0.152039 0.019925 0.285497
Si Si4 0.118658 0.766567 0.850754
Si Si5 0.703226 0.765546 0.604428
Si Si6 0.157990 0.507386 0.656592
O O1 0.500000 0.140751 0.250000
O O2 0.383417 0.181134 0.208314
O O3 0.443813 0.897402 0.249982
O O4 0.278295 0.054024 0.968409
O O5 0.076318 0.886342 0.148724
O O6 0.152420 0.607340 0.212649
O O7 0.941536 0.636504 0.977552
O O8 0.077097 0.084468 0.251274
O O9 0.176906 0.169062 0.269967
O O10 0.250000 0.750000 0.000000
O O11 0.112577 0.786790 0.924793
O O12 0.726753 0.612388 0.681003
O O13 0.653492 0.907060 0.583088
#
# Coordination Sequence:
#
# PCOD8134254 Si02
#       6
#     8   8   8   8   8   8
#     4  10  19  35  59  83 114 151 195 248 295 341
#     4  11  22  37  57  89 119 155 195 235 301 351
#     4  10  20  37  61  84 115 152 195 248 292 344
#     4   8  17  35  58  79 108 149 191 241 288 337
#     4  10  20  39  58  84 113 157 202 237 293 341
#     4  11  23  37  59  83 122 162 194 240 283 358
#
# _framework density 24.395441999999999
#
# number of rings (size 3 to 8) (size 9 to 14) (size 15 to 20)
#    0.000    2.333    0.000    6.500    0.000    0.667 
#    0.000    5.833    0.000    0.000    0.000    0.000 
#    0.000    0.000    0.000    0.000    0.000    0.000 
#
# Total GULP energy -297403.188509 kJ/mol
# GULP energy per Si atom -12391.799521 kJ/mol
# Density = 2.433992 g / cm^3
# Si number density = 24.395442 Si / 1000 Ang^3
#
#
#
# Elastic Constant Matrix: (Units=GPa)
#
#
# Indices 1 2 3 4 5 6 
#
# 1 124.5764 36.6234 11.7113 0.0000 -9.6251 0.0000
# 2 36.6234 118.0102 28.4427 0.0000 -11.3650 0.0000
# 3 11.7113 28.4427 24.6336 0.0000 -14.5267 0.0000
# 4 0.0000 0.0000 0.0000 36.9470 0.0000 -12.8647
# 5 -9.6251 -11.3650 -14.5267 0.0000 21.5680 0.0000
# 6 0.0000 0.0000 0.0000 -12.8647 0.0000 44.9627
#
#
#
# Elastic Compliance Matrix: (Units=1/GPa)
#
#
# Indices 1 2 3 4 5 6 
#
# 1 0.008980 -0.002624 0.000512 0.000000 0.002969 0.000000
# 2 -0.002624 0.012827 -0.017032 0.000000 -0.005884 0.000000
# 3 0.000512 -0.017032 0.091007 0.000000 0.052549 0.000000
# 4 0.000000 0.000000 0.000000 0.030061 0.000000 0.008601
# 5 0.002969 -0.005884 0.052549 0.000000 0.079983 0.000000
# 6 0.000000 0.000000 0.000000 0.008601 0.000000 0.024702
#
#
# Mechanical properties :
#
#
# Convention : Reuss Voigt Hill
#
# Bulk Modulus (GPa) = 13.41851 46.75276 30.08564
# Shear Modulus (GPa) = 16.09323 33.39172 24.74247
#
# Velocity S-wave (km/s) = 2.57121 3.70370 3.18815
# Velocity P-wave (km/s) = 3.78513 6.12340 5.09035
#
# Compressibility (1/GPa) = 0.07452395
#
# Stress axis : x y z
#
# Youngs Moduli (GPa) = 111.35858 77.96226 10.98820
#
# Poissons Ratio (x) = 0.20459 -0.00563
# Poissons Ratio (y) = 0.29223 0.18716
# Poissons Ratio (z) = -0.05701 1.32788
#
# Static dielectric constant tensor:
#      x y z
#    x 4.975390 0.000000 -0.083900 
#    y 0.000000 4.764830 0.000000 
#    z -0.083900 0.000000 3.976310 
# 
# 
# High freq. dielectric constant tensor:
#      x y z
#    x 1.976260 0.000000 -0.004420 
#    y 0.000000 1.961350 0.000000 
#    z -0.004420 0.000000 1.948270 
# 
# From -- ./inp_files/257236.got.cif
#   From: 2010.06.25/outbox.cif.g09.slc.cpg/sg15_129_cif.got.tgz:257236.got - 2010.06.28 07:06:18.
