data_PCOD8134726
_publ_section_title
;
Structure prediction by ZEFSAII (Michael W. Deem and Ramdas Pophale) SiO2 
 PCOD8134726
Probable space group: C 2/C
;
_chemical_formula_sum "Si O2"
_cell_formula_units_Z 64
_cell_length_a 22.730046
_cell_length_b 15.233066
_cell_length_c 7.285510
_cell_angle_alpha 90.000000
_cell_angle_beta 69.572669
_cell_angle_gamma 90.000000
_cell_volume 2363.963510
_symmetry_space_group_name_H-M "C 2/C"
_symmetry_group_IT_number 15
_symmetry_cell_setting 'monoclinic'
loop_
_space_group_symop_operation_xyz
x,y,z
-x,y,1/2-z
-x,-y,-z
x,-y,1/2+z
1/2+x,1/2+y,z
1/2-x,1/2+y,1/2-z
1/2-x,1/2-y,-z
1/2+x,1/2-y,1/2+z
loop_
_atom_site_type_symbol
_atom_site_label
_atom_site_fract_x
_atom_site_fract_y
_atom_site_fract_z
Si Si1 0.600232 0.667123 0.581189
Si Si2 0.709819 0.438364 0.811210
Si Si3 0.706926 0.628176 0.906971
Si Si4 0.589816 0.725185 0.095402
Si Si5 0.346300 0.141190 0.751444
Si Si6 0.649987 0.961911 0.871885
Si Si7 0.564122 0.165180 0.285696
Si Si8 0.509522 0.602679 0.003044
O O1 0.667656 0.618745 0.499038
O O2 0.608531 0.772296 0.607638
O O3 0.557021 0.629516 0.790030
O O4 0.558816 0.649613 0.442116
O O5 0.702008 0.392293 0.626821
O O6 0.782028 0.446654 0.801046
O O7 0.687833 0.539910 0.817971
O O8 0.774799 0.670123 0.786006
O O9 0.655754 0.703148 0.920158
O O10 0.607758 0.774145 0.270054
O O11 0.551148 0.788275 0.998284
O O12 0.546403 0.636036 0.151383
O O13 0.348474 0.086931 0.938748
O O14 0.366431 0.066562 0.581979
O O15 0.597998 0.925848 0.789089
O O16 0.500000 0.146003 0.250000
O O17 0.500000 0.500000 0.000000
#
# Coordination Sequence:
#
# PCOD8134726 Si02
#       8
#     8   8   8   8   8   8   8   8
#     4  10  20  36  56  82 116 155 202 242 285 362
#     4  10  22  36  57  88 124 153 201 242 306 360
#     4  10  21  36  57  90 122 159 195 249 300 372
#     4  10  19  36  61  84 116 163 199 247 296 364
#     4   9  19  39  62  87 120 153 203 246 314 364
#     4   9  20  39  62  88 116 156 194 256 303 370
#     4  10  19  39  64  85 114 158 205 241 306 371
#     4  10  20  35  56  84 115 162 204 237 287 356
#
# _framework density 27.073177000000001
#
# number of rings (size 3 to 8) (size 9 to 14) (size 15 to 20)
#    0.000    2.250    2.500    1.125    5.250    0.500 
#    2.250    2.500    0.000    0.000    0.000    0.000 
#    0.000    0.000    0.000    0.000    0.000    0.000 
#
# Total GULP energy -396545.434183 kJ/mol
# GULP energy per Si atom -12392.044818 kJ/mol
# Density = 2.701156 g / cm^3
# Si number density = 27.073177 Si / 1000 Ang^3
#
#
#
# Elastic Constant Matrix: (Units=GPa)
#
#
# Indices 1 2 3 4 5 6 
#
# 1 129.7471 41.5149 -5.2295 0.0000 11.8579 0.0000
# 2 41.5149 121.8011 -21.8381 0.0000 -0.3695 0.0000
# 3 -5.2295 -21.8381 17.0149 0.0000 0.1106 0.0000
# 4 0.0000 0.0000 0.0000 16.1674 0.0000 6.6645
# 5 11.8579 -0.3695 0.1106 0.0000 24.5506 0.0000
# 6 0.0000 0.0000 0.0000 6.6645 0.0000 54.2457
#
#
#
# Elastic Compliance Matrix: (Units=1/GPa)
#
#
# Indices 1 2 3 4 5 6 
#
# 1 0.009142 -0.003404 -0.001530 0.000000 -0.004460 0.000000
# 2 -0.003404 0.011932 0.014256 0.000000 0.001759 0.000000
# 3 -0.001530 0.014256 0.076595 0.000000 0.000608 0.000000
# 4 0.000000 0.000000 0.000000 0.065152 0.000000 -0.008005
# 5 -0.004460 0.001759 0.000608 0.000000 0.042910 0.000000
# 6 0.000000 0.000000 0.000000 -0.008005 0.000000 0.019418
#
#
# Mechanical properties :
#
#
# Convention : Reuss Voigt Hill
#
# Bulk Modulus (GPa) = 8.59740 33.05087 20.82413
# Shear Modulus (GPa) = 20.38514 35.93380 28.15947
#
# Velocity S-wave (km/s) = 2.74700 3.64714 3.22859
# Velocity P-wave (km/s) = 3.63921 5.47449 4.64832
#
# Compressibility (1/GPa) = 0.11631425
#
# Stress axis : x y z
#
# Youngs Moduli (GPa) = 109.38030 83.81016 13.05563
#
# Poissons Ratio (x) = 0.28529 0.01998
# Poissons Ratio (y) = 0.37233 -0.18613
# Poissons Ratio (z) = 0.16735 -1.19483
#
# Static dielectric constant tensor:
#      x y z
#    x 5.452570 0.000000 0.384400 
#    y 0.000000 5.453360 0.000000 
#    z 0.384400 0.000000 5.023650 
# 
# 
# High freq. dielectric constant tensor:
#      x y z
#    x 2.092310 0.000000 0.015120 
#    y 0.000000 2.088560 0.000000 
#    z 0.015120 0.000000 2.105360 
# 
# From -- ./inp_files/62465.got.cif
#   From: 2010.06.25/outbox.cif.g09.slc.cpg/sg15_32_cif.got.tgz:62465.got - 2010.06.28 07:06:18.
