data_PCOD8134970
_publ_section_title
;
Structure prediction by ZEFSAII (Michael W. Deem and Ramdas Pophale) SiO2 
 PCOD8134970
Probable space group: C 2/C
;
_chemical_formula_sum "Si O2"
_cell_formula_units_Z 60
_cell_length_a 28.194211
_cell_length_b 8.996678
_cell_length_c 23.031732
_cell_angle_alpha 90.000000
_cell_angle_beta 147.687460
_cell_angle_gamma 90.000000
_cell_volume 3122.818650
_symmetry_space_group_name_H-M "C 2/C"
_symmetry_group_IT_number 15
_symmetry_cell_setting 'monoclinic'
loop_
_space_group_symop_operation_xyz
x,y,z
-x,y,1/2-z
-x,-y,-z
x,-y,1/2+z
1/2+x,1/2+y,z
1/2-x,1/2+y,1/2-z
1/2-x,1/2-y,-z
1/2+x,1/2-y,1/2+z
loop_
_atom_site_type_symbol
_atom_site_label
_atom_site_fract_x
_atom_site_fract_y
_atom_site_fract_z
Si Si1 0.064167 0.457119 0.117053
Si Si2 0.000000 0.264493 0.250000
Si Si3 0.820605 0.116941 0.078226
Si Si4 0.734069 0.161466 0.300565
Si Si5 0.820848 0.096412 0.947274
Si Si6 0.576112 0.877534 0.439606
Si Si7 0.191474 0.212328 0.245629
Si Si8 0.739514 0.536816 0.869618
O O1 0.140745 0.577483 0.205449
O O2 0.099454 0.293166 0.136605
O O3 0.008099 0.448349 0.117196
O O4 0.000000 0.500000 0.000000
O O5 0.921432 0.167001 0.198556
O O6 0.949122 0.373005 0.153657
O O7 0.791708 0.996809 0.096888
O O8 0.750000 0.250000 0.000000
O O9 0.821535 0.043242 0.015085
O O10 0.748895 0.219456 0.250737
O O11 0.731350 0.290163 0.346113
O O12 0.815699 0.050612 0.401809
O O13 0.734594 0.196149 0.843887
O O14 0.904240 0.205759 0.019961
O O15 0.659769 0.983830 0.536184
O O16 0.178871 0.047035 0.258246
#
# Coordination Sequence:
#
# PCOD8134970 Si02
#       8
#     8   4   8   8   8   8   8   8
#     4  11  22  37  58  86 119 153 205 258 294 359
#     4  10  20  34  62  94 108 152 212 256 280 354
#     4  11  19  38  62  89 118 157 210 255 295 366
#     4  11  23  37  59  87 123 157 195 253 318 365
#     4   9  20  37  58  83 114 152 195 246 295 358
#     4  10  20  36  61  86 112 152 207 249 291 367
#     4  10  19  37  59  79 113 162 202 234 294 376
#     4  11  21  38  62  89 118 163 201 246 317 369
#
# _framework density 19.213412999999999
#
# number of rings (size 3 to 8) (size 9 to 14) (size 15 to 20)
#    0.000    1.600    4.000    4.800    1.867    0.533 
#    0.000    9.333    0.000    0.800    0.000    0.000 
#    0.000    0.000    0.000    0.000    0.000    0.000 
#
# Total GULP energy -371784.095654 kJ/mol
# GULP energy per Si atom -12392.803188 kJ/mol
# Density = 1.916968 g / cm^3
# Si number density = 19.213413 Si / 1000 Ang^3
#
#
#
# Elastic Constant Matrix: (Units=GPa)
#
#
# Indices 1 2 3 4 5 6 
#
# 1 99.3180 23.0226 31.9705 0.0000 5.7390 0.0000
# 2 23.0226 87.8215 49.4617 0.0000 -0.7412 0.0000
# 3 31.9705 49.4617 103.1070 0.0000 2.3145 0.0000
# 4 0.0000 0.0000 0.0000 31.9134 0.0000 0.1844
# 5 5.7390 -0.7412 2.3145 0.0000 37.7742 0.0000
# 6 0.0000 0.0000 0.0000 0.1844 0.0000 26.6546
#
#
#
# Elastic Compliance Matrix: (Units=1/GPa)
#
#
# Indices 1 2 3 4 5 6 
#
# 1 0.011396 -0.001412 -0.002820 0.000000 -0.001586 0.000000
# 2 -0.001412 0.015799 -0.007163 0.000000 0.000963 0.000000
# 3 -0.002820 -0.007163 0.014022 0.000000 -0.000571 0.000000
# 4 0.000000 0.000000 0.000000 0.031336 0.000000 -0.000217
# 5 -0.001586 0.000963 -0.000571 0.000000 0.026768 0.000000
# 6 0.000000 0.000000 0.000000 -0.000217 0.000000 0.037518
#
#
# Mechanical properties :
#
#
# Convention : Reuss Voigt Hill
#
# Bulk Modulus (GPa) = 54.27118 55.46179 54.86649
# Shear Modulus (GPa) = 30.16186 31.65456 30.90821
#
# Velocity S-wave (km/s) = 3.96641 4.06337 4.01518
# Velocity P-wave (km/s) = 7.02028 7.13747 7.07912
#
# Compressibility (1/GPa) = 0.01842599
#
# Stress axis : x y z
#
# Youngs Moduli (GPa) = 87.75334 63.29419 71.31620
#
# Poissons Ratio (x) = 0.08939 0.20113
# Poissons Ratio (y) = 0.12394 0.51082
# Poissons Ratio (z) = 0.24749 0.45336
#
# Static dielectric constant tensor:
#      x y z
#    x 3.383200 0.000000 -0.274220 
#    y 0.000000 3.485780 0.000000 
#    z -0.274220 0.000000 3.614910 
# 
# 
# High freq. dielectric constant tensor:
#      x y z
#    x 1.748470 0.000000 -0.011890 
#    y 0.000000 1.725090 0.000000 
#    z -0.011890 0.000000 1.752760 
# 
# From -- ./inp_files/283424.got.cif
#   From: 2010.06.25/outbox.cif.g09.slc.cpg/sg15_142_cif.got.tgz:283424.got - 2010.06.28 07:06:18.
