data_PCOD8134626
_publ_section_title
;
Structure prediction by ZEFSAII (Michael W. Deem and Ramdas Pophale) SiO2 
 PCOD8134626
Probable space group: C 2/C
;
_chemical_formula_sum "Si O2"
_cell_formula_units_Z 60
_cell_length_a 9.097534
_cell_length_b 10.591584
_cell_length_c 31.262366
_cell_angle_alpha 90.000000
_cell_angle_beta 82.635634
_cell_angle_gamma 90.000000
_cell_volume 2987.508326
_symmetry_space_group_name_H-M "C 2/C"
_symmetry_group_IT_number 15
_symmetry_cell_setting 'monoclinic'
loop_
_space_group_symop_operation_xyz
x,y,z
-x,y,1/2-z
-x,-y,-z
x,-y,1/2+z
1/2+x,1/2+y,z
1/2-x,1/2+y,1/2-z
1/2-x,1/2-y,-z
1/2+x,1/2-y,1/2+z
loop_
_atom_site_type_symbol
_atom_site_label
_atom_site_fract_x
_atom_site_fract_y
_atom_site_fract_z
Si Si1 0.740874 0.264811 0.224937
Si Si2 0.942502 0.212756 0.691464
Si Si3 0.000000 0.560871 0.750000
Si Si4 0.220478 0.979970 0.416721
Si Si5 0.748908 0.023004 0.182404
Si Si6 0.542864 0.231573 0.405354
Si Si7 0.280880 0.261144 0.548871
Si Si8 0.474546 0.977339 0.050433
O O1 0.655001 0.208868 0.270254
O O2 0.610976 0.319344 0.198828
O O3 0.872325 0.359891 0.230985
O O4 0.820368 0.153445 0.195749
O O5 0.929150 0.280715 0.646268
O O6 0.861520 0.079289 0.694892
O O7 0.082633 0.481620 0.709550
O O8 0.116485 0.857228 0.422392
O O9 0.267422 0.019233 0.367528
O O10 0.143945 0.102133 0.442849
O O11 0.368859 0.942843 0.435391
O O12 0.369757 0.243537 0.419328
O O13 0.600774 0.102963 0.425979
O O14 0.250000 0.250000 0.500000
O O15 0.375489 0.144949 0.562539
O O16 0.500000 0.000000 0.000000
#
# Coordination Sequence:
#
# PCOD8134626 Si02
#       8
#     8   8   4   8   8   8   8   8
#     4  10  19  36  59  83 118 157 190 236 291 338
#     4   9  20  38  57  84 119 154 195 240 291 349
#     4  10  22  34  58  90 114 154 200 234 280 356
#     4  10  23  40  61  88 123 157 195 253 297 358
#     4  10  21  38  57  85 119 153 197 240 292 344
#     4  10  22  41  62  87 120 157 200 246 301 357
#     4  11  22  41  59  87 119 149 197 247 300 356
#     4  11  22  41  60  87 117 151 196 251 298 355
#
# _framework density 20.083625000000001
#
# number of rings (size 3 to 8) (size 9 to 14) (size 15 to 20)
#    0.000    1.867    2.667    2.400    0.000    6.400 
#    0.000   10.667    0.000    0.000    0.000    0.000 
#    0.000    0.000    0.000    0.000    0.000    0.000 
#
# Total GULP energy -371797.512430 kJ/mol
# GULP energy per Si atom -12393.250414 kJ/mol
# Density = 2.003791 g / cm^3
# Si number density = 20.083625 Si / 1000 Ang^3
#
#
#
# Elastic Constant Matrix: (Units=GPa)
#
#
# Indices 1 2 3 4 5 6 
#
# 1 52.3491 38.6765 18.5958 0.0000 9.0412 0.0000
# 2 38.6765 111.4453 32.6316 0.0000 9.1480 0.0000
# 3 18.5958 32.6316 99.5530 0.0000 13.3686 0.0000
# 4 0.0000 0.0000 0.0000 33.0950 0.0000 -3.1714
# 5 9.0412 9.1480 13.3686 0.0000 26.9855 0.0000
# 6 0.0000 0.0000 0.0000 -3.1714 0.0000 32.5324
#
#
#
# Elastic Compliance Matrix: (Units=1/GPa)
#
#
# Indices 1 2 3 4 5 6 
#
# 1 0.026783 -0.008408 -0.001526 0.000000 -0.005367 0.000000
# 2 -0.008408 0.012654 -0.002549 0.000000 -0.000210 0.000000
# 3 -0.001526 -0.002549 0.011763 0.000000 -0.004452 0.000000
# 4 0.000000 0.000000 0.000000 0.030501 0.000000 0.002973
# 5 -0.005367 -0.000210 -0.004452 0.000000 0.041132 0.000000
# 6 0.000000 0.000000 0.000000 0.002973 0.000000 0.031028
#
#
# Mechanical properties :
#
#
# Convention : Reuss Voigt Hill
#
# Bulk Modulus (GPa) = 38.11701 49.23949 43.67825
# Shear Modulus (GPa) = 26.65618 30.08548 28.37083
#
# Velocity S-wave (km/s) = 3.64711 3.87461 3.76258
# Velocity P-wave (km/s) = 6.06264 6.67737 6.37742
#
# Compressibility (1/GPa) = 0.02623501
#
# Stress axis : x y z
#
# Youngs Moduli (GPa) = 37.33668 79.02346 85.00912
#
# Poissons Ratio (x) = 0.66439 0.12975
# Poissons Ratio (y) = 0.31391 0.21671
# Poissons Ratio (z) = 0.05699 0.20145
#
# Static dielectric constant tensor:
#      x y z
#    x 2.940620 0.000000 0.604170 
#    y 0.000000 4.012790 0.000000 
#    z 0.604170 0.000000 3.116240 
# 
# 
# High freq. dielectric constant tensor:
#      x y z
#    x 1.771610 0.000000 0.005860 
#    y 0.000000 1.792440 0.000000 
#    z 0.005860 0.000000 1.800280 
# 
# From -- ./inp_files/307155.got.cif
#   From: 2010.06.25/outbox.cif.g09.slc.cpg/sg15_154_cif.got.tgz:307155.got - 2010.06.28 07:06:18.
