data_PCOD8134376
_publ_section_title
;
Structure prediction by ZEFSAII (Michael W. Deem and Ramdas Pophale) SiO2 
 PCOD8134376
Probable space group: C 2/C
;
_chemical_formula_sum "Si O2"
_cell_formula_units_Z 52
_cell_length_a 7.603129
_cell_length_b 17.766902
_cell_length_c 16.331713
_cell_angle_alpha 90.000000
_cell_angle_beta 96.070319
_cell_angle_gamma 90.000000
_cell_volume 2193.783684
_symmetry_space_group_name_H-M "C 2/C"
_symmetry_group_IT_number 15
_symmetry_cell_setting 'monoclinic'
loop_
_space_group_symop_operation_xyz
x,y,z
-x,y,1/2-z
-x,-y,-z
x,-y,1/2+z
1/2+x,1/2+y,z
1/2-x,1/2+y,1/2-z
1/2-x,1/2-y,-z
1/2+x,1/2-y,1/2+z
loop_
_atom_site_type_symbol
_atom_site_label
_atom_site_fract_x
_atom_site_fract_y
_atom_site_fract_z
Si Si1 0.196498 0.593026 0.013801
Si Si2 0.845082 0.860447 0.999824
Si Si3 0.274890 0.031472 0.739937
Si Si4 0.431887 0.508102 0.616258
Si Si5 0.000000 0.671754 0.750000
Si Si6 0.510976 0.782912 0.068491
Si Si7 0.592921 0.957307 0.895086
O O1 0.393616 0.564698 0.053797
O O2 0.076731 0.591722 0.089557
O O3 0.111697 0.534227 0.947048
O O4 0.169972 0.675430 0.971855
O O5 0.950461 0.915521 0.065722
O O6 0.686716 0.824965 0.045925
O O7 0.984925 0.800504 0.970062
O O8 0.766797 0.906762 0.919480
O O9 0.240705 0.011240 0.832701
O O10 0.324261 0.119470 0.736522
O O11 0.107030 0.006343 0.677636
O O12 0.428555 0.982937 0.700893
O O13 0.009142 0.722362 0.668005
#
# Coordination Sequence:
#
# PCOD8134376 Si02
#       7
#     8   8   8   8   4   8   8
#     4   9  17  33  57  88 112 148 204 254 301 380
#     4   9  19  36  58  85 123 162 200 254 318 386
#     4  11  21  34  59  86 119 158 203 270 316 360
#     4  10  21  36  57  88 121 158 205 262 319 368
#     4  12  20  36  60  94 110 162 220 266 302 390
#     4  10  19  35  62  87 119 164 209 252 315 376
#     4   9  17  32  56  84 113 149 199 253 309 356
#
# _framework density 23.703340000000001
#
# number of rings (size 3 to 8) (size 9 to 14) (size 15 to 20)
#    0.000    2.154    3.077    1.846    0.000    2.462 
#    0.000    2.308    3.385    0.000    0.000    0.000 
#    0.000    0.000    0.000    0.000    0.000    0.000 
#
# Total GULP energy -322094.856192 kJ/mol
# GULP energy per Si atom -12388.263700 kJ/mol
# Density = 2.364939 g / cm^3
# Si number density = 23.703340 Si / 1000 Ang^3
#
#
#
# Elastic Constant Matrix: (Units=GPa)
#
#
# Indices 1 2 3 4 5 6 
#
# 1 54.5594 9.7629 34.3014 0.0000 3.8824 0.0000
# 2 9.7629 124.5807 59.9343 0.0000 3.0181 0.0000
# 3 34.3014 59.9343 163.7586 0.0000 -12.7960 0.0000
# 4 0.0000 0.0000 0.0000 30.1400 0.0000 -9.1014
# 5 3.8824 3.0181 -12.7960 0.0000 43.3574 0.0000
# 6 0.0000 0.0000 0.0000 -9.1014 0.0000 25.7405
#
#
#
# Elastic Compliance Matrix: (Units=1/GPa)
#
#
# Indices 1 2 3 4 5 6 
#
# 1 0.021645 0.000852 -0.005120 0.000000 -0.003508 0.000000
# 2 0.000852 0.009911 -0.003957 0.000000 -0.001934 0.000000
# 3 -0.005120 -0.003957 0.008889 0.000000 0.003357 0.000000
# 4 0.000000 0.000000 0.000000 0.037145 0.000000 0.013134
# 5 -0.003508 -0.001934 0.003357 0.000000 0.024504 0.000000
# 6 0.000000 0.000000 0.000000 0.013134 0.000000 0.043493
#
#
# Mechanical properties :
#
#
# Convention : Reuss Voigt Hill
#
# Bulk Modulus (GPa) = 41.67462 61.21065 51.44264
# Shear Modulus (GPa) = 29.40598 35.77425 32.59012
#
# Velocity S-wave (km/s) = 3.52601 3.88912 3.71201
# Velocity P-wave (km/s) = 5.84782 6.78577 6.33418
#
# Compressibility (1/GPa) = 0.02399542
#
# Stress axis : x y z
#
# Youngs Moduli (GPa) = 46.20090 100.90262 112.49366
#
# Poissons Ratio (x) = -0.08595 0.57593
# Poissons Ratio (y) = -0.03935 0.44510
# Poissons Ratio (z) = 0.23653 0.39924
#
# Static dielectric constant tensor:
#      x y z
#    x 4.906300 0.000000 -0.472450 
#    y 0.000000 4.094310 0.000000 
#    z -0.472450 0.000000 4.788690 
# 
# 
# High freq. dielectric constant tensor:
#      x y z
#    x 1.965560 0.000000 -0.009010 
#    y 0.000000 1.903840 0.000000 
#    z -0.009010 0.000000 1.958190 
# 
# From -- ./inp_files/190477.got.cif
#   From: 2010.06.25/outbox.cif.g09.slc.cpg/sg15_96_cif.got.tgz:190477.got - 2010.06.28 07:06:18.
