data_PCOD8134312
_publ_section_title
;
Structure prediction by ZEFSAII (Michael W. Deem and Ramdas Pophale) SiO2 
 PCOD8134312
Probable space group: C 2/C
;
_chemical_formula_sum "Si O2"
_cell_formula_units_Z 44
_cell_length_a 10.694791
_cell_length_b 9.122152
_cell_length_c 24.590153
_cell_angle_alpha 90.000000
_cell_angle_beta 116.803334
_cell_angle_gamma 90.000000
_cell_volume 2141.253340
_symmetry_space_group_name_H-M "C 2/C"
_symmetry_group_IT_number 15
_symmetry_cell_setting 'monoclinic'
loop_
_space_group_symop_operation_xyz
x,y,z
-x,y,1/2-z
-x,-y,-z
x,-y,1/2+z
1/2+x,1/2+y,z
1/2-x,1/2+y,1/2-z
1/2-x,1/2-y,-z
1/2+x,1/2-y,1/2+z
loop_
_atom_site_type_symbol
_atom_site_label
_atom_site_fract_x
_atom_site_fract_y
_atom_site_fract_z
Si Si1 0.287530 0.482390 0.930524
Si Si2 0.535557 0.020107 0.148864
Si Si3 0.279862 0.060078 0.469156
Si Si4 0.000000 0.631796 0.750000
Si Si5 0.059912 0.313286 0.057603
Si Si6 0.251602 0.766958 0.860827
O O1 0.388627 0.352723 0.932050
O O2 0.317591 0.616525 0.895953
O O3 0.124898 0.434971 0.893922
O O4 0.322183 0.527381 0.999952
O O5 0.629700 0.159184 0.152568
O O6 0.562824 0.975264 0.216363
O O7 0.579985 0.880660 0.121402
O O8 0.396032 0.180514 0.509875
O O9 0.201190 0.129846 0.401534
O O10 0.353214 0.906377 0.469269
O O11 0.882577 0.737882 0.702519
#
# Coordination Sequence:
#
# PCOD8134312 Si02
#       6
#     8   8   8   4   8   8
#     4  10  19  35  60  83 113 151 176 216 282 335
#     4   9  21  40  56  79 111 143 188 235 275 326
#     4   9  18  34  55  86 120 144 176 221 272 334
#     4  10  22  40  60  74 106 152 188 236 286 314
#     4   9  18  34  58  86 117 147 176 221 276 333
#     4  10  21  38  58  81 110 145 188 233 272 324
#
# _framework density 20.548712999999999
#
# number of rings (size 3 to 8) (size 9 to 14) (size 15 to 20)
#    0.000    2.545    0.000    2.182    0.000    3.636 
#    0.000   16.364    0.000    2.182    0.000    0.000 
#    0.000    0.000    0.000    0.000    0.000    0.000 
#
# Total GULP energy -272815.230579 kJ/mol
# GULP energy per Si atom -12400.692299 kJ/mol
# Density = 2.050194 g / cm^3
# Si number density = 20.548713 Si / 1000 Ang^3
#
#
#
# Elastic Constant Matrix: (Units=GPa)
#
#
# Indices 1 2 3 4 5 6 
#
# 1 82.1875 59.6455 45.6731 0.0000 -17.7359 0.0000
# 2 59.6455 120.6898 47.5973 0.0000 -7.0647 0.0000
# 3 45.6731 47.5973 129.0833 0.0000 -20.0186 0.0000
# 4 0.0000 0.0000 0.0000 25.5661 0.0000 -0.2172
# 5 -17.7359 -7.0647 -20.0186 0.0000 28.7731 0.0000
# 6 0.0000 0.0000 0.0000 -0.2172 0.0000 40.9081
#
#
#
# Elastic Compliance Matrix: (Units=1/GPa)
#
#
# Indices 1 2 3 4 5 6 
#
# 1 0.022867 -0.009520 -0.003091 0.000000 0.009607 0.000000
# 2 -0.009520 0.013659 -0.002307 0.000000 -0.004119 0.000000
# 3 -0.003091 -0.002307 0.010434 0.000000 0.004788 0.000000
# 4 0.000000 0.000000 0.000000 0.039116 0.000000 0.000208
# 5 0.009607 -0.004119 0.004788 0.000000 0.042996 0.000000
# 6 0.000000 0.000000 0.000000 0.000208 0.000000 0.024446
#
#
# Mechanical properties :
#
#
# Convention : Reuss Voigt Hill
#
# Bulk Modulus (GPa) = 58.39524 70.86583 64.63054
# Shear Modulus (GPa) = 26.44650 30.98577 28.71613
#
# Velocity S-wave (km/s) = 3.59139 3.88740 3.74233
# Velocity P-wave (km/s) = 6.75848 7.39668 7.08477
#
# Compressibility (1/GPa) = 0.01712468
#
# Stress axis : x y z
#
# Youngs Moduli (GPa) = 43.73167 73.21153 95.84332
#
# Poissons Ratio (x) = 0.69694 0.29623
# Poissons Ratio (y) = 0.41631 0.22112
# Poissons Ratio (z) = 0.13516 0.16891
#
# Static dielectric constant tensor:
#      x y z
#    x 3.627560 0.000000 -0.194310 
#    y 0.000000 3.630390 0.000000 
#    z -0.194310 0.000000 3.768570 
# 
# 
# High freq. dielectric constant tensor:
#      x y z
#    x 1.796640 0.000000 -0.015020 
#    y 0.000000 1.804500 0.000000 
#    z -0.015020 0.000000 1.796850 
# 
# From -- ./inp_files/236114.got.cif
#   From: 2010.06.25/outbox.cif.g09.slc.cpg/sg15_119_cif.got.tgz:236114.got - 2010.06.28 07:06:18.
