data_PCOD8134969
_publ_section_title
;
Structure prediction by ZEFSAII (Michael W. Deem and Ramdas Pophale) SiO2 
 PCOD8134969
Probable space group: C 2/C
;
_chemical_formula_sum "Si O2"
_cell_formula_units_Z 56
_cell_length_a 9.166950
_cell_length_b 23.000467
_cell_length_c 15.658959
_cell_angle_alpha 90.000000
_cell_angle_beta 124.498024
_cell_angle_gamma 90.000000
_cell_volume 2720.999189
_symmetry_space_group_name_H-M "C 2/C"
_symmetry_group_IT_number 15
_symmetry_cell_setting 'monoclinic'
loop_
_space_group_symop_operation_xyz
x,y,z
-x,y,1/2-z
-x,-y,-z
x,-y,1/2+z
1/2+x,1/2+y,z
1/2-x,1/2+y,1/2-z
1/2-x,1/2-y,-z
1/2+x,1/2-y,1/2+z
loop_
_atom_site_type_symbol
_atom_site_label
_atom_site_fract_x
_atom_site_fract_y
_atom_site_fract_z
Si Si1 0.146233 0.806374 0.362368
Si Si2 0.895155 0.018106 0.048754
Si Si3 0.095242 0.122056 0.196748
Si Si4 0.462118 0.975452 0.146780
Si Si5 0.317436 0.688304 0.435124
Si Si6 0.004221 0.604185 0.369561
Si Si7 0.294695 0.074990 0.905912
O O1 0.297534 0.757319 0.415098
O O2 0.085831 0.820435 0.440564
O O3 0.211013 0.866243 0.340291
O O4 0.000000 0.781097 0.250000
O O5 0.011735 0.059606 0.147026
O O6 0.850848 0.960672 0.088852
O O7 0.713660 0.049499 0.957362
O O8 0.000000 0.000000 0.000000
O O9 0.065033 0.163470 0.104041
O O10 0.301649 0.118466 0.285971
O O11 0.000000 0.147516 0.250000
O O12 0.500000 0.944468 0.250000
O O13 0.634079 0.965649 0.145571
O O14 0.436301 0.044205 0.155642
O O15 0.127177 0.655577 0.373137
O O16 0.038587 0.595402 0.481450
#
# Coordination Sequence:
#
# PCOD8134969 Si02
#       7
#     8   8   8   8   8   8   8
#     4  10  21  39  64  87 111 150 200 245 284 335
#     4  11  22  35  55  87 119 148 194 245 288 346
#     4  12  22  34  58  89 120 150 191 247 299 340
#     4  11  21  35  54  79 115 156 188 225 288 352
#     4  10  22  40  63  87 111 149 202 243 278 344
#     4  10  19  37  59  78 108 153 195 232 279 336
#     4  10  22  38  55  81 118 151 185 232 290 355
#
# _framework density 20.580674999999999
#
# number of rings (size 3 to 8) (size 9 to 14) (size 15 to 20)
#    0.000    1.429    0.000    9.000    0.000    4.000 
#    0.000    0.714    0.000   19.714    0.000    0.000 
#    0.000    0.000    0.000    0.000    0.000    0.000 
#
# Total GULP energy -347085.414454 kJ/mol
# GULP energy per Si atom -12395.907659 kJ/mol
# Density = 2.053383 g / cm^3
# Si number density = 20.580675 Si / 1000 Ang^3
#
#
#
# Elastic Constant Matrix: (Units=GPa)
#
#
# Indices 1 2 3 4 5 6 
#
# 1 110.9576 34.6316 42.2536 0.0000 -24.6998 0.0000
# 2 34.6316 98.4573 24.3783 0.0000 -10.8693 0.0000
# 3 42.2536 24.3783 97.6995 0.0000 -11.3339 0.0000
# 4 0.0000 0.0000 0.0000 23.7318 0.0000 -1.0833
# 5 -24.6998 -10.8693 -11.3339 0.0000 34.2260 0.0000
# 6 0.0000 0.0000 0.0000 -1.0833 0.0000 15.9630
#
#
#
# Elastic Compliance Matrix: (Units=1/GPa)
#
#
# Indices 1 2 3 4 5 6 
#
# 1 0.013042 -0.002777 -0.004116 0.000000 0.007167 0.000000
# 2 -0.002777 0.011652 -0.001570 0.000000 0.001176 0.000000
# 3 -0.004116 -0.001570 0.012485 0.000000 0.000665 0.000000
# 4 0.000000 0.000000 0.000000 0.042269 0.000000 0.002868
# 5 0.007167 0.001176 0.000665 0.000000 0.034984 0.000000
# 6 0.000000 0.000000 0.000000 0.002868 0.000000 0.062839
#
#
# Mechanical properties :
#
#
# Convention : Reuss Voigt Hill
#
# Bulk Modulus (GPa) = 49.37683 56.62681 53.00182
# Shear Modulus (GPa) = 24.88213 28.50757 26.69485
#
# Velocity S-wave (km/s) = 3.48085 3.72581 3.60541
# Velocity P-wave (km/s) = 6.34027 6.78846 6.56819
#
# Compressibility (1/GPa) = 0.02025241
#
# Stress axis : x y z
#
# Youngs Moduli (GPa) = 76.67476 85.82144 80.09908
#
# Poissons Ratio (x) = 0.23833 0.32970
# Poissons Ratio (y) = 0.21293 0.12575
# Poissons Ratio (z) = 0.31560 0.13474
#
# Static dielectric constant tensor:
#      x y z
#    x 3.691650 0.000000 -0.125680 
#    y 0.000000 3.627590 0.000000 
#    z -0.125680 0.000000 4.165790 
# 
# 
# High freq. dielectric constant tensor:
#      x y z
#    x 1.779750 0.000000 -0.011760 
#    y 0.000000 1.787500 0.000000 
#    z -0.011760 0.000000 1.827430 
# 
# From -- ./inp_files/137975.got.cif
#   From: 2010.06.25/outbox.cif.g09.slc.cpg/sg15_69_cif.got.tgz:137975.got - 2010.06.28 07:06:18.
