data_PCOD8134777
_publ_section_title
;
Structure prediction by ZEFSAII (Michael W. Deem and Ramdas Pophale) SiO2 
 PCOD8134777
Probable space group: C 2/C
;
_chemical_formula_sum "Si O2"
_cell_formula_units_Z 52
_cell_length_a 12.303566
_cell_length_b 13.532505
_cell_length_c 19.493870
_cell_angle_alpha 90.000000
_cell_angle_beta 122.718432
_cell_angle_gamma 90.000000
_cell_volume 2730.720335
_symmetry_space_group_name_H-M "C 2/C"
_symmetry_group_IT_number 15
_symmetry_cell_setting 'monoclinic'
loop_
_space_group_symop_operation_xyz
x,y,z
-x,y,1/2-z
-x,-y,-z
x,-y,1/2+z
1/2+x,1/2+y,z
1/2-x,1/2+y,1/2-z
1/2-x,1/2-y,-z
1/2+x,1/2-y,1/2+z
loop_
_atom_site_type_symbol
_atom_site_label
_atom_site_fract_x
_atom_site_fract_y
_atom_site_fract_z
Si Si1 0.614919 0.967775 0.145678
Si Si2 0.688381 0.448677 0.887151
Si Si3 0.323420 0.048332 0.571656
Si Si4 0.359588 0.232098 0.674733
Si Si5 0.771183 0.212734 0.729271
Si Si6 0.649154 0.083372 0.292962
Si Si7 0.000000 0.904998 0.250000
O O1 0.462120 0.973742 0.084871
O O2 0.661325 0.854055 0.155789
O O3 0.678602 0.035353 0.108928
O O4 0.664214 0.005866 0.236344
O O5 0.631533 0.340731 0.853783
O O6 0.582307 0.528400 0.829714
O O7 0.714605 0.461300 0.976751
O O8 0.318218 0.157908 0.600809
O O9 0.294191 0.967408 0.619844
O O10 0.500000 0.198481 0.750000
O O11 0.254132 0.227828 0.698909
O O12 0.766692 0.319058 0.691176
O O13 0.910635 0.162375 0.767685
O O14 0.500000 0.113436 0.250000
#
# Coordination Sequence:
#
# PCOD8134777 Si02
#       7
#     8   8   8   8   8   8   4
#     4  10  20  37  62  88 120 161 201 243 294 369
#     4  11  23  39  63  86 129 157 200 249 305 354
#     4  11  22  39  58  97 122 155 200 256 296 352
#     4  12  21  39  64  91 121 157 204 243 302 365
#     4  11  20  38  64  89 116 162 206 242 290 370
#     4  10  19  36  62  85 118 159 202 243 299 356
#     4  10  24  42  60  88 120 168 204 238 302 372
#
# _framework density 19.042594000000001
#
# number of rings (size 3 to 8) (size 9 to 14) (size 15 to 20)
#    0.000    1.231    6.154    1.385    0.000    0.000 
#    0.000    5.385    0.000    0.000    0.000    0.000 
#    0.000    0.000    0.000    0.000    0.000    0.000 
#
# Total GULP energy -322523.757893 kJ/mol
# GULP energy per Si atom -12404.759919 kJ/mol
# Density = 1.899925 g / cm^3
# Si number density = 19.042594 Si / 1000 Ang^3
#
#
#
# Elastic Constant Matrix: (Units=GPa)
#
#
# Indices 1 2 3 4 5 6 
#
# 1 83.2988 37.3995 35.9606 0.0000 -11.0927 0.0000
# 2 37.3995 108.0902 35.5049 0.0000 0.3755 0.0000
# 3 35.9606 35.5049 122.8062 0.0000 -10.2450 0.0000
# 4 0.0000 0.0000 0.0000 20.0590 0.0000 -4.5592
# 5 -11.0927 0.3755 -10.2450 0.0000 20.6644 0.0000
# 6 0.0000 0.0000 0.0000 -4.5592 0.0000 33.5771
#
#
#
# Elastic Compliance Matrix: (Units=1/GPa)
#
#
# Indices 1 2 3 4 5 6 
#
# 1 0.016343 -0.004766 -0.002784 0.000000 0.007479 0.000000
# 2 -0.004766 0.011671 -0.002305 0.000000 -0.003914 0.000000
# 3 -0.002784 -0.002305 0.009913 0.000000 0.003462 0.000000
# 4 0.000000 0.000000 0.000000 0.051441 0.000000 0.006985
# 5 0.007479 -0.003914 0.003462 0.000000 0.054195 0.000000
# 6 0.000000 0.000000 0.000000 0.006985 0.000000 0.030731
#
#
# Mechanical properties :
#
#
# Convention : Reuss Voigt Hill
#
# Bulk Modulus (GPa) = 54.89256 59.10280 56.99768
# Shear Modulus (GPa) = 24.99047 28.54876 26.76962
#
# Velocity S-wave (km/s) = 3.62656 3.87616 3.75344
# Velocity P-wave (km/s) = 6.81357 7.15104 6.98434
#
# Compressibility (1/GPa) = 0.01821741
#
# Stress axis : x y z
#
# Youngs Moduli (GPa) = 61.18968 85.67907 100.87435
#
# Poissons Ratio (x) = 0.40837 0.28079
# Poissons Ratio (y) = 0.29165 0.23253
# Poissons Ratio (z) = 0.17033 0.19751
#
# Static dielectric constant tensor:
#      x y z
#    x 3.624510 0.000000 -0.130610 
#    y 0.000000 3.572620 0.000000 
#    z -0.130610 0.000000 3.166090 
# 
# 
# High freq. dielectric constant tensor:
#      x y z
#    x 1.746580 0.000000 -0.011620 
#    y 0.000000 1.755400 0.000000 
#    z -0.011620 0.000000 1.713050 
# 
# From -- ./inp_files/198028.got.cif
#   From: 2010.06.25/outbox.cif.g09.slc.cpg/sg15_100_cif.got.tgz:198028.got - 2010.06.28 07:06:18.
