data_PCOD8134712
_publ_section_title
;
Structure prediction by ZEFSAII (Michael W. Deem and Ramdas Pophale) SiO2 
 PCOD8134712
Probable space group: C 2/C
;
_chemical_formula_sum "Si O2"
_cell_formula_units_Z 56
_cell_length_a 15.665619
_cell_length_b 8.396706
_cell_length_c 25.213139
_cell_angle_alpha 90.000000
_cell_angle_beta 46.980371
_cell_angle_gamma 90.000000
_cell_volume 2424.778636
_symmetry_space_group_name_H-M "C 2/C"
_symmetry_group_IT_number 15
_symmetry_cell_setting 'monoclinic'
loop_
_space_group_symop_operation_xyz
x,y,z
-x,y,1/2-z
-x,-y,-z
x,-y,1/2+z
1/2+x,1/2+y,z
1/2-x,1/2+y,1/2-z
1/2-x,1/2-y,-z
1/2+x,1/2-y,1/2+z
loop_
_atom_site_type_symbol
_atom_site_label
_atom_site_fract_x
_atom_site_fract_y
_atom_site_fract_z
Si Si1 0.769190 0.649826 0.044470
Si Si2 0.719374 0.284874 0.084629
Si Si3 0.108035 0.008800 0.316755
Si Si4 0.055912 0.224300 0.564143
Si Si5 0.508459 0.065750 0.912661
Si Si6 0.541525 0.226007 0.675235
Si Si7 0.252331 0.228919 0.687017
O O1 0.732728 0.465658 0.057882
O O2 0.680552 0.733487 0.123879
O O3 0.750000 0.750000 0.000000
O O4 0.910153 0.649773 0.992570
O O5 0.610983 0.219440 0.097175
O O6 0.685403 0.252928 0.159831
O O7 0.839061 0.188283 0.021491
O O8 0.211837 0.105269 0.301206
O O9 0.031701 0.115120 0.309020
O O10 0.166622 0.862883 0.261989
O O11 0.023808 0.933096 0.397363
O O12 0.981631 0.378660 0.578699
O O13 0.481958 0.098822 0.861456
O O14 0.632358 0.131700 0.877393
O O15 0.500000 0.160449 0.750000
#
# Coordination Sequence:
#
# PCOD8134712 Si02
#       7
#     8   8   8   8   8   8   8
#     4   9  17  34  62  90 120 160 204 257 306 364
#     4  10  21  39  66  93 123 163 218 258 318 376
#     4  11  23  40  64  86 133 168 208 261 324 383
#     4  10  21  40  65  90 122 162 211 267 307 378
#     4   9  21  39  59  86 126 161 201 260 313 376
#     4  10  19  36  60  92 119 159 213 260 303 374
#     4  11  24  42  62  92 130 171 208 261 326 385
#
# _framework density 23.094892999999999
#
# number of rings (size 3 to 8) (size 9 to 14) (size 15 to 20)
#    0.000    2.000    1.429    1.714    0.000    2.857 
#    7.714    2.857   12.571    0.000    0.000    0.000 
#    0.000    0.000    0.000    0.000    0.000    0.000 
#
# Total GULP energy -346939.884988 kJ/mol
# GULP energy per Si atom -12390.710178 kJ/mol
# Density = 2.304233 g / cm^3
# Si number density = 23.094893 Si / 1000 Ang^3
#
#
#
# Elastic Constant Matrix: (Units=GPa)
#
#
# Indices 1 2 3 4 5 6 
#
# 1 29.1324 2.5016 7.6874 0.0001 11.3949 0.0005
# 2 2.5016 60.4812 20.3819 0.0003 6.2533 0.0014
# 3 7.6874 20.3819 92.5196 0.0000 5.2187 0.0000
# 4 0.0001 0.0003 0.0000 35.6471 0.0000 -8.4319
# 5 11.3949 6.2533 5.2187 0.0000 34.5147 0.0001
# 6 0.0005 0.0014 0.0000 -8.4319 0.0001 20.2022
#
#
#
# Elastic Compliance Matrix: (Units=1/GPa)
#
#
# Indices 1 2 3 4 5 6 
#
# 1 0.040048 0.000599 -0.002731 0.000000 -0.012917 -0.000001
# 2 0.000599 0.018115 -0.003877 0.000000 -0.002894 -0.000001
# 3 -0.002731 -0.003877 0.011901 0.000000 -0.000195 0.000000
# 4 0.000000 0.000000 0.000000 0.031126 0.000000 0.012991
# 5 -0.012917 -0.002894 -0.000195 0.000000 0.033792 0.000000
# 6 -0.000001 -0.000001 0.000000 0.012991 0.000000 0.054922
#
#
# Mechanical properties :
#
#
# Convention : Reuss Voigt Hill
#
# Bulk Modulus (GPa) = 17.22779 27.03054 22.12917
# Shear Modulus (GPa) = 22.59698 28.17696 25.38697
#
# Velocity S-wave (km/s) = 3.13140 3.49671 3.31908
# Velocity P-wave (km/s) = 4.53321 5.29454 4.92860
#
# Compressibility (1/GPa) = 0.05804573
#
# Stress axis : x y z
#
# Youngs Moduli (GPa) = 24.97021 55.20261 84.02923
#
# Poissons Ratio (x) = -0.03309 0.22948
# Poissons Ratio (y) = -0.01497 0.32581
# Poissons Ratio (z) = 0.06819 0.21404
#
# Static dielectric constant tensor:
#      x y z
#    x 3.946770 0.000000 -0.348290 
#    y 0.000000 4.032630 0.000000 
#    z -0.348290 0.000000 4.403420 
# 
# 
# High freq. dielectric constant tensor:
#      x y z
#    x 1.888690 0.000000 -0.017140 
#    y 0.000000 1.902570 0.000000 
#    z -0.017140 0.000000 1.921930 
# 
# From -- ./inp_files/298514.got.cif
#   From: 2010.06.25/outbox.cif.g09.slc.cpg/sg15_150_cif.got.tgz:298514.got - 2010.06.28 07:06:18.
