data_PCOD8134471
_publ_section_title
;
Structure prediction by ZEFSAII (Michael W. Deem and Ramdas Pophale) SiO2 
 PCOD8134471
Probable space group: C 2/C
;
_chemical_formula_sum "Si O2"
_cell_formula_units_Z 64
_cell_length_a 25.940165
_cell_length_b 9.644700
_cell_length_c 14.677920
_cell_angle_alpha 90.000000
_cell_angle_beta 40.414336
_cell_angle_gamma 90.000000
_cell_volume 2380.723613
_symmetry_space_group_name_H-M "C 2/C"
_symmetry_group_IT_number 15
_symmetry_cell_setting 'monoclinic'
loop_
_space_group_symop_operation_xyz
x,y,z
-x,y,1/2-z
-x,-y,-z
x,-y,1/2+z
1/2+x,1/2+y,z
1/2-x,1/2+y,1/2-z
1/2-x,1/2-y,-z
1/2+x,1/2-y,1/2+z
loop_
_atom_site_type_symbol
_atom_site_label
_atom_site_fract_x
_atom_site_fract_y
_atom_site_fract_z
Si Si1 0.291849 0.145127 0.241427
Si Si2 0.096445 0.662674 0.255152
Si Si3 0.062032 0.741676 0.798676
Si Si4 0.081726 0.341452 0.474086
Si Si5 0.628973 0.534986 0.449958
Si Si6 0.794343 0.402419 0.058307
Si Si7 0.106841 0.757750 0.546948
Si Si8 0.125798 0.028812 0.757862
O O1 0.366939 0.097223 0.201129
O O2 0.225378 0.029594 0.312916
O O3 0.249651 0.257892 0.364259
O O4 0.315195 0.209906 0.112210
O O5 0.141658 0.603073 0.107896
O O6 0.099102 0.829383 0.245961
O O7 0.005419 0.608426 0.378382
O O8 0.092457 0.669239 0.850410
O O9 0.108406 0.687534 0.645381
O O10 0.969577 0.710398 0.908425
O O11 0.077234 0.905485 0.778366
O O12 0.095736 0.190936 0.503714
O O13 0.150564 0.443977 0.425056
O O14 0.604935 0.427276 0.562000
O O15 0.597380 0.460446 0.400969
O O16 0.721678 0.503534 0.126617
#
# Coordination Sequence:
#
# PCOD8134471 Si02
#       8
#     8   8   8   8   8   8   8   8
#     4  10  20  35  55  83 118 154 192 238 294 353
#     4  11  19  33  56  81 116 152 193 244 290 347
#     4  10  22  34  59  87 120 152 197 237 302 351
#     4  10  20  36  52  84 113 154 192 239 290 353
#     4  10  20  34  57  83 117 156 185 240 297 347
#     4  10  21  33  53  82 118 155 192 238 294 350
#     4  11  20  37  58  90 120 156 189 248 295 350
#     4  10  19  36  54  84 120 150 190 246 290 350
#
# _framework density 26.882583
#
# number of rings (size 3 to 8) (size 9 to 14) (size 15 to 20)
#    0.000    1.750    3.750    2.625    5.250    2.000 
#    0.000    5.625    0.000    0.750    6.500    0.000 
#    0.000    0.000    0.000    0.000    0.000    0.000 
#
# Total GULP energy -396623.188232 kJ/mol
# GULP energy per Si atom -12394.474632 kJ/mol
# Density = 2.682140 g / cm^3
# Si number density = 26.882583 Si / 1000 Ang^3
#
#
#
# Elastic Constant Matrix: (Units=GPa)
#
#
# Indices 1 2 3 4 5 6 
#
# 1 108.7743 -1.0600 38.6501 0.0000 -3.0183 -0.0004
# 2 -1.0600 43.4802 -9.3212 0.0004 -1.8398 -0.0004
# 3 38.6501 -9.3212 129.6376 -0.0005 10.6542 -0.0004
# 4 0.0000 0.0004 -0.0005 8.9254 0.0001 -22.0130
# 5 -3.0183 -1.8398 10.6542 0.0001 51.3430 0.0001
# 6 -0.0004 -0.0004 -0.0004 -22.0130 0.0001 18.7238
#
#
#
# Elastic Compliance Matrix: (Units=1/GPa)
#
#
# Indices 1 2 3 4 5 6 
#
# 1 0.010370 -0.000385 -0.003223 0.000000 0.001265 0.000000
# 2 -0.000385 0.023386 0.001759 0.000000 0.000450 0.000000
# 3 -0.003223 0.001759 0.008965 0.000000 -0.001987 0.000000
# 4 0.000000 0.000000 0.000000 -0.058981 0.000000 -0.069342
# 5 0.001265 0.000450 -0.001987 0.000000 0.019980 0.000000
# 6 0.000000 0.000000 0.000000 -0.069342 0.000000 -0.028115
#
#
# Mechanical properties :
#
#
# Convention : Reuss Voigt Hill
#
# Bulk Modulus (GPa) = 25.62613 37.60334 31.61474
# Shear Modulus (GPa) = -650.14334 32.70665 -308.71835
#
# Velocity S-wave (km/s) = -15.56826 3.49183 -10.72795
# Velocity P-wave (km/s) = 17.70897 5.50232 11.90235
#
# Compressibility (1/GPa) = 0.03902266
#
# Stress axis : x y z
#
# Youngs Moduli (GPa) = 96.43193 42.76108 111.55029
#
# Poissons Ratio (x) = 0.01645 0.35956
# Poissons Ratio (y) = 0.03710 -0.19624
# Poissons Ratio (z) = 0.31083 -0.07522
#
# Static dielectric constant tensor:
#      x y z
#    x 5.225200 0.000000 -0.194380 
#    y 0.000000 4.730520 0.000000 
#    z -0.194380 0.000000 4.868500 
# 
# 
# High freq. dielectric constant tensor:
#      x y z
#    x 2.086910 0.000000 -0.005030 
#    y 0.000000 2.070270 0.000000 
#    z -0.005030 0.000000 2.083680 
# 
# From -- ./inp_files/177793.got.cif
#   From: 2010.06.25/outbox.cif.g09.slc.cpg/sg15_89_cif.got.tgz:177793.got - 2010.06.28 07:06:18.
