data_PCOD8134722
_publ_section_title
;
Structure prediction by ZEFSAII (Michael W. Deem and Ramdas Pophale) SiO2 
 PCOD8134722
Probable space group: C 2/C
;
_chemical_formula_sum "Si O2"
_cell_formula_units_Z 60
_cell_length_a 19.056433
_cell_length_b 8.285475
_cell_length_c 26.665861
_cell_angle_alpha 90.000000
_cell_angle_beta 132.156685
_cell_angle_gamma 90.000000
_cell_volume 3121.158192
_symmetry_space_group_name_H-M "C 2/C"
_symmetry_group_IT_number 15
_symmetry_cell_setting 'monoclinic'
loop_
_space_group_symop_operation_xyz
x,y,z
-x,y,1/2-z
-x,-y,-z
x,-y,1/2+z
1/2+x,1/2+y,z
1/2-x,1/2+y,1/2-z
1/2-x,1/2-y,-z
1/2+x,1/2-y,1/2+z
loop_
_atom_site_type_symbol
_atom_site_label
_atom_site_fract_x
_atom_site_fract_y
_atom_site_fract_z
Si Si1 0.288384 0.494160 0.875671
Si Si2 0.279513 0.793001 0.244311
Si Si3 0.433055 0.675372 0.379227
Si Si4 0.865704 0.966829 0.266204
Si Si5 0.743510 0.992841 0.014974
Si Si6 0.500000 0.671974 0.750000
Si Si7 0.357061 0.297304 0.494631
Si Si8 0.160290 0.699116 0.389347
O O1 0.229155 0.568557 0.801329
O O2 0.372429 0.378869 0.898144
O O3 0.335830 0.639460 0.929110
O O4 0.216409 0.389672 0.872824
O O5 0.376458 0.818848 0.323051
O O6 0.190366 0.808354 0.240335
O O7 0.287464 0.612991 0.223426
O O8 0.442488 0.522548 0.345241
O O9 0.532759 0.738591 0.445677
O O10 0.919959 0.934869 0.239882
O O11 0.791592 0.870753 0.076640
O O12 0.695688 0.128846 0.025313
O O13 0.663725 0.906805 0.941901
O O14 0.824727 0.069971 0.019408
O O15 0.447148 0.778716 0.682138
#
# Coordination Sequence:
#
# PCOD8134722 Si02
#       8
#     8   8   8   8   8   4   8   8
#     4  10  20  37  60  85 111 161 191 238 292 357
#     4   9  20  39  60  82 119 160 188 237 306 354
#     4   9  19  36  58  83 115 150 190 239 288 348
#     4   9  21  38  60  85 120 156 191 239 305 348
#     4   9  21  39  55  79 119 160 178 242 312 342
#     4  12  22  34  64  96 108 152 210 252 276 358
#     4  10  19  36  61  83 111 149 204 237 286 351
#     4  10  22  38  56  81 122 152 195 240 297 348
#
# _framework density 19.223633
#
# number of rings (size 3 to 8) (size 9 to 14) (size 15 to 20)
#    0.800    1.600    0.000    2.000    1.867    1.067 
#    2.400    0.667    0.000    0.000    0.000    0.000 
#    0.000    0.000    0.000    0.000    0.000    0.000 
#
# Total GULP energy -371772.269130 kJ/mol
# GULP energy per Si atom -12392.408971 kJ/mol
# Density = 1.917988 g / cm^3
# Si number density = 19.223633 Si / 1000 Ang^3
#
#
#
# Elastic Constant Matrix: (Units=GPa)
#
#
# Indices 1 2 3 4 5 6 
#
# 1 81.2384 23.3225 37.7778 0.0000 -1.3806 0.0000
# 2 23.3225 52.2785 42.2149 0.0001 0.6466 0.0000
# 3 37.7778 42.2149 112.7146 0.0000 6.0808 0.0000
# 4 0.0000 0.0001 0.0000 24.2465 0.0000 -6.8188
# 5 -1.3806 0.6466 6.0808 0.0000 24.8730 0.0000
# 6 0.0000 0.0000 0.0000 -6.8188 0.0000 21.9450
#
#
#
# Elastic Compliance Matrix: (Units=1/GPa)
#
#
# Indices 1 2 3 4 5 6 
#
# 1 0.015175 -0.003734 -0.003788 0.000000 0.001865 0.000000
# 2 -0.003734 0.028422 -0.009467 0.000000 0.001368 0.000000
# 3 -0.003788 -0.009467 0.013868 0.000000 -0.003355 0.000000
# 4 0.000000 0.000000 0.000000 0.045192 0.000000 0.014042
# 5 0.001865 0.001368 -0.003355 0.000000 0.041092 0.000000
# 6 0.000000 0.000000 0.000000 0.014042 0.000000 0.049932
#
#
# Mechanical properties :
#
#
# Convention : Reuss Voigt Hill
#
# Bulk Modulus (GPa) = 42.57774 50.31799 46.44786
# Shear Modulus (GPa) = 21.23245 23.74064 22.48655
#
# Velocity S-wave (km/s) = 3.32700 3.51803 3.42385
# Velocity P-wave (km/s) = 6.07909 6.53712 6.31226
#
# Compressibility (1/GPa) = 0.02348645
#
# Stress axis : x y z
#
# Youngs Moduli (GPa) = 65.89919 35.18411 72.10655
#
# Poissons Ratio (x) = 0.13137 0.27315
# Poissons Ratio (y) = 0.24606 0.68265
# Poissons Ratio (z) = 0.24964 0.33310
#
# Static dielectric constant tensor:
#      x y z
#    x 3.389980 0.000000 -0.138030 
#    y 0.000000 3.391090 0.000000 
#    z -0.138030 0.000000 3.506800 
# 
# 
# High freq. dielectric constant tensor:
#      x y z
#    x 1.740180 0.000000 -0.010590 
#    y 0.000000 1.737240 0.000000 
#    z -0.010590 0.000000 1.747690 
# 
# From -- ./inp_files/300527.got.cif
#   From: 2010.06.25/outbox.cif.g09.slc.cpg/sg15_151_cif.got.tgz:300527.got - 2010.06.28 07:06:18.
