data_PCOD8134934
_publ_section_title
;
Structure prediction by ZEFSAII (Michael W. Deem and Ramdas Pophale) SiO2 
 PCOD8134934
Probable space group: C 2/C
;
_chemical_formula_sum "Si O2"
_cell_formula_units_Z 64
_cell_length_a 22.686279
_cell_length_b 22.130249
_cell_length_c 9.267493
_cell_angle_alpha 90.000000
_cell_angle_beta 50.398519
_cell_angle_gamma 90.000000
_cell_volume 3584.946313
_symmetry_space_group_name_H-M "C 2/C"
_symmetry_group_IT_number 15
_symmetry_cell_setting 'monoclinic'
loop_
_space_group_symop_operation_xyz
x,y,z
-x,y,1/2-z
-x,-y,-z
x,-y,1/2+z
1/2+x,1/2+y,z
1/2-x,1/2+y,1/2-z
1/2-x,1/2-y,-z
1/2+x,1/2-y,1/2+z
loop_
_atom_site_type_symbol
_atom_site_label
_atom_site_fract_x
_atom_site_fract_y
_atom_site_fract_z
Si Si1 0.158302 0.275945 0.793842
Si Si2 0.246029 0.172263 0.129447
Si Si3 0.753413 0.334711 0.095913
Si Si4 0.991745 0.259230 0.095572
Si Si5 0.498865 0.617812 0.081545
Si Si6 0.165082 0.294801 0.273353
Si Si7 0.142235 0.062445 0.366496
Si Si8 0.354018 0.437987 0.296247
O O1 0.173616 0.310130 0.920287
O O2 0.216375 0.308915 0.599231
O O3 0.182653 0.205539 0.767061
O O4 0.069066 0.280125 0.892926
O O5 0.183325 0.223656 0.262924
O O6 0.212105 0.108183 0.229327
O O7 0.270659 0.172398 0.924751
O O8 0.825384 0.331402 0.092633
O O9 0.724144 0.401548 0.109428
O O10 0.980437 0.188131 0.090001
O O11 0.922663 0.298791 0.139434
O O12 0.000000 0.274038 0.250000
O O13 0.500000 0.600191 0.250000
O O14 0.434011 0.583133 0.095050
O O15 0.577618 0.598418 0.885408
O O16 0.129206 0.054139 0.558771
O O17 0.163262 0.999947 0.257998
#
# Coordination Sequence:
#
# PCOD8134934 Si02
#       8
#     8   8   8   8   8   8   8   8
#     4  10  19  37  57  83 118 149 191 236 299 347
#     4  10  20  36  57  84 117 151 191 244 285 346
#     4  10  22  36  57  86 115 151 189 249 289 340
#     4  11  20  34  58  91 119 161 189 232 293 359
#     4  11  24  38  58  86 123 159 199 235 278 347
#     4  10  21  33  58  88 117 148 193 236 295 346
#     4  12  25  41  60  82 117 162 204 240 288 337
#     4  12  25  42  59  83 116 161 202 241 286 346
#
# _framework density 17.852429999999998
#
# number of rings (size 3 to 8) (size 9 to 14) (size 15 to 20)
#    0.000    1.250    5.000    1.500    3.500    0.500 
#    2.250    0.000    0.000    0.000    0.000    5.250 
#    0.000    0.000    0.000    0.000    0.000    0.000 
#
# Total GULP energy -396659.291366 kJ/mol
# GULP energy per Si atom -12395.602855 kJ/mol
# Density = 1.781180 g / cm^3
# Si number density = 17.852430 Si / 1000 Ang^3
#
#
#
# Elastic Constant Matrix: (Units=GPa)
#
#
# Indices 1 2 3 4 5 6 
#
# 1 114.8614 41.7784 31.8181 0.0000 -6.5534 0.0000
# 2 41.7784 70.5984 35.7918 0.0000 2.1124 0.0000
# 3 31.8181 35.7918 66.9112 0.0000 1.2737 0.0000
# 4 0.0000 0.0000 0.0000 22.3095 0.0000 -0.7858
# 5 -6.5534 2.1124 1.2737 0.0000 21.9540 0.0000
# 6 0.0000 0.0000 0.0000 -0.7858 0.0000 23.0845
#
#
#
# Elastic Compliance Matrix: (Units=1/GPa)
#
#
# Indices 1 2 3 4 5 6 
#
# 1 0.011764 -0.005778 -0.002584 0.000000 0.004218 0.000000
# 2 -0.005778 0.022309 -0.009122 0.000000 -0.003342 0.000000
# 3 -0.002584 -0.009122 0.021075 0.000000 -0.001116 0.000000
# 4 0.000000 0.000000 0.000000 0.044878 0.000000 0.001528
# 5 0.004218 -0.003342 -0.001116 0.000000 0.047195 0.000000
# 6 0.000000 0.000000 0.000000 0.001528 0.000000 0.043371
#
#
# Mechanical properties :
#
#
# Convention : Reuss Voigt Hill
#
# Bulk Modulus (GPa) = 49.55442 52.34974 50.95208
# Shear Modulus (GPa) = 21.52528 23.00179 22.26353
#
# Velocity S-wave (km/s) = 3.47613 3.59338 3.53524
# Velocity P-wave (km/s) = 6.62793 6.82669 6.72804
#
# Compressibility (1/GPa) = 0.02017984
#
# Stress axis : x y z
#
# Youngs Moduli (GPa) = 85.00424 44.82588 47.45067
#
# Poissons Ratio (x) = 0.25901 0.12260
# Poissons Ratio (y) = 0.49116 0.43284
# Poissons Ratio (z) = 0.21962 0.40890
#
# Static dielectric constant tensor:
#      x y z
#    x 3.395310 0.000000 0.150360 
#    y 0.000000 3.144330 0.000000 
#    z 0.150360 0.000000 3.330200 
# 
# 
# High freq. dielectric constant tensor:
#      x y z
#    x 1.698330 0.000000 0.012790 
#    y 0.000000 1.662020 0.000000 
#    z 0.012790 0.000000 1.695690 
# 
# From -- ./inp_files/63407.got.cif
#   From: 2010.06.25/outbox.cif.g09.slc.cpg/sg15_32_cif.got.tgz:63407.got - 2010.06.28 07:06:18.
