data_PCOD8134572
_publ_section_title
;
Structure prediction by ZEFSAII (Michael W. Deem and Ramdas Pophale) SiO2 
 PCOD8134572
Probable space group: C 2/C
;
_chemical_formula_sum "Si O2"
_cell_formula_units_Z 44
_cell_length_a 20.455176
_cell_length_b 21.055803
_cell_length_c 12.964685
_cell_angle_alpha 90.000000
_cell_angle_beta 24.221855
_cell_angle_gamma 90.000000
_cell_volume 2290.908474
_symmetry_space_group_name_H-M "C 2/C"
_symmetry_group_IT_number 15
_symmetry_cell_setting 'monoclinic'
loop_
_space_group_symop_operation_xyz
x,y,z
-x,y,1/2-z
-x,-y,-z
x,-y,1/2+z
1/2+x,1/2+y,z
1/2-x,1/2+y,1/2-z
1/2-x,1/2-y,-z
1/2+x,1/2-y,1/2+z
loop_
_atom_site_type_symbol
_atom_site_label
_atom_site_fract_x
_atom_site_fract_y
_atom_site_fract_z
Si Si1 0.370667 0.600569 0.784485
Si Si2 0.092405 0.765168 0.519125
Si Si3 0.057636 0.227096 0.481642
Si Si4 0.462772 0.140041 0.188282
Si Si5 0.213136 0.903489 0.331570
Si Si6 0.000000 0.999890 0.750000
O O1 0.487026 0.660862 0.621785
O O2 0.330177 0.582373 0.725244
O O3 0.454254 0.540923 0.716590
O O4 0.216145 0.617080 0.077003
O O5 0.253297 0.724954 0.269067
O O6 0.134542 0.837978 0.479971
O O7 0.000000 0.736486 0.750000
O O8 0.975895 0.759348 0.589912
O O9 0.974686 0.283896 0.663476
O O10 0.500000 0.120071 0.250000
O O11 0.595297 0.103833 0.927867
O O12 0.150251 0.957593 0.498506
#
# Coordination Sequence:
#
# PCOD8134572 Si02
#       6
#     8   8   8   8   8   4
#     4  10  22  34  56  85 110 143 184 236 279 322
#     4  10  19  36  58  81 116 152 185 232 279 340
#     4  10  21  33  58  87 118 140 189 232 288 343
#     4   9  19  37  59  79 114 147 181 231 281 342
#     4   9  20  39  55  78 106 157 191 215 279 332
#     4  12  22  34  60  76 118 144 190 232 260 342
#
# _framework density 19.206354999999999
#
# number of rings (size 3 to 8) (size 9 to 14) (size 15 to 20)
#    0.000    2.182    0.909    2.727    3.818    0.727 
#    0.000    0.000    0.000    1.091    0.000    0.000 
#    0.000    0.000    0.000    0.000    0.000    0.000 
#
# Total GULP energy -272767.405112 kJ/mol
# GULP energy per Si atom -12398.518414 kJ/mol
# Density = 1.916264 g / cm^3
# Si number density = 19.206355 Si / 1000 Ang^3
#
#
#
# Elastic Constant Matrix: (Units=GPa)
#
#
# Indices 1 2 3 4 5 6 
#
# 1 32.7005 23.3673 18.8359 -0.0126 0.8298 -0.0034
# 2 23.3673 92.9647 50.0842 -0.0008 0.0595 -0.0167
# 3 18.8359 50.0842 94.1817 -0.0115 11.8359 -0.0299
# 4 -0.0126 -0.0008 -0.0115 25.4657 0.0100 -7.1883
# 5 0.8298 0.0595 11.8359 0.0100 18.4362 -0.0023
# 6 -0.0034 -0.0167 -0.0299 -7.1883 -0.0023 12.2735
#
#
#
# Elastic Compliance Matrix: (Units=1/GPa)
#
#
# Indices 1 2 3 4 5 6 
#
# 1 0.038108 -0.007608 -0.003658 0.000017 0.000658 0.000001
# 2 -0.007608 0.017135 -0.008296 -0.000010 0.005613 -0.000004
# 3 -0.003658 -0.008296 0.017118 0.000021 -0.010798 0.000040
# 4 0.000017 -0.000010 0.000021 0.047046 -0.000036 0.027554
# 5 0.000658 0.005613 -0.010798 -0.000036 0.061126 -0.000028
# 6 0.000001 -0.000004 0.000040 0.027554 -0.000028 0.097614
#
#
# Mechanical properties :
#
#
# Convention : Reuss Voigt Hill
#
# Bulk Modulus (GPa) = 30.08760 44.93574 37.51167
# Shear Modulus (GPa) = 15.22764 19.73905 17.48335
#
# Velocity S-wave (km/s) = 2.81880 3.20931 3.02037
# Velocity P-wave (km/s) = 5.12773 6.09754 5.63354
#
# Compressibility (1/GPa) = 0.03323628
#
# Stress axis : x y z
#
# Youngs Moduli (GPa) = 26.24136 58.36043 58.41816
#
# Poissons Ratio (x) = 0.44403 0.21370
# Poissons Ratio (y) = 0.19965 0.48463
# Poissons Ratio (z) = 0.09599 0.48415
#
# Static dielectric constant tensor:
#      x y z
#    x 3.367970 -0.000010 -0.084460 
#    y -0.000010 3.281020 0.000020 
#    z -0.084460 0.000020 3.813410 
# 
# 
# High freq. dielectric constant tensor:
#      x y z
#    x 1.735830 0.000000 0.000950 
#    y 0.000000 1.727470 0.000000 
#    z 0.000950 0.000000 1.761800 
# 
# From -- ./inp_files/30759.got.cif
#   From: 2010.06.25/outbox.cif.g09.slc.cpg/sg15_16_cif.got.tgz:30759.got - 2010.06.28 07:06:18.
