data_PCOD8134293
_publ_section_title
;
Structure prediction by ZEFSAII (Michael W. Deem and Ramdas Pophale) SiO2 
 PCOD8134293
Probable space group: C 2/C
;
_chemical_formula_sum "Si O2"
_cell_formula_units_Z 40
_cell_length_a 15.657553
_cell_length_b 19.030984
_cell_length_c 9.000335
_cell_angle_alpha 90.000000
_cell_angle_beta 131.257587
_cell_angle_gamma 90.000000
_cell_volume 2016.130712
_symmetry_space_group_name_H-M "C 2/C"
_symmetry_group_IT_number 15
_symmetry_cell_setting 'monoclinic'
loop_
_space_group_symop_operation_xyz
x,y,z
-x,y,1/2-z
-x,-y,-z
x,-y,1/2+z
1/2+x,1/2+y,z
1/2-x,1/2+y,1/2-z
1/2-x,1/2-y,-z
1/2+x,1/2-y,1/2+z
loop_
_atom_site_type_symbol
_atom_site_label
_atom_site_fract_x
_atom_site_fract_y
_atom_site_fract_z
Si Si1 0.253035 0.347383 0.140586
Si Si2 0.937951 0.673333 0.536506
Si Si3 0.204145 0.811994 0.646827
Si Si4 0.041099 0.433928 0.955059
Si Si5 0.515328 0.665803 0.433234
O O1 0.197136 0.272777 0.123708
O O2 0.371725 0.362720 0.358989
O O3 0.270770 0.347211 0.983534
O O4 0.174521 0.412804 0.102914
O O5 0.801152 0.670364 0.381060
O O6 0.981931 0.751389 0.578666
O O7 0.000000 0.636926 0.750000
O O8 0.975038 0.635187 0.429663
O O9 0.091706 0.848814 0.582563
O O10 0.000000 0.456446 0.750000
O O11 0.000000 0.500000 0.000000
O O12 0.500000 0.632400 0.250000
#
# Coordination Sequence:
#
# PCOD8134293 Si02
#       5
#     8   8   8   8   8
#     4  10  21  35  60  88 123 161 202 250 308 368
#     4  10  21  34  57  89 126 159 198 249 306 363
#     4  10  19  35  59  89 127 158 196 255 312 372
#     4  12  24  42  60  88 118 162 210 249 299 360
#     4  10  21  33  57  95 127 155 191 252 319 368
#
# _framework density 19.839984000000001
#
# number of rings (size 3 to 8) (size 9 to 14) (size 15 to 20)
#    0.000    1.600    4.000    1.200    2.800    2.400 
#    0.000    0.000    0.000    1.200    0.000    0.000 
#    0.000    0.000    0.000    0.000    0.000    0.000 
#
# Total GULP energy -247832.687405 kJ/mol
# GULP energy per Si atom -12391.634370 kJ/mol
# Density = 1.979483 g / cm^3
# Si number density = 19.839984 Si / 1000 Ang^3
#
#
#
# Elastic Constant Matrix: (Units=GPa)
#
#
# Indices 1 2 3 4 5 6 
#
# 1 146.9189 45.8780 69.9953 0.0000 11.5330 0.0000
# 2 45.8780 44.4390 51.7315 0.0000 8.2822 0.0000
# 3 69.9953 51.7315 152.9564 0.0000 -2.3656 0.0000
# 4 0.0000 0.0000 0.0000 32.4278 0.0000 -3.7201
# 5 11.5330 8.2822 -2.3656 0.0000 31.7732 0.0000
# 6 0.0000 0.0000 0.0000 -3.7201 0.0000 38.6127
#
#
#
# Elastic Compliance Matrix: (Units=1/GPa)
#
#
# Indices 1 2 3 4 5 6 
#
# 1 0.010453 -0.007984 -0.002112 0.000000 -0.001870 0.000000
# 2 -0.007984 0.047177 -0.012462 0.000000 -0.010327 0.000000
# 3 -0.002112 -0.012462 0.011795 0.000000 0.004893 0.000000
# 4 0.000000 0.000000 0.000000 0.031182 0.000000 0.003004
# 5 -0.001870 -0.010327 0.004893 0.000000 0.035208 0.000000
# 6 0.000000 0.000000 0.000000 0.003004 0.000000 0.026188
#
#
# Mechanical properties :
#
#
# Convention : Reuss Voigt Hill
#
# Bulk Modulus (GPa) = 41.13782 75.50266 58.32024
# Shear Modulus (GPa) = 23.23200 32.34339 27.78770
#
# Velocity S-wave (km/s) = 3.42565 4.04197 3.74651
# Velocity P-wave (km/s) = 6.03545 7.74092 6.94076
#
# Compressibility (1/GPa) = 0.02430853
#
# Stress axis : x y z
#
# Youngs Moduli (GPa) = 95.67003 21.19688 84.78433
#
# Poissons Ratio (x) = 0.16924 0.17906
# Poissons Ratio (y) = 0.76383 1.05656
# Poissons Ratio (z) = 0.20205 0.26415
#
# Static dielectric constant tensor:
#      x y z
#    x 5.363610 0.000000 -1.015510 
#    y 0.000000 3.170170 0.000000 
#    z -1.015510 0.000000 4.681220 
# 
# 
# High freq. dielectric constant tensor:
#      x y z
#    x 1.783520 0.000000 -0.002030 
#    y 0.000000 1.717740 0.000000 
#    z -0.002030 0.000000 1.792430 
# 
# From -- ./inp_files/38953.got.cif
#   From: 2010.06.25/outbox.cif.g09.slc.cpg/sg15_20_cif.got.tgz:38953.got - 2010.06.28 07:06:18.
