data_PCOD8135494
_publ_section_title
;
Structure prediction by ZEFSAII (Michael W. Deem and Ramdas Pophale) SiO2 
 PCOD8135494
Probable space group: C 2/C
;
_chemical_formula_sum "Si O2"
_cell_formula_units_Z 32
_cell_length_a 11.828787
_cell_length_b 6.602166
_cell_length_c 15.063133
_cell_angle_alpha 90.000000
_cell_angle_beta 95.534468
_cell_angle_gamma 90.000000
_cell_volume 1170.880852
_symmetry_space_group_name_H-M "C 2/C"
_symmetry_group_IT_number 15
_symmetry_cell_setting 'monoclinic'
loop_
_space_group_symop_operation_xyz
x,y,z
-x,y,1/2-z
-x,-y,-z
x,-y,1/2+z
1/2+x,1/2+y,z
1/2-x,1/2+y,1/2-z
1/2-x,1/2-y,-z
1/2+x,1/2-y,1/2+z
loop_
_atom_site_type_symbol
_atom_site_label
_atom_site_fract_x
_atom_site_fract_y
_atom_site_fract_z
Si Si1 0.233411 0.957429 0.422437
Si Si2 0.507577 0.656967 0.652937
Si Si3 0.756283 0.070977 0.886876
Si Si4 0.104864 0.424137 0.212996
O O1 0.279752 0.942831 0.527759
O O2 0.226834 0.191542 0.393157
O O3 0.317225 0.829764 0.361031
O O4 0.107898 0.868116 0.409456
O O5 0.500000 0.561432 0.750000
O O6 0.608868 0.538897 0.611793
O O7 0.537899 0.893660 0.660877
O O8 0.689798 0.990674 0.795278
O O9 0.000000 0.291770 0.250000
#
# Coordination Sequence:
#
# PCOD8135494 Si02
#       4
#     8   8   8   8
#     4  10  21  39  67  93 127 168 210 266 316 370
#     4  10  19  38  64  90 128 168 207 261 316 370
#     4  10  21  39  63  98 127 164 217 258 314 381
#     4  10  22  39  60  92 131 163 212 261 312 381
#
# _framework density 27.329854000000001
#
# number of rings (size 3 to 8) (size 9 to 14) (size 15 to 20)
#    0.000    2.000    2.500    0.750    0.000    2.000 
#    0.000    5.000    0.000    0.000    0.000    0.000 
#    0.000    0.000    0.000    0.000    0.000    0.000 
#
# Total GULP energy -198276.040118 kJ/mol
# GULP energy per Si atom -12392.252507 kJ/mol
# Density = 2.726765 g / cm^3
# Si number density = 27.329854 Si / 1000 Ang^3
#
#
#
# Elastic Constant Matrix: (Units=GPa)
#
#
# Indices 1 2 3 4 5 6 
#
# 1 227.9478 14.3864 73.5227 0.0000 -5.4784 0.0000
# 2 14.3864 24.3854 -0.1343 0.0000 14.3783 0.0000
# 3 73.5227 -0.1343 167.6410 0.0000 -11.0280 0.0000
# 4 0.0000 0.0000 0.0000 22.6163 0.0000 16.5573
# 5 -5.4784 14.3783 -11.0280 0.0000 48.0004 0.0000
# 6 0.0000 0.0000 0.0000 16.5573 0.0000 -1.8739
#
#
#
# Elastic Compliance Matrix: (Units=1/GPa)
#
#
# Indices 1 2 3 4 5 6 
#
# 1 0.005406 -0.003954 -0.002290 0.000000 0.001275 0.000000
# 2 -0.003954 0.052848 0.000716 0.000000 -0.016117 0.000000
# 3 -0.002290 0.000716 0.007045 0.000000 0.001143 0.000000
# 4 0.000000 0.000000 0.000000 0.005920 0.000000 0.052310
# 5 0.001275 -0.016117 0.001143 0.000000 0.026069 0.000000
# 6 0.000000 0.000000 0.000000 0.052310 0.000000 -0.071452
#
#
# Mechanical properties :
#
#
# Convention : Reuss Voigt Hill
#
# Bulk Modulus (GPa) = 18.43545 66.16930 42.30237
# Shear Modulus (GPa) = 90.95371 35.89516 63.42444
#
# Velocity S-wave (km/s) = 5.77514 3.62802 4.82259
# Velocity P-wave (km/s) = 7.15750 6.46637 6.82070
#
# Compressibility (1/GPa) = 0.05424333
#
# Stress axis : x y z
#
# Youngs Moduli (GPa) = 184.98652 18.92230 141.93944
#
# Poissons Ratio (x) = 0.07481 0.32506
# Poissons Ratio (y) = 0.73137 -0.10164
# Poissons Ratio (z) = 0.42364 -0.01355
#
# Static dielectric constant tensor:
#      x y z
#    x 5.804280 0.000000 -0.548660 
#    y 0.000000 4.804330 0.000000 
#    z -0.548660 0.000000 4.995370 
# 
# 
# High freq. dielectric constant tensor:
#      x y z
#    x 2.116600 0.000000 -0.011130 
#    y 0.000000 2.104020 0.000000 
#    z -0.011130 0.000000 2.096320 
# 
# From -- ./inp_files/140516.got.cif
#   From: 2010.06.25/outbox.cif.g09.slc.cpg/sg15_71_cif.got.tgz:140516.got - 2010.06.28 07:06:18.
