data_PCOD8135514
_publ_section_title
;
Structure prediction by ZEFSAII (Michael W. Deem and Ramdas Pophale) SiO2 
 PCOD8135514
Probable space group: C 2/C
;
_chemical_formula_sum "Si O2"
_cell_formula_units_Z 56
_cell_length_a 20.273782
_cell_length_b 14.562515
_cell_length_c 18.984121
_cell_angle_alpha 90.000000
_cell_angle_beta 30.000115
_cell_angle_gamma 90.000000
_cell_volume 2802.419624
_symmetry_space_group_name_H-M "C 2/C"
_symmetry_group_IT_number 15
_symmetry_cell_setting 'monoclinic'
loop_
_space_group_symop_operation_xyz
x,y,z
-x,y,1/2-z
-x,-y,-z
x,-y,1/2+z
1/2+x,1/2+y,z
1/2-x,1/2+y,1/2-z
1/2-x,1/2-y,-z
1/2+x,1/2-y,1/2+z
loop_
_atom_site_type_symbol
_atom_site_label
_atom_site_fract_x
_atom_site_fract_y
_atom_site_fract_z
Si Si1 0.118189 0.701671 0.603751
Si Si2 0.840001 0.487789 0.359681
Si Si3 0.606188 0.632703 0.377307
Si Si4 0.607995 0.166098 0.918214
Si Si5 0.892133 0.448686 0.951683
Si Si6 0.356098 0.128781 0.064524
Si Si7 0.319716 0.559477 0.624077
O O1 0.250000 0.750000 0.500000
O O2 0.112512 0.600787 0.641867
O O3 0.093957 0.697913 0.542527
O O4 0.000000 0.758716 0.750000
O O5 0.808655 0.557532 0.454785
O O6 0.721816 0.457510 0.418477
O O7 0.954024 0.532735 0.206945
O O8 0.611737 0.723702 0.419777
O O9 0.707350 0.658099 0.221465
O O10 0.456415 0.614905 0.491946
O O11 0.663545 0.542321 0.361217
O O12 0.716537 0.119652 0.765456
O O13 0.627739 0.141503 0.982296
O O14 0.462356 0.133040 0.029004
O O15 0.838992 0.526623 0.052533
#
# Coordination Sequence:
#
# PCOD8135514 Si02
#       7
#     8   8   8   8   8   8   8
#     4  11  23  35  54  89 128 159 203 248 307 385
#     4  10  20  40  62  87 120 167 205 257 314 358
#     4  11  26  38  61  97 127 163 208 259 329 371
#     4  12  22  39  68  92 120 165 220 260 307 375
#     4  10  19  38  65  90 117 160 219 259 298 369
#     4  11  21  38  60  88 122 162 209 252 303 376
#     4  11  23  43  61  88 137 161 200 273 316 376
#
# _framework density 19.982731999999999
#
# number of rings (size 3 to 8) (size 9 to 14) (size 15 to 20)
#    0.000    1.143    5.714    2.143    6.000    0.000 
#    0.000    2.857    0.000    0.000    0.000    0.000 
#    0.000    0.000    0.000    0.000    0.000    0.000 
#
# Total GULP energy -346881.072449 kJ/mol
# GULP energy per Si atom -12388.609730 kJ/mol
# Density = 1.993725 g / cm^3
# Si number density = 19.982732 Si / 1000 Ang^3
#
#
#
# Elastic Constant Matrix: (Units=GPa)
#
#
# Indices 1 2 3 4 5 6 
#
# 1 121.7017 36.4503 56.4356 0.0000 7.1323 -0.0001
# 2 36.4503 98.8838 41.1671 -0.0001 3.3083 0.0000
# 3 56.4356 41.1671 141.4482 0.0000 -5.2715 -0.0001
# 4 0.0000 -0.0001 0.0000 15.4027 0.0001 1.3374
# 5 7.1323 3.3083 -5.2715 0.0001 31.7728 0.0000
# 6 -0.0001 0.0000 -0.0001 1.3374 0.0000 27.8771
#
#
#
# Elastic Compliance Matrix: (Units=1/GPa)
#
#
# Indices 1 2 3 4 5 6 
#
# 1 0.010815 -0.002336 -0.003740 0.000000 -0.002805 0.000000
# 2 -0.002336 0.012111 -0.002637 0.000000 -0.001174 0.000000
# 3 -0.003740 -0.002637 0.009429 0.000000 0.002678 0.000000
# 4 0.000000 0.000000 0.000000 0.065195 0.000000 -0.003128
# 5 -0.002805 -0.001174 0.002678 0.000000 0.032670 0.000000
# 6 0.000000 0.000000 0.000000 -0.003128 0.000000 0.036022
#
#
# Mechanical properties :
#
#
# Convention : Reuss Voigt Hill
#
# Bulk Modulus (GPa) = 66.97657 70.01556 68.49606
# Shear Modulus (GPa) = 26.50517 30.20924 28.35721
#
# Velocity S-wave (km/s) = 3.64593 3.89236 3.77116
# Velocity P-wave (km/s) = 7.16336 7.43739 7.30166
#
# Compressibility (1/GPa) = 0.01493060
#
# Stress axis : x y z
#
# Youngs Moduli (GPa) = 92.46438 82.57075 106.05614
#
# Poissons Ratio (x) = 0.19287 0.39662
# Poissons Ratio (y) = 0.21598 0.27962
# Poissons Ratio (z) = 0.34579 0.21770
#
# Static dielectric constant tensor:
#      x y z
#    x 3.657130 0.000000 0.106560 
#    y 0.000000 3.689430 0.000000 
#    z 0.106560 0.000000 3.812900 
# 
# 
# High freq. dielectric constant tensor:
#      x y z
#    x 1.773580 0.000000 0.004420 
#    y 0.000000 1.766120 0.000000 
#    z 0.004420 0.000000 1.786360 
# 
# From -- ./inp_files/215696.got.cif
#   From: 2010.06.25/outbox.cif.g09.slc.cpg/sg15_108_cif.got.tgz:215696.got - 2010.06.28 07:06:18.
