data_PCOD8135314
_publ_section_title
;
Structure prediction by ZEFSAII (Michael W. Deem and Ramdas Pophale) SiO2 
 PCOD8135314
Probable space group: C 2/C
;
_chemical_formula_sum "Si O2"
_cell_formula_units_Z 64
_cell_length_a 28.097158
_cell_length_b 9.858563
_cell_length_c 20.910409
_cell_angle_alpha 90.000000
_cell_angle_beta 29.451515
_cell_angle_gamma 90.000000
_cell_volume 2847.915816
_symmetry_space_group_name_H-M "C 2/C"
_symmetry_group_IT_number 15
_symmetry_cell_setting 'monoclinic'
loop_
_space_group_symop_operation_xyz
x,y,z
-x,y,1/2-z
-x,-y,-z
x,-y,1/2+z
1/2+x,1/2+y,z
1/2-x,1/2+y,1/2-z
1/2-x,1/2-y,-z
1/2+x,1/2-y,1/2+z
loop_
_atom_site_type_symbol
_atom_site_label
_atom_site_fract_x
_atom_site_fract_y
_atom_site_fract_z
Si Si1 0.971661 0.615861 0.950367
Si Si2 0.195964 0.800972 0.341408
Si Si3 0.352167 0.484730 0.804526
Si Si4 0.207983 0.757883 0.182982
Si Si5 0.563360 0.530982 0.529245
Si Si6 0.505085 0.184490 0.056353
Si Si7 0.180957 0.688163 0.682464
Si Si8 0.326978 0.533622 0.975771
O O1 0.947695 0.455767 0.974091
O O2 0.070340 0.646110 0.796799
O O3 0.877434 0.697073 0.035721
O O4 0.992378 0.674994 0.995978
O O5 0.229038 0.742367 0.234215
O O6 0.290912 0.821514 0.274586
O O7 0.138898 0.944051 0.398017
O O8 0.281011 0.585306 0.849643
O O9 0.454254 0.477142 0.646912
O O10 0.301887 0.338737 0.864163
O O11 0.368994 0.547025 0.855569
O O12 0.101242 0.704362 0.289106
O O13 0.282175 0.673141 0.054008
O O14 0.572515 0.689026 0.498141
O O15 0.586859 0.501297 0.576065
O O16 0.248757 0.586525 0.564539
#
# Coordination Sequence:
#
# PCOD8135314 Si02
#       8
#     8   8   8   8   8   8   8   8
#     4  10  19  38  58  88 131 159 192 259 321 386
#     4  10  23  38  61  98 123 155 213 258 332 374
#     4  11  23  41  63  87 123 172 210 259 312 369
#     4  10  22  38  59  90 121 158 205 263 311 381
#     4  10  22  39  64  91 121 162 215 260 309 380
#     4   9  20  35  59  86 121 162 195 250 331 370
#     4  11  23  38  64  91 123 164 205 263 317 381
#     4  11  23  41  60  90 123 168 215 255 307 381
#
# _framework density 22.472574000000002
#
# number of rings (size 3 to 8) (size 9 to 14) (size 15 to 20)
#    0.000    1.750    2.500    1.125    3.500    3.500 
#    0.000    0.000    0.000    0.000    0.000    0.000 
#    0.000    0.000    0.000    0.000    0.000    0.000 
#
# Total GULP energy -396786.709944 kJ/mol
# GULP energy per Si atom -12399.584686 kJ/mol
# Density = 2.242143 g / cm^3
# Si number density = 22.472574 Si / 1000 Ang^3
#
#
#
# Elastic Constant Matrix: (Units=GPa)
#
#
# Indices 1 2 3 4 5 6 
#
# 1 37.7092 12.5398 -1.0306 0.0014 8.6567 -0.0005
# 2 12.5398 121.0688 25.3251 0.0046 0.4750 -0.0026
# 3 -1.0306 25.3251 44.2802 0.0021 -1.7138 -0.0015
# 4 0.0014 0.0046 0.0021 15.2780 -0.0013 4.1285
# 5 8.6567 0.4750 -1.7138 -0.0013 26.2942 0.0007
# 6 -0.0005 -0.0026 -0.0015 4.1285 0.0007 28.8375
#
#
#
# Elastic Compliance Matrix: (Units=1/GPa)
#
#
# Indices 1 2 3 4 5 6 
#
# 1 0.029984 -0.003562 0.002361 -0.000003 -0.009653 0.000001
# 2 -0.003562 0.009812 -0.005671 -0.000002 0.000626 0.000001
# 3 0.002361 -0.005671 0.025921 -0.000002 0.001014 0.000001
# 4 -0.000003 -0.000002 -0.000002 0.068088 0.000005 -0.009748
# 5 -0.009653 0.000626 0.001014 0.000005 0.041264 -0.000002
# 6 0.000001 0.000001 0.000001 -0.009748 -0.000002 0.036073
#
#
# Mechanical properties :
#
#
# Convention : Reuss Voigt Hill
#
# Bulk Modulus (GPa) = 19.24007 30.74741 24.99374
# Shear Modulus (GPa) = 20.64337 25.16353 22.90345
#
# Velocity S-wave (km/s) = 3.03413 3.34989 3.19591
# Velocity P-wave (km/s) = 4.56670 5.35483 4.97640
#
# Compressibility (1/GPa) = 0.05197485
#
# Stress axis : x y z
#
# Youngs Moduli (GPa) = 33.35148 101.91190 38.57893
#
# Poissons Ratio (x) = 0.36297 -0.09109
# Poissons Ratio (y) = 0.11879 0.21877
# Poissons Ratio (z) = -0.07875 0.57791
#
# Static dielectric constant tensor:
#      x y z
#    x 3.764520 0.000000 -0.188720 
#    y 0.000000 4.230950 0.000000 
#    z -0.188720 0.000000 3.904090 
# 
# 
# High freq. dielectric constant tensor:
#      x y z
#    x 1.854540 0.000000 -0.013360 
#    y 0.000000 1.899320 0.000000 
#    z -0.013360 0.000000 1.877410 
# 
# From -- ./inp_files/284427.got.cif
#   From: 2010.06.25/outbox.cif.g09.slc.cpg/sg15_143_cif.got.tgz:284427.got - 2010.06.28 07:06:18.
