data_PCOD8135112
_publ_section_title
;
Structure prediction by ZEFSAII (Michael W. Deem and Ramdas Pophale) SiO2 
 PCOD8135112
Probable space group: C 2/C
;
_chemical_formula_sum "Si O2"
_cell_formula_units_Z 48
_cell_length_a 17.458747
_cell_length_b 8.593787
_cell_length_c 15.549366
_cell_angle_alpha 90.000000
_cell_angle_beta 93.774101
_cell_angle_gamma 90.000000
_cell_volume 2327.916915
_symmetry_space_group_name_H-M "C 2/C"
_symmetry_group_IT_number 15
_symmetry_cell_setting 'monoclinic'
loop_
_space_group_symop_operation_xyz
x,y,z
-x,y,1/2-z
-x,-y,-z
x,-y,1/2+z
1/2+x,1/2+y,z
1/2-x,1/2+y,1/2-z
1/2-x,1/2-y,-z
1/2+x,1/2-y,1/2+z
loop_
_atom_site_type_symbol
_atom_site_label
_atom_site_fract_x
_atom_site_fract_y
_atom_site_fract_z
Si Si1 0.687700 0.333991 0.287565
Si Si2 0.833077 0.696067 0.037243
Si Si3 0.944368 0.673093 0.892605
Si Si4 0.340098 0.312976 0.751354
Si Si5 0.612313 0.109716 0.881954
Si Si6 0.576655 0.104236 0.219970
O O1 0.647620 0.297958 0.376551
O O2 0.681553 0.507687 0.253988
O O3 0.776122 0.282799 0.300057
O O4 0.644254 0.228856 0.213353
O O5 0.837503 0.508732 0.056047
O O6 0.750000 0.750000 0.000000
O O7 0.898502 0.732095 0.972567
O O8 0.919224 0.784879 0.810667
O O9 0.929252 0.489806 0.870249
O O10 0.035435 0.679901 0.920581
O O11 0.339931 0.257011 0.651125
O O12 0.591657 0.025474 0.792199
O O13 0.500000 0.190705 0.250000
#
# Coordination Sequence:
#
# PCOD8135112 Si02
#       6
#     8   8   8   8   8   8
#     4  11  22  36  57  85 116 153 195 253 297 353
#     4  11  21  36  59  87 123 154 195 243 299 353
#     4  10  19  37  62  85 114 155 196 242 295 361
#     4  11  21  37  59  82 114 152 203 245 295 353
#     4   9  20  37  58  83 115 155 195 235 291 356
#     4   8  17  34  57  82 109 149 199 238 292 354
#
# _framework density 20.619292999999999
#
# number of rings (size 3 to 8) (size 9 to 14) (size 15 to 20)
#    0.000    2.000    1.667    5.000    0.000    1.333 
#    0.000    3.333    0.000    0.000    0.000    0.000 
#    0.000    0.000    0.000    0.000    0.000    0.000 
#
# Total GULP energy -297352.082979 kJ/mol
# GULP energy per Si atom -12389.670124 kJ/mol
# Density = 2.057236 g / cm^3
# Si number density = 20.619293 Si / 1000 Ang^3
#
#
#
# Elastic Constant Matrix: (Units=GPa)
#
#
# Indices 1 2 3 4 5 6 
#
# 1 106.7629 38.7729 28.5944 0.0000 -14.0834 0.0000
# 2 38.7729 100.1821 28.6534 0.0000 -5.9805 0.0000
# 3 28.5944 28.6534 69.9323 0.0000 -19.1333 0.0000
# 4 0.0000 0.0000 0.0000 21.8641 0.0000 2.2490
# 5 -14.0834 -5.9805 -19.1333 0.0000 32.2434 0.0000
# 6 0.0000 0.0000 0.0000 2.2490 0.0000 35.8885
#
#
#
# Elastic Compliance Matrix: (Units=1/GPa)
#
#
# Indices 1 2 3 4 5 6 
#
# 1 0.011756 -0.003659 -0.002493 0.000000 0.002977 0.000000
# 2 -0.003659 0.012462 -0.004077 0.000000 -0.001706 0.000000
# 3 -0.002493 -0.004077 0.019680 0.000000 0.009833 0.000000
# 4 0.000000 0.000000 0.000000 0.046034 0.000000 -0.002885
# 5 0.002977 -0.001706 0.009833 0.000000 0.037833 0.000000
# 6 0.000000 0.000000 0.000000 -0.002885 0.000000 0.028045
#
#
# Mechanical properties :
#
#
# Convention : Reuss Voigt Hill
#
# Bulk Modulus (GPa) = 42.66272 52.10207 47.38240
# Shear Modulus (GPa) = 27.16214 30.05631 28.60922
#
# Velocity S-wave (km/s) = 3.63342 3.82210 3.72895
# Velocity P-wave (km/s) = 6.19177 6.69338 6.44745
#
# Compressibility (1/GPa) = 0.02343967
#
# Stress axis : x y z
#
# Youngs Moduli (GPa) = 85.06452 80.24328 50.81419
#
# Poissons Ratio (x) = 0.29361 0.12669
# Poissons Ratio (y) = 0.31125 0.20715
# Poissons Ratio (z) = 0.21208 0.32713
#
# Static dielectric constant tensor:
#      x y z
#    x 4.017850 0.000000 -0.152220 
#    y 0.000000 3.588350 0.000000 
#    z -0.152220 0.000000 3.691850 
# 
# 
# High freq. dielectric constant tensor:
#      x y z
#    x 1.809590 0.000000 -0.012630 
#    y 0.000000 1.782470 0.000000 
#    z -0.012630 0.000000 1.788370 
# 
# From -- ./inp_files/208611.got.cif
#   From: 2010.06.25/outbox.cif.g09.slc.cpg/sg15_105_cif.got.tgz:208611.got - 2010.06.28 07:06:18.
