data_PCOD8135041
_publ_section_title
;
Structure prediction by ZEFSAII (Michael W. Deem and Ramdas Pophale) SiO2 
 PCOD8135041
Probable space group: C 2/C
;
_chemical_formula_sum "Si O2"
_cell_formula_units_Z 48
_cell_length_a 13.432462
_cell_length_b 21.404549
_cell_length_c 9.596946
_cell_angle_alpha 90.000000
_cell_angle_beta 69.058234
_cell_angle_gamma 90.000000
_cell_volume 2577.007447
_symmetry_space_group_name_H-M "C 2/C"
_symmetry_group_IT_number 15
_symmetry_cell_setting 'monoclinic'
loop_
_space_group_symop_operation_xyz
x,y,z
-x,y,1/2-z
-x,-y,-z
x,-y,1/2+z
1/2+x,1/2+y,z
1/2-x,1/2+y,1/2-z
1/2-x,1/2-y,-z
1/2+x,1/2-y,1/2+z
loop_
_atom_site_type_symbol
_atom_site_label
_atom_site_fract_x
_atom_site_fract_y
_atom_site_fract_z
Si Si1 0.000000 0.738964 0.750000
Si Si2 0.596802 0.204461 0.426000
Si Si3 0.403574 0.935729 0.626437
Si Si4 0.777338 0.157658 0.938093
Si Si5 0.500000 0.289415 0.250000
Si Si6 0.698100 0.733351 0.307333
Si Si7 0.857269 0.460856 0.958027
O O1 0.060312 0.697183 0.604468
O O2 0.086570 0.781340 0.786505
O O3 0.622276 0.136800 0.351827
O O4 0.510174 0.243729 0.379173
O O5 0.709903 0.239583 0.355552
O O6 0.365760 0.968229 0.788214
O O7 0.530252 0.937820 0.536285
O O8 0.337857 0.970875 0.536471
O O9 0.694770 0.200941 0.892994
O O10 0.897468 0.166012 0.819412
O O11 0.774539 0.177551 0.100841
O O12 0.737145 0.086373 0.948378
#
# Coordination Sequence:
#
# PCOD8135041 Si02
#       7
#     4   8   8   8   4   8   8
#     4  12  22  34  52  90 126 142 176 252 298 342
#     4  11  21  35  56  85 119 148 190 235 294 346
#     4  10  21  34  55  83 111 154 184 238 278 342
#     4  10  19  37  60  85 110 157 197 233 277 363
#     4  10  20  36  64  88 112 156 198 232 284 350
#     4  10  21  34  57  84 114 153 188 233 297 343
#     4  10  20  35  55  80 115 146 196 227 285 336
#
# _framework density 18.626256999999999
#
# number of rings (size 3 to 8) (size 9 to 14) (size 15 to 20)
#    0.000    1.667    3.333    2.500    2.333    4.000 
#    0.000    0.000    0.000    2.000    0.000    0.000 
#    0.000    0.000    0.000    0.000    0.000    0.000 
#
# Total GULP energy -297485.963005 kJ/mol
# GULP energy per Si atom -12395.248459 kJ/mol
# Density = 1.858386 g / cm^3
# Si number density = 18.626257 Si / 1000 Ang^3
#
#
#
# Elastic Constant Matrix: (Units=GPa)
#
#
# Indices 1 2 3 4 5 6 
#
# 1 106.3709 39.3794 41.4675 0.0000 2.5092 0.0000
# 2 39.3794 78.4522 28.9399 0.0000 -1.4965 0.0000
# 3 41.4675 28.9399 118.1358 0.0000 1.7014 0.0000
# 4 0.0000 0.0000 0.0000 19.0338 0.0000 -1.1363
# 5 2.5092 -1.4965 1.7014 0.0000 25.7590 0.0000
# 6 0.0000 0.0000 0.0000 -1.1363 0.0000 24.8710
#
#
#
# Elastic Compliance Matrix: (Units=1/GPa)
#
#
# Indices 1 2 3 4 5 6 
#
# 1 0.012568 -0.005182 -0.003123 0.000000 -0.001319 0.000000
# 2 -0.005182 0.016177 -0.002167 0.000000 0.001588 0.000000
# 3 -0.003123 -0.002167 0.010099 0.000000 -0.000489 0.000000
# 4 0.000000 0.000000 0.000000 0.052682 0.000000 0.002407
# 5 -0.001319 0.001588 -0.000489 0.000000 0.039074 0.000000
# 6 0.000000 0.000000 0.000000 0.002407 0.000000 0.040317
#
#
# Mechanical properties :
#
#
# Convention : Reuss Voigt Hill
#
# Bulk Modulus (GPa) = 55.86409 58.05915 56.96162
# Shear Modulus (GPa) = 25.27444 26.81091 26.04267
#
# Velocity S-wave (km/s) = 3.68764 3.79808 3.74327
# Velocity P-wave (km/s) = 6.94182 7.10437 7.02357
#
# Compressibility (1/GPa) = 0.01790059
#
# Stress axis : x y z
#
# Youngs Moduli (GPa) = 79.56713 61.81543 99.01945
#
# Poissons Ratio (x) = 0.32030 0.30926
# Poissons Ratio (y) = 0.41229 0.21457
# Poissons Ratio (z) = 0.24851 0.13395
#
# Static dielectric constant tensor:
#      x y z
#    x 3.341530 0.000000 -0.004060 
#    y 0.000000 3.114250 0.000000 
#    z -0.004060 0.000000 3.524020 
# 
# 
# High freq. dielectric constant tensor:
#      x y z
#    x 1.711750 0.000000 -0.005140 
#    y 0.000000 1.684180 0.000000 
#    z -0.005140 0.000000 1.738490 
# 
# From -- ./inp_files/40705.got.cif
#   From: 2010.06.25/outbox.cif.g09.slc.cpg/sg15_21_cif.got.tgz:40705.got - 2010.06.28 07:06:18.
