data_PCOD8135511
_publ_section_title
;
Structure prediction by ZEFSAII (Michael W. Deem and Ramdas Pophale) SiO2 
 PCOD8135511
Probable space group: C 2/C
;
_chemical_formula_sum "Si O2"
_cell_formula_units_Z 56
_cell_length_a 5.090141
_cell_length_b 26.376652
_cell_length_c 25.306414
_cell_angle_alpha 90.000000
_cell_angle_beta 127.002340
_cell_angle_gamma 90.000000
_cell_volume 2713.409499
_symmetry_space_group_name_H-M "C 2/C"
_symmetry_group_IT_number 15
_symmetry_cell_setting 'monoclinic'
loop_
_space_group_symop_operation_xyz
x,y,z
-x,y,1/2-z
-x,-y,-z
x,-y,1/2+z
1/2+x,1/2+y,z
1/2-x,1/2+y,1/2-z
1/2-x,1/2-y,-z
1/2+x,1/2-y,1/2+z
loop_
_atom_site_type_symbol
_atom_site_label
_atom_site_fract_x
_atom_site_fract_y
_atom_site_fract_z
Si Si1 0.888215 0.883119 0.791374
Si Si2 0.180183 0.658829 0.483353
Si Si3 0.850670 0.781748 0.175071
Si Si4 0.345788 0.062334 0.420867
Si Si5 0.821834 0.533602 0.538673
Si Si6 0.762140 0.219571 0.142675
Si Si7 0.591791 0.143794 0.934299
O O1 0.500000 0.875243 0.750000
O O2 0.000000 0.910255 0.750000
O O3 0.003844 0.917207 0.855244
O O4 0.074385 0.829645 0.811709
O O5 0.563662 0.670815 0.539093
O O6 0.128161 0.605467 0.444550
O O7 0.039313 0.705099 0.431941
O O8 0.976420 0.654477 0.512613
O O9 0.541751 0.744526 0.140679
O O10 0.716136 0.834727 0.135701
O O11 0.000000 0.793546 0.250000
O O12 0.132123 0.757215 0.172433
O O13 0.360542 0.054014 0.484744
O O14 0.410023 0.006086 0.405343
O O15 0.500000 0.500000 0.500000
O O16 0.852657 0.584863 0.576572
#
# Coordination Sequence:
#
# PCOD8135511 Si02
#       7
#     8   8   8   8   8   8   8
#     4  11  23  38  61  91 124 158 196 248 302 366
#     4  10  21  38  61  95 118 146 193 261 310 349
#     4  12  25  41  58  83 120 169 207 238 284 366
#     4   9  21  36  60  92 121 151 197 247 307 366
#     4  10  19  38  65  86 115 158 198 249 308 369
#     4  11  23  40  64  86 119 160 204 243 301 362
#     4  11  23  38  61  89 123 153 201 251 306 350
#
# _framework density 20.63824
#
# number of rings (size 3 to 8) (size 9 to 14) (size 15 to 20)
#    0.000    1.429    1.429    4.286    2.000    5.714 
#    0.000    0.714    0.000    0.000    0.000    0.000 
#    0.000    0.000    0.000    0.000    0.000    0.000 
#
# Total GULP energy -346975.696606 kJ/mol
# GULP energy per Si atom -12391.989164 kJ/mol
# Density = 2.059127 g / cm^3
# Si number density = 20.638240 Si / 1000 Ang^3
#
#
#
# Elastic Constant Matrix: (Units=GPa)
#
#
# Indices 1 2 3 4 5 6 
#
# 1 81.3350 15.2853 13.9764 0.0000 18.6381 0.0000
# 2 15.2853 100.9616 58.5101 0.0000 6.8081 0.0000
# 3 13.9764 58.5101 101.6656 0.0000 18.5825 0.0000
# 4 0.0000 0.0000 0.0000 22.0303 0.0000 -1.8808
# 5 18.6381 6.8081 18.5825 0.0000 31.5113 0.0000
# 6 0.0000 0.0000 0.0000 -1.8808 0.0000 19.6965
#
#
#
# Elastic Compliance Matrix: (Units=1/GPa)
#
#
# Indices 1 2 3 4 5 6 
#
# 1 0.014520 -0.002059 0.000759 0.000000 -0.008591 0.000000
# 2 -0.002059 0.015273 -0.009108 0.000000 0.003289 0.000000
# 3 0.000759 -0.009108 0.016471 0.000000 -0.008194 0.000000
# 4 0.000000 0.000000 0.000000 0.045765 0.000000 0.004370
# 5 -0.008591 0.003289 -0.008194 0.000000 0.040938 0.000000
# 6 0.000000 0.000000 0.000000 0.004370 0.000000 0.051188
#
#
# Mechanical properties :
#
#
# Convention : Reuss Voigt Hill
#
# Bulk Modulus (GPa) = 39.29459 51.05620 45.17540
# Shear Modulus (GPa) = 23.42430 27.72697 25.57563
#
# Velocity S-wave (km/s) = 3.37262 3.66932 3.52410
# Velocity P-wave (km/s) = 5.85211 6.53791 6.20449
#
# Compressibility (1/GPa) = 0.02544880
#
# Stress axis : x y z
#
# Youngs Moduli (GPa) = 68.87062 65.47499 60.71133
#
# Poissons Ratio (x) = 0.13480 -0.04608
# Poissons Ratio (y) = 0.14180 0.55296
# Poissons Ratio (z) = -0.05228 0.59634
#
# Static dielectric constant tensor:
#      x y z
#    x 3.615080 0.000000 0.107130 
#    y 0.000000 3.785440 0.000000 
#    z 0.107130 0.000000 3.708480 
# 
# 
# High freq. dielectric constant tensor:
#      x y z
#    x 1.806290 0.000000 0.009200 
#    y 0.000000 1.809200 0.000000 
#    z 0.009200 0.000000 1.794370 
# 
# From -- ./inp_files/261991.got.cif
#   From: 2010.06.25/outbox.cif.g09.slc.cpg/sg15_131_cif.got.tgz:261991.got - 2010.06.28 07:06:18.
