data_PCOD8135737
_publ_section_title
;
Structure prediction by ZEFSAII (Michael W. Deem and Ramdas Pophale) SiO2 
 PCOD8135737
Probable space group: C 2/C
;
_chemical_formula_sum "Si O2"
_cell_formula_units_Z 52
_cell_length_a 18.453724
_cell_length_b 8.377657
_cell_length_c 19.059942
_cell_angle_alpha 90.000000
_cell_angle_beta 119.565504
_cell_angle_gamma 90.000000
_cell_volume 2562.970805
_symmetry_space_group_name_H-M "C 2/C"
_symmetry_group_IT_number 15
_symmetry_cell_setting 'monoclinic'
loop_
_space_group_symop_operation_xyz
x,y,z
-x,y,1/2-z
-x,-y,-z
x,-y,1/2+z
1/2+x,1/2+y,z
1/2-x,1/2+y,1/2-z
1/2-x,1/2-y,-z
1/2+x,1/2-y,1/2+z
loop_
_atom_site_type_symbol
_atom_site_label
_atom_site_fract_x
_atom_site_fract_y
_atom_site_fract_z
Si Si1 0.000000 0.952369 0.250000
Si Si2 0.634249 0.456136 0.073464
Si Si3 0.207732 0.252161 0.175165
Si Si4 0.084682 0.420673 0.020204
Si Si5 0.826604 0.965653 0.712367
Si Si6 0.024004 0.111350 0.913975
Si Si7 0.213801 0.335205 0.549571
O O1 0.925202 0.052495 0.247946
O O2 0.966301 0.858295 0.165191
O O3 0.700330 0.600805 0.118059
O O4 0.570869 0.437187 0.109550
O O5 0.684679 0.293797 0.092616
O O6 0.583494 0.474612 0.975769
O O7 0.134707 0.374292 0.115659
O O8 0.294280 0.354632 0.218508
O O9 0.197271 0.176790 0.246648
O O10 0.138565 0.541612 0.997690
O O11 0.059053 0.270572 0.963346
O O12 0.000000 0.500000 0.000000
O O13 0.787947 0.935859 0.618059
O O14 0.250000 0.250000 0.500000
#
# Coordination Sequence:
#
# PCOD8135737 Si02
#       7
#     4   8   8   8   8   8   8
#     4  12  24  38  60  96 126 162 206 274 322 374
#     4  10  19  39  66  88 120 170 210 254 321 392
#     4  10  22  39  63  92 120 169 213 256 315 394
#     4  10  21  39  64  91 121 167 222 259 307 389
#     4  11  24  40  63  91 128 166 212 263 322 382
#     4  10  21  37  63  92 124 165 212 259 321 387
#     4  11  23  38  62  93 126 162 209 269 318 374
#
# _framework density 20.288955999999999
#
# number of rings (size 3 to 8) (size 9 to 14) (size 15 to 20)
#    0.000    1.538    3.077    1.846    0.000    2.462 
#    0.000    6.154    0.000    4.615    0.000    0.000 
#    0.000    0.000    0.000    0.000    0.000    0.000 
#
# Total GULP energy -322092.559868 kJ/mol
# GULP energy per Si atom -12388.175380 kJ/mol
# Density = 2.024278 g / cm^3
# Si number density = 20.288956 Si / 1000 Ang^3
#
#
#
# Elastic Constant Matrix: (Units=GPa)
#
#
# Indices 1 2 3 4 5 6 
#
# 1 111.5174 49.6965 40.4833 0.0000 3.2972 0.0000
# 2 49.6965 101.3587 19.2774 0.0000 1.7998 0.0000
# 3 40.4833 19.2774 98.6648 0.0000 -17.6197 0.0000
# 4 0.0000 0.0000 0.0000 31.5921 0.0000 -2.0153
# 5 3.2972 1.7998 -17.6197 0.0000 30.4235 0.0000
# 6 0.0000 0.0000 0.0000 -2.0153 0.0000 28.1134
#
#
#
# Elastic Compliance Matrix: (Units=1/GPa)
#
#
# Indices 1 2 3 4 5 6 
#
# 1 0.013428 -0.005528 -0.005165 0.000000 -0.004120 0.000000
# 2 -0.005528 0.012630 -0.000252 0.000000 -0.000294 0.000000
# 3 -0.005165 -0.000252 0.013838 0.000000 0.008589 0.000000
# 4 0.000000 0.000000 0.000000 0.031799 0.000000 0.002279
# 5 -0.004120 -0.000294 0.008589 0.000000 0.038307 0.000000
# 6 0.000000 0.000000 0.000000 0.002279 0.000000 0.035734
#
#
# Mechanical properties :
#
#
# Convention : Reuss Voigt Hill
#
# Bulk Modulus (GPa) = 55.54105 58.93948 57.24026
# Shear Modulus (GPa) = 28.79752 31.49804 30.14778
#
# Velocity S-wave (km/s) = 3.77154 3.94442 3.85895
# Velocity P-wave (km/s) = 6.81179 7.06100 6.93751
#
# Compressibility (1/GPa) = 0.01800470
#
# Stress axis : x y z
#
# Youngs Moduli (GPa) = 74.47355 79.17961 72.26687
#
# Poissons Ratio (x) = 0.43771 0.37326
# Poissons Ratio (y) = 0.41170 0.01820
# Poissons Ratio (z) = 0.38466 0.01994
#
# Static dielectric constant tensor:
#      x y z
#    x 3.650290 0.000000 0.240440 
#    y 0.000000 3.750530 0.000000 
#    z 0.240440 0.000000 3.908230 
# 
# 
# High freq. dielectric constant tensor:
#      x y z
#    x 1.780290 0.000000 0.016920 
#    y 0.000000 1.791100 0.000000 
#    z 0.016920 0.000000 1.804030 
# 
# From -- ./inp_files/209217.got.cif
#   From: 2010.06.25/outbox.cif.g09.slc.cpg/sg15_105_cif.got.tgz:209217.got - 2010.06.28 07:06:18.
