data_PCOD8135827
_publ_section_title
;
Structure prediction by ZEFSAII (Michael W. Deem and Ramdas Pophale) SiO2 
 PCOD8135827
Probable space group: C 2/C
;
_chemical_formula_sum "Si O2"
_cell_formula_units_Z 56
_cell_length_a 20.605681
_cell_length_b 21.669773
_cell_length_c 9.185736
_cell_angle_alpha 90.000000
_cell_angle_beta 138.196728
_cell_angle_gamma 90.000000
_cell_volume 2734.036712
_symmetry_space_group_name_H-M "C 2/C"
_symmetry_group_IT_number 15
_symmetry_cell_setting 'monoclinic'
loop_
_space_group_symop_operation_xyz
x,y,z
-x,y,1/2-z
-x,-y,-z
x,-y,1/2+z
1/2+x,1/2+y,z
1/2-x,1/2+y,1/2-z
1/2-x,1/2-y,-z
1/2+x,1/2-y,1/2+z
loop_
_atom_site_type_symbol
_atom_site_label
_atom_site_fract_x
_atom_site_fract_y
_atom_site_fract_z
Si Si1 0.257978 0.156962 0.089818
Si Si2 0.603475 0.263764 0.162824
Si Si3 0.500000 0.210722 0.250000
Si Si4 0.000000 0.846841 0.750000
Si Si5 0.720932 0.551324 0.211297
Si Si6 0.323726 0.431626 0.527323
Si Si7 0.342463 0.888881 0.453631
Si Si8 0.066652 0.512213 0.975139
O O1 0.344662 0.199618 0.304016
O O2 0.195212 0.119493 0.106851
O O3 0.186243 0.197596 0.876746
O O4 0.299135 0.107493 0.043131
O O5 0.520394 0.251609 0.142663
O O6 0.555726 0.302080 0.953303
O O7 0.595295 0.173109 0.457945
O O8 0.922575 0.891885 0.699864
O O9 0.659635 0.495024 0.037591
O O10 0.709046 0.549727 0.364749
O O11 0.832078 0.547234 0.337353
O O12 0.239922 0.391049 0.310187
O O13 0.412607 0.946358 0.561347
O O14 0.000000 0.550566 0.750000
O O15 0.000000 0.500000 0.000000
#
# Coordination Sequence:
#
# PCOD8135827 Si02
#       8
#     8   8   4   4   8   8   8   8
#     4  10  21  45  67  91 131 174 222 274 334 400
#     4  10  24  42  68  95 126 179 222 279 332 392
#     4  10  22  38  71  93 126 172 224 270 336 404
#     4  12  26  48  65  97 138 172 240 278 334 404
#     4  11  24  42  65  97 134 172 223 272 347 396
#     4  11  25  43  68  96 133 181 218 289 333 399
#     4  10  19  40  63  93 131 169 211 270 337 392
#     4  11  20  33  59  94 129 165 203 259 326 403
#
# _framework density 20.482534000000001
#
# number of rings (size 3 to 8) (size 9 to 14) (size 15 to 20)
#    0.000    1.429    2.143    4.286    4.000    1.714 
#    1.286    1.429    0.000    0.000    0.000    0.000 
#    0.000    0.000    0.000    0.000    0.000    0.000 
#
# Total GULP energy -346956.287601 kJ/mol
# GULP energy per Si atom -12391.295986 kJ/mol
# Density = 2.043591 g / cm^3
# Si number density = 20.482534 Si / 1000 Ang^3
#
#
#
# Elastic Constant Matrix: (Units=GPa)
#
#
# Indices 1 2 3 4 5 6 
#
# 1 91.7984 43.6904 39.3863 0.0000 -11.8589 0.0000
# 2 43.6904 95.2720 42.4514 0.0000 -13.4635 0.0000
# 3 39.3863 42.4514 100.3464 0.0000 -11.8417 0.0000
# 4 0.0000 0.0000 0.0000 42.2501 0.0000 -3.3300
# 5 -11.8589 -13.4635 -11.8417 0.0000 30.1665 0.0000
# 6 0.0000 0.0000 0.0000 -3.3300 0.0000 36.2245
#
#
#
# Elastic Compliance Matrix: (Units=1/GPa)
#
#
# Indices 1 2 3 4 5 6 
#
# 1 0.015097 -0.005025 -0.003527 0.000000 0.002307 0.000000
# 2 -0.005025 0.015037 -0.004016 0.000000 0.003159 0.000000
# 3 -0.003527 -0.004016 0.013289 0.000000 0.002038 0.000000
# 4 0.000000 0.000000 0.000000 0.023841 0.000000 0.002192
# 5 0.002307 0.003159 0.002038 0.000000 0.036266 0.000000
# 6 0.000000 0.000000 0.000000 0.002192 0.000000 0.027807
#
#
# Mechanical properties :
#
#
# Convention : Reuss Voigt Hill
#
# Bulk Modulus (GPa) = 54.68822 59.83035 57.25929
# Shear Modulus (GPa) = 30.75606 32.52080 31.63843
#
# Velocity S-wave (km/s) = 3.87922 3.98896 3.93447
# Velocity P-wave (km/s) = 6.84269 7.10560 6.97538
#
# Compressibility (1/GPa) = 0.01828547
#
# Stress axis : x y z
#
# Youngs Moduli (GPa) = 66.23987 66.50396 75.24823
#
# Poissons Ratio (x) = 0.33421 0.26542
# Poissons Ratio (y) = 0.33288 0.30220
# Poissons Ratio (z) = 0.23364 0.26708
#
# Static dielectric constant tensor:
#      x y z
#    x 3.617730 0.000000 0.205620 
#    y 0.000000 4.064510 0.000000 
#    z 0.205620 0.000000 3.651100 
# 
# 
# High freq. dielectric constant tensor:
#      x y z
#    x 1.803020 0.000000 0.000110 
#    y 0.000000 1.804600 0.000000 
#    z 0.000110 0.000000 1.798940 
# 
# From -- ./inp_files/57825.got.cif
#   From: 2010.06.25/outbox.cif.g09.slc.cpg/sg15_29_cif.got.tgz:57825.got - 2010.06.28 07:06:18.
