data_PCOD8135331
_publ_section_title
;
Structure prediction by ZEFSAII (Michael W. Deem and Ramdas Pophale) SiO2 
 PCOD8135331
Probable space group: C 2/C
;
_chemical_formula_sum "Si O2"
_cell_formula_units_Z 44
_cell_length_a 7.393405
_cell_length_b 16.207353
_cell_length_c 24.619260
_cell_angle_alpha 90.000000
_cell_angle_beta 52.599677
_cell_angle_gamma 90.000000
_cell_volume 2343.564655
_symmetry_space_group_name_H-M "C 2/C"
_symmetry_group_IT_number 15
_symmetry_cell_setting 'monoclinic'
loop_
_space_group_symop_operation_xyz
x,y,z
-x,y,1/2-z
-x,-y,-z
x,-y,1/2+z
1/2+x,1/2+y,z
1/2-x,1/2+y,1/2-z
1/2-x,1/2-y,-z
1/2+x,1/2-y,1/2+z
loop_
_atom_site_type_symbol
_atom_site_label
_atom_site_fract_x
_atom_site_fract_y
_atom_site_fract_z
Si Si1 0.746187 0.200360 0.119996
Si Si2 0.546443 0.595751 0.986333
Si Si3 0.544864 0.863003 0.396620
Si Si4 0.480344 0.646104 0.875843
Si Si5 0.000000 0.412541 0.750000
Si Si6 0.228437 0.948952 0.241203
O O1 0.932203 0.263272 0.111916
O O2 0.542173 0.254792 0.129993
O O3 0.655789 0.143823 0.184213
O O4 0.856359 0.144206 0.053872
O O5 0.542581 0.626370 0.925582
O O6 0.797139 0.613628 0.964307
O O7 0.500000 0.500000 0.000000
O O8 0.736293 0.895844 0.404469
O O9 0.587556 0.903121 0.330003
O O10 0.677683 0.610696 0.801241
O O11 0.834785 0.466323 0.742630
O O12 0.000000 0.969597 0.250000
#
# Coordination Sequence:
#
# PCOD8135331 Si02
#       6
#     8   8   8   8   4   8
#     4  10  22  40  58  82 120 151 188 232 290 344
#     4  12  22  37  59  90 112 152 196 236 285 335
#     4   9  21  38  60  81 118 153 189 232 285 342
#     4   9  21  38  60  81 118 153 189 232 285 342
#     4  12  22  40  62  88 116 144 192 248 272 340
#     4  10  19  38  59  86 110 150 192 236 285 330
#
# _framework density 18.774818
#
# number of rings (size 3 to 8) (size 9 to 14) (size 15 to 20)
#    1.091    0.727    0.000    5.455    0.000    0.727 
#    3.273    0.000    0.000    0.000    0.000    0.000 
#    0.000    0.000    0.000    0.000    0.000    0.000 
#
# Total GULP energy -272722.506683 kJ/mol
# GULP energy per Si atom -12396.477576 kJ/mol
# Density = 1.873209 g / cm^3
# Si number density = 18.774818 Si / 1000 Ang^3
#
#
#
# Elastic Constant Matrix: (Units=GPa)
#
#
# Indices 1 2 3 4 5 6 
#
# 1 42.7989 19.0505 9.0494 0.0006 1.3231 -0.0003
# 2 19.0505 132.0355 31.5012 0.0005 -2.4718 0.0001
# 3 9.0494 31.5012 69.1323 0.0002 0.3389 0.0023
# 4 0.0006 0.0005 0.0002 42.1561 0.0000 -4.3104
# 5 1.3231 -2.4718 0.3389 0.0000 28.8161 -0.0013
# 6 -0.0003 0.0001 0.0023 -4.3104 -0.0013 53.1756
#
#
#
# Elastic Compliance Matrix: (Units=1/GPa)
#
#
# Indices 1 2 3 4 5 6 
#
# 1 0.025233 -0.003232 -0.001823 0.000000 -0.001414 0.000000
# 2 -0.003232 0.008929 -0.003650 0.000000 0.000957 0.000000
# 3 -0.001823 -0.003650 0.016369 0.000000 -0.000422 -0.000001
# 4 0.000000 0.000000 0.000000 0.023920 0.000000 0.001939
# 5 -0.001414 0.000957 -0.000422 0.000000 0.034855 0.000001
# 6 0.000000 0.000000 -0.000001 0.001939 0.000001 0.018963
#
#
# Mechanical properties :
#
#
# Convention : Reuss Voigt Hill
#
# Bulk Modulus (GPa) = 30.19354 40.35207 35.27281
# Shear Modulus (GPa) = 31.90418 37.12059 34.51239
#
# Velocity S-wave (km/s) = 4.12674 4.45134 4.29211
# Velocity P-wave (km/s) = 6.23085 6.92521 6.58718
#
# Compressibility (1/GPa) = 0.03311966
#
# Stress axis : x y z
#
# Youngs Moduli (GPa) = 39.63058 111.99651 61.09103
#
# Poissons Ratio (x) = 0.36199 0.11139
# Poissons Ratio (y) = 0.12809 0.22299
# Poissons Ratio (z) = 0.07226 0.40881
#
# Static dielectric constant tensor:
#      x y z
#    x 3.306620 0.000000 -0.053080 
#    y 0.000000 3.452770 0.000000 
#    z -0.053080 0.000000 3.397980 
# 
# 
# High freq. dielectric constant tensor:
#      x y z
#    x 1.720860 0.000000 -0.003020 
#    y 0.000000 1.728670 0.000000 
#    z -0.003020 0.000000 1.738750 
# 
# From -- ./inp_files/264140.got.cif
#   From: 2010.06.25/outbox.cif.g09.slc.cpg/sg15_133_cif.got.tgz:264140.got - 2010.06.28 07:06:18.
