data_PCOD8135214
_publ_section_title
;
Structure prediction by ZEFSAII (Michael W. Deem and Ramdas Pophale) SiO2 
 PCOD8135214
Probable space group: C 2/C
;
_chemical_formula_sum "Si O2"
_cell_formula_units_Z 60
_cell_length_a 19.380043
_cell_length_b 11.310239
_cell_length_c 17.136709
_cell_angle_alpha 90.000000
_cell_angle_beta 53.665163
_cell_angle_gamma 90.000000
_cell_volume 3025.911642
_symmetry_space_group_name_H-M "C 2/C"
_symmetry_group_IT_number 15
_symmetry_cell_setting 'monoclinic'
loop_
_space_group_symop_operation_xyz
x,y,z
-x,y,1/2-z
-x,-y,-z
x,-y,1/2+z
1/2+x,1/2+y,z
1/2-x,1/2+y,1/2-z
1/2-x,1/2-y,-z
1/2+x,1/2-y,1/2+z
loop_
_atom_site_type_symbol
_atom_site_label
_atom_site_fract_x
_atom_site_fract_y
_atom_site_fract_z
Si Si1 0.598377 0.450434 0.599148
Si Si2 0.043808 0.378687 0.454188
Si Si3 0.306328 0.985183 0.701270
Si Si4 0.792436 0.170639 0.348196
Si Si5 0.180341 0.116956 0.892170
Si Si6 0.970717 0.744045 0.689534
Si Si7 0.929544 0.733211 0.147418
Si Si8 0.500000 0.649579 0.750000
O O1 0.676421 0.387152 0.592223
O O2 0.628037 0.462452 0.489440
O O3 0.513074 0.372627 0.659760
O O4 0.571834 0.574779 0.655021
O O5 0.144564 0.404893 0.374217
O O6 0.999860 0.330748 0.404326
O O7 0.000000 0.500000 0.500000
O O8 0.019630 0.289970 0.540922
O O9 0.239182 0.934994 0.685000
O O10 0.371800 0.884946 0.687601
O O11 0.256033 0.034923 0.809321
O O12 0.717233 0.266492 0.411669
O O13 0.869175 0.238490 0.253316
O O14 0.119467 0.158929 0.862173
O O15 0.000000 0.677916 0.750000
O O16 0.949860 0.768386 0.222274
#
# Coordination Sequence:
#
# PCOD8135214 Si02
#       8
#     8   8   8   8   8   8   8   4
#     4  11  22  38  62  89 118 160 207 253 302 358
#     4  10  20  42  62  89 121 165 206 245 307 373
#     4  10  22  40  60  90 123 159 196 248 320 363
#     4  10  20  38  58  90 124 148 197 260 298 349
#     4  11  21  37  64  89 120 155 203 257 309 359
#     4  10  19  37  65  91 118 154 210 255 294 358
#     4  10  24  42  63  85 125 164 207 251 300 374
#     4  12  24  44  58  86 126 162 212 254 294 364
#
# _framework density 19.828735000000002
#
# number of rings (size 3 to 8) (size 9 to 14) (size 15 to 20)
#    0.000    1.600    4.667    1.200    0.000    1.600 
#    7.200    0.667    0.000    0.000    0.000    0.000 
#    0.000    0.000    0.000    0.000    0.000    0.000 
#
# Total GULP energy -371923.030830 kJ/mol
# GULP energy per Si atom -12397.434361 kJ/mol
# Density = 1.978360 g / cm^3
# Si number density = 19.828735 Si / 1000 Ang^3
#
#
#
# Elastic Constant Matrix: (Units=GPa)
#
#
# Indices 1 2 3 4 5 6 
#
# 1 96.6270 34.3621 42.1593 0.0000 12.2258 0.0000
# 2 34.3621 73.4821 48.2452 0.0000 9.2052 0.0000
# 3 42.1593 48.2452 129.1005 0.0000 2.6898 0.0000
# 4 0.0000 0.0000 0.0000 34.5372 0.0000 8.6138
# 5 12.2258 9.2052 2.6898 0.0000 28.3947 0.0000
# 6 0.0000 0.0000 0.0000 8.6138 0.0000 -11.5123
#
#
#
# Elastic Compliance Matrix: (Units=1/GPa)
#
#
# Indices 1 2 3 4 5 6 
#
# 1 0.013533 -0.003907 -0.002870 0.000000 -0.004289 0.000000
# 2 -0.003907 0.019967 -0.006098 0.000000 -0.004213 0.000000
# 3 -0.002870 -0.006098 0.010917 0.000000 0.002179 0.000000
# 4 0.000000 0.000000 0.000000 0.024401 0.000000 0.018257
# 5 -0.004289 -0.004213 0.002179 0.000000 0.038224 0.000000
# 6 0.000000 0.000000 0.000000 0.018257 0.000000 -0.073203
#
#
# Mechanical properties :
#
#
# Convention : Reuss Voigt Hill
#
# Bulk Modulus (GPa) = 53.57069 60.97142 57.27106
# Shear Modulus (GPa) = 75.97394 21.91343 48.94369
#
# Velocity S-wave (km/s) = 6.19663 3.32796 4.97361
# Velocity P-wave (km/s) = 8.84720 6.75151 7.86943
#
# Compressibility (1/GPa) = 0.01866692
#
# Stress axis : x y z
#
# Youngs Moduli (GPa) = 73.89186 50.08170 91.60279
#
# Poissons Ratio (x) = 0.19566 0.26291
# Poissons Ratio (y) = 0.28869 0.55861
# Poissons Ratio (z) = 0.21208 0.30541
#
# Static dielectric constant tensor:
#      x y z
#    x 2.589120 0.000000 0.096970 
#    y 0.000000 3.602630 0.000000 
#    z 0.096970 0.000000 3.937390 
# 
# 
# High freq. dielectric constant tensor:
#      x y z
#    x 1.767120 0.000000 -0.005790 
#    y 0.000000 1.761160 0.000000 
#    z -0.005790 0.000000 1.781420 
# 
# From -- ./inp_files/161325.got.cif
#   From: 2010.06.25/outbox.cif.g09.slc.cpg/sg15_81_cif.got.tgz:161325.got - 2010.06.28 07:06:18.
