data_PCOD8135765
_publ_section_title
;
Structure prediction by ZEFSAII (Michael W. Deem and Ramdas Pophale) SiO2 
 PCOD8135765
Probable space group: C 2/C
;
_chemical_formula_sum "Si O2"
_cell_formula_units_Z 44
_cell_length_a 15.883666
_cell_length_b 10.001827
_cell_length_c 14.803928
_cell_angle_alpha 90.000000
_cell_angle_beta 56.873509
_cell_angle_gamma 90.000000
_cell_volume 1969.583070
_symmetry_space_group_name_H-M "C 2/C"
_symmetry_group_IT_number 15
_symmetry_cell_setting 'monoclinic'
loop_
_space_group_symop_operation_xyz
x,y,z
-x,y,1/2-z
-x,-y,-z
x,-y,1/2+z
1/2+x,1/2+y,z
1/2-x,1/2+y,1/2-z
1/2-x,1/2-y,-z
1/2+x,1/2-y,1/2+z
loop_
_atom_site_type_symbol
_atom_site_label
_atom_site_fract_x
_atom_site_fract_y
_atom_site_fract_z
Si Si1 0.196580 0.394970 0.120162
Si Si2 0.159598 0.125802 0.472395
Si Si3 0.000000 0.446829 0.750000
Si Si4 0.792110 0.859811 0.346405
Si Si5 0.038399 0.247744 0.876856
Si Si6 0.799502 0.363949 0.592738
O O1 0.097469 0.465259 0.217806
O O2 0.215746 0.252511 0.156803
O O3 0.297289 0.481742 0.082842
O O4 0.176044 0.376545 0.026712
O O5 0.178138 0.136881 0.567529
O O6 0.215634 0.236880 0.378806
O O7 0.040210 0.146711 0.528451
O O8 0.023050 0.354515 0.649035
O O9 0.889252 0.839023 0.228402
O O10 0.742139 0.997825 0.342653
O O11 0.097131 0.328377 0.918988
#
# Coordination Sequence:
#
# PCOD8135765 Si02
#       6
#     8   8   4   8   8   8
#     4  10  23  47  61  91 130 171 200 267 315 375
#     4  10  19  39  68  87 125 167 210 256 308 373
#     4  12  22  40  68  92 124 170 214 254 312 376
#     4  10  20  39  61  92 129 165 208 259 306 374
#     4  12  22  38  67 100 120 170 214 259 305 380
#     4  10  25  42  62  93 135 159 210 260 323 365
#
# _framework density 22.339755
#
# number of rings (size 3 to 8) (size 9 to 14) (size 15 to 20)
#    0.000    1.455    3.636    2.182    2.545    3.636 
#    9.818    0.000    0.000    0.000    0.000    0.000 
#    0.000    0.000    0.000    0.000    0.000    0.000 
#
# Total GULP energy -272815.492889 kJ/mol
# GULP energy per Si atom -12400.704222 kJ/mol
# Density = 2.228891 g / cm^3
# Si number density = 22.339755 Si / 1000 Ang^3
#
#
#
# Elastic Constant Matrix: (Units=GPa)
#
#
# Indices 1 2 3 4 5 6 
#
# 1 93.3621 39.1055 13.1890 0.0000 -16.4056 0.0000
# 2 39.1055 135.5626 26.4550 0.0000 -9.3039 0.0000
# 3 13.1890 26.4550 52.1197 0.0000 -33.6626 0.0000
# 4 0.0000 0.0000 0.0000 14.8685 0.0000 -8.7714
# 5 -16.4056 -9.3039 -33.6626 0.0000 34.4983 0.0000
# 6 0.0000 0.0000 0.0000 -8.7714 0.0000 29.1457
#
#
#
# Elastic Compliance Matrix: (Units=1/GPa)
#
#
# Indices 1 2 3 4 5 6 
#
# 1 0.013634 -0.004323 0.005892 0.000000 0.011067 0.000000
# 2 -0.004323 0.009890 -0.009549 0.000000 -0.008707 0.000000
# 3 0.005892 -0.009549 0.061359 0.000000 0.060099 0.000000
# 4 0.000000 0.000000 0.000000 0.081774 0.000000 0.024610
# 5 0.011067 -0.008707 0.060099 0.000000 0.090545 0.000000
# 6 0.000000 0.000000 0.000000 0.024610 0.000000 0.041717
#
#
# Mechanical properties :
#
#
# Convention : Reuss Voigt Hill
#
# Bulk Modulus (GPa) = 14.50904 48.72706 31.61805
# Shear Modulus (GPa) = 14.79929 29.18882 21.99405
#
# Velocity S-wave (km/s) = 2.57663 3.61859 3.14112
# Velocity P-wave (km/s) = 3.91929 6.27042 5.22872
#
# Compressibility (1/GPa) = 0.06892256
#
# Stress axis : x y z
#
# Youngs Moduli (GPa) = 73.34478 101.11442 16.29757
#
# Poissons Ratio (x) = 0.43715 -0.09603
# Poissons Ratio (y) = 0.31710 0.15563
# Poissons Ratio (z) = -0.43218 0.96556
#
# Static dielectric constant tensor:
#      x y z
#    x 3.899980 0.000000 -0.024990 
#    y 0.000000 4.401440 0.000000 
#    z -0.024990 0.000000 3.878930 
# 
# 
# High freq. dielectric constant tensor:
#      x y z
#    x 1.873930 0.000000 -0.002510 
#    y 0.000000 1.887140 0.000000 
#    z -0.002510 0.000000 1.867270 
# 
# From -- ./inp_files/118117.got.cif
#   From: 2010.06.25/outbox.cif.g09.slc.cpg/sg15_60_cif.got.tgz:118117.got - 2010.06.28 07:06:18.
