data_PCOD8135685
_publ_section_title
;
Structure prediction by ZEFSAII (Michael W. Deem and Ramdas Pophale) SiO2 
 PCOD8135685
Probable space group: C 2/C
;
_chemical_formula_sum "Si O2"
_cell_formula_units_Z 60
_cell_length_a 16.677272
_cell_length_b 6.479317
_cell_length_c 27.721689
_cell_angle_alpha 90.000000
_cell_angle_beta 63.406538
_cell_angle_gamma 90.000000
_cell_volume 2678.620442
_symmetry_space_group_name_H-M "C 2/C"
_symmetry_group_IT_number 15
_symmetry_cell_setting 'monoclinic'
loop_
_space_group_symop_operation_xyz
x,y,z
-x,y,1/2-z
-x,-y,-z
x,-y,1/2+z
1/2+x,1/2+y,z
1/2-x,1/2+y,1/2-z
1/2-x,1/2-y,-z
1/2+x,1/2-y,1/2+z
loop_
_atom_site_type_symbol
_atom_site_label
_atom_site_fract_x
_atom_site_fract_y
_atom_site_fract_z
Si Si1 0.462618 0.076157 0.665624
Si Si2 0.283312 0.990625 0.460377
Si Si3 0.876849 0.740892 0.512825
Si Si4 0.020364 0.178755 0.904688
Si Si5 0.849097 0.172655 0.125486
Si Si6 0.619161 0.630188 0.104129
Si Si7 0.840346 0.747923 0.354263
Si Si8 0.500000 0.088565 0.250000
O O1 0.386311 0.218220 0.663173
O O2 0.559457 0.184909 0.641222
O O3 0.466231 0.859789 0.636806
O O4 0.439903 0.042758 0.728340
O O5 0.177785 0.044289 0.483053
O O6 0.320338 0.058943 0.502629
O O7 0.338315 0.122713 0.405122
O O8 0.302792 0.744283 0.448580
O O9 0.881019 0.702366 0.569130
O O10 0.979726 0.741592 0.466511
O O11 0.114772 0.062485 0.887031
O O12 0.945105 0.017413 0.908592
O O13 0.741602 0.173290 0.157391
O O14 0.667312 0.493360 0.132367
O O15 0.933238 0.722835 0.300789
#
# Coordination Sequence:
#
# PCOD8135685 Si02
#       8
#     8   8   8   8   8   8   8   4
#     4  11  24  45  64  97 127 168 216 285 325 399
#     4  10  20  38  63  99 138 167 228 278 306 388
#     4  10  19  39  63  98 135 184 221 257 321 394
#     4  11  21  43  61  94 140 174 219 266 314 401
#     4  10  26  42  63  97 144 168 211 269 342 387
#     4  11  19  40  68  90 133 170 221 275 319 377
#     4  11  23  45  65 102 126 168 224 284 325 397
#     4  12  22  48  76  86 124 164 226 272 340 398
#
# _framework density 22.399591000000001
#
# number of rings (size 3 to 8) (size 9 to 14) (size 15 to 20)
#    0.000    1.333    5.333    0.400    0.000    3.733 
#    4.800    0.000    0.000    0.000    0.000    0.000 
#    0.000    0.000    0.000    0.000    0.000    0.000 
#
# Total GULP energy -371855.415114 kJ/mol
# GULP energy per Si atom -12395.180504 kJ/mol
# Density = 2.234861 g / cm^3
# Si number density = 22.399591 Si / 1000 Ang^3
#
#
#
# Elastic Constant Matrix: (Units=GPa)
#
#
# Indices 1 2 3 4 5 6 
#
# 1 94.0578 21.5852 16.8205 0.0010 2.3562 0.0041
# 2 21.5852 71.6847 0.6267 0.0038 6.8803 0.0036
# 3 16.8205 0.6267 77.1122 0.0031 10.6174 -0.0002
# 4 0.0010 0.0038 0.0031 25.0653 0.0024 1.8300
# 5 2.3562 6.8803 10.6174 0.0024 35.0171 0.0013
# 6 0.0041 0.0036 -0.0002 1.8300 0.0013 26.8660
#
#
#
# Elastic Compliance Matrix: (Units=1/GPa)
#
#
# Indices 1 2 3 4 5 6 
#
# 1 0.011926 -0.003637 -0.002671 0.000000 0.000722 -0.000001
# 2 -0.003637 0.015333 0.001096 -0.000002 -0.003100 -0.000001
# 3 -0.002671 0.001096 0.014137 -0.000001 -0.004322 0.000001
# 4 0.000000 -0.000002 -0.000001 0.040095 -0.000002 -0.002731
# 5 0.000722 -0.003100 -0.004322 -0.000002 0.030428 -0.000001
# 6 -0.000001 -0.000001 0.000001 -0.002731 -0.000001 0.037408
#
#
# Mechanical properties :
#
#
# Convention : Reuss Voigt Hill
#
# Bulk Modulus (GPa) = 32.28863 35.65772 33.97318
# Shear Modulus (GPa) = 29.39852 30.97785 30.18818
#
# Velocity S-wave (km/s) = 3.62672 3.72286 3.67510
# Velocity P-wave (km/s) = 5.65540 5.86797 5.76266
#
# Compressibility (1/GPa) = 0.03097065
#
# Stress axis : x y z
#
# Youngs Moduli (GPa) = 83.85005 65.21830 70.73647
#
# Poissons Ratio (x) = 0.23720 0.18896
# Poissons Ratio (y) = 0.30497 -0.07750
# Poissons Ratio (z) = 0.22399 -0.07145
#
# Static dielectric constant tensor:
#      x y z
#    x 4.062540 -0.000010 0.057950 
#    y -0.000010 4.278470 -0.000010 
#    z 0.057950 -0.000010 4.054560 
# 
# 
# High freq. dielectric constant tensor:
#      x y z
#    x 1.876700 0.000000 -0.001540 
#    y 0.000000 1.881690 0.000000 
#    z -0.001540 0.000000 1.866900 
# 
# From -- ./inp_files/315074.got.cif
#   From: 2010.06.25/outbox.cif.g09.slc.cpg/sg15_158_cif.got.tgz:315074.got - 2010.06.28 07:06:18.
