data_PCOD8135738
_publ_section_title
;
Structure prediction by ZEFSAII (Michael W. Deem and Ramdas Pophale) SiO2 
 PCOD8135738
Probable space group: C 2/C
;
_chemical_formula_sum "Si O2"
_cell_formula_units_Z 48
_cell_length_a 8.865200
_cell_length_b 15.620108
_cell_length_c 20.504760
_cell_angle_alpha 90.000000
_cell_angle_beta 129.921634
_cell_angle_gamma 90.000000
_cell_volume 2177.604292
_symmetry_space_group_name_H-M "C 2/C"
_symmetry_group_IT_number 15
_symmetry_cell_setting 'monoclinic'
loop_
_space_group_symop_operation_xyz
x,y,z
-x,y,1/2-z
-x,-y,-z
x,-y,1/2+z
1/2+x,1/2+y,z
1/2-x,1/2+y,1/2-z
1/2-x,1/2-y,-z
1/2+x,1/2-y,1/2+z
loop_
_atom_site_type_symbol
_atom_site_label
_atom_site_fract_x
_atom_site_fract_y
_atom_site_fract_z
Si Si1 0.211494 0.892629 0.051574
Si Si2 0.531608 0.616549 0.832964
Si Si3 0.219823 0.078368 0.286499
Si Si4 0.379509 0.468495 0.876536
Si Si5 0.428814 0.062411 0.924744
Si Si6 0.235890 0.733224 0.824014
O O1 0.390698 0.882518 0.051826
O O2 0.197552 0.804866 0.088252
O O3 0.252442 0.974391 0.110807
O O4 0.009993 0.903500 0.955453
O O5 0.500000 0.590403 0.750000
O O6 0.514901 0.533704 0.873946
O O7 0.767522 0.633257 0.904564
O O8 0.373769 0.689119 0.807305
O O9 0.239158 0.083796 0.212141
O O10 0.295810 0.167632 0.337932
O O11 0.000000 0.066051 0.250000
O O12 0.347458 0.998119 0.344444
O O13 0.500000 0.000000 0.000000
O O14 0.000000 0.717469 0.750000
#
# Coordination Sequence:
#
# PCOD8135738 Si02
#       6
#     8   8   8   8   8   8
#     4  10  22  37  65  94 120 162 212 263 304 373
#     4  11  19  38  63  87 121 161 207 257 298 368
#     4  11  21  41  63  90 128 165 205 259 314 374
#     4  10  19  39  66  88 122 162 215 254 305 365
#     4  12  21  37  67  95 120 163 215 255 308 373
#     4  10  24  40  61  90 127 163 205 257 321 368
#
# _framework density 22.042570999999999
#
# number of rings (size 3 to 8) (size 9 to 14) (size 15 to 20)
#    0.000    1.333    5.000    1.000    2.333    0.000 
#    3.000   10.000    0.000    0.000    0.000    0.000 
#    0.000    0.000    0.000    0.000    0.000    0.000 
#
# Total GULP energy -297328.016078 kJ/mol
# GULP energy per Si atom -12388.667337 kJ/mol
# Density = 2.199240 g / cm^3
# Si number density = 22.042571 Si / 1000 Ang^3
#
#
#
# Elastic Constant Matrix: (Units=GPa)
#
#
# Indices 1 2 3 4 5 6 
#
# 1 103.0155 7.4384 6.2085 0.0000 3.4633 0.0000
# 2 7.4384 74.1945 1.3868 0.0000 1.9381 0.0000
# 3 6.2085 1.3868 70.0017 0.0000 -16.7531 0.0000
# 4 0.0000 0.0000 0.0000 22.3365 0.0000 -7.6919
# 5 3.4633 1.9381 -16.7531 0.0000 34.8483 0.0000
# 6 0.0000 0.0000 0.0000 -7.6919 0.0000 17.2256
#
#
#
# Elastic Compliance Matrix: (Units=1/GPa)
#
#
# Indices 1 2 3 4 5 6 
#
# 1 0.009899 -0.000930 -0.001223 0.000000 -0.001520 0.000000
# 2 -0.000930 0.013601 -0.000391 0.000000 -0.000852 0.000000
# 3 -0.001223 -0.000391 0.016313 0.000000 0.007986 0.000000
# 4 0.000000 0.000000 0.000000 0.052905 0.000000 0.023624
# 5 -0.001520 -0.000852 0.007986 0.000000 0.032733 0.000000
# 6 0.000000 0.000000 0.000000 0.023624 0.000000 0.068602
#
#
# Mechanical properties :
#
#
# Convention : Reuss Voigt Hill
#
# Bulk Modulus (GPa) = 28.79801 30.80881 29.80341
# Shear Modulus (GPa) = 23.72857 30.36062 27.04460
#
# Velocity S-wave (km/s) = 3.28455 3.71531 3.50655
# Velocity P-wave (km/s) = 5.24189 5.69315 5.47218
#
# Compressibility (1/GPa) = 0.03472462
#
# Stress axis : x y z
#
# Youngs Moduli (GPa) = 101.01769 73.52471 61.30176
#
# Poissons Ratio (x) = 0.06837 0.07500
# Poissons Ratio (y) = 0.09393 0.02396
# Poissons Ratio (z) = 0.12358 0.02874
#
# Static dielectric constant tensor:
#      x y z
#    x -201.188050 0.000000 -83.995790 
#    y 0.000000 3.804490 0.000000 
#    z -83.995790 0.000000 -30.046960 
# 
# 
# High freq. dielectric constant tensor:
#      x y z
#    x 1.875630 0.000000 -0.012200 
#    y 0.000000 1.836070 0.000000 
#    z -0.012200 0.000000 1.867180 
# 
# From -- ./inp_files/232860.got.cif
#   From: 2010.06.25/outbox.cif.g09.slc.cpg/sg15_117_cif.got.tgz:232860.got - 2010.06.28 07:06:18.
