data_PCOD8135728
_publ_section_title
;
Structure prediction by ZEFSAII (Michael W. Deem and Ramdas Pophale) SiO2 
 PCOD8135728
Probable space group: C 2/C
;
_chemical_formula_sum "Si O2"
_cell_formula_units_Z 64
_cell_length_a 12.594828
_cell_length_b 21.488783
_cell_length_c 12.540763
_cell_angle_alpha 90.000000
_cell_angle_beta 66.528550
_cell_angle_gamma 90.000000
_cell_volume 3113.291884
_symmetry_space_group_name_H-M "C 2/C"
_symmetry_group_IT_number 15
_symmetry_cell_setting 'monoclinic'
loop_
_space_group_symop_operation_xyz
x,y,z
-x,y,1/2-z
-x,-y,-z
x,-y,1/2+z
1/2+x,1/2+y,z
1/2-x,1/2+y,1/2-z
1/2-x,1/2-y,-z
1/2+x,1/2-y,1/2+z
loop_
_atom_site_type_symbol
_atom_site_label
_atom_site_fract_x
_atom_site_fract_y
_atom_site_fract_z
Si Si1 0.406178 0.863052 0.198871
Si Si2 0.171498 0.202505 0.830262
Si Si3 0.880313 0.603972 0.243871
Si Si4 0.410002 0.509240 0.379288
Si Si5 0.732638 0.018472 0.785386
Si Si6 0.158325 0.273746 0.621883
Si Si7 0.459142 0.190904 0.048321
Si Si8 0.434088 0.419928 0.072858
O O1 0.500000 0.879164 0.250000
O O2 0.300212 0.825433 0.295411
O O3 0.366056 0.928538 0.162915
O O4 0.465049 0.819102 0.086760
O O5 0.156687 0.221599 0.713422
O O6 0.146713 0.259676 0.922345
O O7 0.072238 0.152599 0.898861
O O8 0.806142 0.541931 0.264277
O O9 0.812732 0.658108 0.337927
O O10 0.905357 0.626562 0.112452
O O11 0.000000 0.584978 0.250000
O O12 0.500000 0.523491 0.250000
O O13 0.281017 0.499020 0.383646
O O14 0.443868 0.447640 0.434343
O O15 0.414128 0.569012 0.455028
O O16 0.834955 0.045166 0.675623
O O17 0.250000 0.250000 0.500000
O O18 0.033984 0.279416 0.615380
#
# Coordination Sequence:
#
# PCOD8135728 Si02
#       8
#     8   8   8   8   8   8   8   8
#     4  11  24  40  60  89 124 165 215 254 306 384
#     4  10  21  40  64  88 120 160 200 258 321 365
#     4   9  20  36  57  88 124 154 199 262 305 357
#     4   9  19  38  58  86 125 159 210 253 305 373
#     4  10  21  37  60  87 120 167 208 245 316 372
#     4  10  19  39  65  93 120 150 207 259 310 369
#     4  10  22  40  61  90 121 156 208 262 308 369
#     4   9  20  39  59  89 124 159 201 264 309 370
#
# _framework density 20.557016999999998
#
# number of rings (size 3 to 8) (size 9 to 14) (size 15 to 20)
#    0.000    2.250    1.250    1.500    0.000   10.000 
#    9.000    1.875    0.000    0.000    0.000    0.000 
#    0.000    0.000    0.000    0.000    0.000    0.000 
#
# Total GULP energy -396664.952858 kJ/mol
# GULP energy per Si atom -12395.779777 kJ/mol
# Density = 2.051023 g / cm^3
# Si number density = 20.557017 Si / 1000 Ang^3
#
#
#
# Elastic Constant Matrix: (Units=GPa)
#
#
# Indices 1 2 3 4 5 6 
#
# 1 83.9030 42.9865 24.9785 0.0000 21.6332 0.0000
# 2 42.9865 115.3354 37.2623 0.0000 9.1024 0.0000
# 3 24.9785 37.2623 88.4383 0.0000 11.6864 0.0000
# 4 0.0000 0.0000 0.0000 20.3842 0.0000 0.9741
# 5 21.6332 9.1024 11.6864 0.0000 30.5828 0.0000
# 6 0.0000 0.0000 0.0000 0.9741 0.0000 25.1223
#
#
#
# Elastic Compliance Matrix: (Units=1/GPa)
#
#
# Indices 1 2 3 4 5 6 
#
# 1 0.017764 -0.005350 -0.001383 0.000000 -0.010445 0.000000
# 2 -0.005350 0.011709 -0.003646 0.000000 0.001693 0.000000
# 3 -0.001383 -0.003646 0.013651 0.000000 -0.003153 0.000000
# 4 0.000000 0.000000 0.000000 0.049149 0.000000 -0.001906
# 5 -0.010445 0.001693 -0.003153 0.000000 0.040788 0.000000
# 6 0.000000 0.000000 0.000000 -0.001906 0.000000 0.039879
#
#
# Mechanical properties :
#
#
# Convention : Reuss Voigt Hill
#
# Bulk Modulus (GPa) = 44.71049 55.34792 50.02920
# Shear Modulus (GPa) = 24.85686 27.38116 26.11901
#
# Velocity S-wave (km/s) = 3.48108 3.65356 3.56836
# Velocity P-wave (km/s) = 6.16068 6.69183 6.43174
#
# Compressibility (1/GPa) = 0.02236612
#
# Stress axis : x y z
#
# Youngs Moduli (GPa) = 56.29287 85.40738 73.25616
#
# Poissons Ratio (x) = 0.45690 0.10132
# Poissons Ratio (y) = 0.30115 0.26709
# Poissons Ratio (z) = 0.07786 0.31139
#
# Static dielectric constant tensor:
#      x y z
#    x 3.857670 0.000000 0.001990 
#    y 0.000000 3.806420 0.000000 
#    z 0.001990 0.000000 3.721030 
# 
# 
# High freq. dielectric constant tensor:
#      x y z
#    x 1.794590 0.000000 -0.002880 
#    y 0.000000 1.802140 0.000000 
#    z -0.002880 0.000000 1.799540 
# 
# From -- ./inp_files/90804.got.cif
#   From: 2010.06.25/outbox.cif.g09.slc.cpg/sg15_46_cif.got.tgz:90804.got - 2010.06.28 07:06:18.
