data_PCOD8135051
_publ_section_title
;
Structure prediction by ZEFSAII (Michael W. Deem and Ramdas Pophale) SiO2 
 PCOD8135051
Probable space group: C 2/C
;
_chemical_formula_sum "Si O2"
_cell_formula_units_Z 56
_cell_length_a 14.262475
_cell_length_b 8.312436
_cell_length_c 26.898752
_cell_angle_alpha 90.000000
_cell_angle_beta 122.972469
_cell_angle_gamma 90.000000
_cell_volume 2675.359768
_symmetry_space_group_name_H-M "C 2/C"
_symmetry_group_IT_number 15
_symmetry_cell_setting 'monoclinic'
loop_
_space_group_symop_operation_xyz
x,y,z
-x,y,1/2-z
-x,-y,-z
x,-y,1/2+z
1/2+x,1/2+y,z
1/2-x,1/2+y,1/2-z
1/2-x,1/2-y,-z
1/2+x,1/2-y,1/2+z
loop_
_atom_site_type_symbol
_atom_site_label
_atom_site_fract_x
_atom_site_fract_y
_atom_site_fract_z
Si Si1 0.932195 0.837022 0.128341
Si Si2 0.666037 0.275843 0.204863
Si Si3 0.689820 0.797685 0.079988
Si Si4 0.457866 0.333582 0.682643
Si Si5 0.840158 0.849104 0.824891
Si Si6 0.007783 0.146532 0.965200
Si Si7 0.285921 0.164225 0.382972
O O1 0.814041 0.745102 0.097506
O O2 0.955753 0.908723 0.079633
O O3 0.036029 0.719628 0.172027
O O4 0.938145 0.975710 0.171519
O O5 0.730386 0.245961 0.274569
O O6 0.670626 0.462463 0.189649
O O7 0.721876 0.163313 0.179228
O O8 0.651841 0.683592 0.114353
O O9 0.690523 0.985212 0.092074
O O10 0.601340 0.772461 0.010451
O O11 0.500000 0.291038 0.750000
O O12 0.550444 0.272794 0.670136
O O13 0.334328 0.261797 0.634294
O O14 0.885441 0.224759 0.930829
O O15 0.000000 0.000000 0.000000
#
# Coordination Sequence:
#
# PCOD8135051 Si02
#       7
#     8   8   8   8   8   8   8
#     4   9  22  36  62  87 120 159 205 243 306 357
#     4  10  20  38  56  89 121 157 202 254 299 365
#     4  11  22  39  61  88 118 164 201 250 300 362
#     4  10  19  37  60  87 119 158 196 252 306 362
#     4  11  22  36  61  87 123 161 201 245 311 355
#     4  11  22  43  63  88 125 160 203 256 299 360
#     4  10  21  39  62  90 116 158 204 249 301 358
#
# _framework density 20.931763
#
# number of rings (size 3 to 8) (size 9 to 14) (size 15 to 20)
#    0.000    1.714    1.429    4.286    6.000    0.000 
#    0.000   17.857    0.000    0.000    0.000    0.000 
#    0.000    0.000    0.000    0.000    0.000    0.000 
#
# Total GULP energy -347055.288545 kJ/mol
# GULP energy per Si atom -12394.831734 kJ/mol
# Density = 2.088412 g / cm^3
# Si number density = 20.931763 Si / 1000 Ang^3
#
#
#
# Elastic Constant Matrix: (Units=GPa)
#
#
# Indices 1 2 3 4 5 6 
#
# 1 143.5260 15.7445 47.1112 0.0000 30.0673 0.0000
# 2 15.7445 51.7295 19.7885 0.0000 7.8746 0.0000
# 3 47.1112 19.7885 109.5510 0.0000 25.6618 0.0000
# 4 0.0000 0.0000 0.0000 37.0922 0.0000 -5.3243
# 5 30.0673 7.8746 25.6618 0.0000 39.0820 0.0000
# 6 0.0000 0.0000 0.0000 -5.3243 0.0000 24.8468
#
#
#
# Elastic Compliance Matrix: (Units=1/GPa)
#
#
# Indices 1 2 3 4 5 6 
#
# 1 0.008952 -0.001005 -0.002484 0.000000 -0.005053 0.000000
# 2 -0.001005 0.021017 -0.003017 0.000000 -0.001480 0.000000
# 3 -0.002484 -0.003017 0.011997 0.000000 -0.005358 0.000000
# 4 0.000000 0.000000 0.000000 0.027815 0.000000 0.005960
# 5 -0.005053 -0.001480 -0.005358 0.000000 0.033291 0.000000
# 6 0.000000 0.000000 0.000000 0.005960 0.000000 0.041524
#
#
# Mechanical properties :
#
#
# Convention : Reuss Voigt Hill
#
# Bulk Modulus (GPa) = 34.54034 52.23276 43.38655
# Shear Modulus (GPa) = 29.89365 35.01502 32.45433
#
# Velocity S-wave (km/s) = 3.78318 4.09445 3.94189
# Velocity P-wave (km/s) = 5.96829 6.88191 6.44132
#
# Compressibility (1/GPa) = 0.02895165
#
# Stress axis : x y z
#
# Youngs Moduli (GPa) = 111.71091 47.58094 83.35667
#
# Poissons Ratio (x) = 0.04782 0.20709
# Poissons Ratio (y) = 0.11227 0.25152
# Poissons Ratio (z) = 0.27753 0.14357
#
# Static dielectric constant tensor:
#      x y z
#    x 4.239780 0.000000 0.356560 
#    y 0.000000 3.337870 0.000000 
#    z 0.356560 0.000000 4.174130 
# 
# 
# High freq. dielectric constant tensor:
#      x y z
#    x 1.832840 0.000000 0.017470 
#    y 0.000000 1.783040 0.000000 
#    z 0.017470 0.000000 1.836630 
# 
# From -- ./inp_files/272857.got.cif
#   From: 2010.06.25/outbox.cif.g09.slc.cpg/sg15_137_cif.got.tgz:272857.got - 2010.06.28 07:06:18.
