data_PCOD8135093
_publ_section_title
;
Structure prediction by ZEFSAII (Michael W. Deem and Ramdas Pophale) SiO2 
 PCOD8135093
Probable space group: C 2/C
;
_chemical_formula_sum "Si O2"
_cell_formula_units_Z 36
_cell_length_a 10.949862
_cell_length_b 13.956765
_cell_length_c 21.087294
_cell_angle_alpha 90.000000
_cell_angle_beta 146.938775
_cell_angle_gamma 90.000000
_cell_volume 1758.072623
_symmetry_space_group_name_H-M "C 2/C"
_symmetry_group_IT_number 15
_symmetry_cell_setting 'monoclinic'
loop_
_space_group_symop_operation_xyz
x,y,z
-x,y,1/2-z
-x,-y,-z
x,-y,1/2+z
1/2+x,1/2+y,z
1/2-x,1/2+y,1/2-z
1/2-x,1/2-y,-z
1/2+x,1/2-y,1/2+z
loop_
_atom_site_type_symbol
_atom_site_label
_atom_site_fract_x
_atom_site_fract_y
_atom_site_fract_z
Si Si1 0.992116 0.542004 0.892448
Si Si2 0.819994 0.070295 0.451039
Si Si3 0.208909 0.949401 0.871823
Si Si4 0.031299 0.129232 0.668982
Si Si5 0.000000 0.704450 0.250000
O O1 0.894081 0.461730 0.897774
O O2 0.796542 0.607909 0.780499
O O3 0.111024 0.491121 0.885712
O O4 0.176400 0.600078 0.016417
O O5 0.723409 0.139663 0.354355
O O6 0.934424 0.133187 0.556017
O O7 0.000000 0.000000 0.500000
O O8 0.000000 0.889607 0.750000
O O9 0.104174 0.051772 0.848583
O O10 0.012287 0.233343 0.691658
#
# Coordination Sequence:
#
# PCOD8135093 Si02
#       5
#     8   8   8   8   4
#     4   9  16  32  58  81 115 151 192 242 284 354
#     4  11  24  38  59  89 123 164 199 233 301 372
#     4   8  14  28  55  88 112 146 194 239 289 344
#     4  10  19  37  61  89 116 150 203 255 295 342
#     4  12  22  40  60  88 114 156 202 258 304 340
#
# _framework density 20.476970000000001
#
# number of rings (size 3 to 8) (size 9 to 14) (size 15 to 20)
#    0.000    2.222    3.333    2.000    0.000    0.000 
#    0.000    1.111    0.000    0.000    0.000    0.000 
#    0.000    0.000    0.000    0.000    0.000    0.000 
#
# Total GULP energy -223041.144897 kJ/mol
# GULP energy per Si atom -12391.174716 kJ/mol
# Density = 2.043036 g / cm^3
# Si number density = 20.476970 Si / 1000 Ang^3
#
#
#
# Elastic Constant Matrix: (Units=GPa)
#
#
# Indices 1 2 3 4 5 6 
#
# 1 98.4077 38.3025 37.5680 0.0000 8.3211 0.0000
# 2 38.3025 72.7582 51.3056 -0.0001 1.8953 0.0000
# 3 37.5680 51.3056 173.6639 -0.0010 -1.2800 -0.0005
# 4 0.0000 -0.0001 -0.0010 29.0937 0.0001 -9.0764
# 5 8.3211 1.8953 -1.2800 0.0001 37.0380 0.0000
# 6 0.0000 0.0000 -0.0005 -9.0764 0.0000 20.0101
#
#
#
# Elastic Compliance Matrix: (Units=1/GPa)
#
#
# Indices 1 2 3 4 5 6 
#
# 1 0.013175 -0.006116 -0.001063 0.000000 -0.002684 0.000000
# 2 -0.006116 0.020242 -0.004656 0.000000 0.000177 0.000000
# 3 -0.001063 -0.004656 0.007369 0.000000 0.000732 0.000000
# 4 0.000000 0.000000 0.000000 0.040037 0.000000 0.018161
# 5 -0.002684 0.000177 0.000732 0.000000 0.027618 0.000000
# 6 0.000000 0.000000 0.000000 0.018161 0.000000 0.058212
#
#
# Mechanical properties :
#
#
# Convention : Reuss Voigt Hill
#
# Bulk Modulus (GPa) = 58.42359 66.57578 62.49968
# Shear Modulus (GPa) = 25.50622 31.73859 28.62241
#
# Velocity S-wave (km/s) = 3.53314 3.94123 3.74275
# Velocity P-wave (km/s) = 6.72588 7.30029 7.01896
#
# Compressibility (1/GPa) = 0.01711637
#
# Stress axis : x y z
#
# Youngs Moduli (GPa) = 75.90030 49.40102 135.70270
#
# Poissons Ratio (x) = 0.30216 0.14424
# Poissons Ratio (y) = 0.46424 0.63181
# Poissons Ratio (z) = 0.08068 0.23000
#
# Static dielectric constant tensor:
#      x y z
#    x 3.548180 0.000000 -0.102540 
#    y 0.000000 3.096010 0.000000 
#    z -0.102540 0.000000 4.683020 
# 
# 
# High freq. dielectric constant tensor:
#      x y z
#    x 1.790460 0.000000 -0.006010 
#    y 0.000000 1.726300 0.000000 
#    z -0.006010 0.000000 1.846670 
# 
# From -- ./inp_files/84511.got.cif
#   From: 2010.06.25/outbox.cif.g09.slc.cpg/sg15_43_cif.got.tgz:84511.got - 2010.06.28 07:06:18.
