data_PCOD8135854
_publ_section_title
;
Structure prediction by ZEFSAII (Michael W. Deem and Ramdas Pophale) SiO2 
 PCOD8135854
Probable space group: C 2/C
;
_chemical_formula_sum "Si O2"
_cell_formula_units_Z 60
_cell_length_a 9.749272
_cell_length_b 20.212140
_cell_length_c 24.715636
_cell_angle_alpha 90.000000
_cell_angle_beta 143.131793
_cell_angle_gamma 90.000000
_cell_volume 2922.068811
_symmetry_space_group_name_H-M "C 2/C"
_symmetry_group_IT_number 15
_symmetry_cell_setting 'monoclinic'
loop_
_space_group_symop_operation_xyz
x,y,z
-x,y,1/2-z
-x,-y,-z
x,-y,1/2+z
1/2+x,1/2+y,z
1/2-x,1/2+y,1/2-z
1/2-x,1/2-y,-z
1/2+x,1/2-y,1/2+z
loop_
_atom_site_type_symbol
_atom_site_label
_atom_site_fract_x
_atom_site_fract_y
_atom_site_fract_z
Si Si1 0.555405 0.663118 0.677819
Si Si2 0.148122 0.861344 0.586317
Si Si3 0.964052 0.634976 0.009908
Si Si4 0.000000 0.737768 0.250000
Si Si5 0.814956 0.057879 0.049615
Si Si6 0.415411 0.044800 0.097608
Si Si7 0.994399 0.771975 0.053032
Si Si8 0.883167 0.021389 0.771067
O O1 0.623029 0.715716 0.744917
O O2 0.638034 0.694968 0.647064
O O3 0.686467 0.594377 0.729913
O O4 0.283749 0.648605 0.593735
O O5 0.313126 0.806894 0.662742
O O6 0.283986 0.925114 0.607473
O O7 0.011257 0.827697 0.494418
O O8 0.977979 0.884343 0.579673
O O9 0.097099 0.589235 0.010154
O O10 0.943607 0.600720 0.061439
O O11 0.101761 0.704216 0.062842
O O12 0.940851 0.010532 0.131439
O O13 0.726708 0.016578 0.970512
O O14 0.659524 0.023086 0.197199
O O15 0.750000 0.750000 0.000000
O O16 0.000000 0.026825 0.750000
#
# Coordination Sequence:
#
# PCOD8135854 Si02
#       8
#     8   8   8   4   8   8   8   8
#     4  11  21  39  68  97 124 169 227 271 321 394
#     4  12  24  42  64  95 131 172 218 268 332 392
#     4  11  20  41  68  93 124 172 221 269 322 391
#     4  12  22  38  66  96 128 166 228 272 316 392
#     4  12  26  40  64  99 135 167 221 274 329 390
#     4  12  23  42  69  91 132 177 215 269 333 392
#     4  10  19  40  66  88 119 172 215 259 323 392
#     4  12  23  39  65  99 130 167 219 277 327 388
#
# _framework density 20.533398999999999
#
# number of rings (size 3 to 8) (size 9 to 14) (size 15 to 20)
#    0.000    0.533    8.667    2.400    0.000    0.533 
#    0.000    0.000    0.000    1.600    0.000    0.000 
#    0.000    0.000    0.000    0.000    0.000    0.000 
#
# Total GULP energy -372102.510556 kJ/mol
# GULP energy per Si atom -12403.417019 kJ/mol
# Density = 2.048666 g / cm^3
# Si number density = 20.533399 Si / 1000 Ang^3
#
#
#
# Elastic Constant Matrix: (Units=GPa)
#
#
# Indices 1 2 3 4 5 6 
#
# 1 49.2781 14.2817 9.0665 -0.0054 -13.9792 -0.0073
# 2 14.2817 96.8376 10.7477 -0.0024 -9.1046 -0.0066
# 3 9.0665 10.7477 53.6059 -0.0046 -15.1721 -0.0088
# 4 -0.0054 -0.0024 -0.0046 46.6271 -0.0068 -26.7639
# 5 -13.9792 -9.1046 -15.1721 -0.0068 28.6600 -0.0091
# 6 -0.0073 -0.0066 -0.0088 -26.7639 -0.0091 6.2592
#
#
#
# Elastic Compliance Matrix: (Units=1/GPa)
#
#
# Indices 1 2 3 4 5 6 
#
# 1 0.024152 -0.002495 -0.000558 -0.000019 0.010692 -0.000040
# 2 -0.002495 0.010990 -0.001338 -0.000004 0.001566 -0.000007
# 3 -0.000558 -0.001338 0.022137 -0.000020 0.011021 -0.000042
# 4 -0.000019 -0.000004 -0.000020 -0.014746 -0.000045 -0.063054
# 5 0.010692 0.001566 0.011021 -0.000045 0.046439 -0.000094
# 6 -0.000040 -0.000007 -0.000042 -0.063054 -0.000094 -0.109851
#
#
# Mechanical properties :
#
#
# Convention : Reuss Voigt Hill
#
# Bulk Modulus (GPa) = 20.62028 29.76816 25.19422
# Shear Modulus (GPa) = 1228.77621 27.35097 628.06359
#
# Velocity S-wave (km/s) = 24.48933 3.65365 17.50823
# Velocity P-wave (km/s) = 28.45523 5.68575 20.51863
#
# Compressibility (1/GPa) = 0.04849594
#
# Stress axis : x y z
#
# Youngs Moduli (GPa) = 41.40463 90.98966 45.17368
#
# Poissons Ratio (x) = 0.22699 0.02523
# Poissons Ratio (y) = 0.10329 0.06046
# Poissons Ratio (z) = 0.02312 0.12177
#
# Static dielectric constant tensor:
#      x y z
#    x 3.745080 0.000000 -0.347570 
#    y 0.000000 4.263400 0.000000 
#    z -0.347570 0.000000 3.753460 
# 
# 
# High freq. dielectric constant tensor:
#      x y z
#    x 1.785220 0.000000 -0.031450 
#    y 0.000000 1.830030 0.000000 
#    z -0.031450 0.000000 1.793570 
# 
# From -- ./inp_files/266257.got.cif
#   From: 2010.06.25/outbox.cif.g09.slc.cpg/sg15_134_cif.got.tgz:266257.got - 2010.06.28 07:06:18.
