data_PCOD8135145
_publ_section_title
;
Structure prediction by ZEFSAII (Michael W. Deem and Ramdas Pophale) SiO2 
 PCOD8135145
Probable space group: C 2/C
;
_chemical_formula_sum "Si O2"
_cell_formula_units_Z 52
_cell_length_a 8.913479
_cell_length_b 15.500747
_cell_length_c 27.921266
_cell_angle_alpha 90.000000
_cell_angle_beta 137.538252
_cell_angle_gamma 90.000000
_cell_volume 2604.364062
_symmetry_space_group_name_H-M "C 2/C"
_symmetry_group_IT_number 15
_symmetry_cell_setting 'monoclinic'
loop_
_space_group_symop_operation_xyz
x,y,z
-x,y,1/2-z
-x,-y,-z
x,-y,1/2+z
1/2+x,1/2+y,z
1/2-x,1/2+y,1/2-z
1/2-x,1/2-y,-z
1/2+x,1/2-y,1/2+z
loop_
_atom_site_type_symbol
_atom_site_label
_atom_site_fract_x
_atom_site_fract_y
_atom_site_fract_z
Si Si1 0.000000 0.440941 0.250000
Si Si2 0.984165 0.916761 0.028629
Si Si3 0.157567 0.825362 0.919164
Si Si4 0.085233 0.234780 0.046292
Si Si5 0.029113 0.346143 0.350976
Si Si6 0.651821 0.644153 0.829658
Si Si7 0.988186 0.010836 0.865192
O O1 0.935104 0.377896 0.278296
O O2 0.779843 0.499308 0.189478
O O3 0.225661 0.877361 0.084336
O O4 0.906681 0.940223 0.064052
O O5 0.828993 0.839253 0.970919
O O6 0.000000 0.000000 0.000000
O O7 0.058403 0.818518 0.948943
O O8 0.030133 0.757973 0.854278
O O9 0.107611 0.919579 0.886561
O O10 0.423304 0.806601 0.983761
O O11 0.301348 0.279970 0.120612
O O12 0.884577 0.385119 0.360748
O O13 0.500000 0.679079 0.750000
O O14 0.537387 0.563744 0.828664
#
# Coordination Sequence:
#
# PCOD8135145 Si02
#       7
#     4   8   8   8   8   8   8
#     4  10  20  40  56  82 116 162 190 240 288 344
#     4  10  19  37  63  89 114 150 199 243 282 344
#     4   9  18  37  59  87 111 154 195 236 290 347
#     4   9  19  37  61  82 118 154 191 234 296 343
#     4   9  20  39  61  78 119 158 191 232 294 350
#     4  11  22  39  59  84 121 157 187 238 297 349
#     4  11  22  36  62  89 118 149 200 245 291 341
#
# _framework density 19.966487000000001
#
# number of rings (size 3 to 8) (size 9 to 14) (size 15 to 20)
#    0.000    2.154    3.077    0.923    0.000    1.231 
#    6.923    0.000    0.000    0.000    0.000    0.000 
#    0.000    0.000    0.000    0.000    0.000    0.000 
#
# Total GULP energy -322257.744526 kJ/mol
# GULP energy per Si atom -12394.528636 kJ/mol
# Density = 1.992104 g / cm^3
# Si number density = 19.966487 Si / 1000 Ang^3
#
#
#
# Elastic Constant Matrix: (Units=GPa)
#
#
# Indices 1 2 3 4 5 6 
#
# 1 53.4327 36.1478 11.1923 0.0000 -9.1795 0.0000
# 2 36.1478 135.9905 63.2738 0.0000 -1.2843 0.0000
# 3 11.1923 63.2738 90.7279 0.0000 -10.7470 0.0001
# 4 0.0000 0.0000 0.0000 20.8841 0.0000 -4.5767
# 5 -9.1795 -1.2843 -10.7470 0.0000 21.1213 0.0000
# 6 0.0000 0.0000 0.0001 -4.5767 0.0000 21.8374
#
#
#
# Elastic Compliance Matrix: (Units=1/GPa)
#
#
# Indices 1 2 3 4 5 6 
#
# 1 0.026045 -0.008921 0.004560 0.000000 0.013097 0.000000
# 2 -0.008921 0.014177 -0.009730 0.000000 -0.007966 0.000000
# 3 0.004560 -0.009730 0.018526 0.000000 0.010817 0.000000
# 4 0.000000 0.000000 0.000000 0.050188 0.000000 0.010519
# 5 0.013097 -0.007966 0.010817 0.000000 0.058057 0.000000
# 6 0.000000 0.000000 0.000000 0.010519 0.000000 0.047998
#
#
# Mechanical properties :
#
#
# Convention : Reuss Voigt Hill
#
# Bulk Modulus (GPa) = 32.71577 55.70879 44.21228
# Shear Modulus (GPa) = 19.73459 24.07104 21.90281
#
# Velocity S-wave (km/s) = 3.14727 3.47590 3.31566
# Velocity P-wave (km/s) = 5.44316 6.63859 6.07037
#
# Compressibility (1/GPa) = 0.03056630
#
# Stress axis : x y z
#
# Youngs Moduli (GPa) = 38.39473 70.53820 53.97706
#
# Poissons Ratio (x) = 0.62928 -0.24614
# Poissons Ratio (y) = 0.34252 0.52519
# Poissons Ratio (z) = -0.17508 0.68633
#
# Static dielectric constant tensor:
#      x y z
#    x 3.521840 0.000000 -0.222460 
#    y 0.000000 3.497340 0.000000 
#    z -0.222460 0.000000 4.154000 
# 
# 
# High freq. dielectric constant tensor:
#      x y z
#    x 1.761990 0.000000 -0.008640 
#    y 0.000000 1.764240 0.000000 
#    z -0.008640 0.000000 1.783310 
# 
# From -- ./inp_files/288911.got.cif
#   From: 2010.06.25/outbox.cif.g09.slc.cpg/sg15_145_cif.got.tgz:288911.got - 2010.06.28 07:06:18.
