data_PCOD8135253
_publ_section_title
;
Structure prediction by ZEFSAII (Michael W. Deem and Ramdas Pophale) SiO2 
 PCOD8135253
Probable space group: C 2/C
;
_chemical_formula_sum "Si O2"
_cell_formula_units_Z 44
_cell_length_a 11.845865
_cell_length_b 16.759951
_cell_length_c 11.255012
_cell_angle_alpha 90.000000
_cell_angle_beta 70.015092
_cell_angle_gamma 90.000000
_cell_volume 2099.969184
_symmetry_space_group_name_H-M "C 2/C"
_symmetry_group_IT_number 15
_symmetry_cell_setting 'monoclinic'
loop_
_space_group_symop_operation_xyz
x,y,z
-x,y,1/2-z
-x,-y,-z
x,-y,1/2+z
1/2+x,1/2+y,z
1/2-x,1/2+y,1/2-z
1/2-x,1/2-y,-z
1/2+x,1/2-y,1/2+z
loop_
_atom_site_type_symbol
_atom_site_label
_atom_site_fract_x
_atom_site_fract_y
_atom_site_fract_z
Si Si1 0.649574 0.363541 0.023680
Si Si2 0.930128 0.416201 0.538842
Si Si3 0.128857 0.298905 0.419018
Si Si4 0.870573 0.392901 0.306293
Si Si5 0.500000 0.532348 0.750000
Si Si6 0.727572 0.464757 0.782767
O O1 0.738748 0.324857 0.087244
O O2 0.542746 0.410304 0.127743
O O3 0.599038 0.293123 0.957575
O O4 0.716996 0.426130 0.915576
O O5 0.851970 0.384142 0.453646
O O6 0.831440 0.416725 0.677249
O O7 0.000000 0.500000 0.500000
O O8 0.032210 0.350813 0.527426
O O9 0.120237 0.312593 0.278633
O O10 0.766555 0.444082 0.284588
O O11 0.000000 0.437867 0.250000
O O12 0.603427 0.471316 0.755610
#
# Coordination Sequence:
#
# PCOD8135253 Si02
#       6
#     8   8   8   8   4   8
#     4  11  25  41  66  93 136 179 218 268 338 404
#     4  11  20  38  67 102 125 169 215 276 329 380
#     4  10  22  42  63  99 134 168 220 272 336 388
#     4  10  19  37  67  94 132 156 216 275 319 372
#     4  12  24  46  62  92 136 178 226 266 332 402
#     4  12  23  40  68  98 127 176 222 271 329 398
#
# _framework density 20.952688999999999
#
# number of rings (size 3 to 8) (size 9 to 14) (size 15 to 20)
#    0.000    1.091    5.455    2.727    0.000    2.909 
#    4.909    0.909    0.000    0.000    0.000    0.000 
#    0.000    0.000    0.000    0.000    0.000    0.000 
#
# Total GULP energy -272658.648987 kJ/mol
# GULP energy per Si atom -12393.574954 kJ/mol
# Density = 2.090500 g / cm^3
# Si number density = 20.952689 Si / 1000 Ang^3
#
#
#
# Elastic Constant Matrix: (Units=GPa)
#
#
# Indices 1 2 3 4 5 6 
#
# 1 75.9642 7.1742 10.7663 0.0000 0.8409 0.0000
# 2 7.1742 65.8735 30.7809 0.0000 1.5663 0.0000
# 3 10.7663 30.7809 143.3882 0.0000 -4.2083 0.0000
# 4 0.0000 0.0000 0.0000 26.5311 0.0000 8.4137
# 5 0.8409 1.5663 -4.2083 0.0000 35.3253 0.0000
# 6 0.0000 0.0000 0.0000 8.4137 0.0000 27.0266
#
#
#
# Elastic Compliance Matrix: (Units=1/GPa)
#
#
# Indices 1 2 3 4 5 6 
#
# 1 0.013381 -0.001083 -0.000783 0.000000 -0.000364 0.000000
# 2 -0.001083 0.017010 -0.003604 0.000000 -0.001158 0.000000
# 3 -0.000783 -0.003604 0.007839 0.000000 0.001112 0.000000
# 4 0.000000 0.000000 0.000000 0.041820 0.000000 -0.013019
# 5 -0.000364 -0.001158 0.001112 0.000000 0.028501 0.000000
# 6 0.000000 0.000000 0.000000 -0.013019 0.000000 0.041054
#
#
# Mechanical properties :
#
#
# Convention : Reuss Voigt Hill
#
# Bulk Modulus (GPa) = 36.64245 42.51873 39.58059
# Shear Modulus (GPa) = 29.47373 33.54356 31.50865
#
# Velocity S-wave (km/s) = 3.75464 4.00549 3.88209
# Velocity P-wave (km/s) = 6.02682 6.45978 6.24705
#
# Compressibility (1/GPa) = 0.02729075
#
# Stress axis : x y z
#
# Youngs Moduli (GPa) = 74.73083 58.78815 127.56366
#
# Poissons Ratio (x) = 0.06366 0.09988
# Poissons Ratio (y) = 0.08092 0.45977
# Poissons Ratio (z) = 0.05851 0.21189
#
# Static dielectric constant tensor:
#      x y z
#    x 3.843070 0.000000 0.132260 
#    y 0.000000 3.626480 0.000000 
#    z 0.132260 0.000000 4.024340 
# 
# 
# High freq. dielectric constant tensor:
#      x y z
#    x 1.826820 0.000000 0.005400 
#    y 0.000000 1.795140 0.000000 
#    z 0.005400 0.000000 1.825230 
# 
# From -- ./inp_files/87530.got.cif
#   From: 2010.06.25/outbox.cif.g09.slc.cpg/sg15_44_cif.got.tgz:87530.got - 2010.06.28 07:06:18.
