data_PCOD8135374
_publ_section_title
;
Structure prediction by ZEFSAII (Michael W. Deem and Ramdas Pophale) SiO2 
 PCOD8135374
Probable space group: C 2/C
;
_chemical_formula_sum "Si O2"
_cell_formula_units_Z 40
_cell_length_a 11.033773
_cell_length_b 13.655733
_cell_length_c 12.020137
_cell_angle_alpha 90.000000
_cell_angle_beta 105.622006
_cell_angle_gamma 90.000000
_cell_volume 1744.220827
_symmetry_space_group_name_H-M "C 2/C"
_symmetry_group_IT_number 15
_symmetry_cell_setting 'monoclinic'
loop_
_space_group_symop_operation_xyz
x,y,z
-x,y,1/2-z
-x,-y,-z
x,-y,1/2+z
1/2+x,1/2+y,z
1/2-x,1/2+y,1/2-z
1/2-x,1/2-y,-z
1/2+x,1/2-y,1/2+z
loop_
_atom_site_type_symbol
_atom_site_label
_atom_site_fract_x
_atom_site_fract_y
_atom_site_fract_z
Si Si1 0.490572 0.318921 0.941829
Si Si2 0.388382 0.877483 0.360337
Si Si3 0.768926 0.410659 0.566309
Si Si4 0.000000 0.038046 0.250000
Si Si5 0.500000 0.956033 0.750000
Si Si6 0.674008 0.404906 0.153882
O O1 0.493807 0.207363 0.899317
O O2 0.344732 0.337674 0.934703
O O3 0.544408 0.393313 0.862824
O O4 0.575469 0.329994 0.073609
O O5 0.311209 0.894444 0.452316
O O6 0.459932 0.976737 0.344813
O O7 0.290117 0.847018 0.238052
O O8 0.884760 0.388324 0.679926
O O9 0.723913 0.522395 0.570438
O O10 0.886743 0.969482 0.262185
#
# Coordination Sequence:
#
# PCOD8135374 Si02
#       6
#     8   8   8   4   4   8
#     4  11  22  37  60  90 113 146 193 239 284 328
#     4  11  22  39  58  86 120 147 187 243 284 330
#     4  10  21  38  60  83 114 154 191 228 281 346
#     4  10  19  38  61  82 114 148 188 232 275 346
#     4  10  23  40  59  84 116 156 190 224 287 348
#     4  10  21  38  60  84 114 155 191 227 284 343
#
# _framework density 22.932876
#
# number of rings (size 3 to 8) (size 9 to 14) (size 15 to 20)
#    0.000    1.600    0.000    6.600    0.000    1.600 
#    0.000   13.000    0.000    0.000    0.000    0.000 
#    0.000    0.000    0.000    0.000    0.000    0.000 
#
# Total GULP energy -248011.425089 kJ/mol
# GULP energy per Si atom -12400.571254 kJ/mol
# Density = 2.288068 g / cm^3
# Si number density = 22.932876 Si / 1000 Ang^3
#
#
#
# Elastic Constant Matrix: (Units=GPa)
#
#
# Indices 1 2 3 4 5 6 
#
# 1 68.6934 4.4744 37.9900 0.0000 13.5232 0.0000
# 2 4.4744 48.4404 29.5689 0.0000 3.0195 0.0000
# 3 37.9900 29.5689 99.1876 0.0000 4.1261 0.0000
# 4 0.0000 0.0000 0.0000 18.2981 0.0000 8.2491
# 5 13.5232 3.0195 4.1261 0.0000 46.9482 0.0000
# 6 0.0000 0.0000 0.0000 8.2491 0.0000 9.2247
#
#
#
# Elastic Compliance Matrix: (Units=1/GPa)
#
#
# Indices 1 2 3 4 5 6 
#
# 1 0.020103 0.003714 -0.008587 0.000000 -0.005275 0.000000
# 2 0.003714 0.025966 -0.009082 0.000000 -0.001942 0.000000
# 3 -0.008587 -0.009082 0.016010 0.000000 0.001651 0.000000
# 4 0.000000 0.000000 0.000000 0.091563 0.000000 -0.081879
# 5 -0.005275 -0.001942 0.001651 0.000000 0.022799 0.000000
# 6 0.000000 0.000000 0.000000 -0.081879 0.000000 0.181623
#
#
# Mechanical properties :
#
#
# Convention : Reuss Voigt Hill
#
# Bulk Modulus (GPa) = 29.26807 40.04311 34.65559
# Shear Modulus (GPa) = 12.58288 24.51341 18.54814
#
# Velocity S-wave (km/s) = 2.34494 3.27298 2.84703
# Velocity P-wave (km/s) = 4.48574 5.63756 5.09431
#
# Compressibility (1/GPa) = 0.03416693
#
# Stress axis : x y z
#
# Youngs Moduli (GPa) = 49.74363 38.51192 62.46147
#
# Poissons Ratio (x) = -0.14303 0.53638
# Poissons Ratio (y) = -0.18474 0.56730
# Poissons Ratio (z) = 0.42717 0.34978
#
# Static dielectric constant tensor:
#      x y z
#    x 4.246140 0.000000 0.021870 
#    y 0.000000 3.849950 0.000000 
#    z 0.021870 0.000000 4.144620 
# 
# 
# High freq. dielectric constant tensor:
#      x y z
#    x 1.912650 0.000000 -0.002560 
#    y 0.000000 1.876360 0.000000 
#    z -0.002560 0.000000 1.913800 
# 
# From -- ./inp_files/85587.got.cif
#   From: 2010.06.25/outbox.cif.g09.slc.cpg/sg15_43_cif.got.tgz:85587.got - 2010.06.28 07:06:18.
