data_PCOD8135336
_publ_section_title
;
Structure prediction by ZEFSAII (Michael W. Deem and Ramdas Pophale) SiO2 
 PCOD8135336
Probable space group: C 2/C
;
_chemical_formula_sum "Si O2"
_cell_formula_units_Z 56
_cell_length_a 25.333234
_cell_length_b 9.183530
_cell_length_c 17.427697
_cell_angle_alpha 90.000000
_cell_angle_beta 45.878227
_cell_angle_gamma 90.000000
_cell_volume 2910.590603
_symmetry_space_group_name_H-M "C 2/C"
_symmetry_group_IT_number 15
_symmetry_cell_setting 'monoclinic'
loop_
_space_group_symop_operation_xyz
x,y,z
-x,y,1/2-z
-x,-y,-z
x,-y,1/2+z
1/2+x,1/2+y,z
1/2-x,1/2+y,1/2-z
1/2-x,1/2-y,-z
1/2+x,1/2-y,1/2+z
loop_
_atom_site_type_symbol
_atom_site_label
_atom_site_fract_x
_atom_site_fract_y
_atom_site_fract_z
Si Si1 0.384067 0.086636 0.532953
Si Si2 0.847516 0.207670 0.206278
Si Si3 0.527994 0.829956 0.804656
Si Si4 0.374126 0.404160 0.223317
Si Si5 0.808806 0.348703 0.699202
Si Si6 0.259488 0.900253 0.033431
Si Si7 0.167937 0.526167 0.677647
O O1 0.379687 0.212774 0.600225
O O2 0.465253 0.089148 0.416352
O O3 0.323600 0.118159 0.530322
O O4 0.371381 0.929952 0.585826
O O5 0.763599 0.158510 0.278655
O O6 0.849731 0.309118 0.279691
O O7 0.897029 0.063118 0.168850
O O8 0.500000 0.782624 0.750000
O O9 0.554573 0.682149 0.819264
O O10 0.593390 0.944333 0.730192
O O11 0.335399 0.312704 0.194286
O O12 0.317412 0.437794 0.349443
O O13 0.792372 0.440659 0.792913
O O14 0.250000 0.750000 0.000000
O O15 0.279692 0.024604 0.950269
#
# Coordination Sequence:
#
# PCOD8135336 Si02
#       7
#     8   8   8   8   8   8   8
#     4  11  22  37  65  83 121 159 203 243 301 360
#     4  11  21  38  58  93 122 151 196 260 303 346
#     4  11  22  41  60  86 118 167 204 239 296 372
#     4  11  22  36  63  88 125 152 202 248 301 355
#     4  10  19  38  59  88 115 155 198 246 290 358
#     4  12  18  36  62  92 112 160 204 250 290 346
#     4  10  22  35  63  88 120 157 202 246 296 357
#
# _framework density 19.240081
#
# number of rings (size 3 to 8) (size 9 to 14) (size 15 to 20)
#    0.000    1.143    7.143    0.857    0.000    6.286 
#    0.000    0.714    0.000    0.000    0.000    0.000 
#    0.000    0.000    0.000    0.000    0.000    0.000 
#
# Total GULP energy -347249.866206 kJ/mol
# GULP energy per Si atom -12401.780936 kJ/mol
# Density = 1.919629 g / cm^3
# Si number density = 19.240081 Si / 1000 Ang^3
#
#
#
# Elastic Constant Matrix: (Units=GPa)
#
#
# Indices 1 2 3 4 5 6 
#
# 1 77.1773 23.5029 9.4313 0.0207 10.1611 -0.0238
# 2 23.5029 116.0504 12.0257 0.0414 15.7121 -0.0468
# 3 9.4313 12.0257 88.6065 0.0337 13.1061 -0.0412
# 4 0.0207 0.0414 0.0337 20.5581 -0.0191 7.1762
# 5 10.1611 15.7121 13.1061 -0.0191 27.4946 0.0201
# 6 -0.0238 -0.0468 -0.0412 7.1762 0.0201 15.4173
#
#
#
# Elastic Compliance Matrix: (Units=1/GPa)
#
#
# Indices 1 2 3 4 5 6 
#
# 1 0.014221 -0.002322 -0.000664 -0.000022 -0.003612 0.000028
# 2 -0.002322 0.009741 -0.000407 -0.000038 -0.004514 0.000048
# 3 -0.000664 -0.000407 0.012201 -0.000044 -0.005338 0.000058
# 4 -0.000022 -0.000038 -0.000044 0.058080 0.000110 -0.027034
# 5 -0.003612 -0.004514 -0.005338 0.000110 0.042830 -0.000141
# 6 0.000028 0.000048 0.000058 -0.027034 -0.000141 0.077446
#
#
# Mechanical properties :
#
#
# Convention : Reuss Voigt Hill
#
# Bulk Modulus (GPa) = 34.04130 41.30600 37.67365
# Shear Modulus (GPa) = 21.63582 28.48563 25.06073
#
# Velocity S-wave (km/s) = 3.35702 3.85195 3.61297
# Velocity P-wave (km/s) = 5.72341 6.42640 6.08507
#
# Compressibility (1/GPa) = 0.02937609
#
# Stress axis : x y z
#
# Youngs Moduli (GPa) = 70.31804 102.66265 81.95765
#
# Poissons Ratio (x) = 0.23841 0.05444
# Poissons Ratio (y) = 0.16329 0.03336
# Poissons Ratio (z) = 0.04671 0.04179
#
# Static dielectric constant tensor:
#      x y z
#    x 3.679260 0.000000 0.315700 
#    y 0.000000 3.768170 0.000000 
#    z 0.315700 0.000000 3.821220 
# 
# 
# High freq. dielectric constant tensor:
#      x y z
#    x 1.748580 0.000000 0.014160 
#    y 0.000000 1.742640 0.000000 
#    z 0.014160 0.000000 1.743480 
# 
# From -- ./inp_files/218499.got.cif
#   From: 2010.06.25/outbox.cif.g09.slc.cpg/sg15_110_cif.got.tgz:218499.got - 2010.06.28 07:06:18.
