data_PCOD8135816
_publ_section_title
;
Structure prediction by ZEFSAII (Michael W. Deem and Ramdas Pophale) SiO2 
 PCOD8135816
Probable space group: C 2/C
;
_chemical_formula_sum "Si O2"
_cell_formula_units_Z 48
_cell_length_a 11.072751
_cell_length_b 16.467524
_cell_length_c 13.778063
_cell_angle_alpha 90.000000
_cell_angle_beta 109.759426
_cell_angle_gamma 90.000000
_cell_volume 2364.379565
_symmetry_space_group_name_H-M "C 2/C"
_symmetry_group_IT_number 15
_symmetry_cell_setting 'monoclinic'
loop_
_space_group_symop_operation_xyz
x,y,z
-x,y,1/2-z
-x,-y,-z
x,-y,1/2+z
1/2+x,1/2+y,z
1/2-x,1/2+y,1/2-z
1/2-x,1/2-y,-z
1/2+x,1/2-y,1/2+z
loop_
_atom_site_type_symbol
_atom_site_label
_atom_site_fract_x
_atom_site_fract_y
_atom_site_fract_z
Si Si1 0.810736 0.679743 0.315401
Si Si2 0.215265 0.138396 0.920386
Si Si3 0.500000 0.910202 0.250000
Si Si4 0.500000 0.722074 0.750000
Si Si5 0.382709 0.000997 0.394091
Si Si6 0.629066 0.291095 0.583637
Si Si7 0.092443 0.254965 0.357843
O O1 0.835214 0.590902 0.361672
O O2 0.716636 0.682142 0.197636
O O3 0.739313 0.725310 0.386057
O O4 0.946218 0.721449 0.323205
O O5 0.266905 0.048984 0.911440
O O6 0.330454 0.203192 0.947140
O O7 0.111887 0.162723 0.812620
O O8 0.149203 0.139453 0.008441
O O9 0.415249 0.965011 0.297444
O O10 0.589794 0.853228 0.343463
O O11 0.500000 0.000000 0.500000
O O12 0.476832 0.278123 0.563410
O O13 0.000000 0.216596 0.250000
#
# Coordination Sequence:
#
# PCOD8135816 Si02
#       7
#     8   8   4   4   8   8   8
#     4  10  21  37  62  90 122 158 209 250 314 371
#     4  10  21  39  63  94 122 159 211 262 310 378
#     4  10  19  40  63  82 124 158 208 252 301 366
#     4  10  21  40  63  90 116 172 206 258 307 382
#     4  12  26  38  58  97 128 163 203 269 320 365
#     4   9  18  38  70  85 118 167 211 252 308 382
#     4   8  16  38  65  85 109 161 207 248 297 371
#
# _framework density 20.301307999999999
#
# number of rings (size 3 to 8) (size 9 to 14) (size 15 to 20)
#    0.500    1.667    1.667    1.500    9.333    0.000 
#    4.500    5.833    0.000    0.000    0.000    0.000 
#    0.000    0.000    0.000    0.000    0.000    0.000 
#
# Total GULP energy -297429.058702 kJ/mol
# GULP energy per Si atom -12392.877446 kJ/mol
# Density = 2.025510 g / cm^3
# Si number density = 20.301308 Si / 1000 Ang^3
#
#
#
# Elastic Constant Matrix: (Units=GPa)
#
#
# Indices 1 2 3 4 5 6 
#
# 1 138.1929 41.0365 19.6311 0.0000 -19.8152 0.0000
# 2 41.0365 89.7618 13.3235 0.0000 8.7665 0.0000
# 3 19.6311 13.3235 39.4688 0.0000 -13.6853 0.0000
# 4 0.0000 0.0000 0.0000 14.2581 0.0000 0.3860
# 5 -19.8152 8.7665 -13.6853 0.0000 28.5113 0.0000
# 6 0.0000 0.0000 0.0000 0.3860 0.0000 38.7758
#
#
#
# Elastic Compliance Matrix: (Units=1/GPa)
#
#
# Indices 1 2 3 4 5 6 
#
# 1 0.010112 -0.005430 -0.000217 0.000000 0.008593 0.000000
# 2 -0.005430 0.015782 -0.006739 0.000000 -0.011861 0.000000
# 3 -0.000217 -0.006739 0.034053 0.000000 0.018267 0.000000
# 4 0.000000 0.000000 0.000000 0.070155 0.000000 -0.000698
# 5 0.008593 -0.011861 0.018267 0.000000 0.053461 0.000000
# 6 0.000000 0.000000 0.000000 -0.000698 0.000000 0.025796
#
#
# Mechanical properties :
#
#
# Convention : Reuss Voigt Hill
#
# Bulk Modulus (GPa) = 28.42988 46.15619 37.29304
# Shear Modulus (GPa) = 20.33720 29.20451 24.77086
#
# Velocity S-wave (km/s) = 3.16851 3.79694 3.49687
# Velocity P-wave (km/s) = 5.23644 6.48130 5.89184
#
# Compressibility (1/GPa) = 0.03517426
#
# Stress axis : x y z
#
# Youngs Moduli (GPa) = 98.89683 63.36480 29.36582
#
# Poissons Ratio (x) = 0.34405 0.00637
# Poissons Ratio (y) = 0.53698 0.19791
# Poissons Ratio (z) = 0.02145 0.42704
#
# Static dielectric constant tensor:
#      x y z
#    x 4.013120 0.000000 -0.297970 
#    y 0.000000 3.461440 0.000000 
#    z -0.297970 0.000000 3.575690 
# 
# 
# High freq. dielectric constant tensor:
#      x y z
#    x 1.802690 0.000000 -0.018770 
#    y 0.000000 1.766920 0.000000 
#    z -0.018770 0.000000 1.787330 
# 
# From -- ./inp_files/143855.got.cif
#   From: 2010.06.25/outbox.cif.g09.slc.cpg/sg15_72_cif.got.tgz:143855.got - 2010.06.28 07:06:18.
