data_PCOD8136356
_publ_section_title
;
Structure prediction by ZEFSAII (Michael W. Deem and Ramdas Pophale) SiO2 
 PCOD8136356
Probable space group: C 2/C
;
_chemical_formula_sum "Si O2"
_cell_formula_units_Z 64
_cell_length_a 22.848610
_cell_length_b 24.358457
_cell_length_c 16.170358
_cell_angle_alpha 90.000000
_cell_angle_beta 22.997691
_cell_angle_gamma 90.000000
_cell_volume 3516.138483
_symmetry_space_group_name_H-M "C 2/C"
_symmetry_group_IT_number 15
_symmetry_cell_setting 'monoclinic'
loop_
_space_group_symop_operation_xyz
x,y,z
-x,y,1/2-z
-x,-y,-z
x,-y,1/2+z
1/2+x,1/2+y,z
1/2-x,1/2+y,1/2-z
1/2-x,1/2-y,-z
1/2+x,1/2-y,1/2+z
loop_
_atom_site_type_symbol
_atom_site_label
_atom_site_fract_x
_atom_site_fract_y
_atom_site_fract_z
Si Si1 0.066277 0.440679 0.895582
Si Si2 0.637523 0.860150 0.242064
Si Si3 0.683780 0.454888 0.804514
Si Si4 0.219946 0.926834 0.577225
Si Si5 0.075158 0.254250 0.240015
Si Si6 0.854791 0.459718 0.888850
Si Si7 0.567204 0.358495 0.541071
Si Si8 0.852969 0.926625 0.210669
O O1 0.222117 0.433646 0.740586
O O2 0.095451 0.431408 0.760805
O O3 0.000000 0.500000 0.000000
O O4 0.950620 0.394571 0.075086
O O5 0.547874 0.804069 0.340135
O O6 0.654319 0.891194 0.132540
O O7 0.807030 0.850531 0.052992
O O8 0.745955 0.423965 0.641998
O O9 0.701080 0.520468 0.771888
O O10 0.512832 0.439023 0.044038
O O11 0.050284 0.906168 0.779102
O O12 0.241813 0.989519 0.518151
O O13 0.000000 0.266175 0.250000
O O14 0.016456 0.199287 0.360163
O O15 0.250000 0.250000 0.000000
O O16 0.000000 0.481144 0.750000
O O17 0.765501 0.415410 0.061480
O O18 0.642171 0.374185 0.355841
#
# Coordination Sequence:
#
# PCOD8136356 Si02
#       8
#     8   8   8   8   8   8   8   8
#     4  12  23  35  55  85 119 152 195 239 285 357
#     4  12  24  36  59  87 119 159 189 243 294 350
#     4   9  20  36  50  87 111 151 195 225 296 344
#     4  10  20  33  57  78 119 154 185 231 284 355
#     4  12  24  40  58  86 118 151 196 245 295 353
#     4  11  22  37  54  85 118 156 197 236 292 348
#     4  11  21  41  58  85 112 156 205 233 298 350
#     4   9  20  37  59  75 116 153 191 244 279 351
#
# _framework density 18.201785999999998
#
# number of rings (size 3 to 8) (size 9 to 14) (size 15 to 20)
#    0.000    1.250    3.750    4.125    1.750    0.500 
#    4.500    0.000    0.000    0.750    0.000    0.000 
#    0.000    0.000    0.000    0.000    0.000    0.000 
#
# Total GULP energy -396816.240219 kJ/mol
# GULP energy per Si atom -12400.507507 kJ/mol
# Density = 1.816036 g / cm^3
# Si number density = 18.201786 Si / 1000 Ang^3
#
#
#
# Elastic Constant Matrix: (Units=GPa)
#
#
# Indices 1 2 3 4 5 6 
#
# 1 110.2897 48.2970 54.5786 -0.0226 5.7099 0.0077
# 2 48.2970 106.3606 49.4938 -0.0167 10.6419 0.0115
# 3 54.5786 49.4938 101.5488 -0.0081 15.4831 0.0017
# 4 -0.0226 -0.0167 -0.0081 29.4565 0.0096 3.5187
# 5 5.7099 10.6419 15.4831 0.0096 40.9012 -0.0004
# 6 0.0077 0.0115 0.0017 3.5187 -0.0004 27.6463
#
#
#
# Elastic Compliance Matrix: (Units=1/GPa)
#
#
# Indices 1 2 3 4 5 6 
#
# 1 0.013346 -0.003566 -0.005617 0.000007 0.001191 -0.000003
# 2 -0.003566 0.013149 -0.004294 0.000005 -0.001298 -0.000005
# 3 -0.005617 -0.004294 0.015568 -0.000002 -0.003992 0.000003
# 4 0.000007 0.000005 -0.000002 0.034473 -0.000010 -0.004387
# 5 0.001191 -0.001298 -0.003992 -0.000010 0.026132 0.000002
# 6 -0.000003 -0.000005 0.000003 -0.004387 0.000002 0.036730
#
#
# Mechanical properties :
#
#
# Convention : Reuss Voigt Hill
#
# Bulk Modulus (GPa) = 66.18325 69.21532 67.69928
# Shear Modulus (GPa) = 29.17346 30.65611 29.91479
#
# Velocity S-wave (km/s) = 4.00782 4.10840 4.05842
# Velocity P-wave (km/s) = 7.60635 7.78553 7.69646
#
# Compressibility (1/GPa) = 0.01510956
#
# Stress axis : x y z
#
# Youngs Moduli (GPa) = 74.92608 76.04876 64.23428
#
# Poissons Ratio (x) = 0.27118 0.36079
# Poissons Ratio (y) = 0.26718 0.27585
# Poissons Ratio (z) = 0.42085 0.32659
#
# Static dielectric constant tensor:
#      x y z
#    x 3.457340 -0.000110 -0.012680 
#    y -0.000110 3.420000 0.000190 
#    z -0.012680 0.000190 3.503700 
# 
# 
# High freq. dielectric constant tensor:
#      x y z
#    x 1.703770 0.000000 -0.008240 
#    y 0.000000 1.669830 0.000010 
#    z -0.008240 0.000010 1.714220 
# 
# From -- ./inp_files/220406.got.cif
#   From: 2010.06.25/outbox.cif.g09.slc.cpg/sg15_111_cif.got.tgz:220406.got - 2010.06.28 07:06:18.
