data_PCOD8136136
_publ_section_title
;
Structure prediction by ZEFSAII (Michael W. Deem and Ramdas Pophale) SiO2 
 PCOD8136136
Probable space group: C 2/C
;
_chemical_formula_sum "Si O2"
_cell_formula_units_Z 52
_cell_length_a 22.343572
_cell_length_b 24.040082
_cell_length_c 18.363953
_cell_angle_alpha 90.000000
_cell_angle_beta 160.078218
_cell_angle_gamma 90.000000
_cell_volume 3361.042523
_symmetry_space_group_name_H-M "C 2/C"
_symmetry_group_IT_number 15
_symmetry_cell_setting 'monoclinic'
loop_
_space_group_symop_operation_xyz
x,y,z
-x,y,1/2-z
-x,-y,-z
x,-y,1/2+z
1/2+x,1/2+y,z
1/2-x,1/2+y,1/2-z
1/2-x,1/2-y,-z
1/2+x,1/2-y,1/2+z
loop_
_atom_site_type_symbol
_atom_site_label
_atom_site_fract_x
_atom_site_fract_y
_atom_site_fract_z
Si Si1 0.800695 0.482491 0.268660
Si Si2 0.422442 0.572819 0.540747
Si Si3 0.313146 0.481580 0.514533
Si Si4 0.704849 0.080873 0.592726
Si Si5 0.500000 0.988516 0.750000
Si Si6 0.023128 0.692423 0.361558
Si Si7 0.133051 0.811645 0.469583
O O1 0.681987 0.538748 0.141945
O O2 0.759866 0.453141 0.143557
O O3 0.757796 0.439194 0.282922
O O4 0.000000 0.500000 0.500000
O O5 0.359706 0.546379 0.546532
O O6 0.630123 0.565637 0.768585
O O7 0.387434 0.638577 0.496240
O O8 0.168825 0.475842 0.414746
O O9 0.500000 0.452883 0.750000
O O10 0.543458 0.048787 0.370363
O O11 0.659977 0.146245 0.546274
O O12 0.097318 0.753017 0.468123
O O13 0.000000 0.687024 0.250000
O O14 0.832937 0.684789 0.176055
O O15 0.000000 0.820088 0.250000
#
# Coordination Sequence:
#
# PCOD8136136 Si02
#       7
#     8   8   8   8   4   8   8
#     4  10  20  33  47  69  95 128 167 205 249 292
#     4  10  21  31  47  66  95 127 165 204 239 290
#     4  10  20  32  47  70  93 127 163 201 244 291
#     4  12  20  32  48  69  94 133 165 204 249 288
#     4  12  18  30  50  64  94 124 170 192 244 290
#     4  11  21  31  46  67  91 131 166 205 239 287
#     4  11  20  32  44  66  94 124 168 207 238 283
#
# _framework density 15.47139
#
# number of rings (size 3 to 8) (size 9 to 14) (size 15 to 20)
#    0.923    0.308    3.846    6.462    0.000    0.000 
#    0.000    0.000    0.000    0.000    0.000    0.000 
#    0.000    0.000    2.615    7.231    1.231    0.154 
#
# Total GULP energy -322143.767695 kJ/mol
# GULP energy per Si atom -12390.144911 kJ/mol
# Density = 1.543618 g / cm^3
# Si number density = 15.471390 Si / 1000 Ang^3
#
#
#
# Elastic Constant Matrix: (Units=GPa)
#
#
# Indices 1 2 3 4 5 6 
#
# 1 68.9815 18.2287 23.4411 0.0001 2.0175 0.0000
# 2 18.2287 70.8929 16.1689 0.0000 -9.1821 0.0000
# 3 23.4411 16.1689 88.6207 -0.0001 8.7066 -0.0002
# 4 0.0001 0.0000 -0.0001 30.1604 0.0000 0.0883
# 5 2.0175 -9.1821 8.7066 0.0000 36.0589 -0.0001
# 6 0.0000 0.0000 -0.0002 0.0883 -0.0001 18.5649
#
#
#
# Elastic Compliance Matrix: (Units=1/GPa)
#
#
# Indices 1 2 3 4 5 6 
#
# 1 0.016721 -0.003586 -0.003674 0.000000 -0.000962 0.000000
# 2 -0.003586 0.016238 -0.002499 0.000000 0.004939 0.000000
# 3 -0.003674 -0.002499 0.013064 0.000000 -0.003585 0.000000
# 4 0.000000 0.000000 0.000000 0.033156 0.000000 -0.000158
# 5 -0.000962 0.004939 -0.003585 0.000000 0.029910 0.000000
# 6 0.000000 0.000000 0.000000 -0.000158 0.000000 0.053866
#
#
# Mechanical properties :
#
#
# Convention : Reuss Voigt Hill
#
# Bulk Modulus (GPa) = 37.73038 38.24139 37.98588
# Shear Modulus (GPa) = 26.13588 28.33394 27.23491
#
# Velocity S-wave (km/s) = 4.11457 4.28410 4.20019
# Velocity P-wave (km/s) = 6.85661 7.01730 6.93742
#
# Compressibility (1/GPa) = 0.02650384
#
# Stress axis : x y z
#
# Youngs Moduli (GPa) = 59.80532 61.58565 76.54556
#
# Poissons Ratio (x) = 0.22085 0.28124
# Poissons Ratio (y) = 0.21446 0.19131
# Poissons Ratio (z) = 0.21973 0.15392
#
# Static dielectric constant tensor:
#      x y z
#    x 2.906340 0.000000 0.105390 
#    y 0.000000 2.817920 0.000000 
#    z 0.105390 0.000000 3.146560 
# 
# 
# High freq. dielectric constant tensor:
#      x y z
#    x 1.575310 0.000000 0.025600 
#    y 0.000000 1.552770 0.000000 
#    z 0.025600 0.000000 1.610130 
# 
# From -- ./inp_files/216841.got.cif
#   From: 2010.06.25/outbox.cif.g09.slc.cpg/sg15_109_cif.got.tgz:216841.got - 2010.06.28 07:06:18.
