data_PCOD8136130
_publ_section_title
;
Structure prediction by ZEFSAII (Michael W. Deem and Ramdas Pophale) SiO2 
 PCOD8136130
Probable space group: C 2/C
;
_chemical_formula_sum "Si O2"
_cell_formula_units_Z 52
_cell_length_a 9.547668
_cell_length_b 18.495250
_cell_length_c 19.344361
_cell_angle_alpha 90.000000
_cell_angle_beta 45.923168
_cell_angle_gamma 90.000000
_cell_volume 2454.046816
_symmetry_space_group_name_H-M "C 2/C"
_symmetry_group_IT_number 15
_symmetry_cell_setting 'monoclinic'
loop_
_space_group_symop_operation_xyz
x,y,z
-x,y,1/2-z
-x,-y,-z
x,-y,1/2+z
1/2+x,1/2+y,z
1/2-x,1/2+y,1/2-z
1/2-x,1/2-y,-z
1/2+x,1/2-y,1/2+z
loop_
_atom_site_type_symbol
_atom_site_label
_atom_site_fract_x
_atom_site_fract_y
_atom_site_fract_z
Si Si1 0.789707 0.812890 0.040420
Si Si2 0.714047 0.313379 0.956995
Si Si3 0.500000 0.876064 0.750000
Si Si4 0.500000 0.443596 0.250000
Si Si5 0.000000 0.629481 0.750000
Si Si6 0.713310 0.087420 0.949034
Si Si7 0.837853 0.505607 0.720881
Si Si8 0.141674 0.562337 0.509259
O O1 0.614938 0.818492 0.156752
O O2 0.795106 0.886949 0.994793
O O3 0.750000 0.750000 0.000000
O O4 0.997529 0.801624 0.003803
O O5 0.867945 0.321244 0.841434
O O6 0.750000 0.250000 0.000000
O O7 0.737420 0.387079 0.991456
O O8 0.362187 0.928903 0.751771
O O9 0.629483 0.386102 0.161291
O O10 0.369034 0.495117 0.246125
O O11 0.840913 0.576149 0.769859
O O12 0.496177 0.108292 0.996364
O O13 0.751403 0.000394 0.930084
O O14 0.013469 0.515716 0.606980
#
# Coordination Sequence:
#
# PCOD8136130 Si02
#       8
#     8   8   4   4   4   8   8   8
#     4  11  24  42  63  93 124 170 212 256 315 375
#     4  12  27  43  63  90 127 173 213 259 318 376
#     4  11  24  43  62  90 126 162 210 268 307 375
#     4  10  20  31  63  99 125 158 198 256 318 377
#     4   9  20  40  67  89 127 166 206 262 313 370
#     4  10  20  38  61  94 126 159 204 255 313 369
#     4   9  18  38  61  96 124 156 205 261 317 362
#     4   9  19  38  64  89 127 157 199 262 308 368
#
# _framework density 21.189491
#
# number of rings (size 3 to 8) (size 9 to 14) (size 15 to 20)
#    0.000    1.846    1.538    1.846    2.154    2.462 
#    0.000    0.769    0.000    0.000    0.000    0.000 
#    0.000    0.000    0.000    0.000    0.000    0.000 
#
# Total GULP energy -322189.708154 kJ/mol
# GULP energy per Si atom -12391.911852 kJ/mol
# Density = 2.114126 g / cm^3
# Si number density = 21.189491 Si / 1000 Ang^3
#
#
#
# Elastic Constant Matrix: (Units=GPa)
#
#
# Indices 1 2 3 4 5 6 
#
# 1 179.1478 57.2832 44.2454 -0.0001 -4.5992 -0.0022
# 2 57.2832 85.1629 48.0067 0.0002 -0.9670 -0.0019
# 3 44.2454 48.0067 114.8630 -0.0090 6.5305 0.0035
# 4 -0.0001 0.0002 -0.0090 31.5423 0.0016 16.3863
# 5 -4.5992 -0.9670 6.5305 0.0016 30.6003 0.0014
# 6 -0.0022 -0.0019 0.0035 16.3863 0.0014 37.5108
#
#
#
# Elastic Compliance Matrix: (Units=1/GPa)
#
#
# Indices 1 2 3 4 5 6 
#
# 1 0.007237 -0.004245 -0.001081 -0.000001 0.001184 0.000001
# 2 -0.004245 0.017959 -0.005939 -0.000003 0.001197 0.000003
# 3 -0.001081 -0.005939 0.011767 0.000005 -0.002861 -0.000004
# 4 -0.000001 -0.000003 0.000005 0.041010 -0.000003 -0.017915
# 5 0.001184 0.001197 -0.002861 -0.000003 0.033506 0.000000
# 6 0.000001 0.000003 -0.000004 -0.017915 0.000000 0.034485
#
#
# Mechanical properties :
#
#
# Convention : Reuss Voigt Hill
#
# Bulk Modulus (GPa) = 69.28222 75.36047 72.32135
# Shear Modulus (GPa) = 28.85113 35.23993 32.04553
#
# Velocity S-wave (km/s) = 3.69396 4.08252 3.89309
# Velocity P-wave (km/s) = 7.13872 7.60689 7.37652
#
# Compressibility (1/GPa) = 0.01443372
#
# Stress axis : x y z
#
# Youngs Moduli (GPa) = 138.18591 55.68328 84.98292
#
# Poissons Ratio (x) = 0.23637 0.09184
# Poissons Ratio (y) = 0.58659 0.50469
# Poissons Ratio (z) = 0.14934 0.33069
#
# Static dielectric constant tensor:
#      x y z
#    x 4.184700 0.000000 0.310780 
#    y 0.000000 3.625300 0.000000 
#    z 0.310780 0.000000 4.005830 
# 
# 
# High freq. dielectric constant tensor:
#      x y z
#    x 1.846200 0.000000 0.015900 
#    y 0.000000 1.802960 0.000000 
#    z 0.015900 0.000000 1.835440 
# 
# From -- ./inp_files/233029.got.cif
#   From: 2010.06.25/outbox.cif.g09.slc.cpg/sg15_117_cif.got.tgz:233029.got - 2010.06.28 07:06:18.
