data_PCOD8136864
_publ_section_title
;
Structure prediction by ZEFSAII (Michael W. Deem and Ramdas Pophale) SiO2 
 PCOD8136864
Probable space group: C 2/C
;
_chemical_formula_sum "Si O2"
_cell_formula_units_Z 64
_cell_length_a 25.720739
_cell_length_b 9.272365
_cell_length_c 14.530956
_cell_angle_alpha 90.000000
_cell_angle_beta 112.958347
_cell_angle_gamma 90.000000
_cell_volume 3191.009620
_symmetry_space_group_name_H-M "C 2/C"
_symmetry_group_IT_number 15
_symmetry_cell_setting 'monoclinic'
loop_
_space_group_symop_operation_xyz
x,y,z
-x,y,1/2-z
-x,-y,-z
x,-y,1/2+z
1/2+x,1/2+y,z
1/2-x,1/2+y,1/2-z
1/2-x,1/2-y,-z
1/2+x,1/2-y,1/2+z
loop_
_atom_site_type_symbol
_atom_site_label
_atom_site_fract_x
_atom_site_fract_y
_atom_site_fract_z
Si Si1 0.956555 0.330371 0.504392
Si Si2 0.200362 0.906294 0.821578
Si Si3 0.725268 0.406718 0.492524
Si Si4 0.679640 0.104421 0.875658
Si Si5 0.070690 0.601046 0.126837
Si Si6 0.151459 0.816184 0.603876
Si Si7 0.315847 0.000616 0.326176
Si Si8 0.939201 0.508971 0.183811
O O1 0.948575 0.436695 0.411957
O O2 0.915702 0.192060 0.464485
O O3 0.942382 0.404381 0.591772
O O4 0.023662 0.287897 0.553513
O O5 0.196793 0.770764 0.887150
O O6 0.156277 0.890604 0.707287
O O7 0.262018 0.911385 0.819707
O O8 0.189295 0.048832 0.876281
O O9 0.750000 0.250000 0.500000
O O10 0.777853 0.518629 0.528244
O O11 0.684232 0.414358 0.552475
O O12 0.614030 0.098945 0.862290
O O13 0.688643 0.031870 0.783852
O O14 0.132382 0.614509 0.122759
O O15 0.073993 0.616946 0.239766
O O16 0.175927 0.652246 0.615961
O O17 0.000000 0.433060 0.250000
#
# Coordination Sequence:
#
# PCOD8136864 Si02
#       8
#     8   8   8   8   8   8   8   8
#     4   9  16  31  53  80 114 147 183 241 296 336
#     4  11  22  36  55  80 119 156 181 238 287 339
#     4  12  22  35  55  81 113 154 200 227 286 349
#     4  10  21  35  52  83 119 144 192 234 282 349
#     4   8  16  28  50  82 115 139 188 239 293 329
#     4  10  20  35  55  81 116 148 191 233 289 346
#     4   9  17  34  54  81 118 149 181 236 284 339
#     4   9  17  31  53  82 116 146 187 245 293 325
#
# _framework density 20.056346999999999
#
# number of rings (size 3 to 8) (size 9 to 14) (size 15 to 20)
#    0.000    2.250    2.500    1.875    1.750    0.000 
#    0.000    0.000    0.000    0.000    0.000   13.125 
#    0.000    0.000    0.000    0.000    0.000    0.000 
#
# Total GULP energy -396439.675042 kJ/mol
# GULP energy per Si atom -12388.739845 kJ/mol
# Density = 2.001070 g / cm^3
# Si number density = 20.056347 Si / 1000 Ang^3
#
#
#
# Elastic Constant Matrix: (Units=GPa)
#
#
# Indices 1 2 3 4 5 6 
#
# 1 97.7806 32.8096 32.2997 0.0000 14.0220 0.0000
# 2 32.8096 64.5167 36.5463 0.0000 4.1091 0.0000
# 3 32.2997 36.5463 102.6155 0.0000 -3.9978 0.0000
# 4 0.0000 0.0000 0.0000 26.5251 0.0000 -1.4984
# 5 14.0220 4.1091 -3.9978 0.0000 29.5184 0.0000
# 6 0.0000 0.0000 0.0000 -1.4984 0.0000 18.3902
#
#
#
# Elastic Compliance Matrix: (Units=1/GPa)
#
#
# Indices 1 2 3 4 5 6 
#
# 1 0.013711 -0.005007 -0.002774 0.000000 -0.006192 0.000000
# 2 -0.005007 0.021647 -0.006191 0.000000 -0.001473 0.000000
# 3 -0.002774 -0.006191 0.012976 0.000000 0.003937 0.000000
# 4 0.000000 0.000000 0.000000 0.037874 0.000000 0.003086
# 5 -0.006192 -0.001473 0.003937 0.000000 0.037557 0.000000
# 6 0.000000 0.000000 0.000000 0.003086 0.000000 0.054628
#
#
# Mechanical properties :
#
#
# Convention : Reuss Voigt Hill
#
# Bulk Modulus (GPa) = 49.04101 52.02489 50.53295
# Shear Modulus (GPa) = 23.45936 25.77056 24.61496
#
# Velocity S-wave (km/s) = 3.42376 3.58845 3.50707
# Velocity P-wave (km/s) = 6.33515 6.57001 6.45365
#
# Compressibility (1/GPa) = 0.02039110
#
# Stress axis : x y z
#
# Youngs Moduli (GPa) = 72.93274 46.19590 77.06287
#
# Poissons Ratio (x) = 0.23131 0.21375
# Poissons Ratio (y) = 0.36519 0.47708
# Poissons Ratio (z) = 0.20230 0.28599
#
# Static dielectric constant tensor:
#      x y z
#    x 4.095100 0.000000 0.157350 
#    y 0.000000 3.137920 0.000000 
#    z 0.157350 0.000000 3.988720 
# 
# 
# High freq. dielectric constant tensor:
#      x y z
#    x 1.790410 0.000000 -0.000700 
#    y 0.000000 1.709240 0.000000 
#    z -0.000700 0.000000 1.805540 
# 
# From -- ./inp_files/176654.got.cif
#   From: 2010.06.25/outbox.cif.g09.slc.cpg/sg15_89_cif.got.tgz:176654.got - 2010.06.28 07:06:18.
