data_PCOD8136470
_publ_section_title
;
Structure prediction by ZEFSAII (Michael W. Deem and Ramdas Pophale) SiO2 
 PCOD8136470
Probable space group: C 2/C
;
_chemical_formula_sum "Si O2"
_cell_formula_units_Z 64
_cell_length_a 24.681830
_cell_length_b 14.480255
_cell_length_c 9.577226
_cell_angle_alpha 90.000000
_cell_angle_beta 92.799293
_cell_angle_gamma 90.000000
_cell_volume 3418.808436
_symmetry_space_group_name_H-M "C 2/C"
_symmetry_group_IT_number 15
_symmetry_cell_setting 'monoclinic'
loop_
_space_group_symop_operation_xyz
x,y,z
-x,y,1/2-z
-x,-y,-z
x,-y,1/2+z
1/2+x,1/2+y,z
1/2-x,1/2+y,1/2-z
1/2-x,1/2-y,-z
1/2+x,1/2-y,1/2+z
loop_
_atom_site_type_symbol
_atom_site_label
_atom_site_fract_x
_atom_site_fract_y
_atom_site_fract_z
Si Si1 0.180284 0.616915 0.703863
Si Si2 0.145294 0.808794 0.751513
Si Si3 0.263712 0.875166 0.779111
Si Si4 0.694472 0.679022 0.760241
Si Si5 0.384609 0.601007 0.523834
Si Si6 0.199677 0.497593 0.459008
Si Si7 0.613575 0.386751 0.019579
Si Si8 0.500123 0.585243 0.598478
O O1 0.141698 0.705280 0.692522
O O2 0.244903 0.638389 0.718201
O O3 0.165357 0.563888 0.557902
O O4 0.163863 0.560613 0.843131
O O5 0.206968 0.828390 0.793898
O O6 0.121919 0.881381 0.640167
O O7 0.113188 0.816255 0.891201
O O8 0.306170 0.790352 0.762077
O O9 0.262527 0.940374 0.640485
O O10 0.271037 0.929609 0.926501
O O11 0.662536 0.653210 0.897648
O O12 0.664026 0.629690 0.628702
O O13 0.382428 0.490390 0.542809
O O14 0.444134 0.642518 0.571590
O O15 0.556546 0.359952 0.085950
O O16 0.500000 0.541464 0.750000
O O17 0.500000 0.500000 0.500000
#
# Coordination Sequence:
#
# PCOD8136470 Si02
#       8
#     8   8   8   8   8   8   8   8
#     4  10  22  35  50  78 112 136 187 223 260 308
#     4  11  23  35  50  81 109 142 176 233 258 311
#     4  10  22  35  50  76 112 138 185 225 260 308
#     4  11  21  35  52  77 107 146 178 231 260 305
#     4  11  23  34  57  77 108 147 187 213 265 314
#     4  10  20  34  54  68 102 152 174 216 262 320
#     4  11  23  34  57  77 108 147 187 213 265 314
#     4  10  22  40  52  78 108 139 184 234 258 303
#
# _framework density 18.719971999999999
#
# number of rings (size 3 to 8) (size 9 to 14) (size 15 to 20)
#    0.000    1.500    1.250    3.750   15.750    4.000 
#    0.000    0.000    0.000    0.000    0.000    0.000 
#    0.000   70.000    0.000    0.000    0.000    0.000 
#
# Total GULP energy -396451.646310 kJ/mol
# GULP energy per Si atom -12389.113947 kJ/mol
# Density = 1.867736 g / cm^3
# Si number density = 18.719972 Si / 1000 Ang^3
#
#
#
# Elastic Constant Matrix: (Units=GPa)
#
#
# Indices 1 2 3 4 5 6 
#
# 1 68.5267 22.8080 23.3099 0.0000 -6.2098 0.0000
# 2 22.8080 84.5834 23.1892 0.0000 -11.3840 0.0000
# 3 23.3099 23.1892 134.8671 0.0000 -14.5362 0.0000
# 4 0.0000 0.0000 0.0000 28.1725 0.0000 0.3370
# 5 -6.2098 -11.3840 -14.5362 0.0000 16.4161 0.0000
# 6 0.0000 0.0000 0.0000 0.3370 0.0000 9.9254
#
#
#
# Elastic Compliance Matrix: (Units=1/GPa)
#
#
# Indices 1 2 3 4 5 6 
#
# 1 0.016688 -0.003677 -0.002041 0.000000 0.001955 0.000000
# 2 -0.003677 0.014094 -0.000978 0.000000 0.007517 0.000000
# 3 -0.002041 -0.000978 0.008600 0.000000 0.006165 0.000000
# 4 0.000000 0.000000 0.000000 0.035510 0.000000 -0.001206
# 5 0.001955 0.007517 0.006165 0.000000 0.072328 0.000000
# 6 0.000000 0.000000 0.000000 -0.001206 0.000000 0.100792
#
#
# Mechanical properties :
#
#
# Convention : Reuss Voigt Hill
#
# Bulk Modulus (GPa) = 38.47625 47.39907 42.93766
# Shear Modulus (GPa) = 18.51388 25.48082 21.99735
#
# Velocity S-wave (km/s) = 3.14823 3.69339 3.43165
# Velocity P-wave (km/s) = 5.81493 6.60024 6.21999
#
# Compressibility (1/GPa) = 0.02599006
#
# Stress axis : x y z
#
# Youngs Moduli (GPa) = 59.92218 70.95245 116.27776
#
# Poissons Ratio (x) = 0.26091 0.23736
# Poissons Ratio (y) = 0.22035 0.11367
# Poissons Ratio (z) = 0.12232 0.06936
#
# Static dielectric constant tensor:
#      x y z
#    x 3.940450 0.000000 -0.218950 
#    y 0.000000 3.668930 0.000000 
#    z -0.218950 0.000000 3.688390 
# 
# 
# High freq. dielectric constant tensor:
#      x y z
#    x 1.684830 0.000000 -0.007100 
#    y 0.000000 1.714680 0.000000 
#    z -0.007100 0.000000 1.756530 
# 
# From -- ./inp_files/61919.got.cif
#   From: 2010.06.25/outbox.cif.g09.slc.cpg/sg15_31_cif.got.tgz:61919.got - 2010.06.28 07:06:18.
