data_PCOD8136493
_publ_section_title
;
Structure prediction by ZEFSAII (Michael W. Deem and Ramdas Pophale) SiO2 
 PCOD8136493
Probable space group: C 2/C
;
_chemical_formula_sum "Si O2"
_cell_formula_units_Z 60
_cell_length_a 30.608261
_cell_length_b 12.052692
_cell_length_c 7.830102
_cell_angle_alpha 90.000000
_cell_angle_beta 94.043756
_cell_angle_gamma 90.000000
_cell_volume 2881.426887
_symmetry_space_group_name_H-M "C 2/C"
_symmetry_group_IT_number 15
_symmetry_cell_setting 'monoclinic'
loop_
_space_group_symop_operation_xyz
x,y,z
-x,y,1/2-z
-x,-y,-z
x,-y,1/2+z
1/2+x,1/2+y,z
1/2-x,1/2+y,1/2-z
1/2-x,1/2-y,-z
1/2+x,1/2-y,1/2+z
loop_
_atom_site_type_symbol
_atom_site_label
_atom_site_fract_x
_atom_site_fract_y
_atom_site_fract_z
Si Si1 0.303941 0.118647 0.529333
Si Si2 0.594210 0.854141 0.842748
Si Si3 0.012363 0.877450 0.556530
Si Si4 0.705713 0.357088 0.080609
Si Si5 0.500000 0.780991 0.750000
Si Si6 0.391967 0.378643 0.049187
Si Si7 0.157348 0.037475 0.263665
Si Si8 0.857566 0.540742 0.841379
O O1 0.304587 0.225946 0.405113
O O2 0.256764 0.112833 0.604845
O O3 0.314464 0.006151 0.427011
O O4 0.341355 0.122674 0.687271
O O5 0.541736 0.858659 0.801235
O O6 0.616781 0.931250 0.710995
O O7 0.611739 0.727866 0.828093
O O8 0.607731 0.892255 0.036214
O O9 0.064108 0.867942 0.547205
O O10 0.000000 0.849454 0.750000
O O11 0.989148 0.793968 0.415083
O O12 0.000000 0.000000 0.500000
O O13 0.687795 0.390009 0.890715
O O14 0.682665 0.423874 0.224760
O O15 0.352413 0.385694 0.901681
O O16 0.387786 0.492032 0.160181
#
# Coordination Sequence:
#
# PCOD8136493 Si02
#       8
#     8   8   8   8   4   8   8   8
#     4  10  20  36  57  84 111 152 197 244 288 355
#     4  10  22  41  59  85 114 152 200 254 294 356
#     4  11  21  38  60  89 124 167 198 241 299 359
#     4  10  20  34  55  84 118 149 193 237 296 351
#     4  10  24  42  60  90 126 152 206 250 298 364
#     4  10  21  36  55  85 121 150 197 236 293 361
#     4  10  20  34  54  84 119 158 181 239 294 358
#     4  10  21  39  61  80 112 156 200 248 299 340
#
# _framework density 20.823017
#
# number of rings (size 3 to 8) (size 9 to 14) (size 15 to 20)
#    0.000    1.867    0.667    3.200    1.867    0.533 
#   12.000    0.000    0.000   12.800    0.000    0.000 
#    0.000    0.000    0.000    0.000    0.000    0.000 
#
# Total GULP energy -371854.991614 kJ/mol
# GULP energy per Si atom -12395.166387 kJ/mol
# Density = 2.077562 g / cm^3
# Si number density = 20.823017 Si / 1000 Ang^3
#
#
#
# Elastic Constant Matrix: (Units=GPa)
#
#
# Indices 1 2 3 4 5 6 
#
# 1 90.6369 31.5904 8.2671 0.0000 5.9324 0.0000
# 2 31.5904 56.3036 1.4408 0.0000 7.0045 0.0000
# 3 8.2671 1.4408 63.8863 0.0000 0.4662 0.0000
# 4 0.0000 0.0000 0.0000 32.2933 0.0000 2.8401
# 5 5.9324 7.0045 0.4662 0.0000 28.3403 0.0000
# 6 0.0000 0.0000 0.0000 2.8401 0.0000 33.0650
#
#
#
# Elastic Compliance Matrix: (Units=1/GPa)
#
#
# Indices 1 2 3 4 5 6 
#
# 1 0.013908 -0.007638 -0.001620 0.000000 -0.000997 0.000000
# 2 -0.007638 0.022528 0.000509 0.000000 -0.003978 0.000000
# 3 -0.001620 0.000509 0.015851 0.000000 -0.000048 0.000000
# 4 0.000000 0.000000 0.000000 0.031202 0.000000 -0.002680
# 5 -0.000997 -0.003978 -0.000048 0.000000 0.036478 0.000000
# 6 0.000000 0.000000 0.000000 -0.002680 0.000000 0.030474
#
#
# Mechanical properties :
#
#
# Convention : Reuss Voigt Hill
#
# Bulk Modulus (GPa) = 28.74401 32.60259 30.67330
# Shear Modulus (GPa) = 27.84962 30.04162 28.94562
#
# Velocity S-wave (km/s) = 3.66108 3.80243 3.73242
# Velocity P-wave (km/s) = 5.63074 5.91345 5.77383
#
# Compressibility (1/GPa) = 0.03478985
#
# Stress axis : x y z
#
# Youngs Moduli (GPa) = 71.89995 44.38890 63.08622
#
# Poissons Ratio (x) = 0.33904 0.10221
# Poissons Ratio (y) = 0.54917 -0.03213
# Poissons Ratio (z) = 0.11649 -0.02261
#
# Static dielectric constant tensor:
#      x y z
#    x 3.802710 0.000000 -0.063400 
#    y 0.000000 3.042070 0.000000 
#    z -0.063400 0.000000 3.902590 
# 
# 
# High freq. dielectric constant tensor:
#      x y z
#    x 1.812390 0.000000 0.006620 
#    y 0.000000 1.811520 0.000000 
#    z 0.006620 0.000000 1.817300 
# 
# From -- ./inp_files/65503.got.cif
#   From: 2010.06.25/outbox.cif.g09.slc.cpg/sg15_33_cif.got.tgz:65503.got - 2010.06.28 07:06:18.
