data_PCOD8136482
_publ_section_title
;
Structure prediction by ZEFSAII (Michael W. Deem and Ramdas Pophale) SiO2 
 PCOD8136482
Probable space group: C 2/C
;
_chemical_formula_sum "Si O2"
_cell_formula_units_Z 40
_cell_length_a 11.570049
_cell_length_b 25.414490
_cell_length_c 8.663866
_cell_angle_alpha 90.000000
_cell_angle_beta 122.692857
_cell_angle_gamma 90.000000
_cell_volume 2143.990038
_symmetry_space_group_name_H-M "C 2/C"
_symmetry_group_IT_number 15
_symmetry_cell_setting 'monoclinic'
loop_
_space_group_symop_operation_xyz
x,y,z
-x,y,1/2-z
-x,-y,-z
x,-y,1/2+z
1/2+x,1/2+y,z
1/2-x,1/2+y,1/2-z
1/2-x,1/2-y,-z
1/2+x,1/2-y,1/2+z
loop_
_atom_site_type_symbol
_atom_site_label
_atom_site_fract_x
_atom_site_fract_y
_atom_site_fract_z
Si Si1 0.834900 0.453642 0.442216
Si Si2 0.658703 0.942928 0.712052
Si Si3 0.683895 0.848714 0.236224
Si Si4 0.124880 0.334205 0.548227
Si Si5 0.849225 0.239324 0.710648
O O1 0.774636 0.443264 0.569049
O O2 0.775968 0.509481 0.340157
O O3 0.789979 0.410136 0.282827
O O4 0.997231 0.453512 0.586312
O O5 0.693778 0.885913 0.670550
O O6 0.675140 0.834769 0.409307
O O7 0.539694 0.833564 0.052736
O O8 0.810434 0.816480 0.257317
O O9 0.176545 0.283317 0.677002
O O10 0.750000 0.250000 0.500000
O O11 0.000000 0.237562 0.750000
#
# Coordination Sequence:
#
# PCOD8136482 Si02
#       5
#     8   8   8   8   8
#     4   9  16  27  46  74 110 140 179 221 277 333
#     4   9  16  26  46  75 107 144 175 223 280 326
#     4  10  20  35  53  79 112 146 183 232 279 330
#     4  10  20  34  54  79 113 144 184 231 280 329
#     4  12  23  38  57  80 111 150 191 231 278 329
#
# _framework density 18.656804000000001
#
# number of rings (size 3 to 8) (size 9 to 14) (size 15 to 20)
#    0.000    2.000    2.000    3.000    2.800    4.800 
#    0.000    0.000    0.000    0.000    0.000   12.600 
#    0.000    0.000    0.000    0.000    0.000    0.000 
#
# Total GULP energy -247897.536147 kJ/mol
# GULP energy per Si atom -12394.876807 kJ/mol
# Density = 1.861434 g / cm^3
# Si number density = 18.656804 Si / 1000 Ang^3
#
#
#
# Elastic Constant Matrix: (Units=GPa)
#
#
# Indices 1 2 3 4 5 6 
#
# 1 68.8907 41.9467 39.4406 0.0000 -12.3622 0.0000
# 2 41.9467 136.5882 49.4771 0.0000 -14.4705 0.0000
# 3 39.4406 49.4771 94.4847 0.0000 -20.5132 0.0000
# 4 0.0000 0.0000 0.0000 34.2923 0.0000 -14.2705
# 5 -12.3622 -14.4705 -20.5132 0.0000 20.5830 0.0000
# 6 0.0000 0.0000 0.0000 -14.2705 0.0000 23.3890
#
#
#
# Elastic Compliance Matrix: (Units=1/GPa)
#
#
# Indices 1 2 3 4 5 6 
#
# 1 0.020948 -0.003894 -0.005829 0.000000 0.004034 0.000000
# 2 -0.003894 0.009830 -0.003228 0.000000 0.001355 0.000000
# 3 -0.005829 -0.003228 0.017169 0.000000 0.011341 0.000000
# 4 0.000000 0.000000 0.000000 0.039085 0.000000 0.023847
# 5 0.004034 0.001355 0.011341 0.000000 0.063262 0.000000
# 6 0.000000 0.000000 0.000000 0.023847 0.000000 0.057305
#
#
# Mechanical properties :
#
#
# Convention : Reuss Voigt Hill
#
# Bulk Modulus (GPa) = 45.36164 62.41027 53.88595
# Shear Modulus (GPa) = 20.75979 26.92614 23.84297
#
# Velocity S-wave (km/s) = 3.33936 3.80311 3.57876
# Velocity P-wave (km/s) = 6.26378 7.26700 6.78396
#
# Compressibility (1/GPa) = 0.02204506
#
# Stress axis : x y z
#
# Youngs Moduli (GPa) = 47.73695 101.72963 58.24311
#
# Poissons Ratio (x) = 0.39617 0.33951
# Poissons Ratio (y) = 0.18590 0.18799
# Poissons Ratio (z) = 0.27827 0.32835
#
# Static dielectric constant tensor:
#      x y z
#    x 3.019280 0.000000 -0.375080 
#    y 0.000000 3.879360 0.000000 
#    z -0.375080 0.000000 3.441840 
# 
# 
# High freq. dielectric constant tensor:
#      x y z
#    x 1.676760 0.000000 -0.042100 
#    y 0.000000 1.739280 0.000000 
#    z -0.042100 0.000000 1.720830 
# 
# From -- ./inp_files/31325.got.cif
#   From: 2010.06.25/outbox.cif.g09.slc.cpg/sg15_16_cif.got.tgz:31325.got - 2010.06.28 07:06:18.
