data_PCOD8136763
_publ_section_title
;
Structure prediction by ZEFSAII (Michael W. Deem and Ramdas Pophale) SiO2 
 PCOD8136763
Probable space group: C 2/C
;
_chemical_formula_sum "Si O2"
_cell_formula_units_Z 56
_cell_length_a 22.183893
_cell_length_b 16.656811
_cell_length_c 8.749821
_cell_angle_alpha 90.000000
_cell_angle_beta 55.422889
_cell_angle_gamma 90.000000
_cell_volume 2662.074555
_symmetry_space_group_name_H-M "C 2/C"
_symmetry_group_IT_number 15
_symmetry_cell_setting 'monoclinic'
loop_
_space_group_symop_operation_xyz
x,y,z
-x,y,1/2-z
-x,-y,-z
x,-y,1/2+z
1/2+x,1/2+y,z
1/2-x,1/2+y,1/2-z
1/2-x,1/2-y,-z
1/2+x,1/2-y,1/2+z
loop_
_atom_site_type_symbol
_atom_site_label
_atom_site_fract_x
_atom_site_fract_y
_atom_site_fract_z
Si Si1 0.661700 0.615565 0.256495
Si Si2 0.346552 0.990693 0.122081
Si Si3 0.072317 0.577702 0.727689
Si Si4 0.715650 0.142822 0.973370
Si Si5 0.307131 0.474580 0.503723
Si Si6 0.077460 0.241647 0.204337
Si Si7 0.789868 0.284535 0.700094
O O1 0.641235 0.566977 0.441722
O O2 0.600776 0.682652 0.308164
O O3 0.741705 0.657110 0.159884
O O4 0.658478 0.554109 0.118461
O O5 0.410211 0.978416 0.154249
O O6 0.346260 0.912285 0.013855
O O7 0.268536 0.000397 0.309615
O O8 0.363994 0.069137 0.993691
O O9 0.065684 0.669616 0.789895
O O10 0.000000 0.544564 0.750000
O O11 0.734344 0.214544 0.832297
O O12 0.789759 0.090549 0.896595
O O13 0.683310 0.170924 0.184083
O O14 0.000000 0.210333 0.250000
O O15 0.141182 0.245390 0.984761
#
# Coordination Sequence:
#
# PCOD8136763 Si02
#       7
#     8   8   8   8   8   8   8
#     4  11  22  39  64  93 117 159 201 259 309 366
#     4  12  19  36  58  89 120 153 198 250 305 356
#     4  11  24  37  56  81 124 166 202 235 293 374
#     4  10  20  34  63  93 123 149 197 266 307 356
#     4  11  20  35  64  91 118 145 199 264 315 348
#     4  11  24  41  60  85 125 169 207 243 301 372
#     4  10  21  38  62  93 123 156 204 254 310 361
#
# _framework density 21.036225999999999
#
# number of rings (size 3 to 8) (size 9 to 14) (size 15 to 20)
#    0.000    1.143    2.857    5.143    0.000    0.000 
#    0.000    0.714    0.000    7.714    0.000    0.000 
#    0.000    0.000    0.000    0.000    0.000    0.000 
#
# Total GULP energy -347141.185807 kJ/mol
# GULP energy per Si atom -12397.899493 kJ/mol
# Density = 2.098835 g / cm^3
# Si number density = 21.036226 Si / 1000 Ang^3
#
#
#
# Elastic Constant Matrix: (Units=GPa)
#
#
# Indices 1 2 3 4 5 6 
#
# 1 122.0250 42.8034 28.2252 0.0000 25.7923 0.0000
# 2 42.8034 89.5265 18.5495 0.0000 25.3688 0.0000
# 3 28.2252 18.5495 44.4766 0.0000 14.0054 0.0000
# 4 0.0000 0.0000 0.0000 28.8185 0.0000 14.1436
# 5 25.7923 25.3688 14.0054 0.0000 23.0642 0.0000
# 6 0.0000 0.0000 0.0000 14.1436 0.0000 39.9854
#
#
#
# Elastic Compliance Matrix: (Units=1/GPa)
#
#
# Indices 1 2 3 4 5 6 
#
# 1 0.011642 -0.002531 -0.003845 0.000000 -0.007901 0.000000
# 2 -0.002531 0.016851 -0.000589 0.000000 -0.015346 0.000000
# 3 -0.003845 -0.000589 0.029194 0.000000 -0.012780 0.000000
# 4 0.000000 0.000000 0.000000 0.041989 0.000000 -0.014852
# 5 -0.007901 -0.015346 -0.012780 0.000000 0.076833 0.000000
# 6 0.000000 0.000000 0.000000 -0.014852 0.000000 0.030263
#
#
# Mechanical properties :
#
#
# Convention : Reuss Voigt Hill
#
# Bulk Modulus (GPa) = 22.85350 48.35380 35.60365
# Shear Modulus (GPa) = 21.25072 29.47029 25.36050
#
# Velocity S-wave (km/s) = 3.18181 3.74696 3.47589
# Velocity P-wave (km/s) = 4.93822 6.46185 5.75072
#
# Compressibility (1/GPa) = 0.04375697
#
# Stress axis : x y z
#
# Youngs Moduli (GPa) = 85.89545 59.34510 34.25403
#
# Poissons Ratio (x) = 0.15019 0.13170
# Poissons Ratio (y) = 0.21738 0.02018
# Poissons Ratio (z) = 0.33025 0.03497
#
# Static dielectric constant tensor:
#      x y z
#    x 3.787290 0.000000 0.404930 
#    y 0.000000 4.193790 0.000000 
#    z 0.404930 0.000000 3.640000 
# 
# 
# High freq. dielectric constant tensor:
#      x y z
#    x 1.804000 0.000000 0.035930 
#    y 0.000000 1.842960 0.000000 
#    z 0.035930 0.000000 1.799450 
# 
# From -- ./inp_files/62405.got.cif
#   From: 2010.06.25/outbox.cif.g09.slc.cpg/sg15_32_cif.got.tgz:62405.got - 2010.06.28 07:06:18.
