data_PCOD8136262
_publ_section_title
;
Structure prediction by ZEFSAII (Michael W. Deem and Ramdas Pophale) SiO2 
 PCOD8136262
Probable space group: C 2/C
;
_chemical_formula_sum "Si O2"
_cell_formula_units_Z 48
_cell_length_a 29.908317
_cell_length_b 12.794286
_cell_length_c 20.159941
_cell_angle_alpha 90.000000
_cell_angle_beta 19.693289
_cell_angle_gamma 90.000000
_cell_volume 2599.607815
_symmetry_space_group_name_H-M "C 2/C"
_symmetry_group_IT_number 15
_symmetry_cell_setting 'monoclinic'
loop_
_space_group_symop_operation_xyz
x,y,z
-x,y,1/2-z
-x,-y,-z
x,-y,1/2+z
1/2+x,1/2+y,z
1/2-x,1/2+y,1/2-z
1/2-x,1/2-y,-z
1/2+x,1/2-y,1/2+z
loop_
_atom_site_type_symbol
_atom_site_label
_atom_site_fract_x
_atom_site_fract_y
_atom_site_fract_z
Si Si1 0.179244 0.995922 0.811398
Si Si2 0.211414 0.461616 0.706586
Si Si3 0.506531 0.668997 0.486012
Si Si4 0.653126 0.803722 0.686782
Si Si5 0.944756 0.621795 0.644955
Si Si6 0.520297 0.974900 0.644158
O O1 0.082055 0.090973 0.932802
O O2 0.323913 0.029987 0.586448
O O3 0.175408 0.973282 0.895897
O O4 0.133688 0.891248 0.837434
O O5 0.249224 0.374500 0.599068
O O6 0.186004 0.573590 0.707251
O O7 0.075238 0.423352 0.928783
O O8 0.424047 0.717554 0.662116
O O9 0.560098 0.753898 0.358165
O O10 0.750000 0.750000 0.500000
O O11 0.544920 0.875699 0.801284
O O12 0.954222 0.582714 0.708333
O O13 0.500000 0.968309 0.750000
#
# Coordination Sequence:
#
# PCOD8136262 Si02
#       6
#     8   8   8   8   8   8
#     4  10  20  33  51  75 106 139 178 220 257 312
#     4   8  16  31  49  73 101 133 168 208 258 314
#     4  10  20  33  51  77 106 141 181 217 258 313
#     4  10  20  34  55  83 109 132 169 223 282 328
#     4   8  16  31  50  71  98 132 174 212 251 314
#     4  10  20  34  53  77 104 135 172 220 275 323
#
# _framework density 18.464323
#
# number of rings (size 3 to 8) (size 9 to 14) (size 15 to 20)
#    0.000    2.667    0.000    4.000    0.000    9.333 
#    0.000    0.833    0.000    4.000    0.000    0.000 
#    0.000    0.000    0.000    0.000    0.000    0.000 
#
# Total GULP energy -297463.177719 kJ/mol
# GULP energy per Si atom -12394.299072 kJ/mol
# Density = 1.842230 g / cm^3
# Si number density = 18.464323 Si / 1000 Ang^3
#
#
#
# Elastic Constant Matrix: (Units=GPa)
#
#
# Indices 1 2 3 4 5 6 
#
# 1 147.1509 59.0884 32.9707 0.0000 -15.6866 0.0000
# 2 59.0884 122.3943 30.3031 -0.0001 -13.0881 0.0000
# 3 32.9707 30.3031 53.0608 -0.0002 -10.0383 0.0000
# 4 0.0000 -0.0001 -0.0002 -50.4415 0.0001 1.0745
# 5 -15.6866 -13.0881 -10.0383 0.0001 30.3306 0.0000
# 6 0.0000 0.0000 0.0000 1.0745 0.0000 29.6060
#
#
#
# Elastic Compliance Matrix: (Units=1/GPa)
#
#
# Indices 1 2 3 4 5 6 
#
# 1 0.009119 -0.003342 -0.003348 0.000000 0.002166 0.000000
# 2 -0.003342 0.010916 -0.003834 0.000000 0.001713 0.000000
# 3 -0.003348 -0.003834 0.023977 0.000000 0.004550 0.000000
# 4 0.000000 0.000000 0.000000 -0.019810 0.000000 0.000719
# 5 0.002166 0.001713 0.004550 0.000000 0.036335 0.000000
# 6 0.000000 0.000000 0.000000 0.000719 0.000000 0.033751
#
#
# Mechanical properties :
#
#
# Convention : Reuss Voigt Hill
#
# Bulk Modulus (GPa) = 43.54446 63.03670 53.29058
# Shear Modulus (GPa) = 40.65407 15.24861 27.95134
#
# Velocity S-wave (km/s) = 4.69739 2.87686 3.89498
# Velocity P-wave (km/s) = 7.28387 6.72674 7.01084
#
# Compressibility (1/GPa) = 0.02296503
#
# Stress axis : x y z
#
# Youngs Moduli (GPa) = 109.66560 91.60918 41.70727
#
# Poissons Ratio (x) = 0.30613 0.13963
# Poissons Ratio (y) = 0.36647 0.15989
# Poissons Ratio (z) = 0.36714 0.35119
#
# Static dielectric constant tensor:
#      x y z
#    x 3.990120 0.000000 -0.016740 
#    y 0.000000 3.627690 0.000000 
#    z -0.016740 0.000000 3.027250 
# 
# 
# High freq. dielectric constant tensor:
#      x y z
#    x 1.733640 0.000000 -0.011910 
#    y 0.000000 1.721110 0.000000 
#    z -0.011910 0.000000 1.675270 
# 
# From -- ./inp_files/248458.got.cif
#   From: 2010.06.25/outbox.cif.g09.slc.cpg/sg15_125_cif.got.tgz:248458.got - 2010.06.28 07:06:18.
