data_PCOD8136439
_publ_section_title
;
Structure prediction by ZEFSAII (Michael W. Deem and Ramdas Pophale) SiO2 
 PCOD8136439
Probable space group: C 2/C
;
_chemical_formula_sum "Si O2"
_cell_formula_units_Z 40
_cell_length_a 12.891956
_cell_length_b 33.397727
_cell_length_c 5.077891
_cell_angle_alpha 90.000000
_cell_angle_beta 101.314231
_cell_angle_gamma 90.000000
_cell_volume 2143.857485
_symmetry_space_group_name_H-M "C 2/C"
_symmetry_group_IT_number 15
_symmetry_cell_setting 'monoclinic'
loop_
_space_group_symop_operation_xyz
x,y,z
-x,y,1/2-z
-x,-y,-z
x,-y,1/2+z
1/2+x,1/2+y,z
1/2-x,1/2+y,1/2-z
1/2-x,1/2-y,-z
1/2+x,1/2-y,1/2+z
loop_
_atom_site_type_symbol
_atom_site_label
_atom_site_fract_x
_atom_site_fract_y
_atom_site_fract_z
Si Si1 0.069759 0.684672 0.043930
Si Si2 0.930693 0.774803 0.458589
Si Si3 0.877275 0.979482 0.142686
Si Si4 0.880255 0.887542 0.104501
Si Si5 0.792783 0.153451 0.046865
O O1 0.109119 0.729951 0.128039
O O2 0.170873 0.656207 0.067794
O O3 0.000000 0.668156 0.250000
O O4 0.000000 0.682908 0.750000
O O5 0.831442 0.803234 0.463870
O O6 0.000000 0.791926 0.250000
O O7 0.000000 0.773312 0.750000
O O8 0.859326 0.934132 0.041378
O O9 0.000000 0.989170 0.250000
O O10 0.824846 0.991555 0.395465
O O11 0.802578 0.875957 0.303710
O O12 0.000000 0.878859 0.250000
O O13 0.859764 0.862669 0.827928
#
# Coordination Sequence:
#
# PCOD8136439 Si02
#       5
#     8   8   8   8   8
#     4  10  22  38  53  71  98 137 184 223 254 299
#     4  10  20  34  52  74 101 135 172 210 259 313
#     4   9  17  31  49  70 103 142 167 188 231 299
#     4  11  22  33  51  81 111 137 167 204 250 308
#     4  12  21  34  53  76 106 136 171 216 265 298
#
# _framework density 18.657958000000001
#
# number of rings (size 3 to 8) (size 9 to 14) (size 15 to 20)
#    0.000    1.600    0.000    6.600    0.000    3.200 
#    0.000    8.000    0.000    0.000    0.000    0.000 
#    0.000   56.000    0.000    0.000    0.000    0.000 
#
# Total GULP energy -247995.758465 kJ/mol
# GULP energy per Si atom -12399.787923 kJ/mol
# Density = 1.861549 g / cm^3
# Si number density = 18.657958 Si / 1000 Ang^3
#
#
#
# Elastic Constant Matrix: (Units=GPa)
#
#
# Indices 1 2 3 4 5 6 
#
# 1 91.1278 30.3931 33.2334 0.0000 -18.8469 0.0000
# 2 30.3931 65.0739 34.7859 0.0000 -3.0384 0.0000
# 3 33.2334 34.7859 109.1112 0.0000 -28.9874 0.0000
# 4 0.0000 0.0000 0.0000 31.9740 0.0000 -8.0552
# 5 -18.8469 -3.0384 -28.9874 0.0000 31.6408 0.0000
# 6 0.0000 0.0000 0.0000 -8.0552 0.0000 17.6456
#
#
#
# Elastic Compliance Matrix: (Units=1/GPa)
#
#
# Indices 1 2 3 4 5 6 
#
# 1 0.014872 -0.006359 -0.000412 0.000000 0.007871 0.000000
# 2 -0.006359 0.021811 -0.007225 0.000000 -0.008312 0.000000
# 3 -0.000412 -0.007225 0.014994 0.000000 0.012797 0.000000
# 4 0.000000 0.000000 0.000000 0.035340 0.000000 0.016133
# 5 0.007871 -0.008312 0.012797 0.000000 0.047219 0.000000
# 6 0.000000 0.000000 0.000000 0.016133 0.000000 0.064036
#
#
# Mechanical properties :
#
#
# Convention : Reuss Voigt Hill
#
# Bulk Modulus (GPa) = 42.21864 51.34863 46.78364
# Shear Modulus (GPa) = 21.35309 27.37878 24.36594
#
# Velocity S-wave (km/s) = 3.38664 3.83483 3.61768
# Velocity P-wave (km/s) = 6.16192 6.86940 6.52526
#
# Compressibility (1/GPa) = 0.02368622
#
# Stress axis : x y z
#
# Youngs Moduli (GPa) = 67.23902 45.84794 66.69486
#
# Poissons Ratio (x) = 0.29153 0.02745
# Poissons Ratio (y) = 0.42755 0.48189
# Poissons Ratio (z) = 0.02767 0.33126
#
# Static dielectric constant tensor:
#      x y z
#    x 3.129290 0.000000 -0.326710 
#    y 0.000000 3.426500 0.000000 
#    z -0.326710 0.000000 3.634000 
# 
# 
# High freq. dielectric constant tensor:
#      x y z
#    x 1.686210 0.000000 -0.029380 
#    y 0.000000 1.714990 0.000000 
#    z -0.029380 0.000000 1.742120 
# 
# From -- ./inp_files/5558.got.cif
#   From: 2010.06.25/outbox.cif.g09.slc.cpg/sg15_3_cif.got.tgz:5558.got - 2010.06.28 07:06:18.
