data_PCOD8136861
_publ_section_title
;
Structure prediction by ZEFSAII (Michael W. Deem and Ramdas Pophale) SiO2 
 PCOD8136861
Probable space group: C 2/C
;
_chemical_formula_sum "Si O2"
_cell_formula_units_Z 32
_cell_length_a 14.681248
_cell_length_b 7.883443
_cell_length_c 15.125284
_cell_angle_alpha 90.000000
_cell_angle_beta 119.077813
_cell_angle_gamma 90.000000
_cell_volume 1529.939444
_symmetry_space_group_name_H-M "C 2/C"
_symmetry_group_IT_number 15
_symmetry_cell_setting 'monoclinic'
loop_
_space_group_symop_operation_xyz
x,y,z
-x,y,1/2-z
-x,-y,-z
x,-y,1/2+z
1/2+x,1/2+y,z
1/2-x,1/2+y,1/2-z
1/2-x,1/2-y,-z
1/2+x,1/2-y,1/2+z
loop_
_atom_site_type_symbol
_atom_site_label
_atom_site_fract_x
_atom_site_fract_y
_atom_site_fract_z
Si Si1 0.192468 0.516928 0.473667
Si Si2 0.878570 0.927792 0.781630
Si Si3 0.271939 0.739242 0.658896
Si Si4 0.103075 0.171969 0.405574
O O1 0.193293 0.617356 0.566956
O O2 0.164454 0.642962 0.379931
O O3 0.108055 0.366560 0.441483
O O4 0.307172 0.439766 0.506090
O O5 0.790680 0.853746 0.802900
O O6 0.878150 0.822378 0.690720
O O7 0.992493 0.910496 0.879772
O O8 0.855500 0.125849 0.751746
#
# Coordination Sequence:
#
# PCOD8136861 Si02
#       4
#     8   8   8   8
#     4   9  19  37  57  79 109 141 179 227 275 320
#     4  10  20  35  55  80 110 144 182 221 267 321
#     4  10  20  35  55  80 111 145 179 220 270 324
#     4   9  19  37  57  78 108 144 182 226 272 319
#
# _framework density 20.915859000000001
#
# number of rings (size 3 to 8) (size 9 to 14) (size 15 to 20)
#    0.000    2.500    0.000    1.500    0.000    2.000 
#    0.000   27.500    0.000    0.000    0.000    0.000 
#    0.000    0.000    0.000    0.000    0.000    0.000 
#
# Total GULP energy -198402.695010 kJ/mol
# GULP energy per Si atom -12400.168438 kJ/mol
# Density = 2.086825 g / cm^3
# Si number density = 20.915859 Si / 1000 Ang^3
#
#
#
# Elastic Constant Matrix: (Units=GPa)
#
#
# Indices 1 2 3 4 5 6 
#
# 1 58.2313 29.9235 29.9189 0.0000 13.6906 0.0000
# 2 29.9235 132.0684 47.9534 0.0000 11.7560 0.0000
# 3 29.9189 47.9534 55.2216 0.0000 14.5632 0.0000
# 4 0.0000 0.0000 0.0000 47.2438 0.0000 -4.5826
# 5 13.6906 11.7560 14.5632 0.0000 30.6289 0.0000
# 6 0.0000 0.0000 0.0000 -4.5826 0.0000 21.8702
#
#
#
# Elastic Compliance Matrix: (Units=1/GPa)
#
#
# Indices 1 2 3 4 5 6 
#
# 1 0.024645 -0.001127 -0.010956 0.000000 -0.005374 0.000000
# 2 -0.001127 0.011114 -0.009202 0.000000 0.000614 0.000000
# 3 -0.010956 -0.009202 0.034087 0.000000 -0.007778 0.000000
# 4 0.000000 0.000000 0.000000 0.021606 0.000000 0.004527
# 5 -0.005374 0.000614 -0.007778 0.000000 0.038514 0.000000
# 6 0.000000 0.000000 0.000000 0.004527 0.000000 0.046673
#
#
# Mechanical properties :
#
#
# Convention : Reuss Voigt Hill
#
# Bulk Modulus (GPa) = 36.66447 51.23475 43.94961
# Shear Modulus (GPa) = 21.90081 29.13027 25.51554
#
# Velocity S-wave (km/s) = 3.23939 3.73599 3.49652
# Velocity P-wave (km/s) = 5.61775 6.56955 6.11220
#
# Compressibility (1/GPa) = 0.02727436
#
# Stress axis : x y z
#
# Youngs Moduli (GPa) = 40.57623 89.97755 29.33649
#
# Poissons Ratio (x) = 0.10144 0.32142
# Poissons Ratio (y) = 0.04575 0.26996
# Poissons Ratio (z) = 0.44457 0.82798
#
# Static dielectric constant tensor:
#      x y z
#    x 3.381740 0.000000 0.098000 
#    y 0.000000 3.930880 0.000000 
#    z 0.098000 0.000000 3.850330 
# 
# 
# High freq. dielectric constant tensor:
#      x y z
#    x 1.782180 0.000000 -0.004220 
#    y 0.000000 1.830740 0.000000 
#    z -0.004220 0.000000 1.815680 
# 
# From -- ./inp_files/140700.got.cif
#   From: 2010.06.25/outbox.cif.g09.slc.cpg/sg15_71_cif.got.tgz:140700.got - 2010.06.28 07:06:18.
