data_PCOD8137248
_publ_section_title
;
Structure prediction by ZEFSAII (Michael W. Deem and Ramdas Pophale) SiO2 
 PCOD8137248
Probable space group: C 2/C
;
_chemical_formula_sum "Si O2"
_cell_formula_units_Z 48
_cell_length_a 9.377374
_cell_length_b 20.443375
_cell_length_c 14.925999
_cell_angle_alpha 90.000000
_cell_angle_beta 110.771226
_cell_angle_gamma 90.000000
_cell_volume 2675.411935
_symmetry_space_group_name_H-M "C 2/C"
_symmetry_group_IT_number 15
_symmetry_cell_setting 'monoclinic'
loop_
_space_group_symop_operation_xyz
x,y,z
-x,y,1/2-z
-x,-y,-z
x,-y,1/2+z
1/2+x,1/2+y,z
1/2-x,1/2+y,1/2-z
1/2-x,1/2-y,-z
1/2+x,1/2-y,1/2+z
loop_
_atom_site_type_symbol
_atom_site_label
_atom_site_fract_x
_atom_site_fract_y
_atom_site_fract_z
Si Si1 0.636716 0.951306 0.545621
Si Si2 0.363987 0.543017 0.934969
Si Si3 0.663932 0.687993 0.588934
Si Si4 0.432494 0.812089 0.012786
Si Si5 0.678912 0.473887 0.270118
Si Si6 0.865865 0.348905 0.286518
O O1 0.727546 0.954526 0.473535
O O2 0.565855 0.879005 0.544790
O O3 0.500000 0.000000 0.500000
O O4 0.747101 0.968899 0.653301
O O5 0.421523 0.617473 0.926772
O O6 0.301435 0.509369 0.830384
O O7 0.500000 0.500000 0.000000
O O8 0.549865 0.749602 0.550062
O O9 0.771353 0.688577 0.526581
O O10 0.756392 0.697500 0.702589
O O11 0.567607 0.807768 0.115939
O O12 0.500000 0.465049 0.250000
O O13 0.771917 0.407725 0.310568
O O14 0.000000 0.375761 0.250000
#
# Coordination Sequence:
#
# PCOD8137248 Si02
#       6
#     8   8   8   8   8   8
#     4  11  21  34  57  84 109 143 184 227 272 324
#     4  10  20  36  54  80 114 140 183 226 275 324
#     4   8  17  30  51  76 106 139 172 226 269 319
#     4   9  16  32  50  79 108 132 182 224 267 317
#     4  11  21  34  54  81 110 147 181 223 277 323
#     4   9  17  32  55  77 102 145 183 217 269 331
#
# _framework density 17.941161999999998
#
# number of rings (size 3 to 8) (size 9 to 14) (size 15 to 20)
#    0.000    2.333    3.333    1.000    0.000    0.000 
#    3.000    0.833    0.000    9.000    0.000    0.000 
#    0.000    0.000    0.000    0.000    0.000    0.000 
#
# Total GULP energy -297413.768669 kJ/mol
# GULP energy per Si atom -12392.240361 kJ/mol
# Density = 1.790033 g / cm^3
# Si number density = 17.941162 Si / 1000 Ang^3
#
#
#
# Elastic Constant Matrix: (Units=GPa)
#
#
# Indices 1 2 3 4 5 6 
#
# 1 47.8108 37.0578 31.7960 0.0000 12.1872 0.0000
# 2 37.0578 131.0798 80.7968 0.0000 18.1769 0.0000
# 3 31.7960 80.7968 145.1126 0.0000 14.6160 0.0000
# 4 0.0000 0.0000 0.0000 34.6147 0.0000 6.6635
# 5 12.1872 18.1769 14.6160 0.0000 28.0083 0.0000
# 6 0.0000 0.0000 0.0000 6.6635 0.0000 20.3507
#
#
#
# Elastic Compliance Matrix: (Units=1/GPa)
#
#
# Indices 1 2 3 4 5 6 
#
# 1 0.028811 -0.005586 -0.002433 0.000000 -0.007642 0.000000
# 2 -0.005586 0.013234 -0.005831 0.000000 -0.003115 0.000000
# 3 -0.002433 -0.005831 0.010748 0.000000 -0.000766 0.000000
# 4 0.000000 0.000000 0.000000 0.030833 0.000000 -0.010096
# 5 -0.007642 -0.003115 -0.000766 0.000000 0.041450 0.000000
# 6 0.000000 0.000000 0.000000 -0.010096 0.000000 0.052444
#
#
# Mechanical properties :
#
#
# Convention : Reuss Voigt Hill
#
# Bulk Modulus (GPa) = 39.85031 69.25604 54.55317
# Shear Modulus (GPa) = 23.40979 28.21823 25.81401
#
# Velocity S-wave (km/s) = 3.61613 3.97018 3.79729
# Velocity P-wave (km/s) = 6.30041 7.72671 7.04972
#
# Compressibility (1/GPa) = 0.02509391
#
# Stress axis : x y z
#
# Youngs Moduli (GPa) = 34.70846 75.56098 93.03994
#
# Poissons Ratio (x) = 0.42208 0.22637
# Poissons Ratio (y) = 0.19388 0.54251
# Poissons Ratio (z) = 0.08445 0.44059
#
# Static dielectric constant tensor:
#      x y z
#    x 3.094460 0.000000 0.116620 
#    y 0.000000 3.634180 0.000000 
#    z 0.116620 0.000000 3.543540 
# 
# 
# High freq. dielectric constant tensor:
#      x y z
#    x 1.665390 0.000000 0.012250 
#    y 0.000000 1.681320 0.000000 
#    z 0.012250 0.000000 1.706740 
# 
# From -- ./inp_files/135872.got.cif
#   From: 2010.06.25/outbox.cif.g09.slc.cpg/sg15_68_cif.got.tgz:135872.got - 2010.06.28 07:06:18.
