data_PCOD8137731
_publ_section_title
;
Structure prediction by ZEFSAII (Michael W. Deem and Ramdas Pophale) SiO2 
 PCOD8137731
Probable space group: C 2/C
;
_chemical_formula_sum "Si O2"
_cell_formula_units_Z 52
_cell_length_a 18.543983
_cell_length_b 20.504073
_cell_length_c 8.165928
_cell_angle_alpha 90.000000
_cell_angle_beta 55.560764
_cell_angle_gamma 90.000000
_cell_volume 2560.699472
_symmetry_space_group_name_H-M "C 2/C"
_symmetry_group_IT_number 15
_symmetry_cell_setting 'monoclinic'
loop_
_space_group_symop_operation_xyz
x,y,z
-x,y,1/2-z
-x,-y,-z
x,-y,1/2+z
1/2+x,1/2+y,z
1/2-x,1/2+y,1/2-z
1/2-x,1/2-y,-z
1/2+x,1/2-y,1/2+z
loop_
_atom_site_type_symbol
_atom_site_label
_atom_site_fract_x
_atom_site_fract_y
_atom_site_fract_z
Si Si1 0.000000 0.190898 0.750000
Si Si2 0.809484 0.453614 0.836306
Si Si3 0.168496 0.586147 0.824700
Si Si4 0.050340 0.747117 0.523339
Si Si5 0.308948 0.339840 0.543129
Si Si6 0.477957 0.097692 0.957127
Si Si7 0.758437 0.211764 0.763605
O O1 0.087712 0.147076 0.621131
O O2 0.994147 0.234188 0.592785
O O3 0.790121 0.530819 0.846621
O O4 0.736748 0.407419 0.840124
O O5 0.904820 0.446742 0.633249
O O6 0.806025 0.435854 0.028313
O O7 0.211021 0.655468 0.718033
O O8 0.064609 0.595614 0.954164
O O9 0.061476 0.669739 0.508347
O O10 0.143782 0.780274 0.424567
O O11 0.000000 0.771387 0.750000
O O12 0.295235 0.279843 0.688540
O O13 0.257106 0.313928 0.451151
O O14 0.500000 0.068921 0.750000
#
# Coordination Sequence:
#
# PCOD8137731 Si02
#       7
#     4   8   8   8   8   8   8
#     4  10  20  36  62  86 116 156 208 244 308 354
#     4  11  22  39  58  85 122 159 196 245 298 365
#     4  11  23  37  61  84 119 163 197 241 302 361
#     4  10  21  37  59  93 124 154 198 256 301 356
#     4   9  18  35  62  85 112 154 202 248 296 356
#     4  11  22  37  56  88 123 155 196 244 297 362
#     4   9  18  37  59  87 116 152 200 249 298 354
#
# _framework density 20.306951999999999
#
# number of rings (size 3 to 8) (size 9 to 14) (size 15 to 20)
#    0.000    1.846    1.538    2.769    4.308    0.000 
#    5.538    2.308    1.692    2.769    0.000    0.000 
#    0.000    0.000    0.000    0.000    0.000    0.000 
#
# Total GULP energy -322311.593452 kJ/mol
# GULP energy per Si atom -12396.599748 kJ/mol
# Density = 2.026073 g / cm^3
# Si number density = 20.306952 Si / 1000 Ang^3
#
#
#
# Elastic Constant Matrix: (Units=GPa)
#
#
# Indices 1 2 3 4 5 6 
#
# 1 78.5926 43.0677 24.4365 0.0000 -16.7584 0.0000
# 2 43.0677 121.9207 26.9090 0.0000 -19.6275 0.0000
# 3 24.4365 26.9090 74.5483 0.0000 -2.3667 0.0000
# 4 0.0000 0.0000 0.0000 22.0364 0.0000 1.7572
# 5 -16.7584 -19.6275 -2.3667 0.0000 34.9088 0.0000
# 6 0.0000 0.0000 0.0000 1.7572 0.0000 19.4973
#
#
#
# Elastic Compliance Matrix: (Units=1/GPa)
#
#
# Indices 1 2 3 4 5 6 
#
# 1 0.017602 -0.004420 -0.003994 0.000000 0.005694 0.000000
# 2 -0.004420 0.010905 -0.002365 0.000000 0.003849 0.000000
# 3 -0.003994 -0.002365 0.015507 0.000000 -0.002196 0.000000
# 4 0.000000 0.000000 0.000000 0.045708 0.000000 -0.004120
# 5 0.005694 0.003849 -0.002196 0.000000 0.033395 0.000000
# 6 0.000000 0.000000 0.000000 -0.004120 0.000000 0.051660
#
#
# Mechanical properties :
#
#
# Convention : Reuss Voigt Hill
#
# Bulk Modulus (GPa) = 44.52991 51.54310 48.03651
# Shear Modulus (GPa) = 24.53146 27.33174 25.93160
#
# Velocity S-wave (km/s) = 3.47945 3.67267 3.57736
# Velocity P-wave (km/s) = 6.17398 6.58952 6.38513
#
# Compressibility (1/GPa) = 0.02245681
#
# Stress axis : x y z
#
# Youngs Moduli (GPa) = 56.81302 91.70133 64.48569
#
# Poissons Ratio (x) = 0.40528 0.25753
# Poissons Ratio (y) = 0.25109 0.15253
# Poissons Ratio (z) = 0.22689 0.21691
#
# Static dielectric constant tensor:
#      x y z
#    x 3.677650 0.000000 -0.018140 
#    y 0.000000 3.982860 0.000000 
#    z -0.018140 0.000000 3.601360 
# 
# 
# High freq. dielectric constant tensor:
#      x y z
#    x 1.783680 0.000000 -0.004620 
#    y 0.000000 1.787650 0.000000 
#    z -0.004620 0.000000 1.785300 
# 
# From -- ./inp_files/50596.got.cif
#   From: 2010.06.25/outbox.cif.g09.slc.cpg/sg15_26_cif.got.tgz:50596.got - 2010.06.28 07:06:18.
