data_PCOD8137175
_publ_section_title
;
Structure prediction by ZEFSAII (Michael W. Deem and Ramdas Pophale) SiO2 
 PCOD8137175
Probable space group: C 2/C
;
_chemical_formula_sum "Si O2"
_cell_formula_units_Z 56
_cell_length_a 7.941687
_cell_length_b 20.911745
_cell_length_c 16.193039
_cell_angle_alpha 90.000000
_cell_angle_beta 85.641970
_cell_angle_gamma 90.000000
_cell_volume 2681.475917
_symmetry_space_group_name_H-M "C 2/C"
_symmetry_group_IT_number 15
_symmetry_cell_setting 'monoclinic'
loop_
_space_group_symop_operation_xyz
x,y,z
-x,y,1/2-z
-x,-y,-z
x,-y,1/2+z
1/2+x,1/2+y,z
1/2-x,1/2+y,1/2-z
1/2-x,1/2-y,-z
1/2+x,1/2-y,1/2+z
loop_
_atom_site_type_symbol
_atom_site_label
_atom_site_fract_x
_atom_site_fract_y
_atom_site_fract_z
Si Si1 0.500000 0.940053 0.750000
Si Si2 0.027813 0.564144 0.949153
Si Si3 0.529697 0.843974 0.597881
Si Si4 0.163881 0.379360 0.187701
Si Si5 0.785626 0.238807 0.342083
Si Si6 0.145326 0.813940 0.832366
Si Si7 0.224343 0.030882 0.692360
Si Si8 0.500000 0.430432 0.750000
O O1 0.513901 0.896805 0.668615
O O2 0.347356 0.987586 0.742724
O O3 0.208419 0.557704 0.896765
O O4 0.883613 0.572804 0.885393
O O5 0.028509 0.625457 0.007726
O O6 0.000000 0.500000 0.000000
O O7 0.374168 0.794526 0.608676
O O8 0.713674 0.810367 0.601408
O O9 0.229825 0.314438 0.142515
O O10 0.308993 0.410351 0.241664
O O11 0.000000 0.364537 0.250000
O O12 0.784762 0.230186 0.243596
O O13 0.962320 0.209908 0.372132
O O14 0.131773 0.885716 0.794377
O O15 0.074349 0.980685 0.679465
#
# Coordination Sequence:
#
# PCOD8137175 Si02
#       8
#     4   8   8   8   8   8   8   4
#     4  12  16  34  62  82 112 158 206 244 298 362
#     4  11  23  35  61  94 125 164 202 254 320 377
#     4  12  21  37  61  94 122 160 211 255 308 372
#     4  10  20  40  62  85 124 165 206 260 311 364
#     4  10  20  38  63  86 114 164 212 247 308 367
#     4  10  20  35  63  90 117 155 208 267 293 362
#     4  11  20  38  62  89 121 161 205 256 311 374
#     4  10  20  36  60  94 118 156 216 258 310 366
#
# _framework density 20.88402
#
# number of rings (size 3 to 8) (size 9 to 14) (size 15 to 20)
#    0.000    1.429    7.857    0.857    0.000    0.571 
#    2.571    2.857    0.000    0.000    0.000    0.000 
#    0.000    0.000    0.000    0.000    0.000    0.000 
#
# Total GULP energy -346920.625635 kJ/mol
# GULP energy per Si atom -12390.022344 kJ/mol
# Density = 2.083649 g / cm^3
# Si number density = 20.884020 Si / 1000 Ang^3
#
#
#
# Elastic Constant Matrix: (Units=GPa)
#
#
# Indices 1 2 3 4 5 6 
#
# 1 84.8756 35.3759 24.8201 0.0000 1.7013 0.0000
# 2 35.3759 112.8576 35.2624 0.0000 -8.6433 0.0000
# 3 24.8201 35.2624 95.9207 0.0000 -2.3837 0.0000
# 4 0.0000 0.0000 0.0000 23.1911 0.0000 0.1179
# 5 1.7013 -8.6433 -2.3837 0.0000 17.9035 0.0000
# 6 0.0000 0.0000 0.0000 0.1179 0.0000 15.7050
#
#
#
# Elastic Compliance Matrix: (Units=1/GPa)
#
#
# Indices 1 2 3 4 5 6 
#
# 1 0.014194 -0.004009 -0.002288 0.000000 -0.003589 0.000000
# 2 -0.004009 0.011494 -0.003051 0.000000 0.005524 0.000000
# 3 -0.002288 -0.003051 0.012148 0.000000 0.000362 0.000000
# 4 0.000000 0.000000 0.000000 0.043122 0.000000 -0.000324
# 5 -0.003589 0.005524 0.000362 0.000000 0.058911 0.000000
# 6 0.000000 0.000000 0.000000 -0.000324 0.000000 0.063676
#
#
# Mechanical properties :
#
#
# Convention : Reuss Voigt Hill
#
# Bulk Modulus (GPa) = 52.24761 53.84119 53.04440
# Shear Modulus (GPa) = 21.87036 24.57296 23.22166
#
# Velocity S-wave (km/s) = 3.23960 3.43394 3.33819
# Velocity P-wave (km/s) = 6.25025 6.44667 6.34922
#
# Compressibility (1/GPa) = 0.01913963
#
# Stress axis : x y z
#
# Youngs Moduli (GPa) = 70.45234 87.00484 82.31930
#
# Poissons Ratio (x) = 0.34881 0.18836
# Poissons Ratio (y) = 0.28245 0.25113
# Poissons Ratio (z) = 0.16120 0.26542
#
# Static dielectric constant tensor:
#      x y z
#    x 3.037940 0.000000 0.102030 
#    y 0.000000 4.018750 0.000000 
#    z 0.102030 0.000000 3.643030 
# 
# 
# High freq. dielectric constant tensor:
#      x y z
#    x 1.801220 0.000000 0.001760 
#    y 0.000000 1.831990 0.000000 
#    z 0.001760 0.000000 1.788120 
# 
# From -- ./inp_files/136490.got.cif
#   From: 2010.06.25/outbox.cif.g09.slc.cpg/sg15_69_cif.got.tgz:136490.got - 2010.06.28 07:06:18.
