data_PCOD8137876
_publ_section_title
;
Structure prediction by ZEFSAII (Michael W. Deem and Ramdas Pophale) SiO2 
 PCOD8137876
Probable space group: C 2/C
;
_chemical_formula_sum "Si O2"
_cell_formula_units_Z 40
_cell_length_a 21.336701
_cell_length_b 10.943150
_cell_length_c 25.419208
_cell_angle_alpha 90.000000
_cell_angle_beta 19.284202
_cell_angle_gamma 90.000000
_cell_volume 1960.107635
_symmetry_space_group_name_H-M "C 2/C"
_symmetry_group_IT_number 15
_symmetry_cell_setting 'monoclinic'
loop_
_space_group_symop_operation_xyz
x,y,z
-x,y,1/2-z
-x,-y,-z
x,-y,1/2+z
1/2+x,1/2+y,z
1/2-x,1/2+y,1/2-z
1/2-x,1/2-y,-z
1/2+x,1/2-y,1/2+z
loop_
_atom_site_type_symbol
_atom_site_label
_atom_site_fract_x
_atom_site_fract_y
_atom_site_fract_z
Si Si1 0.368783 0.417959 0.568349
Si Si2 0.140307 0.901487 0.187185
Si Si3 0.687014 0.894032 0.133737
Si Si4 0.974715 0.725663 0.130269
Si Si5 0.032900 0.158203 0.285933
O O1 0.500000 0.500000 0.500000
O O2 0.268024 0.490564 0.600944
O O3 0.210306 0.358161 0.731712
O O4 0.500454 0.311985 0.439771
O O5 0.050617 0.803444 0.297089
O O6 0.000000 0.914333 0.250000
O O7 0.154324 0.035960 0.203165
O O8 0.345909 0.862556 0.004108
O O9 0.500000 0.937488 0.250000
O O10 0.645182 0.784759 0.209264
O O11 0.837241 0.845015 0.972370
O O12 0.000000 0.169172 0.250000
#
# Coordination Sequence:
#
# PCOD8137876 Si02
#       5
#     8   8   8   8   8
#     4  11  26  46  66  92 128 167 213 259 320 378
#     4  10  20  36  64  96 133 165 205 258 318 368
#     4  11  23  39  65  94 129 166 215 265 314 370
#     4  10  23  43  61  93 127 163 217 252 313 391
#     4  10  21  36  59  97 131 161 217 256 318 366
#
# _framework density 20.407042000000001
#
# number of rings (size 3 to 8) (size 9 to 14) (size 15 to 20)
#    0.000    1.600    2.000    3.000    8.400    4.800 
#    0.000    2.000    0.000    0.000    0.000    0.000 
#    0.000    0.000    0.000    0.000    0.000    0.000 
#
# Total GULP energy -247982.021928 kJ/mol
# GULP energy per Si atom -12399.101096 kJ/mol
# Density = 2.036059 g / cm^3
# Si number density = 20.407042 Si / 1000 Ang^3
#
#
#
# Elastic Constant Matrix: (Units=GPa)
#
#
# Indices 1 2 3 4 5 6 
#
# 1 67.4417 36.9559 46.1970 0.0377 -13.1712 -0.0092
# 2 36.9559 117.4792 67.9608 0.1005 -17.4193 -0.0131
# 3 46.1970 67.9608 169.1945 -0.0249 5.7028 0.0010
# 4 0.0377 0.1005 -0.0249 38.8337 0.0034 -6.5213
# 5 -13.1712 -17.4193 5.7028 0.0034 21.8042 -0.0075
# 6 -0.0092 -0.0131 0.0010 -6.5213 -0.0075 30.0672
#
#
#
# Elastic Compliance Matrix: (Units=1/GPa)
#
#
# Indices 1 2 3 4 5 6 
#
# 1 0.022498 -0.001548 -0.005990 -0.000022 0.013920 0.000005
# 2 -0.001548 0.013956 -0.005577 -0.000039 0.011673 0.000000
# 3 -0.005990 -0.005577 0.010147 0.000027 -0.010728 -0.000001
# 4 -0.000022 -0.000039 0.000027 0.026724 -0.000054 0.005796
# 5 0.013920 0.011673 -0.010728 -0.000054 0.066403 0.000015
# 6 0.000005 0.000000 -0.000001 0.005796 0.000015 0.034516
#
#
# Mechanical properties :
#
#
# Convention : Reuss Voigt Hill
#
# Bulk Modulus (GPa) = 49.08746 72.92700 61.00723
# Shear Modulus (GPa) = 24.12387 31.67448 27.89917
#
# Velocity S-wave (km/s) = 3.44195 3.94399 3.70149
# Velocity P-wave (km/s) = 6.31684 7.52023 6.94465
#
# Compressibility (1/GPa) = 0.02037180
#
# Stress axis : x y z
#
# Youngs Moduli (GPa) = 44.44907 71.65469 98.54688
#
# Poissons Ratio (x) = 0.11091 0.59032
# Poissons Ratio (y) = 0.06880 0.54955
# Poissons Ratio (z) = 0.26626 0.39958
#
# Static dielectric constant tensor:
#      x y z
#    x 3.176010 0.000000 0.119110 
#    y 0.000000 4.501150 0.000290 
#    z 0.119110 0.000290 4.019750 
# 
# 
# High freq. dielectric constant tensor:
#      x y z
#    x 1.750320 0.000000 0.014140 
#    y 0.000000 1.825570 0.000020 
#    z 0.014140 0.000020 1.817030 
# 
# From -- ./inp_files/54053.got.cif
#   From: 2010.06.25/outbox.cif.g09.slc.cpg/sg15_28_cif.got.tgz:54053.got - 2010.06.28 07:06:18.
