data_PCOD8137852
_publ_section_title
;
Structure prediction by ZEFSAII (Michael W. Deem and Ramdas Pophale) SiO2 
 PCOD8137852
Probable space group: C 2/C
;
_chemical_formula_sum "Si O2"
_cell_formula_units_Z 56
_cell_length_a 14.733195
_cell_length_b 18.160160
_cell_length_c 18.432011
_cell_angle_alpha 90.000000
_cell_angle_beta 35.821497
_cell_angle_gamma 90.000000
_cell_volume 2886.287647
_symmetry_space_group_name_H-M "C 2/C"
_symmetry_group_IT_number 15
_symmetry_cell_setting 'monoclinic'
loop_
_space_group_symop_operation_xyz
x,y,z
-x,y,1/2-z
-x,-y,-z
x,-y,1/2+z
1/2+x,1/2+y,z
1/2-x,1/2+y,1/2-z
1/2-x,1/2-y,-z
1/2+x,1/2-y,1/2+z
loop_
_atom_site_type_symbol
_atom_site_label
_atom_site_fract_x
_atom_site_fract_y
_atom_site_fract_z
Si Si1 0.127086 0.406425 0.383277
Si Si2 0.302037 0.263444 0.248038
Si Si3 0.106450 0.471574 0.785074
Si Si4 0.335821 0.290607 0.508162
Si Si5 0.824438 0.986526 0.858249
Si Si6 0.198492 0.369179 0.843720
Si Si7 0.288274 0.949706 0.931649
O O1 0.234208 0.344184 0.278998
O O2 0.060876 0.456491 0.361058
O O3 0.223582 0.455055 0.377791
O O4 0.982090 0.368958 0.516724
O O5 0.486198 0.267974 0.118339
O O6 0.242554 0.232979 0.364420
O O7 0.243794 0.211280 0.219087
O O8 0.216364 0.419400 0.760897
O O9 0.201499 0.492799 0.651396
O O10 0.955676 0.426237 0.855947
O O11 0.250000 0.250000 0.500000
O O12 0.318767 0.378038 0.507531
O O13 0.805076 0.903975 0.838218
O O14 0.000000 0.012338 0.750000
O O15 0.776312 0.988047 0.973113
#
# Coordination Sequence:
#
# PCOD8137852 Si02
#       7
#     8   8   8   8   8   8   8
#     4  11  21  42  63  89 122 165 212 247 311 375
#     4  12  24  40  61  90 129 169 203 247 309 378
#     4  10  20  36  64  87 119 163 203 255 297 368
#     4  12  24  36  58  95 136 162 194 249 317 378
#     4  11  22  39  63  90 122 159 210 263 307 359
#     4  11  20  42  62  86 124 170 207 246 313 378
#     4  11  20  35  60  94 121 151 208 252 307 359
#
# _framework density 19.402086000000001
#
# number of rings (size 3 to 8) (size 9 to 14) (size 15 to 20)
#    0.000    0.857    5.714    3.857    2.000    0.000 
#    2.571    2.143    3.143    1.714    0.000    0.000 
#    0.000    0.000    0.000    0.000    0.000    0.000 
#
# Total GULP energy -346992.553033 kJ/mol
# GULP energy per Si atom -12392.591180 kJ/mol
# Density = 1.935793 g / cm^3
# Si number density = 19.402086 Si / 1000 Ang^3
#
#
#
# Elastic Constant Matrix: (Units=GPa)
#
#
# Indices 1 2 3 4 5 6 
#
# 1 51.3382 16.4400 44.9100 0.0027 11.1655 -0.0011
# 2 16.4400 82.4637 32.6506 0.0024 12.8042 -0.0019
# 3 44.9100 32.6506 125.9810 0.0060 18.3987 -0.0030
# 4 0.0027 0.0024 0.0060 34.3256 -0.0020 2.0950
# 5 11.1655 12.8042 18.3987 -0.0020 29.7716 0.0015
# 6 -0.0011 -0.0019 -0.0030 2.0950 0.0015 14.2922
#
#
#
# Elastic Compliance Matrix: (Units=1/GPa)
#
#
# Indices 1 2 3 4 5 6 
#
# 1 0.029086 -0.001395 -0.009345 -0.000001 -0.004533 0.000001
# 2 -0.001395 0.014030 -0.002566 -0.000001 -0.003925 0.000002
# 3 -0.009345 -0.002566 0.012378 -0.000002 -0.003041 0.000002
# 4 -0.000001 -0.000001 -0.000002 0.029396 0.000004 -0.004309
# 5 -0.004533 -0.003925 -0.003041 0.000004 0.038857 -0.000006
# 6 0.000001 0.000002 0.000002 -0.004309 -0.000006 0.070600
#
#
# Mechanical properties :
#
#
# Convention : Reuss Voigt Hill
#
# Bulk Modulus (GPa) = 34.62198 49.75377 42.18787
# Shear Modulus (GPa) = 21.68387 26.73003 24.20695
#
# Velocity S-wave (km/s) = 3.34669 3.71575 3.53604
# Velocity P-wave (km/s) = 5.72861 6.64140 6.20182
#
# Compressibility (1/GPa) = 0.02888339
#
# Stress axis : x y z
#
# Youngs Moduli (GPa) = 34.38041 71.27614 80.78683
#
# Poissons Ratio (x) = 0.09940 0.75497
# Poissons Ratio (y) = 0.04795 0.20728
# Poissons Ratio (z) = 0.32129 0.18287
#
# Static dielectric constant tensor:
#      x y z
#    x 3.567830 0.000000 0.148740 
#    y 0.000000 3.574000 0.000000 
#    z 0.148740 0.000000 3.926940 
# 
# 
# High freq. dielectric constant tensor:
#      x y z
#    x 1.738650 0.000000 0.013590 
#    y 0.000000 1.737700 0.000000 
#    z 0.013590 0.000000 1.772100 
# 
# From -- ./inp_files/206249.got.cif
#   From: 2010.06.25/outbox.cif.g09.slc.cpg/sg15_104_cif.got.tgz:206249.got - 2010.06.28 07:06:18.
