data_PCOD8137326
_publ_section_title
;
Structure prediction by ZEFSAII (Michael W. Deem and Ramdas Pophale) SiO2 
 PCOD8137326
Probable space group: C 2/C
;
_chemical_formula_sum "Si O2"
_cell_formula_units_Z 56
_cell_length_a 12.020119
_cell_length_b 20.309729
_cell_length_c 12.903583
_cell_angle_alpha 90.000000
_cell_angle_beta 91.380345
_cell_angle_gamma 90.000000
_cell_volume 3149.177720
_symmetry_space_group_name_H-M "C 2/C"
_symmetry_group_IT_number 15
_symmetry_cell_setting 'monoclinic'
loop_
_space_group_symop_operation_xyz
x,y,z
-x,y,1/2-z
-x,-y,-z
x,-y,1/2+z
1/2+x,1/2+y,z
1/2-x,1/2+y,1/2-z
1/2-x,1/2-y,-z
1/2+x,1/2-y,1/2+z
loop_
_atom_site_type_symbol
_atom_site_label
_atom_site_fract_x
_atom_site_fract_y
_atom_site_fract_z
Si Si1 0.120499 0.726881 0.239533
Si Si2 0.390733 0.577749 0.058740
Si Si3 0.182256 0.870466 0.726816
Si Si4 0.649813 0.438080 0.520899
Si Si5 0.136574 0.215464 0.522108
Si Si6 0.911418 0.764067 0.903792
Si Si7 0.719318 0.680023 0.910791
O O1 0.206304 0.666875 0.233341
O O2 0.109395 0.772094 0.139121
O O3 0.144447 0.780177 0.328756
O O4 0.000000 0.693382 0.250000
O O5 0.366714 0.585656 0.180785
O O6 0.521504 0.577585 0.040784
O O7 0.331512 0.513680 0.009747
O O8 0.341629 0.638743 0.994636
O O9 0.211272 0.919072 0.630554
O O10 0.093083 0.812223 0.696395
O O11 0.694929 0.398218 0.419859
O O12 0.250000 0.250000 0.500000
O O13 0.036713 0.242992 0.446821
O O14 0.851328 0.692570 0.886781
O O15 0.820392 0.797944 0.976237
#
# Coordination Sequence:
#
# PCOD8137326 Si02
#       7
#     8   8   8   8   8   8   8
#     4  11  20  32  58  86 112 146 190 242 282 328
#     4  11  21  35  51  84 115 149 184 227 287 340
#     4  10  20  36  57  77 112 153 188 226 287 343
#     4  10  21  34  57  79 114 149 188 228 272 352
#     4  12  22  34  53  85 121 141 182 244 284 328
#     4   9  18  33  55  78 108 139 188 227 277 333
#     4   9  17  34  53  79 106 144 182 232 270 328
#
# _framework density 17.782419999999998
#
# number of rings (size 3 to 8) (size 9 to 14) (size 15 to 20)
#    0.000    1.714    5.714    1.286    0.000    1.143 
#    0.000    1.429    0.000    3.429    0.000    0.000 
#    0.000    0.000    0.000    0.000    0.000    0.000 
#
# Total GULP energy -346877.010528 kJ/mol
# GULP energy per Si atom -12388.464662 kJ/mol
# Density = 1.774195 g / cm^3
# Si number density = 17.782420 Si / 1000 Ang^3
#
#
#
# Elastic Constant Matrix: (Units=GPa)
#
#
# Indices 1 2 3 4 5 6 
#
# 1 100.2778 58.6550 30.2411 0.0000 13.0445 0.0000
# 2 58.6550 123.2701 46.2618 0.0000 0.2886 0.0000
# 3 30.2411 46.2618 87.7380 0.0000 3.6736 0.0000
# 4 0.0000 0.0000 0.0000 33.8509 0.0000 -0.0118
# 5 13.0445 0.2886 3.6736 0.0000 23.5602 0.0000
# 6 0.0000 0.0000 0.0000 -0.0118 0.0000 22.2730
#
#
#
# Elastic Compliance Matrix: (Units=1/GPa)
#
#
# Indices 1 2 3 4 5 6 
#
# 1 0.015448 -0.006810 -0.001388 0.000000 -0.008253 0.000000
# 2 -0.006810 0.013128 -0.004757 0.000000 0.004352 0.000000
# 3 -0.001388 -0.004757 0.014444 0.000000 -0.001425 0.000000
# 4 0.000000 0.000000 0.000000 0.029541 0.000000 0.000016
# 5 -0.008253 0.004352 -0.001425 0.000000 0.047183 0.000000
# 6 0.000000 0.000000 0.000000 0.000016 0.000000 0.044897
#
#
# Mechanical properties :
#
#
# Convention : Reuss Voigt Hill
#
# Bulk Modulus (GPa) = 58.44789 64.62242 61.53515
# Shear Modulus (GPa) = 25.47712 27.67869 26.57790
#
# Velocity S-wave (km/s) = 3.78923 3.94956 3.87022
# Velocity P-wave (km/s) = 7.21693 7.56427 7.39264
#
# Compressibility (1/GPa) = 0.01710926
#
# Stress axis : x y z
#
# Youngs Moduli (GPa) = 64.73311 76.17457 69.23387
#
# Poissons Ratio (x) = 0.51877 0.09610
# Poissons Ratio (y) = 0.44085 0.32933
# Poissons Ratio (z) = 0.08986 0.36234
#
# Static dielectric constant tensor:
#      x y z
#    x 3.810160 0.000000 0.360210 
#    y 0.000000 2.626370 0.000000 
#    z 0.360210 0.000000 3.669230 
# 
# 
# High freq. dielectric constant tensor:
#      x y z
#    x 1.677000 0.000000 0.000500 
#    y 0.000000 1.667600 0.000000 
#    z 0.000500 0.000000 1.694460 
# 
# From -- ./inp_files/88997.got.cif
#   From: 2010.06.25/outbox.cif.g09.slc.cpg/sg15_45_cif.got.tgz:88997.got - 2010.06.28 07:06:18.
