data_PCOD8137696
_publ_section_title
;
Structure prediction by ZEFSAII (Michael W. Deem and Ramdas Pophale) SiO2 
 PCOD8137696
Probable space group: C 2/C
;
_chemical_formula_sum "Si O2"
_cell_formula_units_Z 40
_cell_length_a 21.096139
_cell_length_b 8.753940
_cell_length_c 10.367542
_cell_angle_alpha 90.000000
_cell_angle_beta 103.376628
_cell_angle_gamma 90.000000
_cell_volume 1862.675948
_symmetry_space_group_name_H-M "C 2/C"
_symmetry_group_IT_number 15
_symmetry_cell_setting 'monoclinic'
loop_
_space_group_symop_operation_xyz
x,y,z
-x,y,1/2-z
-x,-y,-z
x,-y,1/2+z
1/2+x,1/2+y,z
1/2-x,1/2+y,1/2-z
1/2-x,1/2-y,-z
1/2+x,1/2-y,1/2+z
loop_
_atom_site_type_symbol
_atom_site_label
_atom_site_fract_x
_atom_site_fract_y
_atom_site_fract_z
Si Si1 0.567580 0.415454 0.042753
Si Si2 0.622963 0.099987 0.388449
Si Si3 0.273300 0.094505 0.448211
Si Si4 0.359947 0.451453 0.159710
Si Si5 0.906006 0.413562 0.898331
O O1 0.604517 0.475225 0.187500
O O2 0.551948 0.235233 0.046147
O O3 0.500000 0.500000 0.000000
O O4 0.609667 0.439156 0.934203
O O5 0.633280 0.280150 0.389943
O O6 0.582461 0.040011 0.244847
O O7 0.579575 0.051922 0.494564
O O8 0.692678 0.013906 0.427795
O O9 0.250000 0.250000 0.500000
O O10 0.328558 0.134270 0.367523
O O11 0.214732 0.000818 0.355086
#
# Coordination Sequence:
#
# PCOD8137696 Si02
#       5
#     8   8   8   8   8
#     4  11  24  43  62  87 122 166 216 249 300 371
#     4   9  21  35  58  93 129 154 200 246 322 366
#     4  10  20  36  61  91 134 153 202 247 319 372
#     4  11  22  38  63  91 121 166 200 260 304 365
#     4   9  21  38  60  91 126 160 200 256 309 373
#
# _framework density 21.47448
#
# number of rings (size 3 to 8) (size 9 to 14) (size 15 to 20)
#    1.200    0.800    2.000    1.200    2.800    3.200 
#    0.000    1.000    0.000    7.200    0.000    0.000 
#    0.000    0.000    0.000    0.000    0.000    0.000 
#
# Total GULP energy -247876.875759 kJ/mol
# GULP energy per Si atom -12393.843788 kJ/mol
# Density = 2.142560 g / cm^3
# Si number density = 21.474480 Si / 1000 Ang^3
#
#
#
# Elastic Constant Matrix: (Units=GPa)
#
#
# Indices 1 2 3 4 5 6 
#
# 1 43.2095 14.9027 11.6364 0.0000 12.3353 0.0000
# 2 14.9027 80.9122 41.2022 0.0000 23.2641 0.0000
# 3 11.6364 41.2022 125.5193 0.0000 8.6901 0.0000
# 4 0.0000 0.0000 0.0000 37.3416 0.0000 3.5248
# 5 12.3353 23.2641 8.6901 0.0000 22.4594 0.0000
# 6 0.0000 0.0000 0.0000 3.5248 0.0000 39.7771
#
#
#
# Elastic Compliance Matrix: (Units=1/GPa)
#
#
# Indices 1 2 3 4 5 6 
#
# 1 0.027742 -0.000182 -0.001511 0.000000 -0.014464 0.000000
# 2 -0.000182 0.020694 -0.005445 0.000000 -0.019229 0.000000
# 3 -0.001511 -0.005445 0.009706 0.000000 0.002714 0.000000
# 4 0.000000 0.000000 0.000000 0.027006 0.000000 -0.002393
# 5 -0.014464 -0.019229 0.002714 0.000000 0.071336 0.000000
# 6 0.000000 0.000000 0.000000 -0.002393 0.000000 0.025352
#
#
# Mechanical properties :
#
#
# Convention : Reuss Voigt Hill
#
# Bulk Modulus (GPa) = 22.79593 42.79153 32.79373
# Shear Modulus (GPa) = 23.72678 32.04227 27.88453
#
# Velocity S-wave (km/s) = 3.32758 3.86697 3.60737
# Velocity P-wave (km/s) = 5.04006 6.31727 5.71446
#
# Compressibility (1/GPa) = 0.04386748
#
# Stress axis : x y z
#
# Youngs Moduli (GPa) = 36.04695 48.32376 103.02565
#
# Poissons Ratio (x) = 0.00877 0.15566
# Poissons Ratio (y) = 0.00654 0.56094
# Poissons Ratio (z) = 0.05446 0.26311
#
# Static dielectric constant tensor:
#      x y z
#    x 3.827920 0.000000 -0.043540 
#    y 0.000000 3.746620 0.000000 
#    z -0.043540 0.000000 3.956440 
# 
# 
# High freq. dielectric constant tensor:
#      x y z
#    x 1.831410 0.000000 -0.000770 
#    y 0.000000 1.844000 0.000000 
#    z -0.000770 0.000000 1.847480 
# 
# From -- ./inp_files/102867.got.cif
#   From: 2010.06.25/outbox.cif.g09.slc.cpg/sg15_52_cif.got.tgz:102867.got - 2010.06.28 07:06:18.
