data_PCOD8137370
_publ_section_title
;
Structure prediction by ZEFSAII (Michael W. Deem and Ramdas Pophale) SiO2 
 PCOD8137370
Probable space group: C 2/C
;
_chemical_formula_sum "Si O2"
_cell_formula_units_Z 52
_cell_length_a 16.157193
_cell_length_b 24.537515
_cell_length_c 18.301746
_cell_angle_alpha 90.000000
_cell_angle_beta 159.179941
_cell_angle_gamma 90.000000
_cell_volume 2578.981645
_symmetry_space_group_name_H-M "C 2/C"
_symmetry_group_IT_number 15
_symmetry_cell_setting 'monoclinic'
loop_
_space_group_symop_operation_xyz
x,y,z
-x,y,1/2-z
-x,-y,-z
x,-y,1/2+z
1/2+x,1/2+y,z
1/2-x,1/2+y,1/2-z
1/2-x,1/2-y,-z
1/2+x,1/2-y,1/2+z
loop_
_atom_site_type_symbol
_atom_site_label
_atom_site_fract_x
_atom_site_fract_y
_atom_site_fract_z
Si Si1 0.810080 0.387780 0.811309
Si Si2 0.179582 0.450663 0.030113
Si Si3 0.498357 0.450279 0.829025
Si Si4 0.875526 0.177225 0.468402
Si Si5 0.255162 0.662681 0.525864
Si Si6 0.500000 0.016361 0.750000
Si Si7 0.630832 0.201919 0.567701
O O1 0.645190 0.411978 0.736171
O O2 0.661161 0.373567 0.615744
O O3 0.013649 0.430731 0.959251
O O4 0.923449 0.331266 0.936568
O O5 0.026958 0.483494 0.846665
O O6 0.388073 0.488390 0.234561
O O7 0.280395 0.400557 0.066977
O O8 0.500000 0.423793 0.750000
O O9 0.766776 0.449662 0.075483
O O10 0.699046 0.172041 0.393139
O O11 0.857880 0.233866 0.407908
O O12 0.132846 0.171787 0.714181
O O13 0.500000 0.691596 0.750000
O O14 0.072154 0.691579 0.431378
#
# Coordination Sequence:
#
# PCOD8137370 Si02
#       7
#     8   8   8   8   8   4   8
#     4  11  23  37  60  88 118 162 202 247 305 355
#     4  10  20  36  57  88 125 157 196 240 295 363
#     4  10  23  41  61  84 119 152 202 257 312 359
#     4  11  20  35  55  85 122 162 206 237 287 349
#     4   9  18  31  52  82 121 165 193 225 277 351
#     4  10  20  36  60  84 118 152 196 246 302 354
#     4  10  21  35  54  82 123 161 198 244 286 344
#
# _framework density 20.162997000000001
#
# number of rings (size 3 to 8) (size 9 to 14) (size 15 to 20)
#    0.000    1.846    1.538    3.231    0.000    7.385 
#    0.000    0.000    0.000    0.923    0.000    0.000 
#    0.000    0.000    0.000    0.000    0.000    0.000 
#
# Total GULP energy -322227.683454 kJ/mol
# GULP energy per Si atom -12393.372441 kJ/mol
# Density = 2.011711 g / cm^3
# Si number density = 20.162997 Si / 1000 Ang^3
#
#
#
# Elastic Constant Matrix: (Units=GPa)
#
#
# Indices 1 2 3 4 5 6 
#
# 1 100.8376 51.7557 41.7633 -0.0012 19.7848 0.0003
# 2 51.7557 93.0493 35.4718 0.0001 17.8082 0.0009
# 3 41.7633 35.4718 89.6311 -0.0040 14.6787 0.0030
# 4 -0.0012 0.0001 -0.0040 10.9798 -0.0041 -1.1303
# 5 19.7848 17.8082 14.6787 -0.0041 29.0870 -0.0005
# 6 0.0003 0.0009 0.0030 -1.1303 -0.0005 27.2355
#
#
#
# Elastic Compliance Matrix: (Units=1/GPa)
#
#
# Indices 1 2 3 4 5 6 
#
# 1 0.015785 -0.006305 -0.004070 -0.000001 -0.004823 0.000000
# 2 -0.006305 0.016103 -0.002750 -0.000003 -0.004182 0.000000
# 3 -0.004070 -0.002750 0.014621 0.000004 -0.002926 -0.000001
# 4 -0.000001 -0.000003 0.000004 0.091467 0.000014 0.003796
# 5 -0.004823 -0.004182 -0.002926 0.000014 0.041697 0.000002
# 6 0.000000 0.000000 -0.000001 0.003796 0.000002 0.036874
#
#
# Mechanical properties :
#
#
# Convention : Reuss Voigt Hill
#
# Bulk Modulus (GPa) = 49.36233 60.16664 54.76448
# Shear Modulus (GPa) = 20.03606 23.76228 21.89917
#
# Velocity S-wave (km/s) = 3.15573 3.43667 3.29919
# Velocity P-wave (km/s) = 6.14922 6.75666 6.46009
#
# Compressibility (1/GPa) = 0.02025836
#
# Stress axis : x y z
#
# Youngs Moduli (GPa) = 63.35108 62.10062 68.39637
#
# Poissons Ratio (x) = 0.39157 0.27836
# Poissons Ratio (y) = 0.39946 0.18808
# Poissons Ratio (z) = 0.25782 0.17077
#
# Static dielectric constant tensor:
#      x y z
#    x 3.382800 0.000000 -0.003050 
#    y 0.000000 3.463390 -0.000010 
#    z -0.003050 -0.000010 3.957320 
# 
# 
# High freq. dielectric constant tensor:
#      x y z
#    x 1.745420 0.000000 -0.003700 
#    y 0.000000 1.764110 0.000000 
#    z -0.003700 0.000000 1.819450 
# 
# From -- ./inp_files/250186.got.cif
#   From: 2010.06.25/outbox.cif.g09.slc.cpg/sg15_126_cif.got.tgz:250186.got - 2010.06.28 07:06:18.
