data_PCOD8137421
_publ_section_title
;
Structure prediction by ZEFSAII (Michael W. Deem and Ramdas Pophale) SiO2 
 PCOD8137421
Probable space group: C 2/C
;
_chemical_formula_sum "Si O2"
_cell_formula_units_Z 40
_cell_length_a 19.440263
_cell_length_b 13.797202
_cell_length_c 18.229118
_cell_angle_alpha 90.000000
_cell_angle_beta 21.716984
_cell_angle_gamma 90.000000
_cell_volume 1809.199878
_symmetry_space_group_name_H-M "C 2/C"
_symmetry_group_IT_number 15
_symmetry_cell_setting 'monoclinic'
loop_
_space_group_symop_operation_xyz
x,y,z
-x,y,1/2-z
-x,-y,-z
x,-y,1/2+z
1/2+x,1/2+y,z
1/2-x,1/2+y,1/2-z
1/2-x,1/2-y,-z
1/2+x,1/2-y,1/2+z
loop_
_atom_site_type_symbol
_atom_site_label
_atom_site_fract_x
_atom_site_fract_y
_atom_site_fract_z
Si Si1 0.086160 0.513702 0.318436
Si Si2 0.774626 0.376318 0.425377
Si Si3 0.366645 0.654853 0.118483
Si Si4 0.632969 0.669934 0.214338
Si Si5 0.794029 0.624731 0.678149
O O1 0.129065 0.477511 0.193678
O O2 0.230101 0.595114 0.202693
O O3 0.108740 0.416923 0.345223
O O4 0.878050 0.559003 0.528489
O O5 0.567602 0.376559 0.598487
O O6 0.778087 0.374036 0.510970
O O7 0.885932 0.284643 0.282068
O O8 0.301263 0.646898 0.268246
O O9 0.360726 0.766032 0.100007
O O10 0.573066 0.613260 0.901504
#
# Coordination Sequence:
#
# PCOD8137421 Si02
#       5
#     8   8   8   8   8
#     4  11  23  37  58  89 128 162 214 250 303 377
#     4  10  21  37  57  88 124 168 194 247 310 383
#     4  12  20  39  60  90 126 163 204 258 315 357
#     4  10  20  36  58  84 128 161 193 247 318 363
#     4  11  23  35  58  90 129 161 202 260 307 364
#
# _framework density 22.109221000000002
#
# number of rings (size 3 to 8) (size 9 to 14) (size 15 to 20)
#    0.000    1.200    6.000    0.600    0.000    0.000 
#    0.000    0.000    0.000    0.000    0.000   12.600 
#    0.000    0.000    0.000    0.000    0.000    0.000 
#
# Total GULP energy -247957.134046 kJ/mol
# GULP energy per Si atom -12397.856702 kJ/mol
# Density = 2.205890 g / cm^3
# Si number density = 22.109221 Si / 1000 Ang^3
#
#
#
# Elastic Constant Matrix: (Units=GPa)
#
#
# Indices 1 2 3 4 5 6 
#
# 1 43.8885 31.3934 42.0316 0.0025 13.9547 -0.0071
# 2 31.3934 119.4555 69.6851 0.0437 21.4800 -0.0237
# 3 42.0316 69.6851 134.1766 0.0288 24.1233 -0.0230
# 4 0.0025 0.0437 0.0288 51.4145 -0.0185 9.0832
# 5 13.9547 21.4800 24.1233 -0.0185 30.4978 0.0083
# 6 -0.0071 -0.0237 -0.0230 9.0832 0.0083 26.7694
#
#
#
# Elastic Compliance Matrix: (Units=1/GPa)
#
#
# Indices 1 2 3 4 5 6 
#
# 1 0.035114 -0.003229 -0.007977 0.000003 -0.007483 0.000001
# 2 -0.003229 0.012766 -0.004975 -0.000011 -0.003578 0.000011
# 3 -0.007977 -0.004975 0.013114 -0.000005 -0.003219 0.000007
# 4 0.000003 -0.000011 -0.000005 0.020690 0.000025 -0.007020
# 5 -0.007483 -0.003578 -0.003219 0.000025 0.041280 -0.000029
# 6 0.000001 0.000011 0.000007 -0.007020 -0.000029 0.039738
#
#
# Mechanical properties :
#
#
# Convention : Reuss Voigt Hill
#
# Bulk Modulus (GPa) = 34.92703 64.86008 49.89355
# Shear Modulus (GPa) = 24.43701 32.03036 28.23369
#
# Velocity S-wave (km/s) = 3.32819 3.81035 3.57740
# Velocity P-wave (km/s) = 5.53181 6.98271 6.29917
#
# Compressibility (1/GPa) = 0.02863112
#
# Stress axis : x y z
#
# Youngs Moduli (GPa) = 28.47898 78.33591 76.25226
#
# Poissons Ratio (x) = 0.25294 0.60829
# Poissons Ratio (y) = 0.09195 0.37936
# Poissons Ratio (z) = 0.22719 0.38972
#
# Static dielectric constant tensor:
#      x y z
#    x 3.625350 -0.000010 0.123270 
#    y -0.000010 4.005680 0.000030 
#    z 0.123270 0.000030 4.465970 
# 
# 
# High freq. dielectric constant tensor:
#      x y z
#    x 1.829380 0.000000 -0.013150 
#    y 0.000000 1.862580 0.000000 
#    z -0.013150 0.000000 1.896280 
# 
# From -- ./inp_files/215670.got.cif
#   From: 2010.06.25/outbox.cif.g09.slc.cpg/sg15_108_cif.got.tgz:215670.got - 2010.06.28 07:06:18.
