data_PCOD8137866
_publ_section_title
;
Structure prediction by ZEFSAII (Michael W. Deem and Ramdas Pophale) SiO2 
 PCOD8137866
Probable space group: C 2/C
;
_chemical_formula_sum "Si O2"
_cell_formula_units_Z 56
_cell_length_a 27.514250
_cell_length_b 18.297441
_cell_length_c 8.319237
_cell_angle_alpha 90.000000
_cell_angle_beta 39.294146
_cell_angle_gamma 90.000000
_cell_volume 2652.419774
_symmetry_space_group_name_H-M "C 2/C"
_symmetry_group_IT_number 15
_symmetry_cell_setting 'monoclinic'
loop_
_space_group_symop_operation_xyz
x,y,z
-x,y,1/2-z
-x,-y,-z
x,-y,1/2+z
1/2+x,1/2+y,z
1/2-x,1/2+y,1/2-z
1/2-x,1/2-y,-z
1/2+x,1/2-y,1/2+z
loop_
_atom_site_type_symbol
_atom_site_label
_atom_site_fract_x
_atom_site_fract_y
_atom_site_fract_z
Si Si1 0.135445 0.854045 0.130387
Si Si2 0.246854 0.534706 0.229186
Si Si3 0.207483 0.280264 0.264563
Si Si4 0.675919 0.616897 0.894971
Si Si5 0.514052 0.581277 0.402006
Si Si6 0.638779 0.980118 0.735634
Si Si7 0.918453 0.398036 0.907925
O O1 0.153884 0.875636 0.266016
O O2 0.043511 0.865136 0.350730
O O3 0.182295 0.913561 0.904742
O O4 0.160873 0.776082 0.997850
O O5 0.270708 0.450429 0.189160
O O6 0.174320 0.544039 0.532146
O O7 0.212604 0.554486 0.140569
O O8 0.277286 0.309991 0.191029
O O9 0.146992 0.342235 0.367541
O O10 0.250000 0.250000 0.000000
O O11 0.600819 0.610149 0.203255
O O12 0.500000 0.582165 0.250000
O O13 0.500000 0.500000 0.500000
O O14 0.592785 0.917126 0.754066
O O15 0.583716 0.023560 0.996828
O O16 0.000000 0.362841 0.750000
#
# Coordination Sequence:
#
# PCOD8137866 Si02
#       7
#     8   8   8   8   8   8   8
#     4  11  23  38  63  94 133 176 214 268 334 388
#     4  11  18  35  65  93 125 166 217 265 316 378
#     4  12  26  42  64  92 130 172 220 267 335 406
#     4  11  22  41  62  90 132 173 223 268 323 396
#     4  10  22  37  61  96 130 170 216 269 321 383
#     4  10  20  36  64  94 120 160 211 271 309 385
#     4  11  23  42  64  93 127 162 212 271 334 382
#
# _framework density 21.112797
#
# number of rings (size 3 to 8) (size 9 to 14) (size 15 to 20)
#    0.000    1.143    5.714    1.714    0.000    2.286 
#    0.000    0.000    0.000    2.571    0.000    0.000 
#    0.000    0.000    0.000    0.000    0.000    0.000 
#
# Total GULP energy -346892.305376 kJ/mol
# GULP energy per Si atom -12389.010906 kJ/mol
# Density = 2.106474 g / cm^3
# Si number density = 21.112797 Si / 1000 Ang^3
#
#
#
# Elastic Constant Matrix: (Units=GPa)
#
#
# Indices 1 2 3 4 5 6 
#
# 1 73.6351 20.8171 27.1250 0.0000 -12.9638 0.0000
# 2 20.8171 91.0642 36.9027 0.0000 -10.2168 0.0000
# 3 27.1250 36.9027 97.2989 0.0000 -26.1412 0.0000
# 4 0.0000 0.0000 0.0000 44.4736 0.0000 -0.1870
# 5 -12.9638 -10.2168 -26.1412 0.0000 25.9513 0.0000
# 6 0.0000 0.0000 0.0000 -0.1870 0.0000 23.9183
#
#
#
# Elastic Compliance Matrix: (Units=1/GPa)
#
#
# Indices 1 2 3 4 5 6 
#
# 1 0.015884 -0.002152 -0.002342 0.000000 0.004729 0.000000
# 2 -0.002152 0.013268 -0.004549 0.000000 -0.000433 0.000000
# 3 -0.002342 -0.004549 0.016261 0.000000 0.013419 0.000000
# 4 0.000000 0.000000 0.000000 0.022486 0.000000 0.000176
# 5 0.004729 -0.000433 0.013419 0.000000 0.054243 0.000000
# 6 0.000000 0.000000 0.000000 0.000176 0.000000 0.041810
#
#
# Mechanical properties :
#
#
# Convention : Reuss Voigt Hill
#
# Bulk Modulus (GPa) = 36.59125 47.96531 42.27828
# Shear Modulus (GPa) = 26.15809 30.67886 28.41848
#
# Velocity S-wave (km/s) = 3.52372 3.81608 3.67281
# Velocity P-wave (km/s) = 5.82446 6.49496 6.16883
#
# Compressibility (1/GPa) = 0.02732894
#
# Stress axis : x y z
#
# Youngs Moduli (GPa) = 62.95701 75.37041 61.49686
#
# Poissons Ratio (x) = 0.16217 0.14400
# Poissons Ratio (y) = 0.13546 0.27973
# Poissons Ratio (z) = 0.14742 0.34284
#
# Static dielectric constant tensor:
#      x y z
#    x 3.995670 0.000000 -0.149930 
#    y 0.000000 3.595410 0.000000 
#    z -0.149930 0.000000 4.243400 
# 
# 
# High freq. dielectric constant tensor:
#      x y z
#    x 1.828670 0.000000 -0.004970 
#    y 0.000000 1.797910 0.000000 
#    z -0.004970 0.000000 1.845690 
# 
# From -- ./inp_files/67139.got.cif
#   From: 2010.06.25/outbox.cif.g09.slc.cpg/sg15_34_cif.got.tgz:67139.got - 2010.06.28 07:06:18.
