data_PCOD8137868
_publ_section_title
;
Structure prediction by ZEFSAII (Michael W. Deem and Ramdas Pophale) SiO2 
 PCOD8137868
Probable space group: C 2/C
;
_chemical_formula_sum "Si O2"
_cell_formula_units_Z 44
_cell_length_a 8.679068
_cell_length_b 16.283986
_cell_length_c 14.365894
_cell_angle_alpha 90.000000
_cell_angle_beta 109.701852
_cell_angle_gamma 90.000000
_cell_volume 1911.473051
_symmetry_space_group_name_H-M "C 2/C"
_symmetry_group_IT_number 15
_symmetry_cell_setting 'monoclinic'
loop_
_space_group_symop_operation_xyz
x,y,z
-x,y,1/2-z
-x,-y,-z
x,-y,1/2+z
1/2+x,1/2+y,z
1/2-x,1/2+y,1/2-z
1/2-x,1/2-y,-z
1/2+x,1/2-y,1/2+z
loop_
_atom_site_type_symbol
_atom_site_label
_atom_site_fract_x
_atom_site_fract_y
_atom_site_fract_z
Si Si1 0.185460 0.954521 0.683708
Si Si2 0.500000 0.053857 0.750000
Si Si3 0.817535 0.286558 0.732922
Si Si4 0.330791 0.482126 0.602138
Si Si5 0.650088 0.139386 0.604265
Si Si6 0.833486 0.313390 0.949664
O O1 0.197236 0.856899 0.669202
O O2 0.169772 0.973830 0.788138
O O3 0.017591 0.985347 0.600471
O O4 0.348146 0.999669 0.679964
O O5 0.549435 0.108459 0.672699
O O6 0.783917 0.202155 0.672177
O O7 0.793606 0.280087 0.838885
O O8 0.000000 0.315716 0.750000
O O9 0.239322 0.568028 0.562027
O O10 0.234666 0.404439 0.541316
O O11 0.528327 0.184537 0.507888
O O12 0.750000 0.250000 0.000000
#
# Coordination Sequence:
#
# PCOD8137868 Si02
#       6
#     8   4   8   8   8   8
#     4   9  18  38  62  91 126 176 221 261 329 402
#     4  10  20  36  64  94 126 178 220 274 330 390
#     4  11  24  41  68  94 131 179 220 272 334 395
#     4   9  20  37  65  93 131 171 216 280 332 387
#     4  11  23  39  66  97 134 171 227 280 331 390
#     4  11  23  43  67  99 134 177 225 271 334 406
#
# _framework density 23.018896000000002
#
# number of rings (size 3 to 8) (size 9 to 14) (size 15 to 20)
#    0.000    1.818    0.909    2.727    5.091    3.636 
#    0.000    0.909    0.000    0.000    0.000    0.000 
#    0.000    0.000    0.000    0.000    0.000    0.000 
#
# Total GULP energy -272778.934617 kJ/mol
# GULP energy per Si atom -12399.042483 kJ/mol
# Density = 2.296650 g / cm^3
# Si number density = 23.018896 Si / 1000 Ang^3
#
#
#
# Elastic Constant Matrix: (Units=GPa)
#
#
# Indices 1 2 3 4 5 6 
#
# 1 114.0766 36.1041 15.2423 0.0000 31.8167 0.0000
# 2 36.1041 121.5080 33.8739 0.0000 16.2592 0.0000
# 3 15.2423 33.8739 60.2462 0.0000 22.0961 0.0000
# 4 0.0000 0.0000 0.0000 30.9744 0.0000 3.7751
# 5 31.8167 16.2592 22.0961 0.0000 29.3988 0.0000
# 6 0.0000 0.0000 0.0000 3.7751 0.0000 43.7571
#
#
#
# Elastic Compliance Matrix: (Units=1/GPa)
#
#
# Indices 1 2 3 4 5 6 
#
# 1 0.013735 -0.003078 0.004257 0.000000 -0.016361 0.000000
# 2 -0.003078 0.010516 -0.005830 0.000000 0.001897 0.000000
# 3 0.004257 -0.005830 0.026654 0.000000 -0.021416 0.000000
# 4 0.000000 0.000000 0.000000 0.032628 0.000000 -0.002815
# 5 -0.016361 0.001897 -0.021416 0.000000 0.066769 0.000000
# 6 0.000000 0.000000 0.000000 -0.002815 0.000000 0.023096
#
#
# Mechanical properties :
#
#
# Convention : Reuss Voigt Hill
#
# Bulk Modulus (GPa) = 24.03745 51.80794 37.92269
# Shear Modulus (GPa) = 25.43656 34.86674 30.15165
#
# Velocity S-wave (km/s) = 3.32780 3.89614 3.62313
# Velocity P-wave (km/s) = 5.02303 6.54182 5.83208
#
# Compressibility (1/GPa) = 0.04160176
#
# Stress axis : x y z
#
# Youngs Moduli (GPa) = 72.80764 95.09387 37.51798
#
# Poissons Ratio (x) = 0.29274 -0.15970
# Poissons Ratio (y) = 0.22413 0.21872
# Poissons Ratio (z) = -0.30992 0.55437
#
# Static dielectric constant tensor:
#      x y z
#    x 4.604540 0.000000 0.355290 
#    y 0.000000 4.255480 0.000000 
#    z 0.355290 0.000000 4.028270 
# 
# 
# High freq. dielectric constant tensor:
#      x y z
#    x 1.915750 0.000000 0.012690 
#    y 0.000000 1.912020 0.000000 
#    z 0.012690 0.000000 1.896780 
# 
# From -- ./inp_files/134956.got.cif
#   From: 2010.06.25/outbox.cif.g09.slc.cpg/sg15_68_cif.got.tgz:134956.got - 2010.06.28 07:06:18.
