data_PCOD8137043
_publ_section_title
;
Structure prediction by ZEFSAII (Michael W. Deem and Ramdas Pophale) SiO2 
 PCOD8137043
Probable space group: C 2/C
;
_chemical_formula_sum "Si O2"
_cell_formula_units_Z 48
_cell_length_a 16.925729
_cell_length_b 28.841228
_cell_length_c 9.523903
_cell_angle_alpha 90.000000
_cell_angle_beta 30.705864
_cell_angle_gamma 90.000000
_cell_volume 2374.013593
_symmetry_space_group_name_H-M "C 2/C"
_symmetry_group_IT_number 15
_symmetry_cell_setting 'monoclinic'
loop_
_space_group_symop_operation_xyz
x,y,z
-x,y,1/2-z
-x,-y,-z
x,-y,1/2+z
1/2+x,1/2+y,z
1/2-x,1/2+y,1/2-z
1/2-x,1/2-y,-z
1/2+x,1/2-y,1/2+z
loop_
_atom_site_type_symbol
_atom_site_label
_atom_site_fract_x
_atom_site_fract_y
_atom_site_fract_z
Si Si1 0.190664 0.875467 0.112117
Si Si2 0.681554 0.231817 0.462982
Si Si3 0.333866 0.366317 0.669408
Si Si4 0.684913 0.461608 0.307581
Si Si5 0.822006 0.282673 0.003790
Si Si6 0.818001 0.046690 0.370716
O O1 0.243112 0.919402 0.122800
O O2 0.308604 0.835518 0.976565
O O3 0.016591 0.859223 0.411720
O O4 0.204686 0.886979 0.925442
O O5 0.500000 0.224964 0.750000
O O6 0.750000 0.250000 0.500000
O O7 0.753780 0.182974 0.308442
O O8 0.724957 0.273103 0.291654
O O9 0.272415 0.402830 0.879280
O O10 0.748568 0.507953 0.134379
O O11 0.751156 0.458341 0.365836
O O12 0.500787 0.460532 0.596279
O O13 0.750000 0.250000 0.000000
O O14 0.000000 0.269225 0.750000
#
# Coordination Sequence:
#
# PCOD8137043 Si02
#       6
#     8   8   8   8   8   8
#     4  10  20  35  59  85 115 158 205 249 296 358
#     4  12  26  41  61  90 124 160 203 257 309 360
#     4  10  20  36  57  84 119 158 201 249 301 356
#     4   9  17  30  51  83 118 156 199 246 297 352
#     4  12  24  43  65  88 120 164 209 251 302 370
#     4   9  17  30  51  82 120 156 197 247 297 353
#
# _framework density 20.218924000000001
#
# number of rings (size 3 to 8) (size 9 to 14) (size 15 to 20)
#    0.000    1.667    1.667    4.000    2.333    4.000 
#    0.000    0.000    0.000    1.000    0.000    4.667 
#    0.000    0.000    0.000    0.000    0.000    0.000 
#
# Total GULP energy -297603.475189 kJ/mol
# GULP energy per Si atom -12400.144800 kJ/mol
# Density = 2.017290 g / cm^3
# Si number density = 20.218924 Si / 1000 Ang^3
#
#
#
# Elastic Constant Matrix: (Units=GPa)
#
#
# Indices 1 2 3 4 5 6 
#
# 1 118.1154 44.3636 46.2137 0.0003 29.4282 -0.0006
# 2 44.3636 97.9339 21.8823 0.0004 12.7105 -0.0009
# 3 46.2137 21.8823 64.3256 0.0008 14.0478 -0.0022
# 4 0.0003 0.0004 0.0008 25.4599 -0.0002 19.1456
# 5 29.4282 12.7105 14.0478 -0.0002 44.4175 0.0006
# 6 -0.0006 -0.0009 -0.0022 19.1456 0.0006 24.6140
#
#
#
# Elastic Compliance Matrix: (Units=1/GPa)
#
#
# Indices 1 2 3 4 5 6 
#
# 1 0.014517 -0.004068 -0.007733 0.000001 -0.006008 -0.000001
# 2 -0.004068 0.012380 -0.001185 -0.000001 -0.000472 0.000001
# 3 -0.007733 -0.001185 0.021819 -0.000005 -0.001438 0.000005
# 4 0.000001 -0.000001 -0.000005 0.094627 0.000003 -0.073604
# 5 -0.006008 -0.000472 -0.001438 0.000003 0.027084 -0.000003
# 6 -0.000001 0.000001 0.000005 -0.073604 -0.000003 0.097879
#
#
# Mechanical properties :
#
#
# Convention : Reuss Voigt Hill
#
# Bulk Modulus (GPa) = 43.97220 56.14378 50.05799
# Shear Modulus (GPa) = 16.56385 30.09263 23.32824
#
# Velocity S-wave (km/s) = 2.86532 3.86209 3.40042
# Velocity P-wave (km/s) = 5.72206 6.90766 6.34263
#
# Compressibility (1/GPa) = 0.02274164
#
# Stress axis : x y z
#
# Youngs Moduli (GPa) = 68.88447 80.77464 45.83131
#
# Poissons Ratio (x) = 0.32863 0.35444
# Poissons Ratio (y) = 0.28025 0.05433
# Poissons Ratio (z) = 0.53272 0.09575
#
# Static dielectric constant tensor:
#      x y z
#    x 3.859390 0.000020 0.434340 
#    y 0.000020 3.675050 0.000010 
#    z 0.434340 0.000010 3.494890 
# 
# 
# High freq. dielectric constant tensor:
#      x y z
#    x 1.792720 0.000000 0.030580 
#    y 0.000000 1.798620 0.000000 
#    z 0.030580 0.000000 1.763920 
# 
# From -- ./inp_files/52724.got.cif
#   From: 2010.06.25/outbox.cif.g09.slc.cpg/sg15_27_cif.got.tgz:52724.got - 2010.06.28 07:06:18.
