data_PCOD8137217
_publ_section_title
;
Structure prediction by ZEFSAII (Michael W. Deem and Ramdas Pophale) SiO2 
 PCOD8137217
Probable space group: C 2/C
;
_chemical_formula_sum "Si O2"
_cell_formula_units_Z 60
_cell_length_a 29.422721
_cell_length_b 13.052567
_cell_length_c 24.918823
_cell_angle_alpha 90.000000
_cell_angle_beta 159.161008
_cell_angle_gamma 90.000000
_cell_volume 3404.416862
_symmetry_space_group_name_H-M "C 2/C"
_symmetry_group_IT_number 15
_symmetry_cell_setting 'monoclinic'
loop_
_space_group_symop_operation_xyz
x,y,z
-x,y,1/2-z
-x,-y,-z
x,-y,1/2+z
1/2+x,1/2+y,z
1/2-x,1/2+y,1/2-z
1/2-x,1/2-y,-z
1/2+x,1/2-y,1/2+z
loop_
_atom_site_type_symbol
_atom_site_label
_atom_site_fract_x
_atom_site_fract_y
_atom_site_fract_z
Si Si1 0.000000 0.110874 0.750000
Si Si2 0.605776 0.079937 0.137196
Si Si3 0.475985 0.765970 0.570934
Si Si4 0.637713 0.413191 0.301204
Si Si5 0.390362 0.805958 0.592063
Si Si6 0.374969 0.449924 0.804246
Si Si7 0.766394 0.777666 0.750368
Si Si8 0.331289 0.444556 0.365840
O O1 0.053356 0.045286 0.758633
O O2 0.113314 0.184973 0.897425
O O3 0.559679 0.142632 0.137780
O O4 0.637978 0.162606 0.126268
O O5 0.739009 0.021294 0.296939
O O6 0.500000 0.000000 0.000000
O O7 0.562553 0.668228 0.680999
O O8 0.415483 0.818055 0.556401
O O9 0.368095 0.726777 0.410941
O O10 0.757278 0.357119 0.459798
O O11 0.686015 0.508578 0.318435
O O12 0.500000 0.859607 0.750000
O O13 0.330586 0.335538 0.770336
O O14 0.331725 0.527872 0.803247
O O15 0.524911 0.453058 0.955309
O O16 0.726133 0.666572 0.686938
#
# Coordination Sequence:
#
# PCOD8137217 Si02
#       8
#     4   8   8   8   8   8   8   8
#     4   8  20  32  52  76 100 140 174 224 274 328
#     4  11  21  31  49  78 104 145 192 214 258 327
#     4  11  20  32  55  77 111 155 170 218 277 313
#     4  11  19  35  54  76 110 137 182 223 275 327
#     4   9  20  34  50  77 106 143 177 215 274 331
#     4  10  21  33  54  78 104 150 186 214 272 325
#     4  11  21  35  51  76 115 151 180 221 265 327
#     4  10  20  36  49  75 115 140 186 223 253 327
#
# _framework density 17.624164
#
# number of rings (size 3 to 8) (size 9 to 14) (size 15 to 20)
#    0.400    1.333    1.333    6.000    1.867    1.067 
#    0.000    0.000    0.000    0.000    0.000    0.933 
#    2.000    0.000    0.000    0.000    0.000    0.000 
#
# Total GULP energy -371776.150955 kJ/mol
# GULP energy per Si atom -12392.538365 kJ/mol
# Density = 1.758405 g / cm^3
# Si number density = 17.624164 Si / 1000 Ang^3
#
#
#
# Elastic Constant Matrix: (Units=GPa)
#
#
# Indices 1 2 3 4 5 6 
#
# 1 110.5954 40.5655 23.0952 -0.0009 1.3904 -0.0008
# 2 40.5655 82.6623 12.9008 -0.0018 4.4345 -0.0016
# 3 23.0952 12.9008 54.1265 -0.0008 5.8296 -0.0010
# 4 -0.0009 -0.0018 -0.0008 19.4551 -0.0006 8.9778
# 5 1.3904 4.4345 5.8296 -0.0006 23.2783 -0.0005
# 6 -0.0008 -0.0016 -0.0010 8.9778 -0.0005 28.9419
#
#
#
# Elastic Compliance Matrix: (Units=1/GPa)
#
#
# Indices 1 2 3 4 5 6 
#
# 1 0.011760 -0.005229 -0.003909 0.000000 0.001273 0.000000
# 2 -0.005229 0.014955 -0.001089 0.000001 -0.002264 0.000000
# 3 -0.003909 -0.001089 0.020919 0.000000 -0.004798 0.000000
# 4 0.000000 0.000001 0.000000 0.059987 0.000001 -0.018608
# 5 0.001273 -0.002264 -0.004798 0.000001 0.044515 0.000000
# 6 0.000000 0.000000 0.000000 -0.018608 0.000000 0.040324
#
#
# Mechanical properties :
#
#
# Convention : Reuss Voigt Hill
#
# Bulk Modulus (GPa) = 36.79177 44.50079 40.64628
# Shear Modulus (GPa) = 22.52492 25.72326 24.12409
#
# Velocity S-wave (km/s) = 3.57889 3.82454 3.70375
# Velocity P-wave (km/s) = 6.16433 6.69384 6.43454
#
# Compressibility (1/GPa) = 0.02717999
#
# Stress axis : x y z
#
# Youngs Moduli (GPa) = 85.03164 66.86656 47.80253
#
# Poissons Ratio (x) = 0.34968 0.18684
# Poissons Ratio (y) = 0.44467 0.05207
# Poissons Ratio (z) = 0.33236 0.07284
#
# Static dielectric constant tensor:
#      x y z
#    x 3.319400 0.000000 0.245120 
#    y 0.000000 3.156380 0.000000 
#    z 0.245120 0.000000 3.242790 
# 
# 
# High freq. dielectric constant tensor:
#      x y z
#    x 1.679920 0.000000 0.026730 
#    y 0.000000 1.656640 0.000000 
#    z 0.026730 0.000000 1.669890 
# 
# From -- ./inp_files/284754.got.cif
#   From: 2010.06.25/outbox.cif.g09.slc.cpg/sg15_143_cif.got.tgz:284754.got - 2010.06.28 07:06:18.
