data_PCOD8137727
_publ_section_title
;
Structure prediction by ZEFSAII (Michael W. Deem and Ramdas Pophale) SiO2 
 PCOD8137727
Probable space group: C 2/C
;
_chemical_formula_sum "Si O2"
_cell_formula_units_Z 64
_cell_length_a 20.791402
_cell_length_b 11.543742
_cell_length_c 18.435383
_cell_angle_alpha 90.000000
_cell_angle_beta 50.312820
_cell_angle_gamma 90.000000
_cell_volume 3404.984504
_symmetry_space_group_name_H-M "C 2/C"
_symmetry_group_IT_number 15
_symmetry_cell_setting 'monoclinic'
loop_
_space_group_symop_operation_xyz
x,y,z
-x,y,1/2-z
-x,-y,-z
x,-y,1/2+z
1/2+x,1/2+y,z
1/2-x,1/2+y,1/2-z
1/2-x,1/2-y,-z
1/2+x,1/2-y,1/2+z
loop_
_atom_site_type_symbol
_atom_site_label
_atom_site_fract_x
_atom_site_fract_y
_atom_site_fract_z
Si Si1 0.944133 0.196578 0.354459
Si Si2 0.669728 0.522659 0.147049
Si Si3 0.560112 0.648955 0.505734
Si Si4 0.657715 0.295590 0.069030
Si Si5 0.532571 0.120177 0.445364
Si Si6 0.142670 0.606627 0.496055
Si Si7 0.561913 0.537880 0.358529
Si Si8 0.464594 0.086928 0.349579
O O1 0.893744 0.092394 0.356250
O O2 0.879979 0.287483 0.434935
O O3 0.000000 0.255245 0.250000
O O4 0.001700 0.141142 0.374988
O O5 0.659399 0.390902 0.130364
O O6 0.760110 0.579028 0.072802
O O7 0.643398 0.526608 0.249970
O O8 0.638379 0.654765 0.503318
O O9 0.532650 0.774831 0.495159
O O10 0.593276 0.571626 0.415743
O O11 0.484279 0.585972 0.603048
O O12 0.586747 0.200454 0.138069
O O13 0.750000 0.250000 0.000000
O O14 0.616994 0.140640 0.431424
O O15 0.541642 0.113136 0.350557
O O16 0.500000 0.000000 0.500000
O O17 0.096459 0.495408 0.561637
O O18 0.500000 0.030398 0.250000
#
# Coordination Sequence:
#
# PCOD8137727 Si02
#       8
#     8   8   8   8   8   8   8   8
#     4  10  20  36  62  85 114 154 199 245 283 354
#     4  11  23  37  57  89 120 152 194 249 302 342
#     4  10  20  39  65  85 116 156 203 244 286 356
#     4  11  22  39  60  88 123 154 190 251 302 347
#     4   9  20  36  61  83 112 155 193 236 289 350
#     4  11  20  40  58  83 124 152 191 241 304 349
#     4  10  21  38  62  88 113 154 205 246 288 351
#     4  10  22  37  61  88 111 156 202 236 285 357
#
# _framework density 18.795974999999999
#
# number of rings (size 3 to 8) (size 9 to 14) (size 15 to 20)
#    0.000    1.750    3.750    0.750    3.500    0.000 
#    2.250    0.000    0.000    0.000    0.000    0.000 
#    0.000    0.000    0.000    0.000    0.000    0.000 
#
# Total GULP energy -396576.854083 kJ/mol
# GULP energy per Si atom -12393.026690 kJ/mol
# Density = 1.875319 g / cm^3
# Si number density = 18.795975 Si / 1000 Ang^3
#
#
#
# Elastic Constant Matrix: (Units=GPa)
#
#
# Indices 1 2 3 4 5 6 
#
# 1 77.9864 9.5119 49.0859 0.0000 5.8285 0.0000
# 2 9.5119 89.0477 37.6834 0.0000 -1.4769 0.0000
# 3 49.0859 37.6834 120.8504 0.0000 4.6879 0.0000
# 4 0.0000 0.0000 0.0000 18.4636 0.0000 -2.2708
# 5 5.8285 -1.4769 4.6879 0.0000 24.9891 0.0000
# 6 0.0000 0.0000 0.0000 -2.2708 0.0000 30.1082
#
#
#
# Elastic Compliance Matrix: (Units=1/GPa)
#
#
# Indices 1 2 3 4 5 6 
#
# 1 0.017526 0.001214 -0.007395 0.000000 -0.002629 0.000000
# 2 0.001214 0.013080 -0.004624 0.000000 0.001357 0.000000
# 3 -0.007395 -0.004624 0.012757 0.000000 -0.000942 0.000000
# 4 0.000000 0.000000 0.000000 0.054668 0.000000 0.004123
# 5 -0.002629 0.001357 -0.000942 0.000000 0.040887 0.000000
# 6 0.000000 0.000000 0.000000 0.004123 0.000000 0.033525
#
#
# Mechanical properties :
#
#
# Convention : Reuss Voigt Hill
#
# Bulk Modulus (GPa) = 45.97399 53.38300 49.67850
# Shear Modulus (GPa) = 24.83824 27.48575 26.16199
#
# Velocity S-wave (km/s) = 3.63914 3.82818 3.73486
# Velocity P-wave (km/s) = 6.49387 6.92841 6.71466
#
# Compressibility (1/GPa) = 0.02175143
#
# Stress axis : x y z
#
# Youngs Moduli (GPa) = 57.05927 76.45462 78.39012
#
# Poissons Ratio (x) = -0.09280 0.57969
# Poissons Ratio (y) = -0.06926 0.36249
# Poissons Ratio (z) = 0.42195 0.35354
#
# Static dielectric constant tensor:
#      x y z
#    x 3.614440 0.000000 0.155080 
#    y 0.000000 3.573790 0.000000 
#    z 0.155080 0.000000 3.161820 
# 
# 
# High freq. dielectric constant tensor:
#      x y z
#    x 1.732820 0.000000 0.023430 
#    y 0.000000 1.742250 0.000000 
#    z 0.023430 0.000000 1.712440 
# 
# From -- ./inp_files/215046.got.cif
#   From: 2010.06.25/outbox.cif.g09.slc.cpg/sg15_108_cif.got.tgz:215046.got - 2010.06.28 07:06:18.
