data_PCOD8137524
_publ_section_title
;
Structure prediction by ZEFSAII (Michael W. Deem and Ramdas Pophale) SiO2 
 PCOD8137524
Probable space group: C 2/C
;
_chemical_formula_sum "Si O2"
_cell_formula_units_Z 60
_cell_length_a 15.792899
_cell_length_b 20.087446
_cell_length_c 15.875841
_cell_angle_alpha 90.000000
_cell_angle_beta 140.960323
_cell_angle_gamma 90.000000
_cell_volume 3172.241577
_symmetry_space_group_name_H-M "C 2/C"
_symmetry_group_IT_number 15
_symmetry_cell_setting 'monoclinic'
loop_
_space_group_symop_operation_xyz
x,y,z
-x,y,1/2-z
-x,-y,-z
x,-y,1/2+z
1/2+x,1/2+y,z
1/2-x,1/2+y,1/2-z
1/2-x,1/2-y,-z
1/2+x,1/2-y,1/2+z
loop_
_atom_site_type_symbol
_atom_site_label
_atom_site_fract_x
_atom_site_fract_y
_atom_site_fract_z
Si Si1 0.500000 0.246444 0.750000
Si Si2 0.535206 0.336494 0.934650
Si Si3 0.621450 0.543924 0.128330
Si Si4 0.315960 0.843600 0.221338
Si Si5 0.633244 0.958805 0.122973
Si Si6 0.696483 0.870813 0.840046
Si Si7 0.648044 0.249002 0.599455
Si Si8 0.902427 0.367630 0.554023
O O1 0.558191 0.296106 0.865816
O O2 0.607541 0.196630 0.792457
O O3 0.432476 0.399028 0.848668
O O4 0.481986 0.286372 0.964658
O O5 0.675979 0.366861 0.073392
O O6 0.734467 0.503355 0.265332
O O7 0.690419 0.576913 0.100068
O O8 0.500000 0.500000 0.000000
O O9 0.390548 0.910637 0.313449
O O10 0.287468 0.795884 0.277848
O O11 0.665961 0.914972 0.066920
O O12 0.500000 0.000000 0.000000
O O13 0.733801 0.797363 0.838446
O O14 0.554478 0.891062 0.689332
O O15 0.689344 0.872031 0.934803
O O16 0.596807 0.207514 0.479798
#
# Coordination Sequence:
#
# PCOD8137524 Si02
#       8
#     4   8   8   8   8   8   8   8
#     4  10  22  40  58 100 120 158 212 258 318 360
#     4  10  20  38  62  87 123 159 198 256 301 364
#     4  11  22  42  63  83 120 163 205 244 305 362
#     4  10  20  38  62  87 122 158 201 257 299 363
#     4  11  22  42  61  87 118 163 209 240 299 369
#     4  10  20  36  59  88 117 154 192 250 293 349
#     4   9  19  33  61  88 117 154 192 237 306 353
#     4  10  20  36  59  88 119 150 197 247 289 355
#
# _framework density 18.914069999999999
#
# number of rings (size 3 to 8) (size 9 to 14) (size 15 to 20)
#    0.000    1.867    2.667    1.600    0.000    0.000 
#    9.600    0.000    0.000    0.000    0.000    0.000 
#    0.000    0.000    0.000    0.000    0.000    0.000 
#
# Total GULP energy -371920.421224 kJ/mol
# GULP energy per Si atom -12397.347374 kJ/mol
# Density = 1.887102 g / cm^3
# Si number density = 18.914070 Si / 1000 Ang^3
#
#
#
# Elastic Constant Matrix: (Units=GPa)
#
#
# Indices 1 2 3 4 5 6 
#
# 1 119.2780 60.4935 58.1260 0.0002 -9.5416 0.0001
# 2 60.4935 124.5490 62.3038 0.0001 -0.5265 0.0001
# 3 58.1260 62.3038 116.8116 0.0005 5.3551 0.0004
# 4 0.0002 0.0001 0.0005 41.9832 0.0003 3.0575
# 5 -9.5416 -0.5265 5.3551 0.0003 26.5073 0.0001
# 6 0.0001 0.0001 0.0004 3.0575 0.0001 26.9904
#
#
#
# Elastic Compliance Matrix: (Units=1/GPa)
#
#
# Indices 1 2 3 4 5 6 
#
# 1 0.013140 -0.004036 -0.004642 0.000000 0.005587 0.000000
# 2 -0.004036 0.012243 -0.004508 0.000000 -0.000299 0.000000
# 3 -0.004642 -0.004508 0.013480 0.000000 -0.004484 0.000000
# 4 0.000000 0.000000 0.000000 0.024017 0.000000 -0.002721
# 5 0.005587 -0.000299 -0.004484 0.000000 0.040637 0.000000
# 6 0.000000 0.000000 0.000000 -0.002721 0.000000 0.037358
#
#
# Mechanical properties :
#
#
# Convention : Reuss Voigt Hill
#
# Bulk Modulus (GPa) = 80.05477 80.27612 80.16545
# Shear Modulus (GPa) = 29.16958 31.07722 30.12340
#
# Velocity S-wave (km/s) = 3.93137 4.05788 3.99513
# Velocity P-wave (km/s) = 7.93882 8.03056 7.98482
#
# Compressibility (1/GPa) = 0.01249145
#
# Stress axis : x y z
#
# Youngs Moduli (GPa) = 76.10445 81.67785 74.18173
#
# Poissons Ratio (x) = 0.32969 0.34433
# Poissons Ratio (y) = 0.30719 0.33440
# Poissons Ratio (z) = 0.35325 0.36819
#
# Static dielectric constant tensor:
#      x y z
#    x 3.428480 0.000000 -0.057140 
#    y 0.000000 3.668490 0.000000 
#    z -0.057140 0.000000 3.403540 
# 
# 
# High freq. dielectric constant tensor:
#      x y z
#    x 1.729190 0.000000 -0.000640 
#    y 0.000000 1.746460 0.000000 
#    z -0.000640 0.000000 1.732280 
# 
# From -- ./inp_files/156374.got.cif
#   From: 2010.06.25/outbox.cif.g09.slc.cpg/sg15_79_cif.got.tgz:156374.got - 2010.06.28 07:06:18.
