data_PCOD8137395
_publ_section_title
;
Structure prediction by ZEFSAII (Michael W. Deem and Ramdas Pophale) SiO2 
 PCOD8137395
Probable space group: C 2/C
;
_chemical_formula_sum "Si O2"
_cell_formula_units_Z 60
_cell_length_a 14.638388
_cell_length_b 17.860410
_cell_length_c 12.127550
_cell_angle_alpha 90.000000
_cell_angle_beta 81.564055
_cell_angle_gamma 90.000000
_cell_volume 3136.413360
_symmetry_space_group_name_H-M "C 2/C"
_symmetry_group_IT_number 15
_symmetry_cell_setting 'monoclinic'
loop_
_space_group_symop_operation_xyz
x,y,z
-x,y,1/2-z
-x,-y,-z
x,-y,1/2+z
1/2+x,1/2+y,z
1/2-x,1/2+y,1/2-z
1/2-x,1/2-y,-z
1/2+x,1/2-y,1/2+z
loop_
_atom_site_type_symbol
_atom_site_label
_atom_site_fract_x
_atom_site_fract_y
_atom_site_fract_z
Si Si1 0.916601 0.250434 0.832295
Si Si2 0.309351 0.603892 0.549126
Si Si3 0.500000 0.526413 0.250000
Si Si4 0.321824 0.372674 0.803117
Si Si5 0.698631 0.565891 0.414940
Si Si6 0.189574 0.321761 0.476253
Si Si7 0.267974 0.784656 0.262318
Si Si8 0.982920 0.100608 0.931837
O O1 0.828539 0.245932 0.768007
O O2 0.942518 0.166263 0.863489
O O3 0.000000 0.286756 0.750000
O O4 0.904398 0.306500 0.939193
O O5 0.275158 0.608386 0.428502
O O6 0.286803 0.522012 0.597213
O O7 0.249417 0.659517 0.633952
O O8 0.418543 0.624160 0.533864
O O9 0.585565 0.581102 0.229311
O O10 0.501899 0.474359 0.141687
O O11 0.263459 0.398264 0.706012
O O12 0.331771 0.282844 0.795627
O O13 0.760792 0.600734 0.501034
O O14 0.590372 0.584303 0.457819
O O15 0.250000 0.250000 0.500000
O O16 0.174999 0.324428 0.347061
#
# Coordination Sequence:
#
# PCOD8137395 Si02
#       8
#     8   8   4   8   8   8   8   8
#     4  11  19  35  62  87 116 156 201 250 285 352
#     4  12  25  35  58  87 125 165 192 250 301 365
#     4  12  22  36  56  94 130 160 190 242 298 372
#     4  12  24  37  55  85 127 162 201 235 299 369
#     4  12  22  37  56  88 125 159 203 239 300 361
#     4  10  20  36  58  81 115 158 202 248 282 348
#     4  11  22  42  56  84 122 162 204 243 301 360
#     4  12  20  35  57  92 129 158 192 233 310 365
#
# _framework density 19.130133000000001
#
# number of rings (size 3 to 8) (size 9 to 14) (size 15 to 20)
#    0.000    0.533   10.000    1.600    1.867    0.000 
#    0.000    0.000    0.000    0.000    1.733    1.867 
#    0.000    0.000    0.000    0.000    0.000    0.000 
#
# Total GULP energy -371860.043788 kJ/mol
# GULP energy per Si atom -12395.334793 kJ/mol
# Density = 1.908659 g / cm^3
# Si number density = 19.130133 Si / 1000 Ang^3
#
#
#
# Elastic Constant Matrix: (Units=GPa)
#
#
# Indices 1 2 3 4 5 6 
#
# 1 34.7296 26.7905 31.2067 0.0000 -18.4937 0.0000
# 2 26.7905 107.7831 50.8170 0.0000 -10.6799 0.0000
# 3 31.2067 50.8170 153.4750 0.0000 -31.7767 0.0000
# 4 0.0000 0.0000 0.0000 43.9595 0.0000 2.9738
# 5 -18.4937 -10.6799 -31.7767 0.0000 29.9844 0.0000
# 6 0.0000 0.0000 0.0000 2.9738 0.0000 40.0049
#
#
#
# Elastic Compliance Matrix: (Units=1/GPa)
#
#
# Indices 1 2 3 4 5 6 
#
# 1 0.051948 -0.009353 -0.001950 0.000000 0.026643 0.000000
# 2 -0.009353 0.012678 -0.003274 0.000000 -0.004723 0.000000
# 3 -0.001950 -0.003274 0.009616 0.000000 0.007822 0.000000
# 4 0.000000 0.000000 0.000000 0.022863 0.000000 -0.001700
# 5 0.026643 -0.004723 0.007822 0.000000 0.056391 0.000000
# 6 0.000000 0.000000 0.000000 -0.001700 0.000000 0.025123
#
#
# Mechanical properties :
#
#
# Convention : Reuss Voigt Hill
#
# Bulk Modulus (GPa) = 22.17837 57.06846 39.62342
# Shear Modulus (GPa) = 22.44147 35.26800 28.85473
#
# Velocity S-wave (km/s) = 3.42876 4.29836 3.88795
# Velocity P-wave (km/s) = 5.22435 7.38451 6.39628
#
# Compressibility (1/GPa) = 0.04508897
#
# Stress axis : x y z
#
# Youngs Moduli (GPa) = 19.25001 78.87489 103.99696
#
# Poissons Ratio (x) = 0.73772 0.20275
# Poissons Ratio (y) = 0.18005 0.34048
# Poissons Ratio (z) = 0.03753 0.25823
#
# Static dielectric constant tensor:
#      x y z
#    x 3.437490 0.000000 -0.289820 
#    y 0.000000 3.498160 0.000000 
#    z -0.289820 0.000000 4.225250 
# 
# 
# High freq. dielectric constant tensor:
#      x y z
#    x 1.691750 0.000000 -0.012320 
#    y 0.000000 1.738000 0.000000 
#    z -0.012320 0.000000 1.771510 
# 
# From -- ./inp_files/98326.got.cif
#   From: 2010.06.25/outbox.cif.g09.slc.cpg/sg15_50_cif.got.tgz:98326.got - 2010.06.28 07:06:18.
