data_PCOD8137889
_publ_section_title
;
Structure prediction by ZEFSAII (Michael W. Deem and Ramdas Pophale) SiO2 
 PCOD8137889
Probable space group: C 2/C
;
_chemical_formula_sum "Si O2"
_cell_formula_units_Z 64
_cell_length_a 10.706745
_cell_length_b 21.088237
_cell_length_c 17.401085
_cell_angle_alpha 90.000000
_cell_angle_beta 53.611883
_cell_angle_gamma 90.000000
_cell_volume 3162.853194
_symmetry_space_group_name_H-M "C 2/C"
_symmetry_group_IT_number 15
_symmetry_cell_setting 'monoclinic'
loop_
_space_group_symop_operation_xyz
x,y,z
-x,y,1/2-z
-x,-y,-z
x,-y,1/2+z
1/2+x,1/2+y,z
1/2-x,1/2+y,1/2-z
1/2-x,1/2-y,-z
1/2+x,1/2-y,1/2+z
loop_
_atom_site_type_symbol
_atom_site_label
_atom_site_fract_x
_atom_site_fract_y
_atom_site_fract_z
Si Si1 0.855761 0.384365 0.744474
Si Si2 0.085894 0.436221 0.944475
Si Si3 0.885492 0.355797 0.362587
Si Si4 0.285563 0.537382 0.506822
Si Si5 0.153599 0.242666 0.738492
Si Si6 0.551264 0.188398 0.944949
Si Si7 0.934003 0.194312 0.574101
Si Si8 0.887330 0.081573 0.047128
O O1 0.883082 0.425871 0.657317
O O2 0.799334 0.312214 0.745716
O O3 0.712472 0.415949 0.839765
O O4 0.000000 0.387019 0.750000
O O5 0.251914 0.441025 0.930306
O O6 0.000000 0.500000 0.000000
O O7 0.966450 0.381436 0.013803
O O8 0.859126 0.429670 0.394913
O O9 0.715763 0.327258 0.416957
O O10 0.000000 0.352814 0.250000
O O11 0.960342 0.310019 0.398268
O O12 0.447620 0.558465 0.483218
O O13 0.293400 0.461662 0.518985
O O14 0.273776 0.209981 0.636343
O O15 0.116446 0.192882 0.818965
O O16 0.000000 0.257583 0.750000
O O17 0.477990 0.235165 0.033728
O O18 0.083135 0.149059 0.505242
#
# Coordination Sequence:
#
# PCOD8137889 Si02
#       8
#     8   8   8   8   8   8   8   8
#     4  11  23  40  64  91 121 167 214 258 321 386
#     4  11  24  42  64  93 129 167 214 264 321 385
#     4  10  20  36  65  91 123 162 206 258 321 383
#     4   9  22  40  61  92 126 162 211 258 316 381
#     4  11  24  39  60  93 125 166 212 257 323 384
#     4  11  22  41  62  93 128 161 211 273 316 380
#     4  11  21  40  64  92 126 165 208 263 325 376
#     4  10  21  41  66  90 126 167 208 262 320 386
#
# _framework density 20.234894000000001
#
# number of rings (size 3 to 8) (size 9 to 14) (size 15 to 20)
#    0.000    1.500    3.750    1.125    0.000    5.500 
#    2.250    1.250    0.000    0.000    0.000    0.000 
#    0.000    0.000    0.000    0.000    0.000    0.000 
#
# Total GULP energy -396467.849732 kJ/mol
# GULP energy per Si atom -12389.620304 kJ/mol
# Density = 2.018884 g / cm^3
# Si number density = 20.234894 Si / 1000 Ang^3
#
#
#
# Elastic Constant Matrix: (Units=GPa)
#
#
# Indices 1 2 3 4 5 6 
#
# 1 58.6067 23.4930 22.4501 0.0000 5.3210 0.0000
# 2 23.4930 121.0073 39.5880 0.0000 -4.2077 0.0000
# 3 22.4501 39.5880 126.9692 0.0000 -0.2901 0.0000
# 4 0.0000 0.0000 0.0000 26.4893 0.0000 6.1993
# 5 5.3210 -4.2077 -0.2901 0.0000 31.3572 0.0000
# 6 0.0000 0.0000 0.0000 6.1993 0.0000 26.4044
#
#
#
# Elastic Compliance Matrix: (Units=1/GPa)
#
#
# Indices 1 2 3 4 5 6 
#
# 1 0.019615 -0.003120 -0.002504 0.000000 -0.003770 0.000000
# 2 -0.003120 0.009745 -0.002483 0.000000 0.001814 0.000000
# 3 -0.002504 -0.002483 0.009093 0.000000 0.000176 0.000000
# 4 0.000000 0.000000 0.000000 0.039946 0.000000 -0.009379
# 5 -0.003770 0.001814 0.000176 0.000000 0.032775 0.000000
# 6 0.000000 0.000000 0.000000 -0.009379 0.000000 0.040074
#
#
# Mechanical properties :
#
#
# Convention : Reuss Voigt Hill
#
# Bulk Modulus (GPa) = 44.96441 53.07170 49.01806
# Shear Modulus (GPa) = 28.59173 31.58700 30.08936
#
# Velocity S-wave (km/s) = 3.76306 3.95526 3.86035
# Velocity P-wave (km/s) = 6.41485 6.86611 6.64431
#
# Compressibility (1/GPa) = 0.02223981
#
# Stress axis : x y z
#
# Youngs Moduli (GPa) = 50.98111 102.61693 109.97309
#
# Poissons Ratio (x) = 0.32017 0.27538
# Poissons Ratio (y) = 0.15906 0.27302
# Poissons Ratio (z) = 0.12766 0.25476
#
# Static dielectric constant tensor:
#      x y z
#    x 3.814960 0.000000 0.067510 
#    y 0.000000 3.994700 0.000000 
#    z 0.067510 0.000000 3.696590 
# 
# 
# High freq. dielectric constant tensor:
#      x y z
#    x 1.790450 0.000000 -0.001070 
#    y 0.000000 1.797570 0.000000 
#    z -0.001070 0.000000 1.789460 
# 
# From -- ./inp_files/200363.got.cif
#   From: 2010.06.25/outbox.cif.g09.slc.cpg/sg15_101_cif.got.tgz:200363.got - 2010.06.28 07:06:18.
