data_PCOD8137674
_publ_section_title
;
Structure prediction by ZEFSAII (Michael W. Deem and Ramdas Pophale) SiO2 
 PCOD8137674
Probable space group: C 2/C
;
_chemical_formula_sum "Si O2"
_cell_formula_units_Z 56
_cell_length_a 11.947639
_cell_length_b 26.588718
_cell_length_c 10.899567
_cell_angle_alpha 90.000000
_cell_angle_beta 49.883887
_cell_angle_gamma 90.000000
_cell_volume 2647.906653
_symmetry_space_group_name_H-M "C 2/C"
_symmetry_group_IT_number 15
_symmetry_cell_setting 'monoclinic'
loop_
_space_group_symop_operation_xyz
x,y,z
-x,y,1/2-z
-x,-y,-z
x,-y,1/2+z
1/2+x,1/2+y,z
1/2-x,1/2+y,1/2-z
1/2-x,1/2-y,-z
1/2+x,1/2-y,1/2+z
loop_
_atom_site_type_symbol
_atom_site_label
_atom_site_fract_x
_atom_site_fract_y
_atom_site_fract_z
Si Si1 0.340379 0.554142 0.620901
Si Si2 0.410042 0.817166 0.066370
Si Si3 0.292794 0.144109 0.160613
Si Si4 0.332380 0.383485 0.367331
Si Si5 0.765407 0.348841 0.403384
Si Si6 0.978178 0.211638 0.120764
Si Si7 0.180877 0.057064 0.376872
O O1 0.311387 0.574147 0.778364
O O2 0.273440 0.592344 0.570272
O O3 0.510616 0.551917 0.468536
O O4 0.261022 0.500264 0.657387
O O5 0.268055 0.834292 0.087529
O O6 0.393781 0.838315 0.216465
O O7 0.435505 0.757809 0.063253
O O8 0.550162 0.840160 0.895074
O O9 0.153084 0.173070 0.312586
O O10 0.263173 0.085179 0.206384
O O11 0.314755 0.161996 0.005405
O O12 0.500000 0.364622 0.250000
O O13 0.285205 0.410533 0.525945
O O14 0.626080 0.313890 0.465695
O O15 0.000000 0.225472 0.250000
#
# Coordination Sequence:
#
# PCOD8137674 Si02
#       7
#     8   8   8   8   8   8   8
#     4   9  19  36  63  88 114 163 196 251 303 359
#     4  11  22  38  62  85 129 166 193 251 320 354
#     4  11  22  35  61  96 123 154 204 264 300 362
#     4   9  21  41  60  85 118 163 206 247 298 377
#     4  10  20  37  60  92 127 156 203 248 306 370
#     4  10  20  37  62  94 123 162 208 254 300 363
#     4  10  20  36  61  88 122 150 208 252 298 357
#
# _framework density 21.148782000000001
#
# number of rings (size 3 to 8) (size 9 to 14) (size 15 to 20)
#    0.000    2.000    1.429    2.143    2.000    2.857 
#    0.000    3.571    6.286    0.000    0.000    0.000 
#    0.000    0.000    0.000    0.000    0.000    0.000 
#
# Total GULP energy -347050.627505 kJ/mol
# GULP energy per Si atom -12394.665268 kJ/mol
# Density = 2.110065 g / cm^3
# Si number density = 21.148782 Si / 1000 Ang^3
#
#
#
# Elastic Constant Matrix: (Units=GPa)
#
#
# Indices 1 2 3 4 5 6 
#
# 1 72.0087 39.4135 17.4885 0.0000 -13.7291 0.0000
# 2 39.4135 153.4629 19.8440 0.0000 -16.9770 0.0000
# 3 17.4885 19.8440 57.3386 0.0000 -12.8931 0.0000
# 4 0.0000 0.0000 0.0000 21.9424 0.0000 10.7932
# 5 -13.7291 -16.9770 -12.8931 0.0000 24.4233 0.0000
# 6 0.0000 0.0000 0.0000 10.7932 0.0000 15.6498
#
#
#
# Elastic Compliance Matrix: (Units=1/GPa)
#
#
# Indices 1 2 3 4 5 6 
#
# 1 0.017630 -0.003501 -0.002819 0.000000 0.005989 0.000000
# 2 -0.003501 0.007873 -0.000986 0.000000 0.002984 0.000000
# 3 -0.002819 -0.000986 0.020573 0.000000 0.008590 0.000000
# 4 0.000000 0.000000 0.000000 0.068972 0.000000 -0.047568
# 5 0.005989 0.002984 0.008590 0.000000 0.050920 0.000000
# 6 0.000000 0.000000 0.000000 -0.047568 0.000000 0.096705
#
#
# Mechanical properties :
#
#
# Convention : Reuss Voigt Hill
#
# Bulk Modulus (GPa) = 31.78209 48.47803 40.13006
# Shear Modulus (GPa) = 17.37489 26.14071 21.75780
#
# Velocity S-wave (km/s) = 2.86939 3.51955 3.21097
# Velocity P-wave (km/s) = 5.10278 6.28398 5.72393
#
# Compressibility (1/GPa) = 0.03146426
#
# Stress axis : x y z
#
# Youngs Moduli (GPa) = 56.72221 127.01717 48.60755
#
# Poissons Ratio (x) = 0.44466 0.13702
# Poissons Ratio (y) = 0.19857 0.04792
# Poissons Ratio (z) = 0.15990 0.12523
#
# Static dielectric constant tensor:
#      x y z
#    x 3.685190 0.000000 -0.095740 
#    y 0.000000 3.932700 0.000000 
#    z -0.095740 0.000000 3.742730 
# 
# 
# High freq. dielectric constant tensor:
#      x y z
#    x 1.810690 0.000000 -0.008060 
#    y 0.000000 1.829450 0.000000 
#    z -0.008060 0.000000 1.823820 
# 
# From -- ./inp_files/92011.got.cif
#   From: 2010.06.25/outbox.cif.g09.slc.cpg/sg15_47_cif.got.tgz:92011.got - 2010.06.28 07:06:18.
