data_PCOD8138198
_publ_section_title
;
Structure prediction by ZEFSAII (Michael W. Deem and Ramdas Pophale) SiO2 
 PCOD8138198
Probable space group: C 2/C
;
_chemical_formula_sum "Si O2"
_cell_formula_units_Z 48
_cell_length_a 10.814335
_cell_length_b 17.989461
_cell_length_c 21.798627
_cell_angle_alpha 90.000000
_cell_angle_beta 147.525192
_cell_angle_gamma 90.000000
_cell_volume 2277.003793
_symmetry_space_group_name_H-M "C 2/C"
_symmetry_group_IT_number 15
_symmetry_cell_setting 'monoclinic'
loop_
_space_group_symop_operation_xyz
x,y,z
-x,y,1/2-z
-x,-y,-z
x,-y,1/2+z
1/2+x,1/2+y,z
1/2-x,1/2+y,1/2-z
1/2-x,1/2-y,-z
1/2+x,1/2-y,1/2+z
loop_
_atom_site_type_symbol
_atom_site_label
_atom_site_fract_x
_atom_site_fract_y
_atom_site_fract_z
Si Si1 0.352535 0.095731 0.491053
Si Si2 0.866509 0.182360 0.584133
Si Si3 0.505245 0.061412 0.419518
Si Si4 0.764301 0.718396 0.673684
Si Si5 0.107046 0.261430 0.082135
Si Si6 0.851796 0.850684 0.794239
O O1 0.373854 0.079958 0.427661
O O2 0.486901 0.170212 0.567984
O O3 0.087998 0.104993 0.398218
O O4 0.453066 0.026154 0.570950
O O5 0.750000 0.250000 0.500000
O O6 0.748773 0.103971 0.519681
O O7 0.828920 0.204163 0.639609
O O8 0.134865 0.176216 0.676230
O O9 0.351288 0.088784 0.297835
O O10 0.585362 0.726419 0.543285
O O11 0.846554 0.798756 0.732013
O O12 0.000000 0.676703 0.750000
O O13 0.194118 0.198261 0.164448
#
# Coordination Sequence:
#
# PCOD8138198 Si02
#       6
#     8   8   8   8   8   8
#     4  10  20  37  60  94 130 160 216 262 308 379
#     4   9  18  38  59  94 123 158 208 259 306 377
#     4  10  20  38  61  88 135 168 195 271 326 350
#     4  11  20  37  62  91 127 157 204 262 312 356
#     4  10  21  36  63  99 118 159 221 252 306 386
#     4  12  20  37  64  91 127 169 201 261 316 368
#
# _framework density 21.080333
#
# number of rings (size 3 to 8) (size 9 to 14) (size 15 to 20)
#    0.000    1.667    6.667    1.000    0.000    0.667 
#    3.000    0.000    0.000    4.000   13.000    0.000 
#    0.000    0.000    0.000    0.000    0.000    0.000 
#
# Total GULP energy -297481.764238 kJ/mol
# GULP energy per Si atom -12395.073510 kJ/mol
# Density = 2.103235 g / cm^3
# Si number density = 21.080333 Si / 1000 Ang^3
#
#
#
# Elastic Constant Matrix: (Units=GPa)
#
#
# Indices 1 2 3 4 5 6 
#
# 1 108.6051 43.4153 67.0458 -0.0001 39.1933 0.0000
# 2 43.4153 110.6304 56.5848 -0.0002 5.6314 -0.0001
# 3 67.0458 56.5848 103.1656 -0.0005 6.0265 -0.0002
# 4 -0.0001 -0.0002 -0.0005 40.1784 -0.0002 -2.3384
# 5 39.1933 5.6314 6.0265 -0.0002 41.9654 0.0000
# 6 0.0000 -0.0001 -0.0002 -2.3384 0.0000 22.8134
#
#
#
# Elastic Compliance Matrix: (Units=1/GPa)
#
#
# Indices 1 2 3 4 5 6 
#
# 1 0.028692 -0.001686 -0.016306 0.000000 -0.024228 0.000000
# 2 -0.001686 0.012683 -0.005903 0.000000 0.000720 0.000000
# 3 -0.016306 -0.005903 0.022783 0.000000 0.012749 0.000000
# 4 0.000000 0.000000 0.000000 0.025038 0.000000 0.002566
# 5 -0.024228 0.000720 0.012749 0.000000 0.044530 0.000000
# 6 0.000000 0.000000 0.000000 0.002566 0.000000 0.044097
#
#
# Mechanical properties :
#
#
# Convention : Reuss Voigt Hill
#
# Bulk Modulus (GPa) = 61.09565 72.94366 67.01965
# Shear Modulus (GPa) = 21.63854 31.34845 26.49349
#
# Velocity S-wave (km/s) = 3.20735 3.86047 3.54897
# Velocity P-wave (km/s) = 6.53921 7.38572 6.97532
#
# Compressibility (1/GPa) = 0.01636778
#
# Stress axis : x y z
#
# Youngs Moduli (GPa) = 34.85345 78.84362 43.89206
#
# Poissons Ratio (x) = 0.13294 0.71571
# Poissons Ratio (y) = 0.05877 0.25909
# Poissons Ratio (z) = 0.56832 0.46541
#
# Static dielectric constant tensor:
#      x y z
#    x 4.290850 0.000000 0.295440 
#    y 0.000000 3.707430 0.000000 
#    z 0.295440 0.000000 3.828160 
# 
# 
# High freq. dielectric constant tensor:
#      x y z
#    x 1.815660 0.000000 0.013300 
#    y 0.000000 1.796020 0.000000 
#    z 0.013300 0.000000 1.825220 
# 
# From -- ./inp_files/270654.got.cif
#   From: 2010.06.25/outbox.cif.g09.slc.cpg/sg15_136_cif.got.tgz:270654.got - 2010.06.28 07:06:18.
