data_PCOD8138157
_publ_section_title
;
Structure prediction by ZEFSAII (Michael W. Deem and Ramdas Pophale) SiO2 
 PCOD8138157
Probable space group: C 2/C
;
_chemical_formula_sum "Si O2"
_cell_formula_units_Z 48
_cell_length_a 22.670066
_cell_length_b 19.151273
_cell_length_c 8.783623
_cell_angle_alpha 90.000000
_cell_angle_beta 134.688792
_cell_angle_gamma 90.000000
_cell_volume 2711.160761
_symmetry_space_group_name_H-M "C 2/C"
_symmetry_group_IT_number 15
_symmetry_cell_setting 'monoclinic'
loop_
_space_group_symop_operation_xyz
x,y,z
-x,y,1/2-z
-x,-y,-z
x,-y,1/2+z
1/2+x,1/2+y,z
1/2-x,1/2+y,1/2-z
1/2-x,1/2-y,-z
1/2+x,1/2-y,1/2+z
loop_
_atom_site_type_symbol
_atom_site_label
_atom_site_fract_x
_atom_site_fract_y
_atom_site_fract_z
Si Si1 0.613216 0.053723 0.213215
Si Si2 0.500000 0.017581 0.750000
Si Si3 0.287460 0.163835 0.937843
Si Si4 0.340701 0.566345 0.337337
Si Si5 0.842997 0.185669 0.557039
Si Si6 0.500000 0.382055 0.250000
Si Si7 0.244323 0.950330 0.126503
O O1 0.557292 0.032459 0.254124
O O2 0.656892 0.126074 0.333231
O O3 0.679264 0.992440 0.305184
O O4 0.556960 0.066057 0.961306
O O5 0.197538 0.177899 0.849944
O O6 0.278968 0.118798 0.770006
O O7 0.330613 0.236425 0.970390
O O8 0.301224 0.631029 0.361171
O O9 0.441305 0.569264 0.536955
O O10 0.305849 0.494039 0.339364
O O11 0.317882 0.572584 0.119575
O O12 0.941167 0.167408 0.748210
#
# Coordination Sequence:
#
# PCOD8138157 Si02
#       7
#     8   4   8   8   8   4   8
#     4  11  19  36  52  84 114 144 190 236 282 345
#     4  10  22  31  52  84 115 144 182 238 290 319
#     4  11  21  37  64  81 111 159 192 232 287 354
#     4  10  20  37  60  87 118 147 196 236 294 340
#     4   9  21  41  59  79 117 154 193 231 294 344
#     4   8  20  41  56  82 121 152 184 246 290 341
#     4  12  20  36  63  89 110 153 194 242 285 346
#
# _framework density 17.704592999999999
#
# number of rings (size 3 to 8) (size 9 to 14) (size 15 to 20)
#    1.000    0.667    5.000    0.000    0.000    2.000 
#    0.000    0.000    7.333    0.000    0.000    0.000 
#    0.000    0.000    0.000    0.000    0.000    0.000 
#
# Total GULP energy -297503.733762 kJ/mol
# GULP energy per Si atom -12395.988907 kJ/mol
# Density = 1.766430 g / cm^3
# Si number density = 17.704593 Si / 1000 Ang^3
#
#
#
# Elastic Constant Matrix: (Units=GPa)
#
#
# Indices 1 2 3 4 5 6 
#
# 1 71.5599 12.0905 30.5952 0.0000 12.4162 0.0000
# 2 12.0905 82.6778 29.2088 0.0000 -1.8787 0.0000
# 3 30.5952 29.2088 118.6272 0.0000 -3.0469 0.0000
# 4 0.0000 0.0000 0.0000 19.5669 0.0000 -2.1461
# 5 12.4162 -1.8787 -3.0469 0.0000 29.9093 0.0000
# 6 0.0000 0.0000 0.0000 -2.1461 0.0000 21.7116
#
#
#
# Elastic Compliance Matrix: (Units=1/GPa)
#
#
# Indices 1 2 3 4 5 6 
#
# 1 0.017395 -0.001166 -0.004398 0.000000 -0.007742 0.000000
# 2 -0.001166 0.013333 -0.002956 0.000000 0.001020 0.000000
# 3 -0.004398 -0.002956 0.010361 0.000000 0.002696 0.000000
# 4 0.000000 0.000000 0.000000 0.051667 0.000000 0.005107
# 5 -0.007742 0.001020 0.002696 0.000000 0.036987 0.000000
# 6 0.000000 0.000000 0.000000 0.005107 0.000000 0.046563
#
#
# Mechanical properties :
#
#
# Convention : Reuss Voigt Hill
#
# Bulk Modulus (GPa) = 41.58143 46.29488 43.93816
# Shear Modulus (GPa) = 24.83075 27.63560 26.23318
#
# Velocity S-wave (km/s) = 3.74906 3.95514 3.85348
# Velocity P-wave (km/s) = 6.50214 6.86024 6.68359
#
# Compressibility (1/GPa) = 0.02404920
#
# Stress axis : x y z
#
# Youngs Moduli (GPa) = 57.48749 75.00104 96.51410
#
# Poissons Ratio (x) = 0.08745 0.42448
# Poissons Ratio (y) = 0.06703 0.28530
# Poissons Ratio (z) = 0.25284 0.22170
#
# Static dielectric constant tensor:
#      x y z
#    x 3.260870 0.000000 0.073900 
#    y 0.000000 3.143160 0.000000 
#    z 0.073900 0.000000 3.342580 
# 
# 
# High freq. dielectric constant tensor:
#      x y z
#    x 1.690080 0.000000 0.004360 
#    y 0.000000 1.670430 0.000000 
#    z 0.004360 0.000000 1.678370 
# 
# From -- ./inp_files/62599.got.cif
#   From: 2010.06.25/outbox.cif.g09.slc.cpg/sg15_32_cif.got.tgz:62599.got - 2010.06.28 07:06:18.
