data_PCOD8138405
_publ_section_title
;
Structure prediction by ZEFSAII (Michael W. Deem and Ramdas Pophale) SiO2 
 PCOD8138405
Probable space group: C 2/C
;
_chemical_formula_sum "Si O2"
_cell_formula_units_Z 64
_cell_length_a 31.711005
_cell_length_b 9.272733
_cell_length_c 18.926349
_cell_angle_alpha 90.000000
_cell_angle_beta 34.774767
_cell_angle_gamma 90.000000
_cell_volume 3174.150260
_symmetry_space_group_name_H-M "C 2/C"
_symmetry_group_IT_number 15
_symmetry_cell_setting 'monoclinic'
loop_
_space_group_symop_operation_xyz
x,y,z
-x,y,1/2-z
-x,-y,-z
x,-y,1/2+z
1/2+x,1/2+y,z
1/2-x,1/2+y,1/2-z
1/2-x,1/2-y,-z
1/2+x,1/2-y,1/2+z
loop_
_atom_site_type_symbol
_atom_site_label
_atom_site_fract_x
_atom_site_fract_y
_atom_site_fract_z
Si Si1 0.276737 0.570013 0.286643
Si Si2 0.214425 0.929131 0.975772
Si Si3 0.559806 0.490108 0.724563
Si Si4 0.063525 0.906972 0.877078
Si Si5 0.784545 0.591165 0.757705
Si Si6 0.698684 0.107254 0.005291
Si Si7 0.041153 0.325691 0.763425
Si Si8 0.048647 0.609539 0.975319
O O1 0.356198 0.531252 0.211305
O O2 0.271055 0.484006 0.220836
O O3 0.266845 0.739423 0.286541
O O4 0.211362 0.513658 0.428090
O O5 0.237947 0.915900 0.024484
O O6 0.273336 0.016790 0.849096
O O7 0.139115 0.022168 0.077429
O O8 0.203856 0.765549 0.961065
O O9 0.500000 0.433389 0.750000
O O10 0.555188 0.400002 0.803531
O O11 0.548517 0.655380 0.760713
O O12 0.054989 0.748034 0.917814
O O13 0.000000 0.000000 0.000000
O O14 0.868754 0.556597 0.620295
O O15 0.620044 0.093280 0.153167
O O16 0.000000 0.373587 0.750000
O O17 0.991912 0.372642 0.895616
O O18 0.000000 0.500000 0.000000
#
# Coordination Sequence:
#
# PCOD8138405 Si02
#       8
#     8   8   8   8   8   8   8   8
#     4  11  24  42  62  95 130 167 218 261 324 379
#     4  10  21  38  61  93 124 163 213 253 320 378
#     4  10  21  39  64  95 122 159 215 263 311 375
#     4  11  23  41  67  92 126 167 214 267 315 378
#     4  11  25  41  64  94 129 172 209 270 316 384
#     4  10  20  38  65  88 123 167 210 262 313 382
#     4  10  20  37  64  89 123 167 210 261 311 377
#     4  11  24  43  63  95 131 168 212 263 329 385
#
# _framework density 20.162876000000001
#
# number of rings (size 3 to 8) (size 9 to 14) (size 15 to 20)
#    0.000    1.500    2.500    2.250    1.750    4.500 
#    2.250    0.625    0.000    0.000    0.000    0.000 
#    0.000    0.000    0.000    0.000    0.000    0.000 
#
# Total GULP energy -396840.658784 kJ/mol
# GULP energy per Si atom -12401.270587 kJ/mol
# Density = 2.011698 g / cm^3
# Si number density = 20.162876 Si / 1000 Ang^3
#
#
#
# Elastic Constant Matrix: (Units=GPa)
#
#
# Indices 1 2 3 4 5 6 
#
# 1 125.9234 41.7663 48.6248 0.0004 0.5122 -0.0018
# 2 41.7663 74.3764 54.5491 0.0023 4.0922 -0.0047
# 3 48.6248 54.5491 144.2954 -0.0008 2.5728 -0.0022
# 4 0.0004 0.0023 -0.0008 -23.5512 0.0062 11.2019
# 5 0.5122 4.0922 2.5728 0.0062 36.7738 0.0011
# 6 -0.0018 -0.0047 -0.0022 11.2019 0.0011 25.1666
#
#
#
# Elastic Compliance Matrix: (Units=1/GPa)
#
#
# Indices 1 2 3 4 5 6 
#
# 1 0.010072 -0.004409 -0.001736 0.000000 0.000472 0.000000
# 2 -0.004409 0.020625 -0.006279 0.000003 -0.001794 0.000002
# 3 -0.001736 -0.006279 0.009888 -0.000001 0.000031 0.000000
# 4 0.000000 0.000003 -0.000001 -0.035042 0.000005 0.015597
# 5 0.000472 -0.001794 0.000031 0.000005 0.027384 -0.000004
# 6 0.000000 0.000002 0.000000 0.015597 -0.000004 0.032793
#
#
# Mechanical properties :
#
#
# Convention : Reuss Voigt Hill
#
# Bulk Modulus (GPa) = 63.54246 70.49732 67.01989
# Shear Modulus (GPa) = 52.18425 20.98817 36.58621
#
# Velocity S-wave (km/s) = 5.09289 3.22985 4.26435
# Velocity P-wave (km/s) = 8.13427 6.99636 7.58668
#
# Compressibility (1/GPa) = 0.01573751
#
# Stress axis : x y z
#
# Youngs Moduli (GPa) = 99.28495 48.48465 101.12831
#
# Poissons Ratio (x) = 0.21376 0.17554
# Poissons Ratio (y) = 0.43774 0.63502
# Poissons Ratio (z) = 0.17234 0.30445
#
# Static dielectric constant tensor:
#      x y z
#    x 3.794890 -0.000010 -0.294410 
#    y -0.000010 3.499690 0.000000 
#    z -0.294410 0.000000 3.892030 
# 
# 
# High freq. dielectric constant tensor:
#      x y z
#    x 1.797150 0.000000 -0.001580 
#    y 0.000000 1.769650 0.000000 
#    z -0.001580 0.000000 1.801730 
# 
# From -- ./inp_files/224575.got.cif
#   From: 2010.06.25/outbox.cif.g09.slc.cpg/sg15_113_cif.got.tgz:224575.got - 2010.06.28 07:06:18.
