data_PCOD8138677
_publ_section_title
;
Structure prediction by ZEFSAII (Michael W. Deem and Ramdas Pophale) SiO2 
 PCOD8138677
Probable space group: C 2/C
;
_chemical_formula_sum "Si O2"
_cell_formula_units_Z 56
_cell_length_a 14.827544
_cell_length_b 13.339472
_cell_length_c 28.485239
_cell_angle_alpha 90.000000
_cell_angle_beta 149.813134
_cell_angle_gamma 90.000000
_cell_volume 2832.969114
_symmetry_space_group_name_H-M "C 2/C"
_symmetry_group_IT_number 15
_symmetry_cell_setting 'monoclinic'
loop_
_space_group_symop_operation_xyz
x,y,z
-x,y,1/2-z
-x,-y,-z
x,-y,1/2+z
1/2+x,1/2+y,z
1/2-x,1/2+y,1/2-z
1/2-x,1/2-y,-z
1/2+x,1/2-y,1/2+z
loop_
_atom_site_type_symbol
_atom_site_label
_atom_site_fract_x
_atom_site_fract_y
_atom_site_fract_z
Si Si1 0.473869 0.282673 0.004947
Si Si2 0.040810 0.113839 0.100041
Si Si3 0.799390 0.443641 0.000802
Si Si4 0.455296 0.199462 0.838307
Si Si5 0.104161 0.899260 0.149197
Si Si6 0.663147 0.684748 0.358805
Si Si7 0.230442 0.160744 0.954746
O O1 0.488028 0.362864 0.052825
O O2 0.658553 0.220099 0.087408
O O3 0.431950 0.347035 0.940193
O O4 0.308456 0.204816 0.940717
O O5 0.109481 0.200232 0.165336
O O6 0.835040 0.083423 0.017213
O O7 0.156655 0.015296 0.164352
O O8 0.712678 0.413398 0.911640
O O9 0.846793 0.561790 0.021214
O O10 0.977506 0.379326 0.092066
O O11 0.289005 0.157905 0.735149
O O12 0.608921 0.225450 0.869697
O O13 0.978175 0.878089 0.138811
O O14 0.500000 0.658595 0.250000
O O15 0.250000 0.250000 0.000000
#
# Coordination Sequence:
#
# PCOD8138677 Si02
#       7
#     8   8   8   8   8   8   8
#     4  11  19  38  62  83 120 154 197 249 299 356
#     4  10  20  38  60  86 115 159 199 246 306 354
#     4  10  20  39  61  85 119 157 194 246 309 355
#     4  11  20  37  62  86 117 150 201 251 294 352
#     4  10  22  36  59  86 121 158 197 246 302 361
#     4  11  20  36  62  93 114 143 200 259 290 343
#     4   9  22  40  56  83 120 163 194 237 305 370
#
# _framework density 19.767246
#
# number of rings (size 3 to 8) (size 9 to 14) (size 15 to 20)
#    0.000    1.714    4.286    1.286    0.000    2.857 
#    2.571    0.714    3.143    0.000    0.000    0.000 
#    0.000    0.000    0.000    0.000    0.000    0.000 
#
# Total GULP energy -347013.835472 kJ/mol
# GULP energy per Si atom -12393.351267 kJ/mol
# Density = 1.972225 g / cm^3
# Si number density = 19.767246 Si / 1000 Ang^3
#
#
#
# Elastic Constant Matrix: (Units=GPa)
#
#
# Indices 1 2 3 4 5 6 
#
# 1 99.7043 49.2000 25.6514 -0.0005 2.4534 0.0000
# 2 49.2000 164.0639 38.6159 -0.0001 -4.5643 0.0000
# 3 25.6514 38.6159 54.0859 -0.0029 -10.8093 0.0003
# 4 -0.0005 -0.0001 -0.0029 21.1460 0.0000 -0.2828
# 5 2.4534 -4.5643 -10.8093 0.0000 26.9372 0.0001
# 6 0.0000 0.0000 0.0003 -0.2828 0.0001 31.4374
#
#
#
# Elastic Compliance Matrix: (Units=1/GPa)
#
#
# Indices 1 2 3 4 5 6 
#
# 1 0.012716 -0.002796 -0.004741 0.000000 -0.003534 0.000000
# 2 -0.002796 0.007963 -0.004391 -0.000001 -0.000158 0.000000
# 3 -0.004741 -0.004391 0.025886 0.000003 0.010075 0.000000
# 4 0.000000 -0.000001 0.000003 0.047296 0.000001 0.000426
# 5 -0.003534 -0.000158 0.010075 0.000001 0.041462 0.000000
# 6 0.000000 0.000000 0.000000 0.000426 0.000000 0.031813
#
#
# Mechanical properties :
#
#
# Convention : Reuss Voigt Hill
#
# Bulk Modulus (GPa) = 44.03430 60.53208 52.28319
# Shear Modulus (GPa) = 25.18123 29.52990 27.35557
#
# Velocity S-wave (km/s) = 3.57303 3.86927 3.72409
# Velocity P-wave (km/s) = 6.27270 7.11692 6.70810
#
# Compressibility (1/GPa) = 0.02270957
#
# Stress axis : x y z
#
# Youngs Moduli (GPa) = 78.64125 125.58660 38.63064
#
# Poissons Ratio (x) = 0.35110 0.18315
# Poissons Ratio (y) = 0.21986 0.16962
# Poissons Ratio (z) = 0.37285 0.55142
#
# Static dielectric constant tensor:
#      x y z
#    x 3.847120 0.000000 0.107100 
#    y 0.000000 3.859070 0.000000 
#    z 0.107100 0.000000 3.253660 
# 
# 
# High freq. dielectric constant tensor:
#      x y z
#    x 1.771940 0.000000 0.005320 
#    y 0.000000 1.784050 0.000000 
#    z 0.005320 0.000000 1.734840 
# 
# From -- ./inp_files/313908.got.cif
#   From: 2010.06.25/outbox.cif.g09.slc.cpg/sg15_157_cif.got.tgz:313908.got - 2010.06.28 07:06:18.
