data_PCOD8138192
_publ_section_title
;
Structure prediction by ZEFSAII (Michael W. Deem and Ramdas Pophale) SiO2 
 PCOD8138192
Probable space group: C 2/C
;
_chemical_formula_sum "Si O2"
_cell_formula_units_Z 56
_cell_length_a 15.327039
_cell_length_b 27.846445
_cell_length_c 12.994575
_cell_angle_alpha 90.000000
_cell_angle_beta 28.991527
_cell_angle_gamma 90.000000
_cell_volume 2688.100161
_symmetry_space_group_name_H-M "C 2/C"
_symmetry_group_IT_number 15
_symmetry_cell_setting 'monoclinic'
loop_
_space_group_symop_operation_xyz
x,y,z
-x,y,1/2-z
-x,-y,-z
x,-y,1/2+z
1/2+x,1/2+y,z
1/2-x,1/2+y,1/2-z
1/2-x,1/2-y,-z
1/2+x,1/2-y,1/2+z
loop_
_atom_site_type_symbol
_atom_site_label
_atom_site_fract_x
_atom_site_fract_y
_atom_site_fract_z
Si Si1 0.287946 0.388996 0.576324
Si Si2 0.591717 0.955092 0.047651
Si Si3 0.182011 0.130944 0.678460
Si Si4 0.784883 0.137071 0.299361
Si Si5 0.045314 0.555894 0.030657
Si Si6 0.128810 0.192901 0.918894
Si Si7 0.496835 0.787758 0.140100
O O1 0.263550 0.358401 0.496252
O O2 0.500452 0.401936 0.368693
O O3 0.237403 0.356541 0.727018
O O4 0.157656 0.436006 0.713283
O O5 0.500000 0.942171 0.250000
O O6 0.643691 0.011571 0.988028
O O7 0.760733 0.918807 0.858525
O O8 0.454010 0.950125 0.093558
O O9 0.342529 0.103301 0.566492
O O10 0.159464 0.180135 0.766653
O O11 0.641703 0.170168 0.504018
O O12 0.987395 0.154697 0.113798
O O13 0.308096 0.189142 0.801919
O O14 0.050238 0.246809 0.003106
O O15 0.500000 0.763333 0.250000
#
# Coordination Sequence:
#
# PCOD8138192 Si02
#       7
#     8   8   8   8   8   8   8
#     4   9  19  37  61  87 118 156 193 238 289 349
#     4  10  20  37  60  91 126 156 195 245 290 341
#     4  10  20  37  62  87 116 155 200 237 293 353
#     4  10  22  39  59  86 122 152 195 248 292 354
#     4  10  20  37  62  89 121 162 197 233 289 355
#     4  11  23  39  61  86 113 152 200 247 294 355
#     4  12  24  41  61  84 114 157 204 243 302 363
#
# _framework density 20.832556
#
# number of rings (size 3 to 8) (size 9 to 14) (size 15 to 20)
#    0.000    1.714    1.429    3.857    0.000    0.000 
#    0.000   13.571    3.143    8.571    0.000    0.000 
#    0.000    0.000    0.000    0.000    0.000    0.000 
#
# Total GULP energy -346972.423125 kJ/mol
# GULP energy per Si atom -12391.872254 kJ/mol
# Density = 2.078514 g / cm^3
# Si number density = 20.832556 Si / 1000 Ang^3
#
#
#
# Elastic Constant Matrix: (Units=GPa)
#
#
# Indices 1 2 3 4 5 6 
#
# 1 99.2638 29.3044 57.5266 0.0014 12.8667 -0.0027
# 2 29.3044 89.4736 43.0645 0.0003 6.8175 -0.0009
# 3 57.5266 43.0645 101.3765 -0.0016 9.2470 -0.0016
# 4 0.0014 0.0003 -0.0016 28.9786 -0.0002 2.5806
# 5 12.8667 6.8175 9.2470 -0.0002 37.0946 0.0019
# 6 -0.0027 -0.0009 -0.0016 2.5806 0.0019 23.0565
#
#
#
# Elastic Compliance Matrix: (Units=1/GPa)
#
#
# Indices 1 2 3 4 5 6 
#
# 1 0.015441 -0.000927 -0.008079 -0.000001 -0.003172 0.000002
# 2 -0.000927 0.014150 -0.005400 0.000000 -0.000933 0.000000
# 3 -0.008079 -0.005400 0.016778 0.000001 -0.000388 0.000000
# 4 -0.000001 0.000000 0.000001 0.034856 0.000001 -0.003901
# 5 -0.003172 -0.000933 -0.000388 0.000001 0.028326 -0.000003
# 6 0.000002 0.000000 0.000000 -0.003901 -0.000003 0.043808
#
#
# Mechanical properties :
#
#
# Convention : Reuss Voigt Hill
#
# Bulk Modulus (GPa) = 56.95614 61.10053 59.02834
# Shear Modulus (GPa) = 26.59244 28.50717 27.54980
#
# Velocity S-wave (km/s) = 3.57667 3.70320 3.64048
# Velocity P-wave (km/s) = 6.66754 6.90492 6.78727
#
# Compressibility (1/GPa) = 0.01755737
#
# Stress axis : x y z
#
# Youngs Moduli (GPa) = 64.76281 70.67046 59.60249
#
# Poissons Ratio (x) = 0.06552 0.48152
# Poissons Ratio (y) = 0.06004 0.32184
# Poissons Ratio (z) = 0.52321 0.38161
#
# Static dielectric constant tensor:
#      x y z
#    x 3.804170 0.000000 0.117850 
#    y 0.000000 3.643660 0.000000 
#    z 0.117850 0.000000 4.016570 
# 
# 
# High freq. dielectric constant tensor:
#      x y z
#    x 1.818400 0.000000 0.009570 
#    y 0.000000 1.789140 0.000000 
#    z 0.009570 0.000000 1.821130 
# 
# From -- ./inp_files/101771.got.cif
#   From: 2010.06.25/outbox.cif.g09.slc.cpg/sg15_51_cif.got.tgz:101771.got - 2010.06.28 07:06:18.
