data_PCOD8138690
_publ_section_title
;
Structure prediction by ZEFSAII (Michael W. Deem and Ramdas Pophale) SiO2 
 PCOD8138690
Probable space group: C 2/C
;
_chemical_formula_sum "Si O2"
_cell_formula_units_Z 64
_cell_length_a 16.801323
_cell_length_b 11.372595
_cell_length_c 30.043821
_cell_angle_alpha 90.000000
_cell_angle_beta 146.091575
_cell_angle_gamma 90.000000
_cell_volume 3202.499053
_symmetry_space_group_name_H-M "C 2/C"
_symmetry_group_IT_number 15
_symmetry_cell_setting 'monoclinic'
loop_
_space_group_symop_operation_xyz
x,y,z
-x,y,1/2-z
-x,-y,-z
x,-y,1/2+z
1/2+x,1/2+y,z
1/2-x,1/2+y,1/2-z
1/2-x,1/2-y,-z
1/2+x,1/2-y,1/2+z
loop_
_atom_site_type_symbol
_atom_site_label
_atom_site_fract_x
_atom_site_fract_y
_atom_site_fract_z
Si Si1 0.825967 0.165517 0.478795
Si Si2 0.756138 0.418095 0.463387
Si Si3 0.256882 0.823638 0.789724
Si Si4 0.663409 0.080392 0.328109
Si Si5 0.738273 0.290368 0.304015
Si Si6 0.630300 0.411241 0.127818
Si Si7 0.036333 0.516689 0.569941
Si Si8 0.544619 0.509681 0.685270
O O1 0.809516 0.304598 0.460415
O O2 0.806543 0.135749 0.520898
O O3 0.704308 0.088635 0.398739
O O4 0.983665 0.127021 0.535566
O O5 0.622339 0.487140 0.380181
O O6 0.884258 0.512260 0.525143
O O7 0.269385 0.793749 0.742915
O O8 0.268404 0.701294 0.820051
O O9 0.102733 0.882010 0.727113
O O10 0.375215 0.912365 0.864812
O O11 0.500000 0.038225 0.250000
O O12 0.692702 0.210121 0.323641
O O13 0.774535 0.994076 0.357518
O O14 0.889359 0.357445 0.384288
O O15 0.616661 0.387949 0.246848
O O16 0.590672 0.474300 0.155376
O O17 0.000000 0.500000 0.500000
#
# Coordination Sequence:
#
# PCOD8138690 Si02
#       8
#     8   8   8   8   8   8   8   8
#     4  10  21  36  62  90 125 160 200 268 307 378
#     4  10  20  38  64  92 118 159 215 252 322 368
#     4  10  20  40  64  85 125 168 204 254 319 386
#     4  12  24  36  60  93 126 155 216 262 308 375
#     4  10  22  37  61  89 124 169 210 257 320 377
#     4  10  20  38  60  87 125 166 199 247 325 369
#     4  11  23  40  65  94 124 167 215 267 314 378
#     4   9  19  37  63  90 118 162 207 259 305 377
#
# _framework density 19.984394000000002
#
# number of rings (size 3 to 8) (size 9 to 14) (size 15 to 20)
#    0.000    1.750    2.500    1.875    3.500    0.000 
#    0.000    3.750    0.000    0.000    0.000    0.000 
#    0.000    0.000    0.000    0.000    0.000    0.000 
#
# Total GULP energy -396435.753147 kJ/mol
# GULP energy per Si atom -12388.617286 kJ/mol
# Density = 1.993891 g / cm^3
# Si number density = 19.984394 Si / 1000 Ang^3
#
#
#
# Elastic Constant Matrix: (Units=GPa)
#
#
# Indices 1 2 3 4 5 6 
#
# 1 58.2348 27.4374 39.4654 0.0000 24.4108 0.0000
# 2 27.4374 44.9584 37.5854 0.0000 2.7433 -0.0001
# 3 39.4654 37.5854 137.2054 0.0000 23.6008 -0.0003
# 4 0.0000 0.0000 0.0000 37.7014 0.0000 18.1861
# 5 24.4108 2.7433 23.6008 0.0000 38.6649 -0.0001
# 6 0.0000 -0.0001 -0.0003 18.1861 -0.0001 68.5575
#
#
#
# Elastic Compliance Matrix: (Units=1/GPa)
#
#
# Indices 1 2 3 4 5 6 
#
# 1 0.035847 -0.019378 -0.001504 0.000000 -0.020339 0.000000
# 2 -0.019378 0.039662 -0.007722 0.000000 0.014134 0.000000
# 3 -0.001504 -0.007722 0.010702 0.000000 -0.005035 0.000000
# 4 0.000000 0.000000 0.000000 0.030416 0.000000 -0.008068
# 5 -0.020339 0.014134 -0.005035 0.000000 0.040775 0.000000
# 6 0.000000 0.000000 0.000000 -0.008068 0.000000 0.016727
#
#
# Mechanical properties :
#
#
# Convention : Reuss Voigt Hill
#
# Bulk Modulus (GPa) = 34.47966 49.93055 42.20511
# Shear Modulus (GPa) = 20.74643 38.04547 29.39595
#
# Velocity S-wave (km/s) = 3.22550 4.36794 3.83945
# Velocity P-wave (km/s) = 5.58234 7.10476 6.38906
#
# Compressibility (1/GPa) = 0.02900260
#
# Stress axis : x y z
#
# Youngs Moduli (GPa) = 27.89652 25.21282 93.43668
#
# Poissons Ratio (x) = 0.48858 0.14053
# Poissons Ratio (y) = 0.54059 0.72153
# Poissons Ratio (z) = 0.04196 0.19470
#
# Static dielectric constant tensor:
#      x y z
#    x 3.392600 0.000000 0.040490 
#    y 0.000000 3.737610 0.000000 
#    z 0.040490 0.000000 4.064370 
# 
# 
# High freq. dielectric constant tensor:
#      x y z
#    x 1.756130 0.000000 0.002670 
#    y 0.000000 1.774180 0.000000 
#    z 0.002670 0.000000 1.799820 
# 
# From -- ./inp_files/296161.got.cif
#   From: 2010.06.25/outbox.cif.g09.slc.cpg/sg15_149_cif.got.tgz:296161.got - 2010.06.28 07:06:18.
