data_PCOD8138162
_publ_section_title
;
Structure prediction by ZEFSAII (Michael W. Deem and Ramdas Pophale) SiO2 
 PCOD8138162
Probable space group: C 2/C
;
_chemical_formula_sum "Si O2"
_cell_formula_units_Z 48
_cell_length_a 8.513340
_cell_length_b 17.679857
_cell_length_c 15.136874
_cell_angle_alpha 90.000000
_cell_angle_beta 93.442983
_cell_angle_gamma 90.000000
_cell_volume 2274.208804
_symmetry_space_group_name_H-M "C 2/C"
_symmetry_group_IT_number 15
_symmetry_cell_setting 'monoclinic'
loop_
_space_group_symop_operation_xyz
x,y,z
-x,y,1/2-z
-x,-y,-z
x,-y,1/2+z
1/2+x,1/2+y,z
1/2-x,1/2+y,1/2-z
1/2-x,1/2-y,-z
1/2+x,1/2-y,1/2+z
loop_
_atom_site_type_symbol
_atom_site_label
_atom_site_fract_x
_atom_site_fract_y
_atom_site_fract_z
Si Si1 0.153601 0.550346 0.406984
Si Si2 0.707586 0.980207 0.591130
Si Si3 0.601898 0.339362 0.842142
Si Si4 0.804555 0.788371 0.912581
Si Si5 0.180536 0.224242 0.738561
Si Si6 0.179704 0.570583 0.759106
O O1 0.237486 0.516133 0.496201
O O2 0.211957 0.634417 0.390363
O O3 0.202174 0.500014 0.325019
O O4 0.966416 0.554921 0.410746
O O5 0.835824 0.916756 0.614932
O O6 0.731195 0.046209 0.663128
O O7 0.500000 0.354320 0.750000
O O8 0.491895 0.303498 0.915206
O O9 0.748745 0.284096 0.828559
O O10 0.769828 0.728842 0.834468
O O11 0.750000 0.750000 0.000000
O O12 0.210123 0.139256 0.703988
O O13 0.000000 0.242542 0.750000
O O14 0.000000 0.599136 0.750000
#
# Coordination Sequence:
#
# PCOD8138162 Si02
#       6
#     8   8   8   8   8   8
#     4  10  22  38  62  90 119 159 201 245 302 362
#     4  10  21  39  61  88 122 158 199 249 303 359
#     4  10  22  39  61  86 120 162 201 248 302 359
#     4  11  23  40  61  88 122 157 199 250 300 354
#     4  11  23  39  61  87 118 159 202 245 299 361
#     4  10  20  37  60  87 121 156 195 246 301 358
#
# _framework density 21.10624
#
# number of rings (size 3 to 8) (size 9 to 14) (size 15 to 20)
#    0.000    1.667    0.000    5.500    0.000    8.000 
#    0.000    2.500    0.000    0.000    0.000    0.000 
#    0.000    0.000    0.000    0.000    0.000    0.000 
#
# Total GULP energy -297683.219479 kJ/mol
# GULP energy per Si atom -12403.467478 kJ/mol
# Density = 2.105820 g / cm^3
# Si number density = 21.106240 Si / 1000 Ang^3
#
#
#
# Elastic Constant Matrix: (Units=GPa)
#
#
# Indices 1 2 3 4 5 6 
#
# 1 104.0147 40.5030 16.0756 0.0000 -12.9637 0.0000
# 2 40.5030 98.9437 18.0634 0.0000 1.3071 0.0000
# 3 16.0756 18.0634 82.6683 0.0000 -5.5088 0.0000
# 4 0.0000 0.0000 0.0000 30.7352 0.0000 5.1802
# 5 -12.9637 1.3071 -5.5088 0.0000 26.8783 0.0000
# 6 0.0000 0.0000 0.0000 5.1802 0.0000 33.3326
#
#
#
# Elastic Compliance Matrix: (Units=1/GPa)
#
#
# Indices 1 2 3 4 5 6 
#
# 1 0.012465 -0.005014 -0.000924 0.000000 0.006067 0.000000
# 2 -0.005014 0.012570 -0.002001 0.000000 -0.003440 0.000000
# 3 -0.000924 -0.002001 0.012866 0.000000 0.002289 0.000000
# 4 0.000000 0.000000 0.000000 0.033411 0.000000 -0.005192
# 5 0.006067 -0.003440 0.002289 0.000000 0.040767 0.000000
# 6 0.000000 0.000000 0.000000 -0.005192 0.000000 0.030808
#
#
# Mechanical properties :
#
#
# Convention : Reuss Voigt Hill
#
# Bulk Modulus (GPa) = 45.40665 48.32343 46.86504
# Shear Modulus (GPa) = 30.10114 32.25486 31.17800
#
# Velocity S-wave (km/s) = 3.78057 3.91348 3.84760
# Velocity P-wave (km/s) = 6.37315 6.58525 6.48006
#
# Compressibility (1/GPa) = 0.02202320
#
# Stress axis : x y z
#
# Youngs Moduli (GPa) = 80.22146 79.55409 77.72477
#
# Poissons Ratio (x) = 0.39890 0.07183
# Poissons Ratio (y) = 0.40225 0.15551
# Poissons Ratio (z) = 0.07413 0.15917
#
# Static dielectric constant tensor:
#      x y z
#    x 3.886090 0.000000 -0.166970 
#    y 0.000000 3.682680 0.000000 
#    z -0.166970 0.000000 3.829810 
# 
# 
# High freq. dielectric constant tensor:
#      x y z
#    x 1.826170 0.000000 -0.013030 
#    y 0.000000 1.835120 0.000000 
#    z -0.013030 0.000000 1.822740 
# 
# From -- ./inp_files/134821.got.cif
#   From: 2010.06.25/outbox.cif.g09.slc.cpg/sg15_68_cif.got.tgz:134821.got - 2010.06.28 07:06:18.
