data_PCOD8138798
_publ_section_title
;
Structure prediction by ZEFSAII (Michael W. Deem and Ramdas Pophale) SiO2 
 PCOD8138798
Probable space group: C 2/C
;
_chemical_formula_sum "Si O2"
_cell_formula_units_Z 44
_cell_length_a 13.689623
_cell_length_b 26.650336
_cell_length_c 7.645712
_cell_angle_alpha 90.000000
_cell_angle_beta 48.974944
_cell_angle_gamma 90.000000
_cell_volume 2104.392794
_symmetry_space_group_name_H-M "C 2/C"
_symmetry_group_IT_number 15
_symmetry_cell_setting 'monoclinic'
loop_
_space_group_symop_operation_xyz
x,y,z
-x,y,1/2-z
-x,-y,-z
x,-y,1/2+z
1/2+x,1/2+y,z
1/2-x,1/2+y,1/2-z
1/2-x,1/2-y,-z
1/2+x,1/2-y,1/2+z
loop_
_atom_site_type_symbol
_atom_site_label
_atom_site_fract_x
_atom_site_fract_y
_atom_site_fract_z
Si Si1 0.827654 0.539111 0.080110
Si Si2 0.387910 0.601709 0.006990
Si Si3 0.500000 0.764222 0.750000
Si Si4 0.785319 0.342074 0.061907
Si Si5 0.098127 0.564513 0.892727
Si Si6 0.970115 0.811814 0.979136
O O1 0.688195 0.555574 0.316485
O O2 0.836087 0.478586 0.064261
O O3 0.842837 0.561507 0.869921
O O4 0.942705 0.558596 0.071492
O O5 0.500000 0.579238 0.750000
O O6 0.289183 0.635689 0.015268
O O7 0.452838 0.636310 0.078701
O O8 0.627810 0.797631 0.615981
O O9 0.516477 0.730197 0.559950
O O10 0.875144 0.382173 0.053845
O O11 0.683214 0.320829 0.322085
O O12 0.000000 0.792318 0.750000
#
# Coordination Sequence:
#
# PCOD8138798 Si02
#       6
#     8   8   4   8   8   8
#     4  10  20  38  61  92 125 159 207 249 311 369
#     4  10  21  40  63  89 126 162 200 253 310 372
#     4  12  24  44  64  90 124 168 208 266 312 362
#     4  11  22  41  63  89 125 163 207 258 316 361
#     4  10  21  37  62  92 122 161 203 259 304 367
#     4  11  24  43  63  90 126 162 208 261 309 373
#
# _framework density 20.908645
#
# number of rings (size 3 to 8) (size 9 to 14) (size 15 to 20)
#    0.000    1.455    2.727    3.818    0.000    3.636 
#    6.545    9.091    0.000    0.000    0.000    0.000 
#    0.000    0.000    0.000    0.000    0.000    0.000 
#
# Total GULP energy -272905.740673 kJ/mol
# GULP energy per Si atom -12404.806394 kJ/mol
# Density = 2.086106 g / cm^3
# Si number density = 20.908645 Si / 1000 Ang^3
#
#
#
# Elastic Constant Matrix: (Units=GPa)
#
#
# Indices 1 2 3 4 5 6 
#
# 1 60.0650 19.5705 29.7608 0.0000 -1.0263 0.0000
# 2 19.5705 72.8197 28.7604 0.0000 -5.7299 0.0000
# 3 29.7608 28.7604 115.5663 0.0000 -3.7540 0.0000
# 4 0.0000 0.0000 0.0000 33.5424 0.0000 -11.8074
# 5 -1.0263 -5.7299 -3.7540 0.0000 39.8313 0.0000
# 6 0.0000 0.0000 0.0000 -11.8074 0.0000 14.9204
#
#
#
# Elastic Compliance Matrix: (Units=1/GPa)
#
#
# Indices 1 2 3 4 5 6 
#
# 1 0.019948 -0.003726 -0.004223 0.000000 -0.000420 0.000000
# 2 -0.003726 0.016061 -0.002975 0.000000 0.001934 0.000000
# 3 -0.004223 -0.002975 0.010496 0.000000 0.000452 0.000000
# 4 0.000000 0.000000 0.000000 0.041325 0.000000 0.032703
# 5 -0.000420 0.001934 0.000452 0.000000 0.025416 0.000000
# 6 0.000000 0.000000 0.000000 0.032703 0.000000 0.092902
#
#
# Mechanical properties :
#
#
# Convention : Reuss Voigt Hill
#
# Bulk Modulus (GPa) = 40.55742 44.95940 42.75841
# Shear Modulus (GPa) = 21.16722 29.01610 25.09166
#
# Velocity S-wave (km/s) = 3.18522 3.72930 3.46795
# Velocity P-wave (km/s) = 5.74170 6.33191 6.04401
#
# Compressibility (1/GPa) = 0.02465640
#
# Stress axis : x y z
#
# Youngs Moduli (GPa) = 50.13013 62.26274 95.27770
#
# Poissons Ratio (x) = 0.23200 0.40240
# Poissons Ratio (y) = 0.18679 0.28342
# Poissons Ratio (z) = 0.21172 0.18521
#
# Static dielectric constant tensor:
#      x y z
#    x 3.939820 0.000000 -0.204480 
#    y 0.000000 3.724290 0.000000 
#    z -0.204480 0.000000 3.895540 
# 
# 
# High freq. dielectric constant tensor:
#      x y z
#    x 1.816990 0.000000 -0.005620 
#    y 0.000000 1.811270 0.000000 
#    z -0.005620 0.000000 1.829130 
# 
# From -- ./inp_files/42015.got.cif
#   From: 2010.06.25/outbox.cif.g09.slc.cpg/sg15_22_cif.got.tgz:42015.got - 2010.06.28 07:06:18.
