data_PCOD8138832
_publ_section_title
;
Structure prediction by ZEFSAII (Michael W. Deem and Ramdas Pophale) SiO2 
 PCOD8138832
Probable space group: C 2/C
;
_chemical_formula_sum "Si O2"
_cell_formula_units_Z 40
_cell_length_a 12.326128
_cell_length_b 13.781565
_cell_length_c 11.691375
_cell_angle_alpha 90.000000
_cell_angle_beta 105.040203
_cell_angle_gamma 90.000000
_cell_volume 1918.018590
_symmetry_space_group_name_H-M "C 2/C"
_symmetry_group_IT_number 15
_symmetry_cell_setting 'monoclinic'
loop_
_space_group_symop_operation_xyz
x,y,z
-x,y,1/2-z
-x,-y,-z
x,-y,1/2+z
1/2+x,1/2+y,z
1/2-x,1/2+y,1/2-z
1/2-x,1/2-y,-z
1/2+x,1/2-y,1/2+z
loop_
_atom_site_type_symbol
_atom_site_label
_atom_site_fract_x
_atom_site_fract_y
_atom_site_fract_z
Si Si1 0.500000 0.406067 0.250000
Si Si2 0.159504 0.506311 0.131248
Si Si3 0.840493 0.993688 0.868751
Si Si4 0.303747 0.351008 0.048465
Si Si5 0.303747 0.148992 0.548466
Si Si6 0.000000 0.406067 0.250000
O O1 0.543758 0.475943 0.160500
O O2 0.399550 0.339025 0.172804
O O3 0.249996 0.537214 0.250001
O O4 0.202792 0.416809 0.067075
O O5 0.043754 0.475943 0.160497
O O6 0.138507 0.599950 0.046418
O O7 0.797207 0.083189 0.932929
O O8 0.861493 0.900053 0.953584
O O9 0.250000 0.250000 0.000000
O O10 0.250000 0.250000 0.500000
O O11 0.399548 0.160974 0.672807
#
# Coordination Sequence:
#
# PCOD8138832 Si02
#       6
#     4   8   8   8   8   4
#     4  10  20  38  62  86 116 156 194 234 290 344
#     4   9  20  38  59  84 115 151 192 237 286 343
#     4   9  20  38  59  84 115 151 192 237 286 343
#     4  10  21  38  58  85 119 151 190 239 287 340
#     4  10  21  38  58  85 119 151 190 239 287 340
#     4  10  20  38  62  86 116 156 194 234 290 344
#
# _framework density 20.854854
#
# number of rings (size 3 to 8) (size 9 to 14) (size 15 to 20)
#    0.000    2.400    0.000    1.200    0.000    6.400 
#    0.000   20.000    0.000    0.000    0.000    0.000 
#    0.000    0.000    0.000    0.000    0.000    0.000 
#
# Total GULP energy -248027.081336 kJ/mol
# GULP energy per Si atom -12401.354067 kJ/mol
# Density = 2.080739 g / cm^3
# Si number density = 20.854854 Si / 1000 Ang^3
#
#
#
# Elastic Constant Matrix: (Units=GPa)
#
#
# Indices 1 2 3 4 5 6 
#
# 1 110.6193 51.3744 37.6472 0.0000 -14.1771 0.0000
# 2 51.3744 138.8198 75.8144 0.0000 5.0578 0.0000
# 3 37.6472 75.8144 105.1313 0.0000 -7.1803 0.0000
# 4 0.0000 0.0000 0.0000 26.7994 0.0000 5.0462
# 5 -14.1771 5.0578 -7.1803 0.0000 41.7743 0.0000
# 6 0.0000 0.0000 0.0000 5.0462 0.0000 10.9213
#
#
#
# Elastic Compliance Matrix: (Units=1/GPa)
#
#
# Indices 1 2 3 4 5 6 
#
# 1 0.011782 -0.003913 -0.001105 0.000000 0.004282 0.000000
# 2 -0.003913 0.013553 -0.008677 0.000000 -0.004460 0.000000
# 3 -0.001105 -0.008677 0.016404 0.000000 0.003495 0.000000
# 4 0.000000 0.000000 0.000000 0.040870 0.000000 -0.018884
# 5 0.004282 -0.004460 0.003495 0.000000 0.026532 0.000000
# 6 0.000000 0.000000 0.000000 -0.018884 0.000000 0.100290
#
#
# Mechanical properties :
#
#
# Convention : Reuss Voigt Hill
#
# Bulk Modulus (GPa) = 69.69096 76.02694 72.85895
# Shear Modulus (GPa) = 20.69503 28.54797 24.62150
#
# Velocity S-wave (km/s) = 3.15355 3.70386 3.43973
# Velocity P-wave (km/s) = 6.83736 7.40445 7.12655
#
# Compressibility (1/GPa) = 0.01434906
#
# Stress axis : x y z
#
# Youngs Moduli (GPa) = 84.87414 73.78413 60.96199
#
# Poissons Ratio (x) = 0.28871 0.06736
# Poissons Ratio (y) = 0.33211 0.52897
# Poissons Ratio (z) = 0.09378 0.64023
#
# Static dielectric constant tensor:
#      x y z
#    x 3.839390 0.000000 -0.171540 
#    y 0.000000 3.322820 0.000000 
#    z -0.171540 0.000000 4.098680 
# 
# 
# High freq. dielectric constant tensor:
#      x y z
#    x 1.820080 0.000000 -0.005160 
#    y 0.000000 1.778100 0.000000 
#    z -0.005160 0.000000 1.840350 
# 
# From -- ./inp_files/85565.got.cif
#   From: 2010.06.25/outbox.cif.g09.slc.cpg/sg15_43_cif.got.tgz:85565.got - 2010.06.28 07:06:18.
