data_PCOD8138328
_publ_section_title
;
Structure prediction by ZEFSAII (Michael W. Deem and Ramdas Pophale) SiO2 
 PCOD8138328
Probable space group: C 2/C
;
_chemical_formula_sum "Si O2"
_cell_formula_units_Z 60
_cell_length_a 18.499744
_cell_length_b 25.451494
_cell_length_c 12.631354
_cell_angle_alpha 90.000000
_cell_angle_beta 153.586747
_cell_angle_gamma 90.000000
_cell_volume 2645.666115
_symmetry_space_group_name_H-M "C 2/C"
_symmetry_group_IT_number 15
_symmetry_cell_setting 'monoclinic'
loop_
_space_group_symop_operation_xyz
x,y,z
-x,y,1/2-z
-x,-y,-z
x,-y,1/2+z
1/2+x,1/2+y,z
1/2-x,1/2+y,1/2-z
1/2-x,1/2-y,-z
1/2+x,1/2-y,1/2+z
loop_
_atom_site_type_symbol
_atom_site_label
_atom_site_fract_x
_atom_site_fract_y
_atom_site_fract_z
Si Si1 0.476708 0.098654 0.488817
Si Si2 0.000000 0.052609 0.250000
Si Si3 0.185444 0.776765 0.017834
Si Si4 0.704518 0.480725 0.667275
Si Si5 0.754166 0.177211 0.222818
Si Si6 0.476854 0.389366 0.345629
Si Si7 0.840932 0.429320 0.474092
Si Si8 0.232563 0.377334 0.471902
O O1 0.360740 0.048193 0.322109
O O2 0.368485 0.152278 0.351337
O O3 0.604201 0.100992 0.559702
O O4 0.575324 0.089569 0.728603
O O5 0.102943 0.088685 0.304457
O O6 0.131186 0.018038 0.482245
O O7 0.000000 0.784750 0.750000
O O8 0.250000 0.750000 0.000000
O O9 0.227273 0.740342 0.175625
O O10 0.260703 0.835125 0.118281
O O11 0.572794 0.437170 0.529043
O O12 0.755519 0.514880 0.836159
O O13 0.940406 0.164661 0.502218
O O14 0.705894 0.149890 0.048994
O O15 0.500000 0.393693 0.250000
O O16 0.287594 0.392698 0.130049
O O17 0.000000 0.440600 0.750000
#
# Coordination Sequence:
#
# PCOD8138328 Si02
#       8
#     8   4   8   8   8   8   8   8
#     4  11  24  42  59  97 135 175 220 273 330 395
#     4  12  22  38  64  92 136 176 226 266 336 392
#     4  10  20  37  62  99 131 166 211 272 339 398
#     4  11  24  41  62  91 133 182 227 276 329 401
#     4  10  22  40  65  95 131 178 215 278 343 399
#     4  11  24  45  63  92 134 178 231 281 330 403
#     4  12  25  40  63  92 129 183 229 283 333 396
#     4  11  22  38  66  96 138 170 220 276 336 404
#
# _framework density 22.678598999999998
#
# number of rings (size 3 to 8) (size 9 to 14) (size 15 to 20)
#    0.000    1.067    2.667    5.200    0.000    3.200 
#    0.000    0.000    0.000    0.800    0.000   10.267 
#    2.000    0.000    0.000    0.000    0.000    0.000 
#
# Total GULP energy -371825.494468 kJ/mol
# GULP energy per Si atom -12394.183149 kJ/mol
# Density = 2.262698 g / cm^3
# Si number density = 22.678599 Si / 1000 Ang^3
#
#
#
# Elastic Constant Matrix: (Units=GPa)
#
#
# Indices 1 2 3 4 5 6 
#
# 1 95.8969 20.4652 31.0319 0.0000 11.3094 0.0000
# 2 20.4652 93.7703 32.1090 0.0000 -2.4888 0.0000
# 3 31.0319 32.1090 132.7318 0.0000 -0.3080 0.0000
# 4 0.0000 0.0000 0.0000 19.7127 0.0000 -1.9153
# 5 11.3094 -2.4888 -0.3080 0.0000 36.1398 0.0000
# 6 0.0000 0.0000 0.0000 -1.9153 0.0000 16.8088
#
#
#
# Elastic Compliance Matrix: (Units=1/GPa)
#
#
# Indices 1 2 3 4 5 6 
#
# 1 0.012068 -0.001929 -0.002364 0.000000 -0.003929 0.000000
# 2 -0.001929 0.011958 -0.002438 0.000000 0.001406 0.000000
# 3 -0.002364 -0.002438 0.008678 0.000000 0.000646 0.000000
# 4 0.000000 0.000000 0.000000 0.051297 0.000000 0.005845
# 5 -0.003929 0.001406 0.000646 0.000000 0.029002 0.000000
# 6 0.000000 0.000000 0.000000 0.005845 0.000000 0.060159
#
#
# Mechanical properties :
#
#
# Convention : Reuss Voigt Hill
#
# Bulk Modulus (GPa) = 51.97135 54.40125 53.18630
# Shear Modulus (GPa) = 25.90179 30.45180 28.17679
#
# Velocity S-wave (km/s) = 3.38320 3.66834 3.52865
# Velocity P-wave (km/s) = 6.18285 6.47937 6.33285
#
# Compressibility (1/GPa) = 0.01924137
#
# Stress axis : x y z
#
# Youngs Moduli (GPa) = 82.86507 83.62891 115.23318
#
# Poissons Ratio (x) = 0.16129 0.27241
# Poissons Ratio (y) = 0.15981 0.28099
# Poissons Ratio (z) = 0.19589 0.20393
#
# Static dielectric constant tensor:
#      x y z
#    x 4.038840 0.000000 0.177950 
#    y 0.000000 4.878120 0.000000 
#    z 0.177950 0.000000 4.317170 
# 
# 
# High freq. dielectric constant tensor:
#      x y z
#    x 1.883570 0.000000 0.021520 
#    y 0.000000 1.876140 0.000000 
#    z 0.021520 0.000000 1.905210 
# 
# From -- ./inp_files/108431.got.cif
#   From: 2010.06.25/outbox.cif.g09.slc.cpg/sg15_55_cif.got.tgz:108431.got - 2010.06.28 07:06:18.
