data_PCOD8138541
_publ_section_title
;
Structure prediction by ZEFSAII (Michael W. Deem and Ramdas Pophale) SiO2 
 PCOD8138541
Probable space group: C 2/C
;
_chemical_formula_sum "Si O2"
_cell_formula_units_Z 56
_cell_length_a 8.877825
_cell_length_b 16.411910
_cell_length_c 21.343032
_cell_angle_alpha 90.000000
_cell_angle_beta 78.658006
_cell_angle_gamma 90.000000
_cell_volume 3048.993352
_symmetry_space_group_name_H-M "C 2/C"
_symmetry_group_IT_number 15
_symmetry_cell_setting 'monoclinic'
loop_
_space_group_symop_operation_xyz
x,y,z
-x,y,1/2-z
-x,-y,-z
x,-y,1/2+z
1/2+x,1/2+y,z
1/2-x,1/2+y,1/2-z
1/2-x,1/2-y,-z
1/2+x,1/2-y,1/2+z
loop_
_atom_site_type_symbol
_atom_site_label
_atom_site_fract_x
_atom_site_fract_y
_atom_site_fract_z
Si Si1 0.355920 0.593415 0.223623
Si Si2 0.248036 0.022417 0.000990
Si Si3 0.704382 0.743598 0.431745
Si Si4 0.075645 0.480299 0.805614
Si Si5 0.556629 0.428230 0.916962
Si Si6 0.097749 0.310887 0.687739
Si Si7 0.946421 0.411020 0.069910
O O1 0.500000 0.627452 0.250000
O O2 0.255235 0.534786 0.276601
O O3 0.414635 0.545917 0.157127
O O4 0.258607 0.670436 0.208554
O O5 0.380108 0.086279 0.970700
O O6 0.157609 0.991484 0.947862
O O7 0.125539 0.066380 0.055808
O O8 0.326585 0.947048 0.029878
O O9 0.750000 0.750000 0.500000
O O10 0.606849 0.662904 0.428799
O O11 0.862920 0.741978 0.377192
O O12 0.599599 0.817739 0.416449
O O13 0.059885 0.539752 0.865001
O O14 0.000000 0.521112 0.750000
O O15 0.987376 0.394638 0.826165
O O16 0.000000 0.263968 0.750000
#
# Coordination Sequence:
#
# PCOD8138541 Si02
#       7
#     8   8   8   8   8   8   8
#     4   9  16  30  55  82 103 134 183 224 267 317
#     4  10  21  35  57  79 110 144 190 222 271 323
#     4  11  21  36  57  83 115 146 183 230 286 327
#     4   9  18  34  58  79 104 144 188 223 265 330
#     4  10  20  38  56  80 115 144 178 231 279 326
#     4   8  18  36  58  76 107 150 186 220 276 336
#     4  11  21  34  57  85 107 146 187 227 269 330
#
# _framework density 18.366717000000001
#
# number of rings (size 3 to 8) (size 9 to 14) (size 15 to 20)
#    0.000    2.571    1.429    3.429    2.000    0.571 
#    0.000    5.000    3.143    0.000    0.000    0.000 
#    0.000    0.000    0.000    0.000    0.000    0.000 
#
# Total GULP energy -347037.003974 kJ/mol
# GULP energy per Si atom -12394.178713 kJ/mol
# Density = 1.832491 g / cm^3
# Si number density = 18.366717 Si / 1000 Ang^3
#
#
#
# Elastic Constant Matrix: (Units=GPa)
#
#
# Indices 1 2 3 4 5 6 
#
# 1 124.8670 29.3828 60.5822 0.0000 -20.1815 0.0000
# 2 29.3828 58.7388 13.0016 0.0000 -16.6894 0.0000
# 3 60.5822 13.0016 111.0457 0.0000 -23.3276 0.0000
# 4 0.0000 0.0000 0.0000 27.5189 0.0000 -1.9702
# 5 -20.1815 -16.6894 -23.3276 0.0000 38.5646 0.0000
# 6 0.0000 0.0000 0.0000 -1.9702 0.0000 15.4604
#
#
#
# Elastic Compliance Matrix: (Units=1/GPa)
#
#
# Indices 1 2 3 4 5 6 
#
# 1 0.012048 -0.004498 -0.005878 0.000000 0.000803 0.000000
# 2 -0.004498 0.021123 0.001611 0.000000 0.007762 0.000000
# 3 -0.005878 0.001611 0.013201 0.000000 0.005607 0.000000
# 4 0.000000 0.000000 0.000000 0.036673 0.000000 0.004674
# 5 0.000803 0.007762 0.005607 0.000000 0.033102 0.000000
# 6 0.000000 0.000000 0.000000 0.004674 0.000000 0.065277
#
#
# Mechanical properties :
#
#
# Convention : Reuss Voigt Hill
#
# Bulk Modulus (GPa) = 34.66890 55.62054 45.14472
# Shear Modulus (GPa) = 23.97296 29.08777 26.53036
#
# Velocity S-wave (km/s) = 3.61673 3.98392 3.80476
# Velocity P-wave (km/s) = 6.02975 7.17713 6.62831
#
# Compressibility (1/GPa) = 0.02884430
#
# Stress axis : x y z
#
# Youngs Moduli (GPa) = 82.99793 47.34115 75.75083
#
# Poissons Ratio (x) = 0.21293 0.44525
# Poissons Ratio (y) = 0.37330 -0.12205
# Poissons Ratio (z) = 0.48785 -0.07628
#
# Static dielectric constant tensor:
#      x y z
#    x 3.560400 0.000000 -0.269030 
#    y 0.000000 3.002510 0.000000 
#    z -0.269030 0.000000 3.794760 
# 
# 
# High freq. dielectric constant tensor:
#      x y z
#    x 1.721350 0.000000 -0.010640 
#    y 0.000000 1.665660 0.000000 
#    z -0.010640 0.000000 1.734980 
# 
# From -- ./inp_files/232141.got.cif
#   From: 2010.06.25/outbox.cif.g09.slc.cpg/sg15_117_cif.got.tgz:232141.got - 2010.06.28 07:06:18.
