data_PCOD8138358
_publ_section_title
;
Structure prediction by ZEFSAII (Michael W. Deem and Ramdas Pophale) SiO2 
 PCOD8138358
Probable space group: C 2/C
;
_chemical_formula_sum "Si O2"
_cell_formula_units_Z 40
_cell_length_a 16.072691
_cell_length_b 8.953374
_cell_length_c 30.073422
_cell_angle_alpha 90.000000
_cell_angle_beta 155.124217
_cell_angle_gamma 90.000000
_cell_volume 1820.461673
_symmetry_space_group_name_H-M "C 2/C"
_symmetry_group_IT_number 15
_symmetry_cell_setting 'monoclinic'
loop_
_space_group_symop_operation_xyz
x,y,z
-x,y,1/2-z
-x,-y,-z
x,-y,1/2+z
1/2+x,1/2+y,z
1/2-x,1/2+y,1/2-z
1/2-x,1/2-y,-z
1/2+x,1/2-y,1/2+z
loop_
_atom_site_type_symbol
_atom_site_label
_atom_site_fract_x
_atom_site_fract_y
_atom_site_fract_z
Si Si1 0.883657 0.652833 0.532332
Si Si2 0.594126 0.347663 0.123405
Si Si3 0.290577 0.193556 0.628071
Si Si4 0.163638 0.425730 0.918984
Si Si5 0.750184 0.336938 0.727399
O O1 0.750000 0.750000 0.500000
O O2 0.788236 0.660083 0.436682
O O3 0.888007 0.488983 0.556363
O O4 0.104747 0.718493 0.633985
O O5 0.639644 0.354030 0.093433
O O6 0.654081 0.499924 0.177779
O O7 0.718321 0.213163 0.205862
O O8 0.358552 0.322784 0.015966
O O9 0.500000 0.235380 0.750000
O O10 0.301387 0.055778 0.599617
O O11 0.967600 0.333307 0.809191
#
# Coordination Sequence:
#
# PCOD8138358 Si02
#       5
#     8   8   8   8   8
#     4  10  20  37  63  90 124 160 205 249 311 366
#     4  12  24  39  67  92 129 161 213 254 312 364
#     4  11  21  37  64  99 120 163 214 257 297 373
#     4  11  23  40  65  95 123 166 205 261 308 374
#     4  12  22  41  62  94 125 167 204 257 312 368
#
# _framework density 21.972448
#
# number of rings (size 3 to 8) (size 9 to 14) (size 15 to 20)
#    0.000    0.800    8.000    2.400    0.000    0.000 
#    0.000    1.000    0.000    0.000    0.000    0.000 
#    0.000    0.000    0.000    0.000    0.000    0.000 
#
# Total GULP energy -247901.678902 kJ/mol
# GULP energy per Si atom -12395.083945 kJ/mol
# Density = 2.192244 g / cm^3
# Si number density = 21.972448 Si / 1000 Ang^3
#
#
#
# Elastic Constant Matrix: (Units=GPa)
#
#
# Indices 1 2 3 4 5 6 
#
# 1 101.6261 43.5951 58.5031 0.0004 -3.5363 -0.0002
# 2 43.5951 45.4358 28.9303 0.0015 -5.1311 -0.0006
# 3 58.5031 28.9303 165.0240 0.0044 14.9385 -0.0022
# 4 0.0004 0.0015 0.0044 28.4516 0.0002 2.6704
# 5 -3.5363 -5.1311 14.9385 0.0002 49.0178 -0.0001
# 6 -0.0002 -0.0006 -0.0022 2.6704 -0.0001 13.8984
#
#
#
# Elastic Compliance Matrix: (Units=1/GPa)
#
#
# Indices 1 2 3 4 5 6 
#
# 1 0.018789 -0.015329 -0.004063 0.000001 0.000989 -0.000001
# 2 -0.015329 0.038079 -0.001545 -0.000002 0.003351 0.000002
# 3 -0.004063 -0.001545 0.008034 -0.000001 -0.002903 0.000001
# 4 0.000001 -0.000002 -0.000001 0.035793 0.000000 -0.006877
# 5 0.000989 0.003351 -0.002903 0.000000 0.021708 0.000000
# 6 -0.000001 0.000002 0.000001 -0.006877 0.000000 0.073272
#
#
# Mechanical properties :
#
#
# Convention : Reuss Voigt Hill
#
# Bulk Modulus (GPa) = 43.42498 63.79364 53.60931
# Shear Modulus (GPa) = 20.38941 30.34406 25.36673
#
# Velocity S-wave (km/s) = 3.04954 3.72022 3.40145
# Velocity P-wave (km/s) = 5.67502 6.89564 6.31489
#
# Compressibility (1/GPa) = 0.02302822
#
# Stress axis : x y z
#
# Youngs Moduli (GPa) = 53.22141 26.26096 124.47447
#
# Poissons Ratio (x) = 0.40256 0.50577
# Poissons Ratio (y) = 0.81585 0.19226
# Poissons Ratio (z) = 0.21625 0.04056
#
# Static dielectric constant tensor:
#      x y z
#    x 4.018290 0.000000 -0.007700 
#    y 0.000000 3.891510 0.000000 
#    z -0.007700 0.000000 4.548410 
# 
# 
# High freq. dielectric constant tensor:
#      x y z
#    x 1.847620 0.000000 0.013670 
#    y 0.000000 1.831520 0.000000 
#    z 0.013670 0.000000 1.892570 
# 
# From -- ./inp_files/295809.got.cif
#   From: 2010.06.25/outbox.cif.g09.slc.cpg/sg15_148_cif.got.tgz:295809.got - 2010.06.28 07:06:18.
