data_PCOD8138209
_publ_section_title
;
Structure prediction by ZEFSAII (Michael W. Deem and Ramdas Pophale) SiO2 
 PCOD8138209
Probable space group: C 2/C
;
_chemical_formula_sum "Si O2"
_cell_formula_units_Z 40
_cell_length_a 9.581505
_cell_length_b 10.267552
_cell_length_c 23.560784
_cell_angle_alpha 90.000000
_cell_angle_beta 63.362498
_cell_angle_gamma 90.000000
_cell_volume 2071.859756
_symmetry_space_group_name_H-M "C 2/C"
_symmetry_group_IT_number 15
_symmetry_cell_setting 'monoclinic'
loop_
_space_group_symop_operation_xyz
x,y,z
-x,y,1/2-z
-x,-y,-z
x,-y,1/2+z
1/2+x,1/2+y,z
1/2-x,1/2+y,1/2-z
1/2-x,1/2-y,-z
1/2+x,1/2-y,1/2+z
loop_
_atom_site_type_symbol
_atom_site_label
_atom_site_fract_x
_atom_site_fract_y
_atom_site_fract_z
Si Si1 0.540459 0.036706 0.613226
Si Si2 0.357857 0.143638 0.740280
Si Si3 0.884907 0.260679 0.929757
Si Si4 0.151572 0.057391 0.878681
Si Si5 0.661882 0.264621 0.869100
O O1 0.530975 0.901520 0.580658
O O2 0.438157 0.023677 0.690254
O O3 0.718222 0.073042 0.596459
O O4 0.468736 0.156444 0.589277
O O5 0.500000 0.209911 0.750000
O O6 0.217318 0.094912 0.804804
O O7 0.291530 0.246372 0.705932
O O8 0.815701 0.245119 0.879139
O O9 0.007912 0.148559 0.920893
O O10 0.750000 0.250000 0.000000
O O11 0.091239 0.908718 0.889594
#
# Coordination Sequence:
#
# PCOD8138209 Si02
#       5
#     8   8   8   8   8
#     4   8  20  39  57  82 117 148 188 239 290 337
#     4   8  17  37  60  83 116 144 187 241 297 344
#     4  11  24  39  57  86 120 157 198 234 279 343
#     4  10  20  37  61  84 116 153 187 239 296 346
#     4   9  21  39  57  90 114 150 195 234 295 340
#
# _framework density 19.306325999999999
#
# number of rings (size 3 to 8) (size 9 to 14) (size 15 to 20)
#    1.200    1.600    0.000    0.000    2.800    6.400 
#    3.600    2.000    0.000    0.000    0.000    0.000 
#    0.000    0.000    0.000    0.000    0.000    0.000 
#
# Total GULP energy -247801.279306 kJ/mol
# GULP energy per Si atom -12390.063965 kJ/mol
# Density = 1.926238 g / cm^3
# Si number density = 19.306326 Si / 1000 Ang^3
#
#
#
# Elastic Constant Matrix: (Units=GPa)
#
#
# Indices 1 2 3 4 5 6 
#
# 1 56.7725 51.3941 3.9799 0.0000 -4.0899 0.0000
# 2 51.3941 148.1243 14.0609 0.0000 -22.1071 0.0000
# 3 3.9799 14.0609 50.8546 0.0000 -18.4316 0.0000
# 4 0.0000 0.0000 0.0000 24.9041 0.0000 -8.0077
# 5 -4.0899 -22.1071 -18.4316 0.0000 25.1185 0.0000
# 6 0.0000 0.0000 0.0000 -8.0077 0.0000 35.0765
#
#
#
# Elastic Compliance Matrix: (Units=1/GPa)
#
#
# Indices 1 2 3 4 5 6 
#
# 1 0.026132 -0.009728 -0.001248 0.000000 -0.005223 0.000000
# 2 -0.009728 0.011401 0.000915 0.000000 0.009122 0.000000
# 3 -0.001248 0.000915 0.026874 0.000000 0.020322 0.000000
# 4 0.000000 0.000000 0.000000 0.043335 0.000000 0.009893
# 5 -0.005223 0.009122 0.020322 0.000000 0.061901 0.000000
# 6 0.000000 0.000000 0.000000 0.009893 0.000000 0.030768
#
#
# Mechanical properties :
#
#
# Convention : Reuss Voigt Hill
#
# Bulk Modulus (GPa) = 22.58138 43.84680 33.21409
# Shear Modulus (GPa) = 21.25009 29.44093 25.34551
#
# Velocity S-wave (km/s) = 3.32125 3.90928 3.62720
# Velocity P-wave (km/s) = 5.14095 6.56788 5.89773
#
# Compressibility (1/GPa) = 0.04428427
#
# Stress axis : x y z
#
# Youngs Moduli (GPa) = 38.26784 87.71329 37.21079
#
# Poissons Ratio (x) = 0.85325 0.04645
# Poissons Ratio (y) = 0.37226 -0.03405
# Poissons Ratio (z) = 0.04777 -0.08026
#
# Static dielectric constant tensor:
#      x y z
#    x 3.500390 0.000000 0.124020 
#    y 0.000000 3.461770 0.000000 
#    z 0.124020 0.000000 3.252610 
# 
# 
# High freq. dielectric constant tensor:
#      x y z
#    x 1.746460 0.000000 0.005920 
#    y 0.000000 1.742610 0.000000 
#    z 0.005920 0.000000 1.731770 
# 
# From -- ./inp_files/287304.got.cif
#   From: 2010.06.25/outbox.cif.g09.slc.cpg/sg15_144_cif.got.tgz:287304.got - 2010.06.28 07:06:18.
