data_PCOD8138639
_publ_section_title
;
Structure prediction by ZEFSAII (Michael W. Deem and Ramdas Pophale) SiO2 
 PCOD8138639
Probable space group: C 2/C
;
_chemical_formula_sum "Si O2"
_cell_formula_units_Z 40
_cell_length_a 20.618709
_cell_length_b 11.393301
_cell_length_c 9.038700
_cell_angle_alpha 90.000000
_cell_angle_beta 104.041927
_cell_angle_gamma 90.000000
_cell_volume 2059.879288
_symmetry_space_group_name_H-M "C 2/C"
_symmetry_group_IT_number 15
_symmetry_cell_setting 'monoclinic'
loop_
_space_group_symop_operation_xyz
x,y,z
-x,y,1/2-z
-x,-y,-z
x,-y,1/2+z
1/2+x,1/2+y,z
1/2-x,1/2+y,1/2-z
1/2-x,1/2-y,-z
1/2+x,1/2-y,1/2+z
loop_
_atom_site_type_symbol
_atom_site_label
_atom_site_fract_x
_atom_site_fract_y
_atom_site_fract_z
Si Si1 0.141389 0.741921 0.686627
Si Si2 0.492391 0.123460 0.918718
Si Si3 0.385253 0.714878 0.998160
Si Si4 0.217914 0.860987 0.268468
Si Si5 0.660802 0.468687 0.534488
O O1 0.081660 0.666854 0.583980
O O2 0.143814 0.732696 0.865409
O O3 0.210527 0.694115 0.657676
O O4 0.128607 0.874461 0.627072
O O5 0.500000 0.105326 0.750000
O O6 0.545738 0.220432 0.005623
O O7 0.500000 0.000000 0.000000
O O8 0.331668 0.736195 0.835239
O O9 0.394204 0.572707 0.024249
O O10 0.185336 0.906078 0.400994
O O11 0.223556 0.970106 0.155743
#
# Coordination Sequence:
#
# PCOD8138639 Si02
#       5
#     8   8   8   8   8
#     4  11  21  38  61  88 119 157 197 245 295 352
#     4  10  24  41  60  87 120 159 195 240 301 355
#     4   9  20  41  59  83 121 156 191 246 290 345
#     4  10  21  35  62  89 120 151 197 248 293 349
#     4  10  20  38  59  90 116 155 202 238 302 340
#
# _framework density 19.418614000000002
#
# number of rings (size 3 to 8) (size 9 to 14) (size 15 to 20)
#    1.200    0.800    2.000    1.200    0.000    7.200 
#    0.000    0.000    0.000    0.000    0.000    0.000 
#    0.000    0.000    0.000    0.000    0.000    0.000 
#
# Total GULP energy -247810.285908 kJ/mol
# GULP energy per Si atom -12390.514295 kJ/mol
# Density = 1.937442 g / cm^3
# Si number density = 19.418614 Si / 1000 Ang^3
#
#
#
# Elastic Constant Matrix: (Units=GPa)
#
#
# Indices 1 2 3 4 5 6 
#
# 1 126.3595 68.6254 47.3970 0.0000 26.3673 0.0000
# 2 68.6254 125.3746 30.5174 0.0000 17.3689 0.0000
# 3 47.3970 30.5174 57.2414 0.0000 6.6536 0.0000
# 4 0.0000 0.0000 0.0000 40.6180 0.0000 2.0202
# 5 26.3673 17.3689 6.6536 0.0000 20.0488 0.0000
# 6 0.0000 0.0000 0.0000 2.0202 0.0000 30.3100
#
#
#
# Elastic Compliance Matrix: (Units=1/GPa)
#
#
# Indices 1 2 3 4 5 6 
#
# 1 0.017727 -0.005075 -0.010166 0.000000 -0.015543 0.000000
# 2 -0.005075 0.011534 -0.001624 0.000000 -0.002779 0.000000
# 3 -0.010166 -0.001624 0.026040 0.000000 0.006134 0.000000
# 4 0.000000 0.000000 0.000000 0.024702 0.000000 -0.001646
# 5 -0.015543 -0.002779 0.006134 0.000000 0.070691 0.000000
# 6 0.000000 0.000000 0.000000 -0.001646 0.000000 0.033102
#
#
# Mechanical properties :
#
#
# Convention : Reuss Voigt Hill
#
# Bulk Modulus (GPa) = 46.35776 66.89501 56.62638
# Shear Modulus (GPa) = 22.25036 29.02441 25.63738
#
# Velocity S-wave (km/s) = 3.38868 3.87029 3.63746
# Velocity P-wave (km/s) = 6.26383 7.38213 6.84585
#
# Compressibility (1/GPa) = 0.02157136
#
# Stress axis : x y z
#
# Youngs Moduli (GPa) = 56.41224 86.69743 38.40257
#
# Poissons Ratio (x) = 0.44001 0.39038
# Poissons Ratio (y) = 0.28631 0.06236
# Poissons Ratio (z) = 0.57346 0.14079
#
# Static dielectric constant tensor:
#      x y z
#    x 3.280640 0.000000 0.123880 
#    y 0.000000 3.578440 0.000000 
#    z 0.123880 0.000000 3.571850 
# 
# 
# High freq. dielectric constant tensor:
#      x y z
#    x 1.731090 0.000000 -0.000090 
#    y 0.000000 1.756350 0.000000 
#    z -0.000090 0.000000 1.762800 
# 
# From -- ./inp_files/54201.got.cif
#   From: 2010.06.25/outbox.cif.g09.slc.cpg/sg15_28_cif.got.tgz:54201.got - 2010.06.28 07:06:18.
