data_PCOD8138484
_publ_section_title
;
Structure prediction by ZEFSAII (Michael W. Deem and Ramdas Pophale) SiO2 
 PCOD8138484
Probable space group: C 2/C
;
_chemical_formula_sum "Si O2"
_cell_formula_units_Z 56
_cell_length_a 8.834093
_cell_length_b 20.369591
_cell_length_c 18.782191
_cell_angle_alpha 90.000000
_cell_angle_beta 57.660610
_cell_angle_gamma 90.000000
_cell_volume 2855.570557
_symmetry_space_group_name_H-M "C 2/C"
_symmetry_group_IT_number 15
_symmetry_cell_setting 'monoclinic'
loop_
_space_group_symop_operation_xyz
x,y,z
-x,y,1/2-z
-x,-y,-z
x,-y,1/2+z
1/2+x,1/2+y,z
1/2-x,1/2+y,1/2-z
1/2-x,1/2-y,-z
1/2+x,1/2-y,1/2+z
loop_
_atom_site_type_symbol
_atom_site_label
_atom_site_fract_x
_atom_site_fract_y
_atom_site_fract_z
Si Si1 0.714406 0.795731 0.943726
Si Si2 0.690642 0.601278 0.737346
Si Si3 0.801541 0.267575 0.279088
Si Si4 0.560051 0.637684 0.312396
Si Si5 0.255983 0.007508 0.491748
Si Si6 0.349620 0.491629 0.639011
Si Si7 0.042496 0.403555 0.459969
O O1 0.696074 0.753068 0.876689
O O2 0.878454 0.847142 0.900764
O O3 0.750000 0.750000 0.000000
O O4 0.524512 0.830812 0.004899
O O5 0.500000 0.587614 0.750000
O O6 0.692413 0.674556 0.769045
O O7 0.726448 0.547589 0.789631
O O8 0.844543 0.594156 0.640465
O O9 0.818994 0.203712 0.223545
O O10 0.000000 0.292868 0.250000
O O11 0.500000 0.612573 0.250000
O O12 0.673989 0.580395 0.320597
O O13 0.266397 0.007529 0.403713
O O14 0.365612 0.946957 0.495183
O O15 0.341903 0.073976 0.501188
O O16 0.055586 0.004793 0.570703
#
# Coordination Sequence:
#
# PCOD8138484 Si02
#       7
#     8   8   8   8   8   8   8
#     4  10  20  37  66  91 120 169 209 265 307 382
#     4  12  25  41  63  94 131 169 204 274 330 380
#     4   9  22  41  64  91 120 165 220 247 312 388
#     4   9  19  38  65  90 118 165 207 254 307 386
#     4  10  24  38  63  93 129 160 209 266 314 387
#     4  11  22  41  64  94 125 167 209 260 329 382
#     4  11  22  42  62  94 126 165 217 264 321 382
#
# _framework density 19.610790999999999
#
# number of rings (size 3 to 8) (size 9 to 14) (size 15 to 20)
#    0.000    2.000    2.857    2.143    4.000    1.143 
#    2.571    0.714    0.000    0.000    0.000    0.000 
#    0.000    0.000    0.000    0.000    0.000    0.000 
#
# Total GULP energy -347224.506573 kJ/mol
# GULP energy per Si atom -12400.875235 kJ/mol
# Density = 1.956616 g / cm^3
# Si number density = 19.610791 Si / 1000 Ang^3
#
#
#
# Elastic Constant Matrix: (Units=GPa)
#
#
# Indices 1 2 3 4 5 6 
#
# 1 74.4615 43.2848 42.9024 0.0000 17.0950 0.0000
# 2 43.2848 113.1024 53.5686 0.0000 17.9487 0.0000
# 3 42.9024 53.5686 139.7230 0.0000 6.5772 0.0000
# 4 0.0000 0.0000 0.0000 23.9754 0.0000 3.5241
# 5 17.0950 17.9487 6.5772 0.0000 29.2252 0.0000
# 6 0.0000 0.0000 0.0000 3.5241 0.0000 34.6273
#
#
#
# Elastic Compliance Matrix: (Units=1/GPa)
#
#
# Indices 1 2 3 4 5 6 
#
# 1 0.020309 -0.004526 -0.004116 0.000000 -0.008174 0.000000
# 2 -0.004526 0.012866 -0.003331 0.000000 -0.004505 0.000000
# 3 -0.004116 -0.003331 0.009590 0.000000 0.002295 0.000000
# 4 0.000000 0.000000 0.000000 0.042343 0.000000 -0.004309
# 5 -0.008174 -0.004505 0.002295 0.000000 0.041248 0.000000
# 6 0.000000 0.000000 0.000000 -0.004309 0.000000 0.029318
#
#
# Mechanical properties :
#
#
# Convention : Reuss Voigt Hill
#
# Bulk Modulus (GPa) = 53.13726 67.42208 60.27967
# Shear Modulus (GPa) = 26.89739 30.06764 28.48251
#
# Velocity S-wave (km/s) = 3.70748 3.91988 3.81516
# Velocity P-wave (km/s) = 6.74403 7.41229 7.08604
#
# Compressibility (1/GPa) = 0.01881919
#
# Stress axis : x y z
#
# Youngs Moduli (GPa) = 49.24039 77.72353 104.27628
#
# Poissons Ratio (x) = 0.35175 0.42920
# Poissons Ratio (y) = 0.22284 0.34735
# Poissons Ratio (z) = 0.20267 0.25890
#
# Static dielectric constant tensor:
#      x y z
#    x 3.384440 0.000000 0.178770 
#    y 0.000000 3.685700 0.000000 
#    z 0.178770 0.000000 2.972680 
# 
# 
# High freq. dielectric constant tensor:
#      x y z
#    x 1.742720 0.000000 0.003570 
#    y 0.000000 1.766900 0.000000 
#    z 0.003570 0.000000 1.779280 
# 
# From -- ./inp_files/192034.got.cif
#   From: 2010.06.25/outbox.cif.g09.slc.cpg/sg15_97_cif.got.tgz:192034.got - 2010.06.28 07:06:18.
