data_PCOD8138767
_publ_section_title
;
Structure prediction by ZEFSAII (Michael W. Deem and Ramdas Pophale) SiO2 
 PCOD8138767
Probable space group: C 2/C
;
_chemical_formula_sum "Si O2"
_cell_formula_units_Z 64
_cell_length_a 25.231359
_cell_length_b 11.532147
_cell_length_c 18.244899
_cell_angle_alpha 90.000000
_cell_angle_beta 36.592065
_cell_angle_gamma 90.000000
_cell_volume 3164.618544
_symmetry_space_group_name_H-M "C 2/C"
_symmetry_group_IT_number 15
_symmetry_cell_setting 'monoclinic'
loop_
_space_group_symop_operation_xyz
x,y,z
-x,y,1/2-z
-x,-y,-z
x,-y,1/2+z
1/2+x,1/2+y,z
1/2-x,1/2+y,1/2-z
1/2-x,1/2-y,-z
1/2+x,1/2-y,1/2+z
loop_
_atom_site_type_symbol
_atom_site_label
_atom_site_fract_x
_atom_site_fract_y
_atom_site_fract_z
Si Si1 0.244931 0.513726 0.868667
Si Si2 0.646846 0.628465 0.875722
Si Si3 0.522611 0.742403 0.805947
Si Si4 0.458555 0.040916 0.441803
Si Si5 0.699747 0.714460 0.257096
Si Si6 0.367495 0.601125 0.028262
Si Si7 0.989858 0.314410 0.050856
Si Si8 0.308000 0.638823 0.929581
O O1 0.321750 0.578249 0.736963
O O2 0.256988 0.377079 0.846281
O O3 0.256580 0.538607 0.942458
O O4 0.146906 0.554573 0.953309
O O5 0.735060 0.676525 0.817353
O O6 0.608645 0.527648 0.970794
O O7 0.570589 0.724553 0.950595
O O8 0.500000 0.702905 0.750000
O O9 0.514308 0.882814 0.820771
O O10 0.455050 0.681091 0.937612
O O11 0.617688 0.684511 0.710165
O O12 0.484728 0.103110 0.487453
O O13 0.488609 0.905511 0.406562
O O14 0.700978 0.660360 0.338467
O O15 0.602572 0.747577 0.333836
O O16 0.332415 0.594716 0.983839
O O17 0.250000 0.750000 0.000000
#
# Coordination Sequence:
#
# PCOD8138767 Si02
#       8
#     8   8   8   8   8   8   8   8
#     4  11  22  37  65  89 128 158 210 258 310 363
#     4  11  22  39  63  94 127 164 204 261 309 373
#     4  10  20  38  61  87 124 157 204 256 302 368
#     4  11  21  39  61  93 121 160 206 260 305 371
#     4  11  22  40  61  96 125 161 206 259 305 375
#     4  10  23  39  62  89 127 158 210 251 312 367
#     4  11  23  36  63  87 126 159 204 248 324 353
#     4  11  23  39  62  92 120 166 205 259 315 363
#
# _framework density 20.223604999999999
#
# number of rings (size 3 to 8) (size 9 to 14) (size 15 to 20)
#    0.000    1.250    3.750    3.000    1.750    2.000 
#    0.000    0.625    2.750    0.000    0.000    0.000 
#    0.000    0.000    0.000    0.000    0.000    0.000 
#
# Total GULP energy -396560.871173 kJ/mol
# GULP energy per Si atom -12392.527224 kJ/mol
# Density = 2.017758 g / cm^3
# Si number density = 20.223605 Si / 1000 Ang^3
#
#
#
# Elastic Constant Matrix: (Units=GPa)
#
#
# Indices 1 2 3 4 5 6 
#
# 1 86.6012 37.0710 34.4864 0.0000 -3.6952 0.0000
# 2 37.0710 91.0275 17.9300 0.0007 4.3408 -0.0002
# 3 34.4864 17.9300 48.7011 0.0002 -7.6375 -0.0001
# 4 0.0000 0.0007 0.0002 -11.5003 0.0000 20.0829
# 5 -3.6952 4.3408 -7.6375 0.0000 28.8247 0.0000
# 6 0.0000 -0.0002 -0.0001 20.0829 0.0000 26.5969
#
#
#
# Elastic Compliance Matrix: (Units=1/GPa)
#
#
# Indices 1 2 3 4 5 6 
#
# 1 0.018136 -0.005256 -0.010870 0.000000 0.000236 0.000000
# 2 -0.005256 0.013633 -0.001800 0.000000 -0.003204 0.000000
# 3 -0.010870 -0.001800 0.029963 0.000000 0.006817 0.000000
# 4 0.000000 0.000000 0.000000 -0.037503 0.000000 0.028318
# 5 0.000236 -0.003204 0.006817 0.000000 0.037011 0.000000
# 6 0.000000 0.000000 0.000000 0.028318 0.000000 0.016216
#
#
# Mechanical properties :
#
#
# Convention : Reuss Voigt Hill
#
# Bulk Modulus (GPa) = 38.64056 45.03385 41.83720
# Shear Modulus (GPa) = 41.00524 17.90709 29.45616
#
# Velocity S-wave (km/s) = 4.50777 2.97889 3.82058
# Velocity P-wave (km/s) = 6.80010 5.84363 6.33993
#
# Compressibility (1/GPa) = 0.02587954
#
# Stress axis : x y z
#
# Youngs Moduli (GPa) = 55.13904 73.34877 33.37487
#
# Poissons Ratio (x) = 0.38552 0.36280
# Poissons Ratio (y) = 0.28981 0.06007
# Poissons Ratio (z) = 0.59938 0.13202
#
# Static dielectric constant tensor:
#      x y z
#    x 2.682220 0.000000 -0.866990 
#    y 0.000000 3.800650 0.000000 
#    z -0.866990 0.000000 3.201240 
# 
# 
# High freq. dielectric constant tensor:
#      x y z
#    x 1.782310 0.000000 -0.015680 
#    y 0.000000 1.795690 0.000000 
#    z -0.015680 0.000000 1.782020 
# 
# From -- ./inp_files/257498.got.cif
#   From: 2010.06.25/outbox.cif.g09.slc.cpg/sg15_129_cif.got.tgz:257498.got - 2010.06.28 07:06:18.
