data_PCOD8138836
_publ_section_title
;
Structure prediction by ZEFSAII (Michael W. Deem and Ramdas Pophale) SiO2 
 PCOD8138836
Probable space group: C 2/C
;
_chemical_formula_sum "Si O2"
_cell_formula_units_Z 48
_cell_length_a 24.225685
_cell_length_b 9.489727
_cell_length_c 10.168973
_cell_angle_alpha 90.000000
_cell_angle_beta 96.831828
_cell_angle_gamma 90.000000
_cell_volume 2321.198100
_symmetry_space_group_name_H-M "C 2/C"
_symmetry_group_IT_number 15
_symmetry_cell_setting 'monoclinic'
loop_
_space_group_symop_operation_xyz
x,y,z
-x,y,1/2-z
-x,-y,-z
x,-y,1/2+z
1/2+x,1/2+y,z
1/2-x,1/2+y,1/2-z
1/2-x,1/2-y,-z
1/2+x,1/2-y,1/2+z
loop_
_atom_site_type_symbol
_atom_site_label
_atom_site_fract_x
_atom_site_fract_y
_atom_site_fract_z
Si Si1 0.262237 0.583418 0.661134
Si Si2 0.790265 0.406807 0.633174
Si Si3 0.910237 0.672348 0.181016
Si Si4 0.118323 0.975311 0.247428
Si Si5 0.943018 0.926622 0.521472
Si Si6 0.515159 0.855135 0.566761
O O1 0.219261 0.525157 0.757625
O O2 0.241715 0.549086 0.508334
O O3 0.270526 0.752146 0.677939
O O4 0.317656 0.489221 0.703782
O O5 0.856408 0.414965 0.617777
O O6 0.885955 0.810848 0.236053
O O7 0.946718 0.593707 0.301081
O O8 0.954906 0.714605 0.081866
O O9 0.076102 0.054592 0.333651
O O10 0.102271 0.999159 0.089905
O O11 0.950519 0.757758 0.509082
O O12 0.000000 0.000000 0.500000
O O13 0.500000 0.000000 0.500000
#
# Coordination Sequence:
#
# PCOD8138836 Si02
#       6
#     8   8   8   8   8   8
#     4  10  22  41  61  90 120 158 200 250 295 353
#     4  10  22  40  64  87 120 157 202 247 300 349
#     4   9  20  39  58  79 120 160 182 241 301 345
#     4  10  20  38  62  86 118 154 194 241 294 342
#     4  11  20  37  63  86 117 155 192 239 293 353
#     4  10  21  38  56  83 119 151 195 237 297 349
#
# _framework density 20.678975999999999
#
# number of rings (size 3 to 8) (size 9 to 14) (size 15 to 20)
#    0.000    2.000    1.667    1.500    2.333    0.667 
#    9.000    0.000    0.000    0.000    0.000    0.000 
#    0.000    0.000    0.000    0.000    0.000    0.000 
#
# Total GULP energy -297330.324768 kJ/mol
# GULP energy per Si atom -12388.763532 kJ/mol
# Density = 2.063191 g / cm^3
# Si number density = 20.678976 Si / 1000 Ang^3
#
#
#
# Elastic Constant Matrix: (Units=GPa)
#
#
# Indices 1 2 3 4 5 6 
#
# 1 111.8505 17.0806 20.8262 0.0000 16.6492 0.0000
# 2 17.0806 57.3145 36.7433 0.0000 9.2220 0.0000
# 3 20.8262 36.7433 85.2463 0.0000 4.9969 0.0000
# 4 0.0000 0.0000 0.0000 34.9725 0.0000 -4.1535
# 5 16.6492 9.2220 4.9969 0.0000 29.6952 0.0000
# 6 0.0000 0.0000 0.0000 -4.1535 0.0000 28.8081
#
#
#
# Elastic Compliance Matrix: (Units=1/GPa)
#
#
# Indices 1 2 3 4 5 6 
#
# 1 0.010185 -0.001125 -0.001706 0.000000 -0.005074 0.000000
# 2 -0.001125 0.025264 -0.010293 0.000000 -0.005483 0.000000
# 3 -0.001706 -0.010293 0.016503 0.000000 0.001376 0.000000
# 4 0.000000 0.000000 0.000000 0.029092 0.000000 0.004194
# 5 -0.005074 -0.005483 0.001376 0.000000 0.037991 0.000000
# 6 0.000000 0.000000 0.000000 0.004194 0.000000 0.035317
#
#
# Mechanical properties :
#
#
# Convention : Reuss Voigt Hill
#
# Bulk Modulus (GPa) = 38.90445 44.85684 41.88064
# Shear Modulus (GPa) = 26.43130 30.67924 28.55527
#
# Velocity S-wave (km/s) = 3.57903 3.85593 3.72006
# Velocity P-wave (km/s) = 5.99447 6.44696 6.22483
#
# Compressibility (1/GPa) = 0.02570400
#
# Stress axis : x y z
#
# Youngs Moduli (GPa) = 98.18105 39.58227 60.59371
#
# Poissons Ratio (x) = 0.04454 0.10336
# Poissons Ratio (y) = 0.11049 0.62369
# Poissons Ratio (z) = 0.16748 0.40742
#
# Static dielectric constant tensor:
#      x y z
#    x 4.637240 0.000000 0.499220 
#    y 0.000000 3.408130 0.000000 
#    z 0.499220 0.000000 3.792540 
# 
# 
# High freq. dielectric constant tensor:
#      x y z
#    x 1.824420 0.000000 0.013380 
#    y 0.000000 1.784760 0.000000 
#    z 0.013380 0.000000 1.802160 
# 
# From -- ./inp_files/60606.got.cif
#   From: 2010.06.25/outbox.cif.g09.slc.cpg/sg15_31_cif.got.tgz:60606.got - 2010.06.28 07:06:18.
