data_PCOD8138467
_publ_section_title
;
Structure prediction by ZEFSAII (Michael W. Deem and Ramdas Pophale) SiO2 
 PCOD8138467
Probable space group: C 2/C
;
_chemical_formula_sum "Si O2"
_cell_formula_units_Z 56
_cell_length_a 24.200513
_cell_length_b 8.600135
_cell_length_c 15.086985
_cell_angle_alpha 90.000000
_cell_angle_beta 126.630792
_cell_angle_gamma 90.000000
_cell_volume 2519.855759
_symmetry_space_group_name_H-M "C 2/C"
_symmetry_group_IT_number 15
_symmetry_cell_setting 'monoclinic'
loop_
_space_group_symop_operation_xyz
x,y,z
-x,y,1/2-z
-x,-y,-z
x,-y,1/2+z
1/2+x,1/2+y,z
1/2-x,1/2+y,1/2-z
1/2-x,1/2-y,-z
1/2+x,1/2-y,1/2+z
loop_
_atom_site_type_symbol
_atom_site_label
_atom_site_fract_x
_atom_site_fract_y
_atom_site_fract_z
Si Si1 0.212310 0.382698 0.790790
Si Si2 0.148829 0.803171 0.869137
Si Si3 0.666098 0.583112 0.662142
Si Si4 0.919666 0.813604 0.872213
Si Si5 0.130238 0.451091 0.063352
Si Si6 0.225057 0.501937 0.996926
Si Si7 0.567946 0.752099 0.446152
O O1 0.285029 0.445899 0.825969
O O2 0.205883 0.197120 0.768259
O O3 0.153693 0.472922 0.679362
O O4 0.207805 0.402150 0.892811
O O5 0.129604 0.747707 0.752433
O O6 0.191945 0.670935 0.958985
O O7 0.075870 0.810985 0.852852
O O8 0.192870 0.964930 0.910478
O O9 0.599497 0.495641 0.638086
O O10 0.638907 0.688852 0.556882
O O11 0.905545 0.713338 0.947309
O O12 0.999489 0.812076 0.924378
O O13 0.192465 0.419635 0.052935
O O14 0.071872 0.560274 0.961512
#
# Coordination Sequence:
#
# PCOD8138467 Si02
#       7
#     8   8   8   8   8   8   8
#     4  11  21  42  63  95 129 163 215 283 324 393
#     4  10  20  37  65  96 123 169 213 268 324 385
#     4  11  24  39  65  92 127 170 213 270 340 377
#     4  12  22  40  60  94 131 173 215 260 318 406
#     4  10  22  38  67  97 123 172 216 264 335 382
#     4  10  20  39  65  96 133 158 216 277 327 381
#     4  10  22  41  63  90 130 174 215 261 318 396
#
# _framework density 22.223493000000001
#
# number of rings (size 3 to 8) (size 9 to 14) (size 15 to 20)
#    0.000    1.429    2.857    3.000    2.000    0.000 
#    2.571    2.143    0.000    0.000    0.000    0.000 
#    0.000    0.000    0.000    0.000    0.000    0.000 
#
# Total GULP energy -347046.438207 kJ/mol
# GULP energy per Si atom -12394.515650 kJ/mol
# Density = 2.217291 g / cm^3
# Si number density = 22.223493 Si / 1000 Ang^3
#
#
#
# Elastic Constant Matrix: (Units=GPa)
#
#
# Indices 1 2 3 4 5 6 
#
# 1 140.0092 65.8489 30.4969 0.0000 -20.5562 0.0000
# 2 65.8489 109.8279 25.8639 0.0000 -10.1353 0.0000
# 3 30.4969 25.8639 67.1830 0.0000 -18.3919 0.0000
# 4 0.0000 0.0000 0.0000 19.1602 0.0000 3.1391
# 5 -20.5562 -10.1353 -18.3919 0.0000 34.2969 0.0000
# 6 0.0000 0.0000 0.0000 3.1391 0.0000 30.1754
#
#
#
# Elastic Compliance Matrix: (Units=1/GPa)
#
#
# Indices 1 2 3 4 5 6 
#
# 1 0.010749 -0.005705 -0.001619 0.000000 0.003889 0.000000
# 2 -0.005705 0.013073 -0.002721 0.000000 -0.001015 0.000000
# 3 -0.001619 -0.002721 0.018965 0.000000 0.008396 0.000000
# 4 0.000000 0.000000 0.000000 0.053097 0.000000 -0.005524
# 5 0.003889 -0.001015 0.008396 0.000000 0.035690 0.000000
# 6 0.000000 0.000000 0.000000 -0.005524 0.000000 0.033714
#
#
# Mechanical properties :
#
#
# Convention : Reuss Voigt Hill
#
# Bulk Modulus (GPa) = 44.05587 62.38216 53.21902
# Shear Modulus (GPa) = 25.91446 29.71387 27.81417
#
# Velocity S-wave (km/s) = 3.41850 3.66053 3.54159
# Velocity P-wave (km/s) = 5.95387 6.78213 6.38145
#
# Compressibility (1/GPa) = 0.02269845
#
# Stress axis : x y z
#
# Youngs Moduli (GPa) = 93.03305 76.49633 52.72737
#
# Poissons Ratio (x) = 0.43638 0.08535
# Poissons Ratio (y) = 0.53072 0.14347
# Poissons Ratio (z) = 0.15059 0.20814
#
# Static dielectric constant tensor:
#      x y z
#    x 4.008790 0.000000 -0.189780 
#    y 0.000000 3.864480 0.000000 
#    z -0.189780 0.000000 3.911980 
# 
# 
# High freq. dielectric constant tensor:
#      x y z
#    x 1.871620 0.000000 -0.010600 
#    y 0.000000 1.865010 0.000000 
#    z -0.010600 0.000000 1.869320 
# 
# From -- ./inp_files/172304.got.cif
#   From: 2010.06.25/outbox.cif.g09.slc.cpg/sg15_87_cif.got.tgz:172304.got - 2010.06.28 07:06:18.
