data_PCOD8138109
_publ_section_title
;
Structure prediction by ZEFSAII (Michael W. Deem and Ramdas Pophale) SiO2 
 PCOD8138109
Probable space group: C 2/C
;
_chemical_formula_sum "Si O2"
_cell_formula_units_Z 48
_cell_length_a 17.891250
_cell_length_b 8.689087
_cell_length_c 28.732466
_cell_angle_alpha 90.000000
_cell_angle_beta 151.139743
_cell_angle_gamma 90.000000
_cell_volume 2155.969142
_symmetry_space_group_name_H-M "C 2/C"
_symmetry_group_IT_number 15
_symmetry_cell_setting 'monoclinic'
loop_
_space_group_symop_operation_xyz
x,y,z
-x,y,1/2-z
-x,-y,-z
x,-y,1/2+z
1/2+x,1/2+y,z
1/2-x,1/2+y,1/2-z
1/2-x,1/2-y,-z
1/2+x,1/2-y,1/2+z
loop_
_atom_site_type_symbol
_atom_site_label
_atom_site_fract_x
_atom_site_fract_y
_atom_site_fract_z
Si Si1 0.342003 0.314297 0.093241
Si Si2 0.100481 0.317934 0.177186
Si Si3 0.387621 0.310810 0.480598
Si Si4 0.355735 0.676368 0.098139
Si Si5 0.351489 0.352106 0.939323
Si Si6 0.152156 0.349880 0.740779
O O1 0.360125 0.494585 0.098661
O O2 0.245490 0.277301 0.087167
O O3 0.509199 0.236051 0.186828
O O4 0.250000 0.250000 0.000000
O O5 0.097893 0.499518 0.183829
O O6 0.271932 0.259617 0.257331
O O7 0.031651 0.236541 0.186362
O O8 0.989988 0.275523 0.074437
O O9 0.216057 0.233936 0.391277
O O10 0.474570 0.289274 0.478179
O O11 0.367894 0.494189 0.479508
O O12 0.250000 0.750000 0.000000
O O13 0.270879 0.396160 0.846334
#
# Coordination Sequence:
#
# PCOD8138109 Si02
#       6
#     8   8   8   8   8   8
#     4  12  23  38  64  89 119 165 212 258 313 379
#     4  10  20  38  63  90 124 167 213 259 316 382
#     4   9  19  39  63  88 124 165 210 260 318 381
#     4  10  20  37  59  86 118 155 205 253 300 370
#     4  10  22  40  62  91 127 167 212 266 319 369
#     4  11  23  40  63  93 129 167 213 266 317 371
#
# _framework density 22.263770000000001
#
# number of rings (size 3 to 8) (size 9 to 14) (size 15 to 20)
#    0.000    1.667    0.000    6.500    0.000    3.333 
#    0.000    6.667    0.000    0.000    0.000    0.000 
#    0.000    0.000    0.000    0.000    0.000    0.000 
#
# Total GULP energy -297456.815683 kJ/mol
# GULP energy per Si atom -12394.033987 kJ/mol
# Density = 2.221310 g / cm^3
# Si number density = 22.263770 Si / 1000 Ang^3
#
#
#
# Elastic Constant Matrix: (Units=GPa)
#
#
# Indices 1 2 3 4 5 6 
#
# 1 153.6405 65.1637 29.7615 0.0000 50.1504 -0.0001
# 2 65.1637 158.5203 7.5915 0.0001 14.6874 0.0000
# 3 29.7615 7.5915 25.7499 0.0007 5.2908 0.0001
# 4 0.0000 0.0001 0.0007 34.6366 0.0000 5.0571
# 5 50.1504 14.6874 5.2908 0.0000 46.3406 0.0000
# 6 -0.0001 0.0000 0.0001 5.0571 0.0000 46.4943
#
#
#
# Elastic Compliance Matrix: (Units=1/GPa)
#
#
# Indices 1 2 3 4 5 6 
#
# 1 0.015645 -0.004475 -0.013902 0.000000 -0.013926 0.000000
# 2 -0.004475 0.007839 0.002434 0.000000 0.002081 0.000000
# 3 -0.013902 0.002434 0.052484 -0.000001 0.008281 0.000000
# 4 0.000000 0.000000 -0.000001 0.029337 0.000000 -0.003191
# 5 -0.013926 0.002081 0.008281 0.000000 0.035045 0.000000
# 6 0.000000 0.000000 0.000000 -0.003191 0.000000 0.021855
#
#
# Mechanical properties :
#
#
# Convention : Reuss Voigt Hill
#
# Bulk Modulus (GPa) = 22.68540 60.32711 41.50626
# Shear Modulus (GPa) = 23.94792 41.18723 32.56757
#
# Velocity S-wave (km/s) = 3.28326 4.30579 3.82881
# Velocity P-wave (km/s) = 4.95828 7.20244 6.18303
#
# Compressibility (1/GPa) = 0.04408122
#
# Stress axis : x y z
#
# Youngs Moduli (GPa) = 63.91615 127.57238 19.05342
#
# Poissons Ratio (x) = 0.57094 0.26488
# Poissons Ratio (y) = 0.28605 -0.04638
# Poissons Ratio (z) = 0.88857 -0.31052
#
# Static dielectric constant tensor:
#      x y z
#    x 5.248120 0.000000 0.862220 
#    y 0.000000 3.884160 0.000000 
#    z 0.862220 0.000000 3.995840 
# 
# 
# High freq. dielectric constant tensor:
#      x y z
#    x 1.899640 0.000000 0.035240 
#    y 0.000000 1.875650 0.000000 
#    z 0.035240 0.000000 1.852980 
# 
# From -- ./inp_files/315785.got.cif
#   From: 2010.06.25/outbox.cif.g09.slc.cpg/sg15_158_cif.got.tgz:315785.got - 2010.06.28 07:06:18.
