data_PCOD8138275
_publ_section_title
;
Structure prediction by ZEFSAII (Michael W. Deem and Ramdas Pophale) SiO2 
 PCOD8138275
Probable space group: C 2/C
;
_chemical_formula_sum "Si O2"
_cell_formula_units_Z 48
_cell_length_a 8.734606
_cell_length_b 15.749893
_cell_length_c 26.484713
_cell_angle_alpha 90.000000
_cell_angle_beta 140.819003
_cell_angle_gamma 90.000000
_cell_volume 2301.848528
_symmetry_space_group_name_H-M "C 2/C"
_symmetry_group_IT_number 15
_symmetry_cell_setting 'monoclinic'
loop_
_space_group_symop_operation_xyz
x,y,z
-x,y,1/2-z
-x,-y,-z
x,-y,1/2+z
1/2+x,1/2+y,z
1/2-x,1/2+y,1/2-z
1/2-x,1/2-y,-z
1/2+x,1/2-y,1/2+z
loop_
_atom_site_type_symbol
_atom_site_label
_atom_site_fract_x
_atom_site_fract_y
_atom_site_fract_z
Si Si1 0.090709 0.355517 0.420756
Si Si2 0.588568 0.320292 0.596255
Si Si3 0.584134 0.385874 0.697840
Si Si4 0.829338 0.286388 0.163276
Si Si5 0.497817 0.838958 0.621767
Si Si6 0.892072 0.517995 0.417837
O O1 0.318216 0.352600 0.516296
O O2 0.189333 0.352230 0.387882
O O3 0.910524 0.277977 0.386936
O O4 0.939590 0.440531 0.391618
O O5 0.690204 0.378509 0.668018
O O6 0.750027 0.330773 0.588295
O O7 0.432423 0.301166 0.668381
O O8 0.799104 0.388843 0.793125
O O9 0.399063 0.465249 0.655293
O O10 0.574973 0.256759 0.123950
O O11 0.000000 0.327528 0.250000
O O12 0.459467 0.899728 0.563942
O O13 0.000000 0.500000 0.500000
#
# Coordination Sequence:
#
# PCOD8138275 Si02
#       6
#     8   8   8   8   8   8
#     4  10  21  37  59  89 123 149 198 250 298 345
#     4  10  20  37  62  89 116 155 198 246 294 360
#     4   9  18  39  61  81 114 159 202 234 293 369
#     4   8  17  36  58  81 117 157 191 238 291 356
#     4  10  21  37  62  85 115 161 202 234 298 369
#     4  11  21  39  59  84 119 161 194 249 304 346
#
# _framework density 20.852805
#
# number of rings (size 3 to 8) (size 9 to 14) (size 15 to 20)
#    0.000    2.333    1.667    2.000    2.333    1.333 
#    0.000   11.667    0.000    0.000    0.000    0.000 
#    0.000    0.000    0.000    0.000    0.000    0.000 
#
# Total GULP energy -297495.665996 kJ/mol
# GULP energy per Si atom -12395.652750 kJ/mol
# Density = 2.080534 g / cm^3
# Si number density = 20.852805 Si / 1000 Ang^3
#
#
#
# Elastic Constant Matrix: (Units=GPa)
#
#
# Indices 1 2 3 4 5 6 
#
# 1 125.7691 38.2140 23.5938 0.0001 -10.9961 0.0000
# 2 38.2140 68.3322 25.8036 0.0001 -2.9385 0.0000
# 3 23.5938 25.8036 67.6517 0.0001 -19.9249 0.0000
# 4 0.0001 0.0001 0.0001 19.6464 0.0001 -4.7612
# 5 -10.9961 -2.9385 -19.9249 0.0001 40.4594 0.0000
# 6 0.0000 0.0000 0.0000 -4.7612 0.0000 39.0207
#
#
#
# Elastic Compliance Matrix: (Units=1/GPa)
#
#
# Indices 1 2 3 4 5 6 
#
# 1 0.009827 -0.005054 -0.000960 0.000000 0.001831 0.000000
# 2 -0.005054 0.019882 -0.006784 0.000000 -0.003271 0.000000
# 3 -0.000960 -0.006784 0.020448 0.000000 0.009316 0.000000
# 4 0.000000 0.000000 0.000000 0.052451 0.000000 0.006400
# 5 0.001831 -0.003271 0.009316 0.000000 0.029564 0.000000
# 6 0.000000 0.000000 0.000000 0.006400 0.000000 0.026408
#
#
# Mechanical properties :
#
#
# Convention : Reuss Voigt Hill
#
# Bulk Modulus (GPa) = 40.71651 48.55286 44.63469
# Shear Modulus (GPa) = 25.99243 31.43474 28.71359
#
# Velocity S-wave (km/s) = 3.53437 3.88681 3.71477
# Velocity P-wave (km/s) = 6.01862 6.59373 6.31273
#
# Compressibility (1/GPa) = 0.02456006
#
# Stress axis : x y z
#
# Youngs Moduli (GPa) = 101.76043 50.29655 48.90500
#
# Poissons Ratio (x) = 0.25422 0.04696
# Poissons Ratio (y) = 0.51433 0.33177
# Poissons Ratio (z) = 0.09771 0.34121
#
# Static dielectric constant tensor:
#      x y z
#    x 4.115590 0.000000 -0.352150 
#    y 0.000000 3.518060 0.000000 
#    z -0.352150 0.000000 3.687680 
# 
# 
# High freq. dielectric constant tensor:
#      x y z
#    x 1.828590 0.000000 -0.022090 
#    y 0.000000 1.780130 0.000000 
#    z -0.022090 0.000000 1.808870 
# 
# From -- ./inp_files/289132.got.cif
#   From: 2010.06.25/outbox.cif.g09.slc.cpg/sg15_145_cif.got.tgz:289132.got - 2010.06.28 07:06:18.
