data_PCOD8138006
_publ_section_title
;
Structure prediction by ZEFSAII (Michael W. Deem and Ramdas Pophale) SiO2 
 PCOD8138006
Probable space group: C 2/C
;
_chemical_formula_sum "Si O2"
_cell_formula_units_Z 56
_cell_length_a 11.849884
_cell_length_b 8.627789
_cell_length_c 27.504106
_cell_angle_alpha 90.000000
_cell_angle_beta 112.342274
_cell_angle_gamma 90.000000
_cell_volume 2600.876777
_symmetry_space_group_name_H-M "C 2/C"
_symmetry_group_IT_number 15
_symmetry_cell_setting 'monoclinic'
loop_
_space_group_symop_operation_xyz
x,y,z
-x,y,1/2-z
-x,-y,-z
x,-y,1/2+z
1/2+x,1/2+y,z
1/2-x,1/2+y,1/2-z
1/2-x,1/2-y,-z
1/2+x,1/2-y,1/2+z
loop_
_atom_site_type_symbol
_atom_site_label
_atom_site_fract_x
_atom_site_fract_y
_atom_site_fract_z
Si Si1 0.795555 0.057436 0.440976
Si Si2 0.423188 0.920531 0.040257
Si Si3 0.321637 0.177457 0.873864
Si Si4 0.523050 0.755837 0.976407
Si Si5 0.117650 0.844049 0.127642
Si Si6 0.909670 0.895148 0.804759
Si Si7 0.824456 0.111629 0.184832
O O1 0.759001 0.212184 0.404535
O O2 0.883280 0.114382 0.499323
O O3 0.687708 0.941925 0.440015
O O4 0.876785 0.955823 0.418447
O O5 0.548828 0.894837 0.090223
O O6 0.410753 0.077796 0.005946
O O7 0.414987 0.772619 0.000685
O O8 0.339973 0.274808 0.827481
O O9 0.225261 0.042006 0.848762
O O10 0.484259 0.768014 0.912672
O O11 0.241449 0.758831 0.160516
O O12 0.075653 0.936514 0.167961
O O13 0.829827 0.916883 0.743358
O O14 0.045109 0.838155 0.814802
#
# Coordination Sequence:
#
# PCOD8138006 Si02
#       7
#     8   8   8   8   8   8   8
#     4  10  22  36  58  86 120 156 191 240 287 343
#     4  10  20  37  56  84 118 156 195 232 288 350
#     4  10  21  39  59  84 117 152 196 242 289 352
#     4  10  21  35  56  86 121 152 194 239 283 348
#     4  11  22  39  60  88 116 153 199 239 293 350
#     4  10  24  40  59  89 116 146 199 251 292 349
#     4  11  22  40  63  84 115 156 192 244 305 344
#
# _framework density 21.531200999999999
#
# number of rings (size 3 to 8) (size 9 to 14) (size 15 to 20)
#    0.000    1.714    1.429    2.571    2.000    1.714 
#    0.000    0.000    0.000    6.857    0.000    0.000 
#    0.000    0.000    0.000    0.000    0.000    0.000 
#
# Total GULP energy -346869.171946 kJ/mol
# GULP energy per Si atom -12388.184712 kJ/mol
# Density = 2.148219 g / cm^3
# Si number density = 21.531201 Si / 1000 Ang^3
#
#
#
# Elastic Constant Matrix: (Units=GPa)
#
#
# Indices 1 2 3 4 5 6 
#
# 1 60.2435 6.0141 21.7928 0.0000 2.1792 0.0000
# 2 6.0141 50.6376 16.4255 0.0000 4.2698 0.0000
# 3 21.7928 16.4255 118.3559 0.0000 13.2637 0.0000
# 4 0.0000 0.0000 0.0000 32.9974 0.0000 -5.8018
# 5 2.1792 4.2698 13.2637 0.0000 27.1305 0.0000
# 6 0.0000 0.0000 0.0000 -5.8018 0.0000 28.1994
#
#
#
# Elastic Compliance Matrix: (Units=1/GPa)
#
#
# Indices 1 2 3 4 5 6 
#
# 1 0.017845 -0.001118 -0.003163 0.000000 0.000289 0.000000
# 2 -0.001118 0.020848 -0.002465 0.000000 -0.001986 0.000000
# 3 -0.003163 -0.002465 0.009841 0.000000 -0.004169 0.000000
# 4 0.000000 0.000000 0.000000 0.031443 0.000000 0.006469
# 5 0.000289 -0.001986 -0.004169 0.000000 0.039186 0.000000
# 6 0.000000 0.000000 0.000000 0.006469 0.000000 0.036793
#
#
# Mechanical properties :
#
#
# Convention : Reuss Voigt Hill
#
# Bulk Modulus (GPa) = 28.53707 35.30021 31.91864
# Shear Modulus (GPa) = 27.60488 29.99908 28.80198
#
# Velocity S-wave (km/s) = 3.58451 3.73672 3.66141
# Velocity P-wave (km/s) = 5.51491 5.92013 5.72111
#
# Compressibility (1/GPa) = 0.03504214
#
# Stress axis : x y z
#
# Youngs Moduli (GPa) = 56.03922 47.96633 101.61802
#
# Poissons Ratio (x) = 0.05361 0.32142
# Poissons Ratio (y) = 0.06264 0.25048
# Poissons Ratio (z) = 0.17725 0.11823
#
# Static dielectric constant tensor:
#      x y z
#    x 3.691210 0.000000 -0.240050 
#    y 0.000000 4.181120 0.000000 
#    z -0.240050 0.000000 4.196220 
# 
# 
# High freq. dielectric constant tensor:
#      x y z
#    x 1.826330 0.000000 -0.006080 
#    y 0.000000 1.856080 0.000000 
#    z -0.006080 0.000000 1.854520 
# 
# From -- ./inp_files/291496.got.cif
#   From: 2010.06.25/outbox.cif.g09.slc.cpg/sg15_146_cif.got.tgz:291496.got - 2010.06.28 07:06:18.
