data_PCOD8138477
_publ_section_title
;
Structure prediction by ZEFSAII (Michael W. Deem and Ramdas Pophale) SiO2 
 PCOD8138477
Probable space group: C 2/C
;
_chemical_formula_sum "Si O2"
_cell_formula_units_Z 56
_cell_length_a 11.269634
_cell_length_b 19.291046
_cell_length_c 14.251225
_cell_angle_alpha 90.000000
_cell_angle_beta 60.008678
_cell_angle_gamma 90.000000
_cell_volume 2683.406005
_symmetry_space_group_name_H-M "C 2/C"
_symmetry_group_IT_number 15
_symmetry_cell_setting 'monoclinic'
loop_
_space_group_symop_operation_xyz
x,y,z
-x,y,1/2-z
-x,-y,-z
x,-y,1/2+z
1/2+x,1/2+y,z
1/2-x,1/2+y,1/2-z
1/2-x,1/2-y,-z
1/2+x,1/2-y,1/2+z
loop_
_atom_site_type_symbol
_atom_site_label
_atom_site_fract_x
_atom_site_fract_y
_atom_site_fract_z
Si Si1 0.371690 0.673814 0.235873
Si Si2 0.153517 0.466236 0.525791
Si Si3 0.646256 0.941555 0.860584
Si Si4 0.229725 0.164786 0.601597
Si Si5 0.214554 0.809698 0.316113
Si Si6 0.434233 0.719021 0.009732
Si Si7 0.161634 0.455363 0.198381
O O1 0.500000 0.650931 0.250000
O O2 0.242445 0.624432 0.307341
O O3 0.334333 0.752918 0.274952
O O4 0.405022 0.669898 0.111456
O O5 0.135869 0.536874 0.473427
O O6 0.250611 0.415777 0.428695
O O7 0.220635 0.492268 0.596012
O O8 0.010944 0.426442 0.607781
O O9 0.699601 0.008314 0.781383
O O10 0.161041 0.176821 0.730653
O O11 0.377150 0.203518 0.548292
O O12 0.134975 0.191982 0.557062
O O13 0.266613 0.881393 0.338626
O O14 0.095427 0.779459 0.428718
O O15 0.000000 0.443898 0.250000
#
# Coordination Sequence:
#
# PCOD8138477 Si02
#       7
#     8   8   8   8   8   8   8
#     4  11  25  42  60  92 130 162 206 257 311 371
#     4  10  20  37  66  87 118 163 205 254 305 364
#     4  10  21  40  59  90 122 159 208 250 308 367
#     4  10  20  41  64  91 122 156 211 259 300 370
#     4  11  22  41  63  92 125 163 207 252 311 373
#     4  10  23  39  64  91 121 165 205 252 317 356
#     4  10  21  38  62  92 122 160 208 256 307 367
#
# _framework density 20.868998999999999
#
# number of rings (size 3 to 8) (size 9 to 14) (size 15 to 20)
#    0.000    1.714    1.429    2.571    2.000    0.571 
#    2.571    5.714    0.000    0.000    0.000    0.000 
#    0.000    0.000    0.000    0.000    0.000    0.000 
#
# Total GULP energy -347087.490753 kJ/mol
# GULP energy per Si atom -12395.981813 kJ/mol
# Density = 2.082150 g / cm^3
# Si number density = 20.868999 Si / 1000 Ang^3
#
#
#
# Elastic Constant Matrix: (Units=GPa)
#
#
# Indices 1 2 3 4 5 6 
#
# 1 63.8545 21.4065 27.1032 0.0000 10.3688 0.0000
# 2 21.4065 83.7441 23.9730 0.0000 -2.5356 0.0000
# 3 27.1032 23.9730 106.0947 0.0000 1.8865 0.0000
# 4 0.0000 0.0000 0.0000 34.3576 0.0000 1.0850
# 5 10.3688 -2.5356 1.8865 0.0000 26.5949 0.0000
# 6 0.0000 0.0000 0.0000 1.0850 0.0000 26.8186
#
#
#
# Elastic Compliance Matrix: (Units=1/GPa)
#
#
# Indices 1 2 3 4 5 6 
#
# 1 0.020077 -0.004218 -0.004035 0.000000 -0.007943 0.000000
# 2 -0.004218 0.013707 -0.002075 0.000000 0.003098 0.000000
# 3 -0.004035 -0.002075 0.010914 0.000000 0.000601 0.000000
# 4 0.000000 0.000000 0.000000 0.029143 0.000000 -0.001179
# 5 -0.007943 0.003098 0.000601 0.000000 0.040951 0.000000
# 6 0.000000 0.000000 0.000000 -0.001179 0.000000 0.037335
#
#
# Mechanical properties :
#
#
# Convention : Reuss Voigt Hill
#
# Bulk Modulus (GPa) = 41.59020 44.29540 42.94280
# Shear Modulus (GPa) = 27.65545 29.63493 28.64519
#
# Velocity S-wave (km/s) = 3.64427 3.77244 3.70891
# Velocity P-wave (km/s) = 6.13841 6.34402 6.24206
#
# Compressibility (1/GPa) = 0.02404413
#
# Stress axis : x y z
#
# Youngs Moduli (GPa) = 49.80851 72.95549 91.62207
#
# Poissons Ratio (x) = 0.30769 0.36966
# Poissons Ratio (y) = 0.21007 0.19011
# Poissons Ratio (z) = 0.20096 0.15137
#
# Static dielectric constant tensor:
#      x y z
#    x 3.533090 0.000000 0.156100 
#    y 0.000000 3.634040 0.000000 
#    z 0.156100 0.000000 3.908640 
# 
# 
# High freq. dielectric constant tensor:
#      x y z
#    x 1.796310 0.000000 0.015120 
#    y 0.000000 1.811740 0.000000 
#    z 0.015120 0.000000 1.829770 
# 
# From -- ./inp_files/145570.got.cif
#   From: 2010.06.25/outbox.cif.g09.slc.cpg/sg15_73_cif.got.tgz:145570.got - 2010.06.28 07:06:18.
