data_PCOD8138077
_publ_section_title
;
Structure prediction by ZEFSAII (Michael W. Deem and Ramdas Pophale) SiO2 
 PCOD8138077
Probable space group: C 2/C
;
_chemical_formula_sum "Si O2"
_cell_formula_units_Z 40
_cell_length_a 13.852043
_cell_length_b 14.448008
_cell_length_c 19.703943
_cell_angle_alpha 90.000000
_cell_angle_beta 29.418278
_cell_angle_gamma 90.000000
_cell_volume 1936.944093
_symmetry_space_group_name_H-M "C 2/C"
_symmetry_group_IT_number 15
_symmetry_cell_setting 'monoclinic'
loop_
_space_group_symop_operation_xyz
x,y,z
-x,y,1/2-z
-x,-y,-z
x,-y,1/2+z
1/2+x,1/2+y,z
1/2-x,1/2+y,1/2-z
1/2-x,1/2-y,-z
1/2+x,1/2-y,1/2+z
loop_
_atom_site_type_symbol
_atom_site_label
_atom_site_fract_x
_atom_site_fract_y
_atom_site_fract_z
Si Si1 0.776071 0.305130 0.202378
Si Si2 0.156239 0.024947 0.991411
Si Si3 0.784676 0.000113 0.301142
Si Si4 0.930483 0.554770 0.941036
Si Si5 0.015337 0.845545 0.009177
O O1 0.690434 0.388073 0.207073
O O2 0.611793 0.283010 0.360534
O O3 0.979557 0.341389 0.112408
O O4 0.826004 0.215140 0.128244
O O5 0.975260 0.046911 0.152430
O O6 0.359467 0.032811 0.908479
O O7 0.145739 0.101960 0.938955
O O8 0.144593 0.922164 0.968531
O O9 0.750505 0.046019 0.395258
O O10 0.600034 0.017703 0.362277
#
# Coordination Sequence:
#
# PCOD8138077 Si02
#       5
#     8   8   8   8   8
#     4   9  20  37  57  85 122 150 191 250 290 345
#     4  10  20  37  58  88 115 163 192 242 296 364
#     4   8  18  36  58  86 113 152 196 244 287 359
#     4   9  18  35  61  83 118 151 199 236 297 351
#     4  10  22  37  58  87 124 150 199 246 299 347
#
# _framework density 20.651085999999999
#
# number of rings (size 3 to 8) (size 9 to 14) (size 15 to 20)
#    1.200    1.600    0.000    0.600    2.800    1.600 
#    0.000    1.000    0.000    4.800    0.000    0.000 
#    0.000    0.000    0.000    0.000    0.000    0.000 
#
# Total GULP energy -247814.043180 kJ/mol
# GULP energy per Si atom -12390.702159 kJ/mol
# Density = 2.060408 g / cm^3
# Si number density = 20.651086 Si / 1000 Ang^3
#
#
#
# Elastic Constant Matrix: (Units=GPa)
#
#
# Indices 1 2 3 4 5 6 
#
# 1 56.6609 -11.0645 -5.4876 -0.0029 2.0844 0.0333
# 2 -11.0645 43.6561 37.6431 0.0061 14.7599 0.0259
# 3 -5.4876 37.6431 77.7842 -0.0003 22.6475 0.0216
# 4 -0.0029 0.0061 -0.0003 38.5145 0.0062 10.1913
# 5 2.0844 14.7599 22.6475 0.0062 21.3036 -0.0178
# 6 0.0333 0.0259 0.0216 10.1913 -0.0178 17.3855
#
#
#
# Elastic Compliance Matrix: (Units=1/GPa)
#
#
# Indices 1 2 3 4 5 6 
#
# 1 0.019316 0.007393 -0.000251 0.000019 -0.006745 -0.000066
# 2 0.007393 0.043716 -0.016808 0.000017 -0.013143 -0.000082
# 3 -0.000251 -0.016808 0.025453 0.000013 -0.015389 -0.000030
# 4 0.000019 0.000017 0.000013 0.030731 -0.000052 -0.018015
# 5 -0.006745 -0.013143 -0.015389 -0.000052 0.073067 0.000157
# 6 -0.000066 -0.000082 -0.000030 -0.018015 0.000157 0.068080
#
#
# Mechanical properties :
#
#
# Convention : Reuss Voigt Hill
#
# Bulk Modulus (GPa) = 14.46060 24.47591 19.46825
# Shear Modulus (GPa) = 16.51544 25.90809 21.21176
#
# Velocity S-wave (km/s) = 2.83103 3.54582 3.20840
# Velocity P-wave (km/s) = 4.20760 5.35179 4.81381
#
# Compressibility (1/GPa) = 0.06915344
#
# Stress axis : x y z
#
# Youngs Moduli (GPa) = 51.76971 22.87467 39.28791
#
# Poissons Ratio (x) = -0.16910 0.00986
# Poissons Ratio (y) = -0.38271 0.66035
# Poissons Ratio (z) = 0.01299 0.38447
#
# Static dielectric constant tensor:
#      x y z
#    x 3.518270 -0.000020 0.165930 
#    y -0.000020 3.290380 0.000030 
#    z 0.165930 0.000030 3.708250 
# 
# 
# High freq. dielectric constant tensor:
#      x y z
#    x 1.786490 0.000000 0.014480 
#    y 0.000000 1.770940 0.000000 
#    z 0.014480 0.000000 1.816500 
# 
# From -- ./inp_files/86254.got.cif
#   From: 2010.06.25/outbox.cif.g09.slc.cpg/sg15_44_cif.got.tgz:86254.got - 2010.06.28 07:06:18.
