data_PCOD8138292
_publ_section_title
;
Structure prediction by ZEFSAII (Michael W. Deem and Ramdas Pophale) SiO2 
 PCOD8138292
Probable space group: C 2/C
;
_chemical_formula_sum "Si O2"
_cell_formula_units_Z 64
_cell_length_a 13.278311
_cell_length_b 21.026728
_cell_length_c 27.078158
_cell_angle_alpha 90.000000
_cell_angle_beta 24.532689
_cell_angle_gamma 90.000000
_cell_volume 3139.090951
_symmetry_space_group_name_H-M "C 2/C"
_symmetry_group_IT_number 15
_symmetry_cell_setting 'monoclinic'
loop_
_space_group_symop_operation_xyz
x,y,z
-x,y,1/2-z
-x,-y,-z
x,-y,1/2+z
1/2+x,1/2+y,z
1/2-x,1/2+y,1/2-z
1/2-x,1/2-y,-z
1/2+x,1/2-y,1/2+z
loop_
_atom_site_type_symbol
_atom_site_label
_atom_site_fract_x
_atom_site_fract_y
_atom_site_fract_z
Si Si1 0.134063 0.839669 0.510644
Si Si2 0.421086 0.408483 0.688180
Si Si3 0.346402 0.462296 0.269696
Si Si4 0.500190 0.347725 0.366410
Si Si5 0.568315 0.788070 0.367945
Si Si6 0.539707 0.828878 0.909695
Si Si7 0.067437 0.385959 0.997860
Si Si8 0.786271 0.809018 0.132233
O O1 0.421811 0.832227 0.393319
O O2 0.078586 0.833976 0.477597
O O3 0.016229 0.902890 0.588421
O O4 0.011469 0.784178 0.597920
O O5 0.311529 0.477410 0.749405
O O6 0.219699 0.354665 0.787575
O O7 0.648725 0.396929 0.622213
O O8 0.500000 0.478142 0.250000
O O9 0.479400 0.409943 0.176697
O O10 0.082783 0.440562 0.406690
O O11 0.649415 0.291315 0.272585
O O12 0.620465 0.357301 0.366945
O O13 0.227461 0.322618 0.494265
O O14 0.518175 0.816984 0.444271
O O15 0.637252 0.762418 0.887607
O O16 0.522308 0.883318 0.959686
O O17 0.500000 0.812094 0.250000
#
# Coordination Sequence:
#
# PCOD8138292 Si02
#       8
#     8   8   8   8   8   8   8   8
#     4  10  20  39  63  89 124 161 215 262 307 375
#     4  11  25  38  63  95 127 170 211 257 314 384
#     4  11  23  41  64  92 129 168 210 263 318 373
#     4  11  24  40  60  95 129 168 213 261 316 377
#     4   9  18  36  61  91 121 163 204 256 319 369
#     4  12  23  39  60  99 133 159 207 268 318 377
#     4  10  20  37  62  90 125 166 206 251 317 389
#     4  12  23  41  67  94 124 169 215 260 314 386
#
# _framework density 20.388068000000001
#
# number of rings (size 3 to 8) (size 9 to 14) (size 15 to 20)
#    0.000    1.250    3.750    3.000    3.500    1.000 
#    0.000    2.500    0.000    0.000    0.000    0.000 
#    0.000    0.000    0.000    0.000    0.000    0.000 
#
# Total GULP energy -396630.805801 kJ/mol
# GULP energy per Si atom -12394.712681 kJ/mol
# Density = 2.034166 g / cm^3
# Si number density = 20.388068 Si / 1000 Ang^3
#
#
#
# Elastic Constant Matrix: (Units=GPa)
#
#
# Indices 1 2 3 4 5 6 
#
# 1 93.5767 22.8319 38.9865 -0.0579 8.3146 -0.0857
# 2 22.8319 64.2522 26.5878 -0.1301 6.9868 0.0431
# 3 38.9865 26.5878 113.7037 0.3135 -17.7630 -0.2124
# 4 -0.0579 -0.1301 0.3135 22.5311 -0.0300 4.0778
# 5 8.3146 6.9868 -17.7630 -0.0300 37.2011 0.1078
# 6 -0.0857 0.0431 -0.2124 4.0778 0.1078 22.5862
#
#
#
# Elastic Compliance Matrix: (Units=1/GPa)
#
#
# Indices 1 2 3 4 5 6 
#
# 1 0.013760 -0.002289 -0.004967 0.000081 -0.005017 0.000019
# 2 -0.002289 0.018754 -0.004400 0.000174 -0.005111 -0.000093
# 3 -0.004967 -0.004400 0.012783 -0.000226 0.008040 0.000112
# 4 0.000081 0.000174 -0.000226 0.045887 -0.000097 -0.008286
# 5 -0.005017 -0.005111 0.008040 -0.000097 0.032801 -0.000073
# 6 0.000019 -0.000093 0.000112 -0.008286 -0.000073 0.045773
#
#
# Mechanical properties :
#
#
# Convention : Reuss Voigt Hill
#
# Bulk Modulus (GPa) = 45.48148 49.81612 47.64880
# Shear Modulus (GPa) = 24.95049 28.67211 26.81130
#
# Velocity S-wave (km/s) = 3.50205 3.75416 3.63029
# Velocity P-wave (km/s) = 6.22164 6.57865 6.40263
#
# Compressibility (1/GPa) = 0.02198697
#
# Stress axis : x y z
#
# Youngs Moduli (GPa) = 72.67455 53.32282 78.22639
#
# Poissons Ratio (x) = 0.12203 0.38854
# Poissons Ratio (y) = 0.16632 0.34417
# Poissons Ratio (z) = 0.36096 0.23460
#
# Static dielectric constant tensor:
#      x y z
#    x 3.744080 0.000220 0.135090 
#    y 0.000220 3.480970 0.000500 
#    z 0.135090 0.000500 3.855080 
# 
# 
# High freq. dielectric constant tensor:
#      x y z
#    x 1.780960 0.000010 0.010700 
#    y 0.000010 1.768440 0.000020 
#    z 0.010700 0.000020 1.815350 
# 
# From -- ./inp_files/314510.got.cif
#   From: 2010.06.25/outbox.cif.g09.slc.cpg/sg15_158_cif.got.tgz:314510.got - 2010.06.28 07:06:18.
