data_PCOD8139566
_publ_section_title
;
Structure prediction by ZEFSAII (Michael W. Deem and Ramdas Pophale) SiO2 
 PCOD8139566
Probable space group: C 2/C
;
_chemical_formula_sum "Si O2"
_cell_formula_units_Z 56
_cell_length_a 18.179173
_cell_length_b 7.983546
_cell_length_c 25.854209
_cell_angle_alpha 90.000000
_cell_angle_beta 45.501239
_cell_angle_gamma 90.000000
_cell_volume 2676.409066
_symmetry_space_group_name_H-M "C 2/C"
_symmetry_group_IT_number 15
_symmetry_cell_setting 'monoclinic'
loop_
_space_group_symop_operation_xyz
x,y,z
-x,y,1/2-z
-x,-y,-z
x,-y,1/2+z
1/2+x,1/2+y,z
1/2-x,1/2+y,1/2-z
1/2-x,1/2-y,-z
1/2+x,1/2-y,1/2+z
loop_
_atom_site_type_symbol
_atom_site_label
_atom_site_fract_x
_atom_site_fract_y
_atom_site_fract_z
Si Si1 0.108749 0.434953 0.328042
Si Si2 0.130590 0.397694 0.438287
Si Si3 0.278441 0.460848 0.163821
Si Si4 0.575310 0.252094 0.474087
Si Si5 0.837105 0.722929 0.340008
Si Si6 0.980382 0.234172 0.677109
Si Si7 0.025229 0.100208 0.385690
O O1 0.134236 0.439767 0.375730
O O2 0.214179 0.399006 0.244820
O O3 0.059307 0.614064 0.338487
O O4 0.031860 0.278477 0.351945
O O5 0.107105 0.569888 0.480594
O O6 0.239703 0.333168 0.404819
O O7 0.038282 0.266575 0.496689
O O8 0.339171 0.305885 0.109212
O O9 0.201647 0.540481 0.159294
O O10 0.363359 0.594676 0.140501
O O11 0.564825 0.384682 0.526470
O O12 0.898666 0.808380 0.262320
O O13 0.910635 0.706286 0.353204
O O14 0.996523 0.061881 0.637921
#
# Coordination Sequence:
#
# PCOD8139566 Si02
#       7
#     8   8   8   8   8   8   8
#     4  10  22  38  63  96 120 158 210 262 300 362
#     4  10  20  39  64  90 124 159 213 253 308 361
#     4  11  21  36  65  91 124 156 214 253 306 365
#     4  10  22  36  61  93 125 159 206 260 303 366
#     4  10  21  41  61  92 121 165 199 257 316 369
#     4  10  23  41  63  89 132 155 204 261 314 358
#     4  11  22  39  63  92 121 164 207 254 306 368
#
# _framework density 20.923558
#
# number of rings (size 3 to 8) (size 9 to 14) (size 15 to 20)
#    0.000    1.714    2.857    2.143    6.000    0.000 
#    2.571    2.857    0.000    0.000    0.000    0.000 
#    0.000    0.000    0.000    0.000    0.000    0.000 
#
# Total GULP energy -347078.216661 kJ/mol
# GULP energy per Si atom -12395.650595 kJ/mol
# Density = 2.087594 g / cm^3
# Si number density = 20.923558 Si / 1000 Ang^3
#
#
#
# Elastic Constant Matrix: (Units=GPa)
#
#
# Indices 1 2 3 4 5 6 
#
# 1 70.3646 15.6359 25.6902 0.0007 -14.0111 0.0009
# 2 15.6359 98.8046 33.8068 0.0012 5.9662 0.0015
# 3 25.6902 33.8068 100.2360 -0.0002 -9.6297 0.0000
# 4 0.0007 0.0012 -0.0002 45.1261 0.0001 -1.5332
# 5 -14.0111 5.9662 -9.6297 0.0001 27.3222 -0.0001
# 6 0.0009 0.0015 0.0000 -1.5332 -0.0001 21.2173
#
#
#
# Elastic Compliance Matrix: (Units=1/GPa)
#
#
# Indices 1 2 3 4 5 6 
#
# 1 0.017453 -0.002281 -0.002894 0.000000 0.008428 -0.000001
# 2 -0.002281 0.012176 -0.004026 0.000000 -0.005248 -0.000001
# 3 -0.002894 -0.004026 0.012439 0.000000 0.003779 0.000000
# 4 0.000000 0.000000 0.000000 0.022215 0.000000 0.001605
# 5 0.008428 -0.005248 0.003779 0.000000 0.043400 0.000000
# 6 -0.000001 -0.000001 0.000000 0.001605 0.000000 0.047247
#
#
# Mechanical properties :
#
#
# Convention : Reuss Voigt Hill
#
# Bulk Modulus (GPa) = 42.25392 46.63011 44.44201
# Shear Modulus (GPa) = 27.59033 31.68461 29.63747
#
# Velocity S-wave (km/s) = 3.63523 3.89563 3.76768
# Velocity P-wave (km/s) = 6.15289 6.52448 6.34141
#
# Compressibility (1/GPa) = 0.02366644
#
# Stress axis : x y z
#
# Youngs Moduli (GPa) = 57.29528 82.12593 80.39013
#
# Poissons Ratio (x) = 0.18730 0.23268
# Poissons Ratio (y) = 0.13067 0.32368
# Poissons Ratio (z) = 0.16584 0.33067
#
# Static dielectric constant tensor:
#      x y z
#    x 3.472990 0.000000 -0.179520 
#    y 0.000000 3.860450 0.000000 
#    z -0.179520 0.000000 4.027900 
# 
# 
# High freq. dielectric constant tensor:
#      x y z
#    x 1.771810 0.000000 -0.011770 
#    y 0.000000 1.830530 0.000000 
#    z -0.011770 0.000000 1.836830 
# 
# From -- ./inp_files/298118.got.cif
#   From: 2010.06.25/outbox.cif.g09.slc.cpg/sg15_150_cif.got.tgz:298118.got - 2010.06.28 07:06:18.
