data_PCOD8139697
_publ_section_title
;
Structure prediction by ZEFSAII (Michael W. Deem and Ramdas Pophale) SiO2 
 PCOD8139697
Probable space group: C 2/C
;
_chemical_formula_sum "Si O2"
_cell_formula_units_Z 64
_cell_length_a 29.300053
_cell_length_b 9.083108
_cell_length_c 18.028732
_cell_angle_alpha 90.000000
_cell_angle_beta 143.021884
_cell_angle_gamma 90.000000
_cell_volume 2886.096692
_symmetry_space_group_name_H-M "C 2/C"
_symmetry_group_IT_number 15
_symmetry_cell_setting 'monoclinic'
loop_
_space_group_symop_operation_xyz
x,y,z
-x,y,1/2-z
-x,-y,-z
x,-y,1/2+z
1/2+x,1/2+y,z
1/2-x,1/2+y,1/2-z
1/2-x,1/2-y,-z
1/2+x,1/2-y,1/2+z
loop_
_atom_site_type_symbol
_atom_site_label
_atom_site_fract_x
_atom_site_fract_y
_atom_site_fract_z
Si Si1 0.849026 0.026982 0.360876
Si Si2 0.548837 0.515226 0.240085
Si Si3 0.749472 0.896232 0.114696
Si Si4 0.886804 0.472469 0.460099
Si Si5 0.724668 0.922756 0.809385
Si Si6 0.056337 0.772450 0.979421
Si Si7 0.993403 0.783716 0.056595
Si Si8 0.724105 0.414906 0.986159
O O1 0.809040 0.005803 0.230390
O O2 0.868282 0.872962 0.426472
O O3 0.794143 0.115137 0.344276
O O4 0.926431 0.109009 0.443474
O O5 0.500000 0.482027 0.250000
O O6 0.515074 0.654337 0.152907
O O7 0.633862 0.560081 0.371133
O O8 0.545602 0.367343 0.185252
O O9 0.669682 0.900730 0.054121
O O10 0.786049 0.732284 0.161513
O O11 0.738062 0.962771 0.018386
O O12 0.846281 0.515571 0.329575
O O13 0.923776 0.623113 0.538545
O O14 0.957322 0.363646 0.542349
O O15 0.743493 0.052788 0.890525
O O16 0.041535 0.741788 0.047223
O O17 0.750000 0.250000 0.000000
#
# Coordination Sequence:
#
# PCOD8139697 Si02
#       8
#     8   8   8   8   8   8   8   8
#     4  10  20  39  67  95 126 174 229 269 339 403
#     4  11  26  46  71  95 139 186 225 272 350 419
#     4  11  23  42  66  98 139 179 222 280 349 404
#     4  11  25  40  71 103 131 174 230 293 340 394
#     4  11  24  43  67  97 138 175 219 283 343 411
#     4  11  22  41  67  98 134 168 229 291 334 394
#     4  11  22  43  67  99 131 178 232 278 340 408
#     4  12  28  44  72 101 136 181 232 281 339 417
#
# _framework density 22.175280000000001
#
# number of rings (size 3 to 8) (size 9 to 14) (size 15 to 20)
#    0.000    1.000    2.500    5.250    7.000    0.000 
#    0.000    0.625    0.000    0.000    0.000    0.000 
#    0.000    0.000    0.000    0.000    0.000    0.000 
#
# Total GULP energy -396803.275858 kJ/mol
# GULP energy per Si atom -12400.102371 kJ/mol
# Density = 2.212481 g / cm^3
# Si number density = 22.175280 Si / 1000 Ang^3
#
#
#
# Elastic Constant Matrix: (Units=GPa)
#
#
# Indices 1 2 3 4 5 6 
#
# 1 54.8239 19.2099 19.9766 0.0000 -4.8669 0.0000
# 2 19.2099 99.6767 22.8220 0.0000 9.8711 0.0000
# 3 19.9766 22.8220 69.8487 0.0000 -0.4604 0.0000
# 4 0.0000 0.0000 0.0000 24.1417 0.0000 0.0348
# 5 -4.8669 9.8711 -0.4604 0.0000 25.7645 0.0000
# 6 0.0000 0.0000 0.0000 0.0348 0.0000 36.9477
#
#
#
# Elastic Compliance Matrix: (Units=1/GPa)
#
#
# Indices 1 2 3 4 5 6 
#
# 1 0.021810 -0.003587 -0.005030 0.000000 0.005404 0.000000
# 2 -0.003587 0.011912 -0.002901 0.000000 -0.005293 0.000000
# 3 -0.005030 -0.002901 0.016706 0.000000 0.000460 0.000000
# 4 0.000000 0.000000 0.000000 0.041422 0.000000 -0.000039
# 5 0.005404 -0.005293 0.000460 0.000000 0.041870 0.000000
# 6 0.000000 0.000000 0.000000 -0.000039 0.000000 0.027065
#
#
# Mechanical properties :
#
#
# Convention : Reuss Voigt Hill
#
# Bulk Modulus (GPa) = 36.50688 38.70737 37.60713
# Shear Modulus (GPa) = 25.91319 28.19349 27.05334
#
# Velocity S-wave (km/s) = 3.42213 3.56953 3.49661
# Velocity P-wave (km/s) = 5.66686 5.87212 5.77040
#
# Compressibility (1/GPa) = 0.02739209
#
# Stress axis : x y z
#
# Youngs Moduli (GPa) = 45.85150 83.94796 59.85810
#
# Poissons Ratio (x) = 0.30110 0.30108
# Poissons Ratio (y) = 0.16446 0.17366
# Poissons Ratio (z) = 0.23063 0.24355
#
# Static dielectric constant tensor:
#      x y z
#    x 3.963670 0.000000 -0.001180 
#    y 0.000000 4.192260 0.000000 
#    z -0.001180 0.000000 3.908920 
# 
# 
# High freq. dielectric constant tensor:
#      x y z
#    x 1.875980 0.000000 0.006270 
#    y 0.000000 1.879040 0.000000 
#    z 0.006270 0.000000 1.862960 
# 
# From -- ./inp_files/224613.got.cif
#   From: 2010.06.25/outbox.cif.g09.slc.cpg/sg15_113_cif.got.tgz:224613.got - 2010.06.28 07:06:18.
