data_PCOD8139840
_publ_section_title
;
Structure prediction by ZEFSAII (Michael W. Deem and Ramdas Pophale) SiO2 
 PCOD8139840
Probable space group: C 2/C
;
_chemical_formula_sum "Si O2"
_cell_formula_units_Z 64
_cell_length_a 15.197822
_cell_length_b 17.241854
_cell_length_c 14.512634
_cell_angle_alpha 90.000000
_cell_angle_beta 125.232815
_cell_angle_gamma 90.000000
_cell_volume 3106.240405
_symmetry_space_group_name_H-M "C 2/C"
_symmetry_group_IT_number 15
_symmetry_cell_setting 'monoclinic'
loop_
_space_group_symop_operation_xyz
x,y,z
-x,y,1/2-z
-x,-y,-z
x,-y,1/2+z
1/2+x,1/2+y,z
1/2-x,1/2+y,1/2-z
1/2-x,1/2-y,-z
1/2+x,1/2-y,1/2+z
loop_
_atom_site_type_symbol
_atom_site_label
_atom_site_fract_x
_atom_site_fract_y
_atom_site_fract_z
Si Si1 0.095573 0.039748 0.147175
Si Si2 0.904245 0.691317 0.461364
Si Si3 0.750650 0.668593 0.047250
Si Si4 0.742541 0.247876 0.722692
Si Si5 0.524830 0.698779 0.160257
Si Si6 0.272228 0.959921 0.901453
Si Si7 0.612709 0.530500 0.949654
Si Si8 0.870376 0.619589 0.960058
O O1 0.030675 0.121201 0.102275
O O2 0.204094 0.050750 0.268327
O O3 0.126213 0.006833 0.065465
O O4 0.013457 0.981069 0.151177
O O5 0.848147 0.747163 0.351009
O O6 0.830422 0.621743 0.454624
O O7 0.931891 0.745732 0.564421
O O8 0.012364 0.653259 0.486489
O O9 0.757347 0.679199 0.161137
O O10 0.750000 0.750000 0.000000
O O11 0.642445 0.620903 0.956289
O O12 0.850864 0.624880 0.059326
O O13 0.639512 0.258341 0.725656
O O14 0.722534 0.167512 0.653727
O O15 0.500000 0.676731 0.250000
O O16 0.193468 0.976924 0.939526
O O17 0.358137 0.028266 0.930905
#
# Coordination Sequence:
#
# PCOD8139840 Si02
#       8
#     8   8   8   8   8   8   8   8
#     4  11  22  40  62  90 130 162 210 268 312 378
#     4  11  23  40  63  89 129 171 210 258 316 381
#     4   9  17  37  62  87 128 157 202 264 309 374
#     4  10  20  40  61  91 124 164 210 259 311 375
#     4  11  23  41  61  89 124 164 212 262 312 381
#     4  11  21  42  63  91 128 169 208 262 323 372
#     4  10  21  36  62  93 122 167 208 258 320 372
#     4   9  22  38  62  92 127 163 215 259 309 379
#
# _framework density 20.603684999999999
#
# number of rings (size 3 to 8) (size 9 to 14) (size 15 to 20)
#    0.000    1.750    2.500    1.500    0.000    3.000 
#    4.500    1.250    2.750    0.000    0.000    0.000 
#    0.000    0.000    0.000    0.000    0.000    0.000 
#
# Total GULP energy -396522.619883 kJ/mol
# GULP energy per Si atom -12391.331871 kJ/mol
# Density = 2.055679 g / cm^3
# Si number density = 20.603685 Si / 1000 Ang^3
#
#
#
# Elastic Constant Matrix: (Units=GPa)
#
#
# Indices 1 2 3 4 5 6 
#
# 1 83.9627 13.3506 29.8587 0.0000 -5.0482 0.0000
# 2 13.3506 75.6827 34.7797 0.0000 7.3522 0.0000
# 3 29.8587 34.7797 92.3402 0.0000 9.6018 0.0000
# 4 0.0000 0.0000 0.0000 30.4974 0.0000 6.7205
# 5 -5.0482 7.3522 9.6018 0.0000 31.5025 0.0000
# 6 0.0000 0.0000 0.0000 6.7205 0.0000 32.1440
#
#
#
# Elastic Compliance Matrix: (Units=1/GPa)
#
#
# Indices 1 2 3 4 5 6 
#
# 1 0.013894 -0.000694 -0.004626 0.000000 0.003798 0.000000
# 2 -0.000694 0.016131 -0.005627 0.000000 -0.002161 0.000000
# 3 -0.004626 -0.005627 0.014856 0.000000 -0.003956 0.000000
# 4 0.000000 0.000000 0.000000 0.034373 0.000000 -0.007187
# 5 0.003798 -0.002161 -0.003956 0.000000 0.034062 0.000000
# 6 0.000000 0.000000 0.000000 -0.007187 0.000000 0.032613
#
#
# Mechanical properties :
#
#
# Convention : Reuss Voigt Hill
#
# Bulk Modulus (GPa) = 43.50207 45.32929 44.41568
# Shear Modulus (GPa) = 28.49235 30.42855 29.46045
#
# Velocity S-wave (km/s) = 3.72274 3.84715 3.78546
# Velocity P-wave (km/s) = 6.29587 6.46393 6.38045
#
# Compressibility (1/GPa) = 0.02298741
#
# Stress axis : x y z
#
# Youngs Moduli (GPa) = 71.97366 61.99203 67.31244
#
# Poissons Ratio (x) = 0.04302 0.31141
# Poissons Ratio (y) = 0.04995 0.37874
# Poissons Ratio (z) = 0.33297 0.34881
#
# Static dielectric constant tensor:
#      x y z
#    x 3.829080 0.000000 0.006410 
#    y 0.000000 5.872830 0.000000 
#    z 0.006410 0.000000 3.546530 
# 
# 
# High freq. dielectric constant tensor:
#      x y z
#    x 1.818940 0.000000 -0.008700 
#    y 0.000000 1.808950 0.000000 
#    z -0.008700 0.000000 1.781630 
# 
# From -- ./inp_files/155523.got.cif
#   From: 2010.06.25/outbox.cif.g09.slc.cpg/sg15_78_cif.got.tgz:155523.got - 2010.06.28 07:06:18.
