data_PCOD8139801
_publ_section_title
;
Structure prediction by ZEFSAII (Michael W. Deem and Ramdas Pophale) SiO2 
 PCOD8139801
Probable space group: C 2/C
;
_chemical_formula_sum "Si O2"
_cell_formula_units_Z 60
_cell_length_a 10.500179
_cell_length_b 15.481698
_cell_length_c 18.254754
_cell_angle_alpha 90.000000
_cell_angle_beta 71.952423
_cell_angle_gamma 90.000000
_cell_volume 2821.501360
_symmetry_space_group_name_H-M "C 2/C"
_symmetry_group_IT_number 15
_symmetry_cell_setting 'monoclinic'
loop_
_space_group_symop_operation_xyz
x,y,z
-x,y,1/2-z
-x,-y,-z
x,-y,1/2+z
1/2+x,1/2+y,z
1/2-x,1/2+y,1/2-z
1/2-x,1/2-y,-z
1/2+x,1/2-y,1/2+z
loop_
_atom_site_type_symbol
_atom_site_label
_atom_site_fract_x
_atom_site_fract_y
_atom_site_fract_z
Si Si1 0.375044 0.435042 0.868612
Si Si2 0.332890 0.423164 0.713648
Si Si3 0.648507 0.040468 0.975835
Si Si4 0.945400 0.390151 0.146685
Si Si5 0.399581 0.063825 0.356482
Si Si6 0.265037 0.767297 0.262190
Si Si7 0.500000 0.785243 0.750000
Si Si8 0.672571 0.245224 0.589421
O O1 0.308105 0.454771 0.801382
O O2 0.529713 0.466594 0.841208
O O3 0.274739 0.475617 0.945945
O O4 0.398986 0.335505 0.883796
O O5 0.214160 0.455827 0.683259
O O6 0.338211 0.318748 0.718739
O O7 0.652072 0.107081 0.907519
O O8 0.667479 0.081890 0.052473
O O9 0.500000 0.000000 0.000000
O O10 0.861754 0.348032 0.227651
O O11 0.996175 0.484584 0.162138
O O12 0.069936 0.332680 0.100360
O O13 0.478813 0.151381 0.323290
O O14 0.235641 0.769731 0.354564
O O15 0.123959 0.776982 0.245523
O O16 0.750000 0.250000 0.500000
#
# Coordination Sequence:
#
# PCOD8139801 Si02
#       8
#     8   8   8   8   8   8   4   8
#     4  10  20  40  60  89 124 169 204 252 308 384
#     4   9  20  39  65  86 118 171 208 243 316 377
#     4  10  23  38  60  94 132 159 205 259 319 363
#     4  11  23  39  64  95 123 155 210 267 303 356
#     4  10  23  39  65  94 120 168 207 255 310 379
#     4  10  22  41  62  90 121 164 212 250 306 375
#     4  10  24  42  68  82 128 172 208 238 316 396
#     4  11  22  35  61  89 126 161 204 257 307 360
#
# _framework density 21.265273000000001
#
# number of rings (size 3 to 8) (size 9 to 14) (size 15 to 20)
#    0.000    1.867    1.333    2.000   14.933    0.533 
#    0.000    6.667    0.000    0.000    0.000    0.000 
#    0.000    0.000    0.000    0.000    0.000    0.000 
#
# Total GULP energy -371794.523999 kJ/mol
# GULP energy per Si atom -12393.150800 kJ/mol
# Density = 2.121687 g / cm^3
# Si number density = 21.265273 Si / 1000 Ang^3
#
#
#
# Elastic Constant Matrix: (Units=GPa)
#
#
# Indices 1 2 3 4 5 6 
#
# 1 103.0748 23.0511 44.4917 0.0000 2.4460 0.0000
# 2 23.0511 46.2887 18.4443 0.0000 6.4433 0.0000
# 3 44.4917 18.4443 138.1956 0.0000 6.4856 0.0000
# 4 0.0000 0.0000 0.0000 18.8165 0.0000 -2.0580
# 5 2.4460 6.4433 6.4856 0.0000 36.3962 0.0000
# 6 0.0000 0.0000 0.0000 -2.0580 0.0000 28.5686
#
#
#
# Elastic Compliance Matrix: (Units=1/GPa)
#
#
# Indices 1 2 3 4 5 6 
#
# 1 0.012199 -0.004843 -0.003310 0.000000 0.000627 0.000000
# 2 -0.004843 0.025197 -0.001623 0.000000 -0.003846 0.000000
# 3 -0.003310 -0.001623 0.008566 0.000000 -0.001017 0.000000
# 4 0.000000 0.000000 0.000000 0.053567 0.000000 0.003859
# 5 0.000627 -0.003846 -0.001017 0.000000 0.028295 0.000000
# 6 0.000000 0.000000 0.000000 0.003859 0.000000 0.035281
#
#
# Mechanical properties :
#
#
# Convention : Reuss Voigt Hill
#
# Bulk Modulus (GPa) = 37.86592 51.05927 44.46259
# Shear Modulus (GPa) = 26.11473 30.19440 28.15456
#
# Velocity S-wave (km/s) = 3.50815 3.77223 3.64259
# Velocity P-wave (km/s) = 5.85274 6.56016 6.21652
#
# Compressibility (1/GPa) = 0.02640897
#
# Stress axis : x y z
#
# Youngs Moduli (GPa) = 81.97514 39.68649 116.73698
#
# Poissons Ratio (x) = 0.19221 0.38645
# Poissons Ratio (y) = 0.39701 0.18950
# Poissons Ratio (z) = 0.27137 0.06442
#
# Static dielectric constant tensor:
#      x y z
#    x 3.849300 0.000000 0.124260 
#    y 0.000000 3.630410 0.000000 
#    z 0.124260 0.000000 4.332150 
# 
# 
# High freq. dielectric constant tensor:
#      x y z
#    x 1.831480 0.000000 0.000690 
#    y 0.000000 1.808090 0.000000 
#    z 0.000690 0.000000 1.845660 
# 
# From -- ./inp_files/199106.got.cif
#   From: 2010.06.25/outbox.cif.g09.slc.cpg/sg15_100_cif.got.tgz:199106.got - 2010.06.28 07:06:18.
