data_PCOD8139403
_publ_section_title
;
Structure prediction by ZEFSAII (Michael W. Deem and Ramdas Pophale) SiO2 
 PCOD8139403
Probable space group: C 2/C
;
_chemical_formula_sum "Si O2"
_cell_formula_units_Z 60
_cell_length_a 18.778686
_cell_length_b 15.209798
_cell_length_c 9.896812
_cell_angle_alpha 90.000000
_cell_angle_beta 99.562370
_cell_angle_gamma 90.000000
_cell_volume 2787.451265
_symmetry_space_group_name_H-M "C 2/C"
_symmetry_group_IT_number 15
_symmetry_cell_setting 'monoclinic'
loop_
_space_group_symop_operation_xyz
x,y,z
-x,y,1/2-z
-x,-y,-z
x,-y,1/2+z
1/2+x,1/2+y,z
1/2-x,1/2+y,1/2-z
1/2-x,1/2-y,-z
1/2+x,1/2-y,1/2+z
loop_
_atom_site_type_symbol
_atom_site_label
_atom_site_fract_x
_atom_site_fract_y
_atom_site_fract_z
Si Si1 0.366292 0.469781 0.846157
Si Si2 0.170606 0.777524 0.635921
Si Si3 0.371121 0.908128 0.019429
Si Si4 0.428934 0.249566 0.659661
Si Si5 0.081373 0.532051 0.239708
Si Si6 0.000000 0.080818 0.250000
Si Si7 0.689315 0.151227 0.415695
Si Si8 0.224352 0.984586 0.949481
O O1 0.367909 0.370518 0.902704
O O2 0.448710 0.484800 0.820930
O O3 0.307838 0.484103 0.710046
O O4 0.340667 0.531542 0.962363
O O5 0.142196 0.741588 0.769144
O O6 0.257429 0.788788 0.658920
O O7 0.147376 0.710290 0.511480
O O8 0.405413 0.809112 0.022179
O O9 0.391552 0.944943 0.174987
O O10 0.407020 0.973243 0.918889
O O11 0.284045 0.907022 0.976414
O O12 0.500000 0.204870 0.750000
O O13 0.449407 0.353388 0.640507
O O14 0.129669 0.614710 0.297260
O O15 0.000000 0.553618 0.250000
O O16 0.735184 0.076031 0.506865
#
# Coordination Sequence:
#
# PCOD8139403 Si02
#       8
#     8   8   8   8   8   4   8   8
#     4  10  20  39  61  91 114 160 195 251 298 356
#     4   9  18  36  61  80 112 160 205 236 290 363
#     4  11  22  37  55  91 120 159 196 244 296 360
#     4   9  20  34  61  81 113 160 202 235 292 362
#     4  11  24  35  56  85 125 154 197 242 300 359
#     4   8  20  40  60  84 116 160 204 238 304 366
#     4   9  20  36  59  85 116 161 201 244 295 357
#     4  10  21  35  61  88 122 146 201 248 297 346
#
# _framework density 21.525041000000002
#
# number of rings (size 3 to 8) (size 9 to 14) (size 15 to 20)
#    0.400    1.867    0.000    3.200    7.467    0.533 
#    0.000    6.000    0.000    0.000   19.067    0.000 
#    0.000    0.000    0.000    0.000    0.000    0.000 
#
# Total GULP energy -371665.658492 kJ/mol
# GULP energy per Si atom -12388.855283 kJ/mol
# Density = 2.147605 g / cm^3
# Si number density = 21.525041 Si / 1000 Ang^3
#
#
#
# Elastic Constant Matrix: (Units=GPa)
#
#
# Indices 1 2 3 4 5 6 
#
# 1 107.6454 18.8998 9.9571 0.0000 -18.4483 0.0000
# 2 18.8998 35.7933 15.1890 0.0000 4.8632 0.0000
# 3 9.9571 15.1890 51.8102 0.0000 -4.7062 0.0000
# 4 0.0000 0.0000 0.0000 20.4137 0.0000 5.3296
# 5 -18.4483 4.8632 -4.7062 0.0000 26.9447 0.0000
# 6 0.0000 0.0000 0.0000 5.3296 0.0000 26.0711
#
#
#
# Elastic Compliance Matrix: (Units=1/GPa)
#
#
# Indices 1 2 3 4 5 6 
#
# 1 0.012409 -0.008355 0.000989 0.000000 0.010177 0.000000
# 2 -0.008355 0.039103 -0.011196 0.000000 -0.014733 0.000000
# 3 0.000989 -0.011196 0.023004 0.000000 0.006716 0.000000
# 4 0.000000 0.000000 0.000000 0.051749 0.000000 -0.010579
# 5 0.010177 -0.014733 0.006716 0.000000 0.047913 0.000000
# 6 0.000000 0.000000 0.000000 -0.010579 0.000000 0.040519
#
#
# Mechanical properties :
#
#
# Convention : Reuss Voigt Hill
#
# Bulk Modulus (GPa) = 26.74423 31.48231 29.11327
# Shear Modulus (GPa) = 18.91898 24.76609 21.84254
#
# Velocity S-wave (km/s) = 2.96789 3.39569 3.18897
# Velocity P-wave (km/s) = 4.91896 5.48014 5.20711
#
# Compressibility (1/GPa) = 0.03739125
#
# Stress axis : x y z
#
# Youngs Moduli (GPa) = 80.58457 25.57362 43.47155
#
# Poissons Ratio (x) = 0.21366 -0.04299
# Poissons Ratio (y) = 0.67327 0.48672
# Poissons Ratio (z) = -0.07969 0.28633
#
# Static dielectric constant tensor:
#      x y z
#    x 4.246290 0.000000 -0.289960 
#    y 0.000000 3.683220 0.000000 
#    z -0.289960 0.000000 3.743280 
# 
# 
# High freq. dielectric constant tensor:
#      x y z
#    x 1.860150 0.000000 -0.017750 
#    y 0.000000 1.818120 0.000000 
#    z -0.017750 0.000000 1.818920 
# 
# From -- ./inp_files/56657.got.cif
#   From: 2010.06.25/outbox.cif.g09.slc.cpg/sg15_29_cif.got.tgz:56657.got - 2010.06.28 07:06:18.
