data_PCOD8139969
_publ_section_title
;
Structure prediction by ZEFSAII (Michael W. Deem and Ramdas Pophale) SiO2 
 PCOD8139969
Probable space group: C 2/C
;
_chemical_formula_sum "Si O2"
_cell_formula_units_Z 60
_cell_length_a 18.481319
_cell_length_b 20.828260
_cell_length_c 9.370620
_cell_angle_alpha 90.000000
_cell_angle_beta 53.046977
_cell_angle_gamma 90.000000
_cell_volume 2882.511132
_symmetry_space_group_name_H-M "C 2/C"
_symmetry_group_IT_number 15
_symmetry_cell_setting 'monoclinic'
loop_
_space_group_symop_operation_xyz
x,y,z
-x,y,1/2-z
-x,-y,-z
x,-y,1/2+z
1/2+x,1/2+y,z
1/2-x,1/2+y,1/2-z
1/2-x,1/2-y,-z
1/2+x,1/2-y,1/2+z
loop_
_atom_site_type_symbol
_atom_site_label
_atom_site_fract_x
_atom_site_fract_y
_atom_site_fract_z
Si Si1 0.210388 0.854743 0.308245
Si Si2 0.919095 0.050739 0.079334
Si Si3 0.226166 0.487847 0.327134
Si Si4 0.131285 0.739990 0.931476
Si Si5 0.662016 0.925838 0.674736
Si Si6 0.500000 0.152528 0.250000
Si Si7 0.410527 0.673660 0.281268
Si Si8 0.150723 0.135314 0.578998
O O1 0.269225 0.919285 0.259838
O O2 0.274009 0.797274 0.178714
O O3 0.166016 0.836760 0.509737
O O4 0.136448 0.868187 0.268153
O O5 0.933353 0.107189 0.176008
O O6 0.826684 0.015064 0.225921
O O7 0.911119 0.081774 0.928848
O O8 0.000000 0.000000 0.000000
O O9 0.182782 0.479735 0.532775
O O10 0.158885 0.536525 0.327438
O O11 0.121207 0.771073 0.788011
O O12 0.049364 0.692915 0.068339
O O13 0.126503 0.793865 0.058125
O O14 0.568158 0.891056 0.759271
O O15 0.743334 0.874514 0.581754
O O16 0.500000 0.700022 0.250000
#
# Coordination Sequence:
#
# PCOD8139969 Si02
#       8
#     8   8   8   8   8   4   8   8
#     4  11  21  41  65  92 126 166 215 264 328 388
#     4  10  21  41  64  97 134 170 215 257 318 397
#     4  10  20  40  64  90 127 167 205 257 326 379
#     4  11  24  42  65  91 125 171 219 268 319 387
#     4  10  22  40  63  93 123 164 213 266 322 381
#     4  12  24  42  68  92 122 162 234 266 304 388
#     4  11  25  40  60  96 131 167 205 269 328 385
#     4   9  21  41  66  94 123 179 212 259 329 385
#
# _framework density 20.815185
#
# number of rings (size 3 to 8) (size 9 to 14) (size 15 to 20)
#    0.000    1.600    2.667    2.400    1.867    2.667 
#    2.400    6.000    0.000    0.000    0.000    0.000 
#    0.000    0.000    0.000    0.000    0.000    0.000 
#
# Total GULP energy -371989.503687 kJ/mol
# GULP energy per Si atom -12399.650123 kJ/mol
# Density = 2.076781 g / cm^3
# Si number density = 20.815185 Si / 1000 Ang^3
#
#
#
# Elastic Constant Matrix: (Units=GPa)
#
#
# Indices 1 2 3 4 5 6 
#
# 1 127.6473 64.6645 41.2935 0.0000 8.3266 0.0000
# 2 64.6645 99.5735 27.8969 0.0000 8.0909 0.0000
# 3 41.2935 27.8969 91.3561 0.0000 14.7761 0.0000
# 4 0.0000 0.0000 0.0000 21.1196 0.0000 -1.7850
# 5 8.3266 8.0909 14.7761 0.0000 28.1596 0.0000
# 6 0.0000 0.0000 0.0000 -1.7850 0.0000 27.9388
#
#
#
# Elastic Compliance Matrix: (Units=1/GPa)
#
#
# Indices 1 2 3 4 5 6 
#
# 1 0.012624 -0.007224 -0.003532 0.000000 0.000196 0.000000
# 2 -0.007224 0.015177 -0.001103 0.000000 -0.001646 0.000000
# 3 -0.003532 -0.001103 0.013833 0.000000 -0.005897 0.000000
# 4 0.000000 0.000000 0.000000 0.047606 0.000000 0.003042
# 5 0.000196 -0.001646 -0.005897 0.000000 0.039021 0.000000
# 6 0.000000 0.000000 0.000000 0.003042 0.000000 0.035987
#
#
# Mechanical properties :
#
#
# Convention : Reuss Voigt Hill
#
# Bulk Modulus (GPa) = 55.81575 65.14297 60.47936
# Shear Modulus (GPa) = 25.78139 27.75839 26.76989
#
# Velocity S-wave (km/s) = 3.52317 3.65576 3.59008
# Velocity P-wave (km/s) = 6.58965 7.01308 6.80466
#
# Compressibility (1/GPa) = 0.01791609
#
# Stress axis : x y z
#
# Youngs Moduli (GPa) = 79.21696 65.88817 72.29032
#
# Poissons Ratio (x) = 0.47601 0.25530
# Poissons Ratio (y) = 0.57230 0.07973
# Poissons Ratio (z) = 0.27976 0.07267
#
# Static dielectric constant tensor:
#      x y z
#    x 3.623160 0.000000 0.085880 
#    y 0.000000 3.954210 0.000000 
#    z 0.085880 0.000000 3.632970 
# 
# 
# High freq. dielectric constant tensor:
#      x y z
#    x 1.815410 0.000000 0.011060 
#    y 0.000000 1.825050 0.000000 
#    z 0.011060 0.000000 1.807190 
# 
# From -- ./inp_files/50632.got.cif
#   From: 2010.06.25/outbox.cif.g09.slc.cpg/sg15_26_cif.got.tgz:50632.got - 2010.06.28 07:06:18.
