data_PCOD8139710
_publ_section_title
;
Structure prediction by ZEFSAII (Michael W. Deem and Ramdas Pophale) SiO2 
 PCOD8139710
Probable space group: C 2/C
;
_chemical_formula_sum "Si O2"
_cell_formula_units_Z 44
_cell_length_a 11.912288
_cell_length_b 23.840617
_cell_length_c 11.155347
_cell_angle_alpha 90.000000
_cell_angle_beta 138.201438
_cell_angle_gamma 90.000000
_cell_volume 2111.567065
_symmetry_space_group_name_H-M "C 2/C"
_symmetry_group_IT_number 15
_symmetry_cell_setting 'monoclinic'
loop_
_space_group_symop_operation_xyz
x,y,z
-x,y,1/2-z
-x,-y,-z
x,-y,1/2+z
1/2+x,1/2+y,z
1/2-x,1/2+y,1/2-z
1/2-x,1/2-y,-z
1/2+x,1/2-y,1/2+z
loop_
_atom_site_type_symbol
_atom_site_label
_atom_site_fract_x
_atom_site_fract_y
_atom_site_fract_z
Si Si1 0.850662 0.696829 0.939754
Si Si2 0.678535 0.594461 0.450369
Si Si3 0.183787 0.296911 0.356704
Si Si4 0.358455 0.008135 0.735564
Si Si5 0.000000 0.779281 0.250000
Si Si6 0.439284 0.088648 0.449357
O O1 0.826705 0.724189 0.788618
O O2 0.664257 0.683541 0.845911
O O3 0.950738 0.741742 0.097220
O O4 0.968219 0.641943 0.033902
O O5 0.500000 0.590075 0.250000
O O6 0.692305 0.649224 0.545474
O O7 0.699347 0.537267 0.543872
O O8 0.819312 0.605683 0.462117
O O9 0.250000 0.250000 0.500000
O O10 0.000000 0.317176 0.250000
O O11 0.500000 0.002990 0.750000
O O12 0.325750 0.945385 0.760679
O O13 0.411995 0.047993 0.887867
#
# Coordination Sequence:
#
# PCOD8139710 Si02
#       6
#     8   8   8   8   4   8
#     4  11  22  45  64  95 132 173 219 270 327 410
#     4  11  22  39  59  98 137 165 218 280 333 389
#     4  12  22  39  65  97 127 171 217 269 337 393
#     4   9  19  39  63  90 119 172 220 270 326 391
#     4  10  26  42  66  92 138 170 216 278 328 396
#     4  10  20  39  68  84 125 174 216 273 330 389
#
# _framework density 20.837603999999999
#
# number of rings (size 3 to 8) (size 9 to 14) (size 15 to 20)
#    0.000    1.455    3.636    2.182    1.273    0.727 
#    3.273    0.000   18.000    0.000    0.000    0.000 
#    0.000    0.000    0.000    0.000    0.000    0.000 
#
# Total GULP energy -272693.479586 kJ/mol
# GULP energy per Si atom -12395.158163 kJ/mol
# Density = 2.079018 g / cm^3
# Si number density = 20.837604 Si / 1000 Ang^3
#
#
#
# Elastic Constant Matrix: (Units=GPa)
#
#
# Indices 1 2 3 4 5 6 
#
# 1 80.9037 41.5470 41.1124 0.0000 -7.6780 0.0000
# 2 41.5470 101.7485 56.3069 0.0000 -10.3763 0.0000
# 3 41.1124 56.3069 142.8219 0.0000 -9.4111 0.0000
# 4 0.0000 0.0000 0.0000 48.2516 0.0000 20.1393
# 5 -7.6780 -10.3763 -9.4111 0.0000 41.0972 0.0000
# 6 0.0000 0.0000 0.0000 20.1393 0.0000 59.4139
#
#
#
# Elastic Compliance Matrix: (Units=1/GPa)
#
#
# Indices 1 2 3 4 5 6 
#
# 1 0.016449 -0.005141 -0.002631 0.000000 0.001173 0.000000
# 2 -0.005141 0.014354 -0.004065 0.000000 0.001733 0.000000
# 3 -0.002631 -0.004065 0.009403 0.000000 0.000636 0.000000
# 4 0.000000 0.000000 0.000000 0.024140 0.000000 -0.008183
# 5 0.001173 0.001733 0.000636 0.000000 0.025135 0.000000
# 6 0.000000 0.000000 0.000000 -0.008183 0.000000 0.019605
#
#
# Mechanical properties :
#
#
# Convention : Reuss Voigt Hill
#
# Bulk Modulus (GPa) = 60.48718 67.04519 63.76618
# Shear Modulus (GPa) = 36.16145 42.18640 39.17393
#
# Velocity S-wave (km/s) = 4.17033 4.50436 4.34056
# Velocity P-wave (km/s) = 7.23047 7.70047 7.46917
#
# Compressibility (1/GPa) = 0.01653243
#
# Stress axis : x y z
#
# Youngs Moduli (GPa) = 60.79526 69.66936 106.34456
#
# Poissons Ratio (x) = 0.35817 0.27977
# Poissons Ratio (y) = 0.31255 0.43226
# Poissons Ratio (z) = 0.15994 0.28319
#
# Static dielectric constant tensor:
#      x y z
#    x 3.740410 0.000000 -0.201000 
#    y 0.000000 3.782260 0.000000 
#    z -0.201000 0.000000 4.018830 
# 
# 
# High freq. dielectric constant tensor:
#      x y z
#    x 1.808880 0.000000 -0.016580 
#    y 0.000000 1.805420 0.000000 
#    z -0.016580 0.000000 1.821820 
# 
# From -- ./inp_files/32217.got.cif
#   From: 2010.06.25/outbox.cif.g09.slc.cpg/sg15_17_cif.got.tgz:32217.got - 2010.06.28 07:06:18.
