data_PCOD8139344
_publ_section_title
;
Structure prediction by ZEFSAII (Michael W. Deem and Ramdas Pophale) SiO2 
 PCOD8139344
Probable space group: C 2/C
;
_chemical_formula_sum "Si O2"
_cell_formula_units_Z 64
_cell_length_a 26.008822
_cell_length_b 6.619209
_cell_length_c 18.711977
_cell_angle_alpha 90.000000
_cell_angle_beta 86.000669
_cell_angle_gamma 90.000000
_cell_volume 3213.568753
_symmetry_space_group_name_H-M "C 2/C"
_symmetry_group_IT_number 15
_symmetry_cell_setting 'monoclinic'
loop_
_space_group_symop_operation_xyz
x,y,z
-x,y,1/2-z
-x,-y,-z
x,-y,1/2+z
1/2+x,1/2+y,z
1/2-x,1/2+y,1/2-z
1/2-x,1/2-y,-z
1/2+x,1/2-y,1/2+z
loop_
_atom_site_type_symbol
_atom_site_label
_atom_site_fract_x
_atom_site_fract_y
_atom_site_fract_z
Si Si1 0.813502 0.666361 0.709394
Si Si2 0.559981 0.264207 0.119549
Si Si3 0.856558 0.066049 0.448066
Si Si4 0.292516 0.494598 0.819597
Si Si5 0.627635 0.328269 0.922177
Si Si6 0.445372 0.656229 0.609465
Si Si7 0.122906 0.289700 0.752392
Si Si8 0.591197 0.052732 0.504457
O O1 0.765763 0.570687 0.671947
O O2 0.792366 0.780751 0.780384
O O3 0.841078 0.824717 0.654316
O O4 0.855144 0.509115 0.733569
O O5 0.593390 0.448343 0.086054
O O6 0.502506 0.349542 0.135744
O O7 0.580824 0.191391 0.193879
O O8 0.558900 0.073346 0.065904
O O9 0.808991 0.040975 0.399497
O O10 0.869027 0.302638 0.457081
O O11 0.840371 0.966580 0.525117
O O12 0.330397 0.646996 0.775471
O O13 0.571373 0.432984 0.916156
O O14 0.622601 0.101121 0.951448
O O15 0.404251 0.713761 0.673551
O O16 0.444942 0.811331 0.542727
#
# Coordination Sequence:
#
# PCOD8139344 Si02
#       8
#     8   8   8   8   8   8   8   8
#     4  12  22  40  65  90 116 163 205 250 307 361
#     4  10  22  37  60  89 122 161 201 245 298 353
#     4   9  22  41  59  89 127 155 196 256 297 352
#     4  11  23  40  65  90 116 157 206 248 308 361
#     4  10  22  38  62  88 125 158 201 248 299 356
#     4  11  21  37  62  87 123 161 200 243 298 358
#     4  11  22  40  60  88 123 156 201 257 297 357
#     4  10  20  39  60  88 123 159 201 242 297 352
#
# _framework density 19.915552999999999
#
# number of rings (size 3 to 8) (size 9 to 14) (size 15 to 20)
#    0.000    1.500    3.750    1.500    0.000    6.000 
#    0.000    0.625    0.000    0.000    0.000    0.000 
#    0.000    0.000    0.000    0.000    0.000    0.000 
#
# Total GULP energy -396860.090096 kJ/mol
# GULP energy per Si atom -12401.877816 kJ/mol
# Density = 1.987022 g / cm^3
# Si number density = 19.915553 Si / 1000 Ang^3
#
#
#
# Elastic Constant Matrix: (Units=GPa)
#
#
# Indices 1 2 3 4 5 6 
#
# 1 100.2427 44.3947 47.1954 0.0000 28.8186 0.0000
# 2 44.3947 109.2333 42.6377 0.0000 9.1594 0.0000
# 3 47.1954 42.6377 97.2029 0.0000 26.3603 0.0000
# 4 0.0000 0.0000 0.0000 30.2072 0.0000 -1.4676
# 5 28.8186 9.1594 26.3603 0.0000 25.8232 0.0000
# 6 0.0000 0.0000 0.0000 -1.4676 0.0000 24.9739
#
#
#
# Elastic Compliance Matrix: (Units=1/GPa)
#
#
# Indices 1 2 3 4 5 6 
#
# 1 0.017783 -0.005076 -0.002093 0.000000 -0.015908 0.000000
# 2 -0.005076 0.012533 -0.004651 0.000000 0.005968 0.000000
# 3 -0.002093 -0.004651 0.016958 0.000000 -0.013325 0.000000
# 4 0.000000 0.000000 0.000000 0.033199 0.000000 0.001951
# 5 -0.015908 0.005968 -0.013325 0.000000 0.067964 0.000000
# 6 0.000000 0.000000 0.000000 0.001951 0.000000 0.040157
#
#
# Mechanical properties :
#
#
# Convention : Reuss Voigt Hill
#
# Bulk Modulus (GPa) = 42.31541 63.90384 53.10962
# Shear Modulus (GPa) = 22.71565 27.69760 25.20663
#
# Velocity S-wave (km/s) = 3.38094 3.73332 3.56149
# Velocity P-wave (km/s) = 6.04438 7.12325 6.60588
#
# Compressibility (1/GPa) = 0.02363205
#
# Stress axis : x y z
#
# Youngs Moduli (GPa) = 56.23353 79.78966 58.96956
#
# Poissons Ratio (x) = 0.40504 0.12345
# Poissons Ratio (y) = 0.28546 0.27428
# Poissons Ratio (z) = 0.11772 0.37112
#
# Static dielectric constant tensor:
#      x y z
#    x 3.345770 0.000000 0.137440 
#    y 0.000000 3.658420 0.000000 
#    z 0.137440 0.000000 3.799300 
# 
# 
# High freq. dielectric constant tensor:
#      x y z
#    x 1.758560 0.000000 0.009710 
#    y 0.000000 1.784130 0.000000 
#    z 0.009710 0.000000 1.791720 
# 
# From -- ./inp_files/256562.got.cif
#   From: 2010.06.25/outbox.cif.g09.slc.cpg/sg15_129_cif.got.tgz:256562.got - 2010.06.28 07:06:18.
