data_PCOD8139212
_publ_section_title
;
Structure prediction by ZEFSAII (Michael W. Deem and Ramdas Pophale) SiO2 
 PCOD8139212
Probable space group: C 2/C
;
_chemical_formula_sum "Si O2"
_cell_formula_units_Z 40
_cell_length_a 14.682521
_cell_length_b 16.504613
_cell_length_c 14.510871
_cell_angle_alpha 90.000000
_cell_angle_beta 30.128737
_cell_angle_gamma 90.000000
_cell_volume 1765.042795
_symmetry_space_group_name_H-M "C 2/C"
_symmetry_group_IT_number 15
_symmetry_cell_setting 'monoclinic'
loop_
_space_group_symop_operation_xyz
x,y,z
-x,y,1/2-z
-x,-y,-z
x,-y,1/2+z
1/2+x,1/2+y,z
1/2-x,1/2+y,1/2-z
1/2-x,1/2-y,-z
1/2+x,1/2-y,1/2+z
loop_
_atom_site_type_symbol
_atom_site_label
_atom_site_fract_x
_atom_site_fract_y
_atom_site_fract_z
Si Si1 0.491344 0.594255 0.357877
Si Si2 0.712921 0.960540 0.406482
Si Si3 0.159292 0.480921 0.247377
Si Si4 0.661072 0.652304 0.386386
Si Si5 0.124165 0.802391 0.224201
O O1 0.500000 0.637404 0.250000
O O2 0.602104 0.510857 0.251624
O O3 0.284755 0.570614 0.567841
O O4 0.584643 0.655412 0.348663
O O5 0.552084 0.011020 0.599129
O O6 0.738661 0.872203 0.433776
O O7 0.660277 0.939637 0.346965
O O8 0.223907 0.572596 0.201029
O O9 0.778093 0.730846 0.307453
O O10 0.491860 0.647165 0.601672
O O11 0.000000 0.767070 0.250000
#
# Coordination Sequence:
#
# PCOD8139212 Si02
#       5
#     8   8   8   8   8
#     4  11  22  43  66  93 128 175 219 270 319 376
#     4  10  20  38  67  96 125 165 217 265 329 386
#     4  10  20  39  66  92 127 172 211 269 322 379
#     4  11  23  41  61  93 136 167 215 267 324 394
#     4  12  23  40  63  98 134 173 209 272 336 392
#
# _framework density 22.662338999999999
#
# number of rings (size 3 to 8) (size 9 to 14) (size 15 to 20)
#    0.000    1.200    4.000    3.600    0.000    0.800 
#    0.000    1.000    0.000    0.000    0.000    0.000 
#    0.000    0.000    0.000    0.000    0.000    0.000 
#
# Total GULP energy -247902.943926 kJ/mol
# GULP energy per Si atom -12395.147196 kJ/mol
# Density = 2.261076 g / cm^3
# Si number density = 22.662339 Si / 1000 Ang^3
#
#
#
# Elastic Constant Matrix: (Units=GPa)
#
#
# Indices 1 2 3 4 5 6 
#
# 1 126.4693 49.3215 43.5087 0.0036 7.7312 -0.0010
# 2 49.3215 84.1944 19.2243 -0.0181 -12.8233 0.0070
# 3 43.5087 19.2243 127.1136 -0.0151 -4.1049 0.0049
# 4 0.0036 -0.0181 -0.0151 4.4143 0.0093 6.0379
# 5 7.7312 -12.8233 -4.1049 0.0093 35.3262 -0.0010
# 6 -0.0010 0.0070 0.0049 6.0379 -0.0010 25.1882
#
#
#
# Elastic Compliance Matrix: (Units=1/GPa)
#
#
# Indices 1 2 3 4 5 6 
#
# 1 0.012217 -0.007279 -0.003265 -0.000064 -0.005695 0.000018
# 2 -0.007279 0.017314 0.000128 0.000100 0.007893 -0.000029
# 3 -0.003265 0.000128 0.009024 0.000049 0.001809 -0.000014
# 4 -0.000064 0.000100 0.000049 0.337048 -0.000035 -0.080794
# 5 -0.005695 0.007893 0.001809 -0.000035 0.032629 0.000007
# 6 0.000018 -0.000029 -0.000014 -0.080794 0.000007 0.059068
#
#
# Mechanical properties :
#
#
# Convention : Reuss Voigt Hill
#
# Bulk Modulus (GPa) = 56.42331 62.43181 59.42756
# Shear Modulus (GPa) = 10.12064 28.03394 19.07729
#
# Velocity S-wave (km/s) = 2.11555 3.52096 2.90454
# Velocity P-wave (km/s) = 5.56047 6.64364 6.12604
#
# Compressibility (1/GPa) = 0.01772317
#
# Stress axis : x y z
#
# Youngs Moduli (GPa) = 81.85314 57.75612 110.82094
#
# Poissons Ratio (x) = 0.42039 0.36180
# Poissons Ratio (y) = 0.59579 -0.01416
# Poissons Ratio (z) = 0.26723 -0.00738
#
# Static dielectric constant tensor:
#      x y z
#    x 4.404750 -0.000030 -0.112030 
#    y -0.000030 3.602490 0.000040 
#    z -0.112030 0.000040 4.544840 
# 
# 
# High freq. dielectric constant tensor:
#      x y z
#    x 1.892020 0.000000 -0.007310 
#    y 0.000000 1.859570 0.000000 
#    z -0.007310 0.000000 1.910200 
# 
# From -- ./inp_files/155355.got.cif
#   From: 2010.06.25/outbox.cif.g09.slc.cpg/sg15_78_cif.got.tgz:155355.got - 2010.06.28 07:06:18.
