data_PCOD8139125
_publ_section_title
;
Structure prediction by ZEFSAII (Michael W. Deem and Ramdas Pophale) SiO2 
 PCOD8139125
Probable space group: C 2/C
;
_chemical_formula_sum "Si O2"
_cell_formula_units_Z 56
_cell_length_a 11.148489
_cell_length_b 31.457619
_cell_length_c 8.974999
_cell_angle_alpha 90.000000
_cell_angle_beta 119.593918
_cell_angle_gamma 90.000000
_cell_volume 2736.966653
_symmetry_space_group_name_H-M "C 2/C"
_symmetry_group_IT_number 15
_symmetry_cell_setting 'monoclinic'
loop_
_space_group_symop_operation_xyz
x,y,z
-x,y,1/2-z
-x,-y,-z
x,-y,1/2+z
1/2+x,1/2+y,z
1/2-x,1/2+y,1/2-z
1/2-x,1/2-y,-z
1/2+x,1/2-y,1/2+z
loop_
_atom_site_type_symbol
_atom_site_label
_atom_site_fract_x
_atom_site_fract_y
_atom_site_fract_z
Si Si1 0.000000 0.081576 0.750000
Si Si2 0.814425 0.104303 0.383243
Si Si3 0.242817 0.049782 0.744530
Si Si4 0.660204 0.024503 0.380726
Si Si5 0.426919 0.834769 0.844030
Si Si6 0.000000 0.145987 0.250000
Si Si7 0.614260 0.864926 0.209316
Si Si8 0.755032 0.300053 0.997658
O O1 0.080631 0.049982 0.685847
O O2 0.895052 0.110934 0.589901
O O3 0.756524 0.056213 0.342770
O O4 0.679658 0.133036 0.296808
O O5 0.918590 0.114955 0.312351
O O6 0.269490 0.099437 0.727577
O O7 0.282800 0.022344 0.624838
O O8 0.328920 0.031844 0.936500
O O9 0.500000 0.030094 0.250000
O O10 0.500000 0.810135 0.750000
O O11 0.548535 0.858635 0.007078
O O12 0.344948 0.804558 0.903591
O O13 0.106627 0.177472 0.396901
O O14 0.500000 0.883722 0.250000
O O15 0.671192 0.820439 0.312713
O O16 0.750000 0.250000 0.000000
#
# Coordination Sequence:
#
# PCOD8139125 Si02
#       8
#     4   8   8   8   8   4   8   8
#     4  10  22  37  56  78 124 162 208 258 312 377
#     4  10  21  38  59  89 119 165 205 254 316 366
#     4  11  23  37  56  86 121 165 211 257 315 361
#     4  11  23  37  59  86 123 163 213 270 302 366
#     4  10  20  38  65  93 122 158 206 260 313 376
#     4  10  22  37  64  90 122 158 212 252 306 395
#     4  10  21  39  64  89 121 166 205 259 317 377
#     4  10  23  40  66  91 123 165 203 258 317 384
#
# _framework density 20.460605999999999
#
# number of rings (size 3 to 8) (size 9 to 14) (size 15 to 20)
#    0.000    1.714    0.000    4.714    3.000    7.429 
#    0.000    0.714    9.429    0.000    0.000    0.000 
#    0.000    0.000    0.000    0.000    0.000    0.000 
#
# Total GULP energy -347037.321933 kJ/mol
# GULP energy per Si atom -12394.190069 kJ/mol
# Density = 2.041404 g / cm^3
# Si number density = 20.460606 Si / 1000 Ang^3
#
#
#
# Elastic Constant Matrix: (Units=GPa)
#
#
# Indices 1 2 3 4 5 6 
#
# 1 112.1263 42.9156 36.8390 0.0000 -1.3659 0.0000
# 2 42.9156 121.9515 41.1432 0.0000 -1.1519 0.0000
# 3 36.8390 41.1432 112.9684 0.0000 8.0833 0.0000
# 4 0.0000 0.0000 0.0000 17.6818 0.0000 -1.6171
# 5 -1.3659 -1.1519 8.0833 0.0000 38.4328 0.0000
# 6 0.0000 0.0000 0.0000 -1.6171 0.0000 17.1838
#
#
#
# Elastic Compliance Matrix: (Units=1/GPa)
#
#
# Indices 1 2 3 4 5 6 
#
# 1 0.010898 -0.002974 -0.002530 0.000000 0.000830 0.000000
# 2 -0.002974 0.010199 -0.002801 0.000000 0.000789 0.000000
# 3 -0.002530 -0.002801 0.010873 0.000000 -0.002461 0.000000
# 4 0.000000 0.000000 0.000000 0.057046 0.000000 0.005368
# 5 0.000830 0.000789 -0.002461 0.000000 0.026590 0.000000
# 6 0.000000 0.000000 0.000000 0.005368 0.000000 0.058700
#
#
# Mechanical properties :
#
#
# Convention : Reuss Voigt Hill
#
# Bulk Modulus (GPa) = 65.10333 65.42686 65.26509
# Shear Modulus (GPa) = 25.50543 29.73625 27.62084
#
# Velocity S-wave (km/s) = 3.53450 3.81641 3.67816
# Velocity P-wave (km/s) = 6.96741 7.17401 7.07146
#
# Compressibility (1/GPa) = 0.01536020
#
# Stress axis : x y z
#
# Youngs Moduli (GPa) = 91.75923 98.04953 91.96716
#
# Poissons Ratio (x) = 0.29156 0.23270
# Poissons Ratio (y) = 0.27286 0.25762
# Poissons Ratio (z) = 0.23218 0.27466
#
# Static dielectric constant tensor:
#      x y z
#    x 4.012300 0.000000 0.038180 
#    y 0.000000 3.390030 0.000000 
#    z 0.038180 0.000000 3.909530 
# 
# 
# High freq. dielectric constant tensor:
#      x y z
#    x 1.823930 0.000000 0.005510 
#    y 0.000000 1.767900 0.000000 
#    z 0.005510 0.000000 1.807390 
# 
# From -- ./inp_files/35815.got.cif
#   From: 2010.06.25/outbox.cif.g09.slc.cpg/sg15_18_cif.got.tgz:35815.got - 2010.06.28 07:06:18.
