data_PCOD8139590
_publ_section_title
;
Structure prediction by ZEFSAII (Michael W. Deem and Ramdas Pophale) SiO2 
 PCOD8139590
Probable space group: C 2/C
;
_chemical_formula_sum "Si O2"
_cell_formula_units_Z 56
_cell_length_a 24.999286
_cell_length_b 22.217222
_cell_length_c 16.105189
_cell_angle_alpha 90.000000
_cell_angle_beta 162.200933
_cell_angle_gamma 90.000000
_cell_volume 2734.323700
_symmetry_space_group_name_H-M "C 2/C"
_symmetry_group_IT_number 15
_symmetry_cell_setting 'monoclinic'
loop_
_space_group_symop_operation_xyz
x,y,z
-x,y,1/2-z
-x,-y,-z
x,-y,1/2+z
1/2+x,1/2+y,z
1/2-x,1/2+y,1/2-z
1/2-x,1/2-y,-z
1/2+x,1/2-y,1/2+z
loop_
_atom_site_type_symbol
_atom_site_label
_atom_site_fract_x
_atom_site_fract_y
_atom_site_fract_z
Si Si1 0.951700 0.598294 0.933441
Si Si2 0.630137 0.225297 0.749171
Si Si3 0.500000 0.022061 0.250000
Si Si4 0.500000 0.783217 0.750000
Si Si5 0.241787 0.221098 0.237678
Si Si6 0.809784 0.379843 0.568715
Si Si7 0.176082 0.490241 0.662562
Si Si8 0.065148 0.892947 0.435891
O O1 0.851302 0.653026 0.738641
O O2 0.822050 0.560021 0.802656
O O3 0.114232 0.628246 0.225281
O O4 0.020308 0.549045 0.971104
O O5 0.431715 0.241203 0.484659
O O6 0.697619 0.257239 0.765172
O O7 0.750000 0.250000 0.000000
O O8 0.603413 0.059714 0.334912
O O9 0.641862 0.984910 0.512815
O O10 0.410649 0.744242 0.547421
O O11 0.352055 0.823136 0.574403
O O12 0.222560 0.148644 0.204460
O O13 0.603222 0.387911 0.254687
O O14 0.364248 0.461368 0.961295
O O15 0.000000 0.872076 0.250000
#
# Coordination Sequence:
#
# PCOD8139590 Si02
#       8
#     8   8   4   4   8   8   8   8
#     4  10  20  42  67  88 128 180 224 266 342 403
#     4  12  26  46  69  98 140 183 228 272 347 428
#     4   9  22  38  62  90 128 172 217 268 342 396
#     4  11  22  38  70  96 134 162 217 278 360 386
#     4  12  25  42  68 102 131 178 222 286 341 409
#     4  10  20  39  64  96 127 164 214 289 333 399
#     4  10  21  39  66  91 126 176 224 272 337 402
#     4  12  22  37  64  99 129 163 226 280 337 397
#
# _framework density 20.480384000000001
#
# number of rings (size 3 to 8) (size 9 to 14) (size 15 to 20)
#    0.000    1.143    5.000    1.286    0.000    2.857 
#    0.000    1.429    0.000    0.000    0.000    0.000 
#    0.000    0.000    0.000    0.000    0.000    0.000 
#
# Total GULP energy -347070.792834 kJ/mol
# GULP energy per Si atom -12395.385458 kJ/mol
# Density = 2.043377 g / cm^3
# Si number density = 20.480384 Si / 1000 Ang^3
#
#
#
# Elastic Constant Matrix: (Units=GPa)
#
#
# Indices 1 2 3 4 5 6 
#
# 1 112.1026 37.8635 54.2957 0.0000 -7.5423 0.0000
# 2 37.8635 98.9009 42.2765 0.0000 -9.5299 0.0000
# 3 54.2957 42.2765 104.3236 0.0001 1.4620 0.0002
# 4 0.0000 0.0000 0.0001 58.7979 0.0000 47.2774
# 5 -7.5423 -9.5299 1.4620 0.0000 44.8810 0.0000
# 6 0.0000 0.0000 0.0002 47.2774 0.0000 136.8734
#
#
#
# Elastic Compliance Matrix: (Units=1/GPa)
#
#
# Indices 1 2 3 4 5 6 
#
# 1 0.012524 -0.002204 -0.005651 0.000000 0.001821 0.000000
# 2 -0.002204 0.012969 -0.004144 0.000000 0.002518 0.000000
# 3 -0.005651 -0.004144 0.014238 0.000000 -0.002293 0.000000
# 4 0.000000 0.000000 0.000000 0.023547 0.000000 -0.008133
# 5 0.001821 0.002518 -0.002293 0.000000 0.023197 0.000000
# 6 0.000000 0.000000 0.000000 -0.008133 0.000000 0.010115
#
#
# Mechanical properties :
#
#
# Convention : Reuss Voigt Hill
#
# Bulk Modulus (GPa) = 63.55601 64.91093 64.23347
# Shear Modulus (GPa) = 39.73568 60.16989 49.95278
#
# Velocity S-wave (km/s) = 4.40953 5.42615 4.94404
# Velocity P-wave (km/s) = 7.55151 8.42736 8.00143
#
# Compressibility (1/GPa) = 0.01573415
#
# Stress axis : x y z
#
# Youngs Moduli (GPa) = 79.84598 77.10767 70.23530
#
# Poissons Ratio (x) = 0.16994 0.39687
# Poissons Ratio (y) = 0.17597 0.29104
# Poissons Ratio (z) = 0.45118 0.31952
#
# Static dielectric constant tensor:
#      x y z
#    x 3.884140 0.000000 -0.065060 
#    y 0.000000 3.803070 0.000000 
#    z -0.065060 0.000000 3.735800 
# 
# 
# High freq. dielectric constant tensor:
#      x y z
#    x 1.811330 0.000000 -0.000490 
#    y 0.000000 1.801570 0.000000 
#    z -0.000490 0.000000 1.782480 
# 
# From -- ./inp_files/174800.got.cif
#   From: 2010.06.25/outbox.cif.g09.slc.cpg/sg15_88_cif.got.tgz:174800.got - 2010.06.28 07:06:18.
