data_PCOD8139994
_publ_section_title
;
Structure prediction by ZEFSAII (Michael W. Deem and Ramdas Pophale) SiO2 
 PCOD8139994
Probable space group: C 2/C
;
_chemical_formula_sum "Si O2"
_cell_formula_units_Z 48
_cell_length_a 10.811095
_cell_length_b 16.273765
_cell_length_c 11.863207
_cell_angle_alpha 90.000000
_cell_angle_beta 94.427744
_cell_angle_gamma 90.000000
_cell_volume 2080.950436
_symmetry_space_group_name_H-M "C 2/C"
_symmetry_group_IT_number 15
_symmetry_cell_setting 'monoclinic'
loop_
_space_group_symop_operation_xyz
x,y,z
-x,y,1/2-z
-x,-y,-z
x,-y,1/2+z
1/2+x,1/2+y,z
1/2-x,1/2+y,1/2-z
1/2-x,1/2-y,-z
1/2+x,1/2-y,1/2+z
loop_
_atom_site_type_symbol
_atom_site_label
_atom_site_fract_x
_atom_site_fract_y
_atom_site_fract_z
Si Si1 0.636678 0.615934 0.281865
Si Si2 0.483123 0.820488 0.622317
Si Si3 0.289694 0.877897 0.004845
Si Si4 0.770929 0.442086 0.584758
Si Si5 0.184797 0.820173 0.424706
Si Si6 0.856088 0.304228 0.236589
O O1 0.500000 0.579970 0.250000
O O2 0.667004 0.615083 0.417983
O O3 0.730724 0.560472 0.213570
O O4 0.644517 0.708034 0.234578
O O5 0.500000 0.850091 0.750000
O O6 0.608592 0.836358 0.566112
O O7 0.382060 0.880616 0.561311
O O8 0.446037 0.723126 0.618226
O O9 0.285344 0.818544 0.112874
O O10 0.317388 0.968110 0.054965
O O11 0.661458 0.403797 0.496418
O O12 0.250000 0.750000 0.500000
O O13 0.270519 0.846821 0.324547
O O14 0.000000 0.336836 0.250000
#
# Coordination Sequence:
#
# PCOD8139994 Si02
#       6
#     8   8   8   8   8   8
#     4  11  25  46  68  93 137 187 240 293 348 419
#     4  11  21  41  69 104 139 176 231 294 354 420
#     4  12  26  41  72 104 139 180 244 291 354 427
#     4  11  24  43  65  99 146 182 223 298 367 414
#     4  10  20  40  64  95 137 183 225 276 354 416
#     4  11  22  41  71 104 136 183 239 291 346 426
#
# _framework density 23.066382999999998
#
# number of rings (size 3 to 8) (size 9 to 14) (size 15 to 20)
#    0.000    1.000    5.000    3.000    4.667    1.333 
#    0.000    0.833    0.000    0.000    0.000    0.000 
#    0.000    0.000    0.000    0.000    0.000    0.000 
#
# Total GULP energy -297441.269953 kJ/mol
# GULP energy per Si atom -12393.386248 kJ/mol
# Density = 2.301388 g / cm^3
# Si number density = 23.066383 Si / 1000 Ang^3
#
#
#
# Elastic Constant Matrix: (Units=GPa)
#
#
# Indices 1 2 3 4 5 6 
#
# 1 86.9404 19.0850 42.6028 0.0000 8.8211 0.0000
# 2 19.0850 66.9485 8.6037 0.0000 -10.7526 0.0000
# 3 42.6028 8.6037 154.4807 0.0000 -5.1492 0.0000
# 4 0.0000 0.0000 0.0000 25.2677 0.0000 -1.7618
# 5 8.8211 -10.7526 -5.1492 0.0000 32.9431 0.0000
# 6 0.0000 0.0000 0.0000 -1.7618 0.0000 26.5767
#
#
#
# Elastic Compliance Matrix: (Units=1/GPa)
#
#
# Indices 1 2 3 4 5 6 
#
# 1 0.015229 -0.004821 -0.004141 0.000000 -0.006299 0.000000
# 2 -0.004821 0.017367 0.000597 0.000000 0.007053 0.000000
# 3 -0.004141 0.000597 0.007666 0.000000 0.002502 0.000000
# 4 0.000000 0.000000 0.000000 0.039760 0.000000 0.002636
# 5 -0.006299 0.007053 0.002502 0.000000 0.034735 0.000000
# 6 0.000000 0.000000 0.000000 0.002636 0.000000 0.037802
#
#
# Mechanical properties :
#
#
# Convention : Reuss Voigt Hill
#
# Bulk Modulus (GPa) = 42.49526 49.88365 46.18945
# Shear Modulus (GPa) = 28.22768 32.82937 30.52853
#
# Velocity S-wave (km/s) = 3.50202 3.77670 3.64195
# Velocity P-wave (km/s) = 5.90044 6.37895 6.14436
#
# Compressibility (1/GPa) = 0.02353204
#
# Stress axis : x y z
#
# Youngs Moduli (GPa) = 65.66541 57.58030 130.45443
#
# Poissons Ratio (x) = 0.27757 0.54024
# Poissons Ratio (y) = 0.31655 -0.07792
# Poissons Ratio (z) = 0.27194 -0.03439
#
# Static dielectric constant tensor:
#      x y z
#    x 3.854940 0.000000 0.962030 
#    y 0.000000 4.091100 0.000000 
#    z 0.962030 0.000000 3.781300 
# 
# 
# High freq. dielectric constant tensor:
#      x y z
#    x 1.893610 0.000000 0.003490 
#    y 0.000000 1.886720 0.000000 
#    z 0.003490 0.000000 1.929780 
# 
# From -- ./inp_files/87358.got.cif
#   From: 2010.06.25/outbox.cif.g09.slc.cpg/sg15_44_cif.got.tgz:87358.got - 2010.06.28 07:06:18.
