data_PCOD8139477
_publ_section_title
;
Structure prediction by ZEFSAII (Michael W. Deem and Ramdas Pophale) SiO2 
 PCOD8139477
Probable space group: C 2/C
;
_chemical_formula_sum "Si O2"
_cell_formula_units_Z 40
_cell_length_a 26.514889
_cell_length_b 8.400973
_cell_length_c 19.713349
_cell_angle_alpha 90.000000
_cell_angle_beta 153.696658
_cell_angle_gamma 90.000000
_cell_volume 1945.828575
_symmetry_space_group_name_H-M "C 2/C"
_symmetry_group_IT_number 15
_symmetry_cell_setting 'monoclinic'
loop_
_space_group_symop_operation_xyz
x,y,z
-x,y,1/2-z
-x,-y,-z
x,-y,1/2+z
1/2+x,1/2+y,z
1/2-x,1/2+y,1/2-z
1/2-x,1/2-y,-z
1/2+x,1/2-y,1/2+z
loop_
_atom_site_type_symbol
_atom_site_label
_atom_site_fract_x
_atom_site_fract_y
_atom_site_fract_z
Si Si1 0.714708 0.812332 0.637911
Si Si2 0.242174 0.884542 0.575290
Si Si3 0.631750 0.963406 0.155847
Si Si4 0.796588 0.965411 0.121807
Si Si5 0.463266 0.570506 0.133478
O O1 0.828119 0.720843 0.802122
O O2 0.608077 0.694014 0.498194
O O3 0.688206 0.939619 0.663334
O O4 0.734190 0.899379 0.589707
O O5 0.260805 0.946010 0.521058
O O6 0.279187 0.704924 0.636054
O O7 0.324189 0.994163 0.716954
O O8 0.111379 0.913102 0.439548
O O9 0.500000 0.000000 0.000000
O O10 0.929220 0.010711 0.279504
O O11 0.500000 0.649296 0.250000
#
# Coordination Sequence:
#
# PCOD8139477 Si02
#       5
#     8   8   8   8   8
#     4  11  23  38  60  87 116 154 196 234 284 348
#     4   9  21  39  60  85 114 149 195 237 286 346
#     4  11  24  40  57  84 120 154 190 236 289 344
#     4  10  20  39  63  85 114 150 191 244 287 331
#     4   9  20  38  59  86 117 150 192 242 290 335
#
# _framework density 20.556794
#
# number of rings (size 3 to 8) (size 9 to 14) (size 15 to 20)
#    0.000    2.000    0.000    2.400    0.000   13.600 
#    0.000   12.000    0.000    0.000    0.000    0.000 
#    0.000    0.000    0.000    0.000    0.000    0.000 
#
# Total GULP energy -247929.228342 kJ/mol
# GULP energy per Si atom -12396.461417 kJ/mol
# Density = 2.051001 g / cm^3
# Si number density = 20.556794 Si / 1000 Ang^3
#
#
#
# Elastic Constant Matrix: (Units=GPa)
#
#
# Indices 1 2 3 4 5 6 
#
# 1 97.8911 59.9407 35.9657 0.0000 10.2924 0.0000
# 2 59.9407 113.5620 30.0001 0.0000 8.0703 0.0000
# 3 35.9657 30.0001 94.3554 0.0000 11.2058 0.0000
# 4 0.0000 0.0000 0.0000 30.0557 0.0000 -4.2914
# 5 10.2924 8.0703 11.2058 0.0000 25.4547 0.0000
# 6 0.0000 0.0000 0.0000 -4.2914 0.0000 36.1940
#
#
#
# Elastic Compliance Matrix: (Units=1/GPa)
#
#
# Indices 1 2 3 4 5 6 
#
# 1 0.016414 -0.007537 -0.003541 0.000000 -0.002688 0.000000
# 2 -0.007537 0.013153 -0.001240 0.000000 -0.000576 0.000000
# 3 -0.003541 -0.001240 0.012794 0.000000 -0.003807 0.000000
# 4 0.000000 0.000000 0.000000 0.033845 0.000000 0.004013
# 5 -0.002688 -0.000576 -0.003807 0.000000 0.042231 0.000000
# 6 0.000000 0.000000 0.000000 0.004013 0.000000 0.028105
#
#
# Mechanical properties :
#
#
# Convention : Reuss Voigt Hill
#
# Bulk Modulus (GPa) = 56.42001 61.95793 59.18897
# Shear Modulus (GPa) = 28.23460 30.33436 29.28448
#
# Velocity S-wave (km/s) = 3.71009 3.84557 3.77843
# Velocity P-wave (km/s) = 6.77189 7.06563 6.92032
#
# Compressibility (1/GPa) = 0.01772421
#
# Stress axis : x y z
#
# Youngs Moduli (GPa) = 60.92230 76.02936 78.15865
#
# Poissons Ratio (x) = 0.57306 0.27675
# Poissons Ratio (y) = 0.45920 0.09695
# Poissons Ratio (z) = 0.21572 0.09431
#
# Static dielectric constant tensor:
#      x y z
#    x 3.759690 0.000000 -0.017590 
#    y 0.000000 4.064330 0.000000 
#    z -0.017590 0.000000 4.081110 
# 
# 
# High freq. dielectric constant tensor:
#      x y z
#    x 1.809870 0.000000 -0.005790 
#    y 0.000000 1.802270 0.000000 
#    z -0.005790 0.000000 1.806470 
# 
# From -- ./inp_files/109542.got.cif
#   From: 2010.06.25/outbox.cif.g09.slc.cpg/sg15_55_cif.got.tgz:109542.got - 2010.06.28 07:06:18.
