data_PCOD8139389
_publ_section_title
;
Structure prediction by ZEFSAII (Michael W. Deem and Ramdas Pophale) SiO2 
 PCOD8139389
Probable space group: C 2/C
;
_chemical_formula_sum "Si O2"
_cell_formula_units_Z 56
_cell_length_a 33.481655
_cell_length_b 13.540157
_cell_length_c 13.443167
_cell_angle_alpha 90.000000
_cell_angle_beta 27.859635
_cell_angle_gamma 90.000000
_cell_volume 2847.964523
_symmetry_space_group_name_H-M "C 2/C"
_symmetry_group_IT_number 15
_symmetry_cell_setting 'monoclinic'
loop_
_space_group_symop_operation_xyz
x,y,z
-x,y,1/2-z
-x,-y,-z
x,-y,1/2+z
1/2+x,1/2+y,z
1/2-x,1/2+y,1/2-z
1/2-x,1/2-y,-z
1/2+x,1/2-y,1/2+z
loop_
_atom_site_type_symbol
_atom_site_label
_atom_site_fract_x
_atom_site_fract_y
_atom_site_fract_z
Si Si1 0.124654 0.995718 0.803812
Si Si2 0.033860 0.133338 0.865830
Si Si3 0.510639 0.156224 0.025040
Si Si4 0.529229 0.957775 0.077866
Si Si5 0.336269 0.584714 0.085892
Si Si6 0.720832 0.011788 0.684539
Si Si7 0.185983 0.724521 0.728469
O O1 0.145947 0.002216 0.873721
O O2 0.213684 0.989547 0.550776
O O3 0.072778 0.091763 0.883003
O O4 0.066311 0.896984 0.916110
O O5 0.081190 0.087393 0.666561
O O6 0.052226 0.250560 0.822893
O O7 0.485070 0.064131 0.151602
O O8 0.507705 0.122445 0.916996
O O9 0.601182 0.199036 0.855437
O O10 0.500000 0.922516 0.250000
O O11 0.631604 0.965597 0.843367
O O12 0.253024 0.553672 0.206255
O O13 0.321154 0.687768 0.175917
O O14 0.711812 0.126884 0.734715
O O15 0.250000 0.750000 0.500000
#
# Coordination Sequence:
#
# PCOD8139389 Si02
#       7
#     8   8   8   8   8   8   8
#     4  10  20  39  61  87 124 154 193 258 304 362
#     4  10  21  38  62  93 118 154 206 247 309 364
#     4  10  22  40  62  88 118 161 206 255 295 362
#     4  10  24  40  61  86 123 165 205 254 302 357
#     4  11  22  37  64  91 124 161 201 254 303 377
#     4  10  23  40  57  92 121 157 205 249 308 356
#     4  11  21  38  64  87 119 165 206 246 302 365
#
# _framework density 19.663167000000001
#
# number of rings (size 3 to 8) (size 9 to 14) (size 15 to 20)
#    0.000    1.714    2.857    0.429    6.000    1.143 
#    2.571    4.286    0.000    0.000    0.000    0.000 
#    0.000    0.000    0.000    0.000    0.000    0.000 
#
# Total GULP energy -347072.020567 kJ/mol
# GULP energy per Si atom -12395.429306 kJ/mol
# Density = 1.961841 g / cm^3
# Si number density = 19.663167 Si / 1000 Ang^3
#
#
#
# Elastic Constant Matrix: (Units=GPa)
#
#
# Indices 1 2 3 4 5 6 
#
# 1 134.4473 73.3710 36.1971 0.0000 13.7233 0.0000
# 2 73.3710 93.6669 35.0848 0.0000 -6.8597 0.0000
# 3 36.1971 35.0848 77.4522 0.0000 7.6710 0.0000
# 4 0.0000 0.0000 0.0000 19.7621 0.0000 3.4671
# 5 13.7233 -6.8597 7.6710 0.0000 26.2857 0.0000
# 6 0.0000 0.0000 0.0000 3.4671 0.0000 38.4439
#
#
#
# Elastic Compliance Matrix: (Units=1/GPa)
#
#
# Indices 1 2 3 4 5 6 
#
# 1 0.015921 -0.013214 -0.000299 0.000000 -0.011674 0.000000
# 2 -0.013214 0.024557 -0.006453 0.000000 0.015191 0.000000
# 3 -0.000299 -0.006453 0.016605 0.000000 -0.006374 0.000000
# 4 0.000000 0.000000 0.000000 0.051415 0.000000 -0.004637
# 5 -0.011674 0.015191 -0.006374 0.000000 0.049962 0.000000
# 6 0.000000 0.000000 0.000000 -0.004637 0.000000 0.026430
#
#
# Mechanical properties :
#
#
# Convention : Reuss Voigt Hill
#
# Bulk Modulus (GPa) = 58.30379 66.09693 62.20036
# Shear Modulus (GPa) = 21.68827 27.62590 24.65708
#
# Velocity S-wave (km/s) = 3.32473 3.75234 3.54499
# Velocity P-wave (km/s) = 6.66739 7.24300 6.96115
#
# Compressibility (1/GPa) = 0.01715154
#
# Stress axis : x y z
#
# Youngs Moduli (GPa) = 62.80917 40.72206 60.22294
#
# Poissons Ratio (x) = 0.53812 0.01798
# Poissons Ratio (y) = 0.82999 0.38860
# Poissons Ratio (z) = 0.01875 0.26276
#
# Static dielectric constant tensor:
#      x y z
#    x 3.997170 0.000000 0.045090 
#    y 0.000000 3.862690 0.000000 
#    z 0.045090 0.000000 3.535920 
# 
# 
# High freq. dielectric constant tensor:
#      x y z
#    x 1.770130 0.000000 -0.003960 
#    y 0.000000 1.764280 0.000000 
#    z -0.003960 0.000000 1.762760 
# 
# From -- ./inp_files/126979.got.cif
#   From: 2010.06.25/outbox.cif.g09.slc.cpg/sg15_64_cif.got.tgz:126979.got - 2010.06.28 07:06:18.
