data_PCOD8139221
_publ_section_title
;
Structure prediction by ZEFSAII (Michael W. Deem and Ramdas Pophale) SiO2 
 PCOD8139221
Probable space group: C 2/C
;
_chemical_formula_sum "Si O2"
_cell_formula_units_Z 56
_cell_length_a 9.317896
_cell_length_b 17.825364
_cell_length_c 28.750764
_cell_angle_alpha 90.000000
_cell_angle_beta 146.204501
_cell_angle_gamma 90.000000
_cell_volume 2656.197264
_symmetry_space_group_name_H-M "C 2/C"
_symmetry_group_IT_number 15
_symmetry_cell_setting 'monoclinic'
loop_
_space_group_symop_operation_xyz
x,y,z
-x,y,1/2-z
-x,-y,-z
x,-y,1/2+z
1/2+x,1/2+y,z
1/2-x,1/2+y,1/2-z
1/2-x,1/2-y,-z
1/2+x,1/2-y,1/2+z
loop_
_atom_site_type_symbol
_atom_site_label
_atom_site_fract_x
_atom_site_fract_y
_atom_site_fract_z
Si Si1 0.463732 0.923856 0.086628
Si Si2 0.931231 0.822889 0.555083
Si Si3 0.944481 0.871390 0.809495
Si Si4 0.490662 0.096907 0.424553
Si Si5 0.444008 0.800609 0.641240
Si Si6 0.201386 0.863606 0.401946
Si Si7 0.340143 0.467976 0.255428
O O1 0.627200 0.865390 0.098738
O O2 0.570903 0.927029 0.168573
O O3 0.485200 0.007865 0.072967
O O4 0.176126 0.889898 0.007414
O O5 0.750000 0.750000 0.500000
O O6 0.930611 0.852805 0.607336
O O7 0.228284 0.809874 0.622646
O O8 0.733345 0.809179 0.739265
O O9 0.190842 0.877098 0.841593
O O10 0.790446 0.950182 0.763907
O O11 0.624176 0.141748 0.418563
O O12 0.618901 0.114668 0.507486
O O13 0.424236 0.715545 0.618881
O O14 0.970774 0.922226 0.332175
O O15 0.500000 0.471162 0.250000
#
# Coordination Sequence:
#
# PCOD8139221 Si02
#       7
#     8   8   8   8   8   8   8
#     4  11  21  41  71  95 130 174 237 271 329 409
#     4  12  26  42  65 100 138 181 223 278 347 417
#     4  12  22  43  68  96 132 175 231 277 343 405
#     4  12  22  44  70  98 129 176 232 278 339 406
#     4  12  26  41  64 103 141 174 217 289 348 399
#     4  11  22  39  69  98 129 175 227 278 327 411
#     4  10  20  38  68 100 124 168 236 278 319 401
#
# _framework density 21.082771000000001
#
# number of rings (size 3 to 8) (size 9 to 14) (size 15 to 20)
#    0.000    0.571    7.143    2.571    2.000    1.714 
#    0.000    0.000    0.000    0.000    0.000    0.000 
#    0.000    0.000    0.000    0.000    0.000    0.000 
#
# Total GULP energy -347052.330871 kJ/mol
# GULP energy per Si atom -12394.726103 kJ/mol
# Density = 2.103479 g / cm^3
# Si number density = 21.082771 Si / 1000 Ang^3
#
#
#
# Elastic Constant Matrix: (Units=GPa)
#
#
# Indices 1 2 3 4 5 6 
#
# 1 49.7161 31.2965 12.1147 -0.0030 6.0266 -0.0002
# 2 31.2965 114.8090 56.4052 -0.0147 8.5841 0.0015
# 3 12.1147 56.4052 143.0197 -0.0320 1.4365 0.0018
# 4 -0.0030 -0.0147 -0.0320 -49.2956 -0.0016 15.6623
# 5 6.0266 8.5841 1.4365 -0.0016 28.9959 -0.0005
# 6 -0.0002 0.0015 0.0018 15.6623 -0.0005 26.6195
#
#
#
# Elastic Compliance Matrix: (Units=1/GPa)
#
#
# Indices 1 2 3 4 5 6 
#
# 1 0.024611 -0.006779 0.000620 0.000000 -0.003139 0.000000
# 2 -0.006779 0.012936 -0.004505 -0.000001 -0.002197 0.000000
# 3 0.000620 -0.004505 0.008709 -0.000004 0.000773 0.000002
# 4 0.000000 -0.000001 -0.000004 -0.017091 0.000000 0.010056
# 5 -0.003139 -0.002197 0.000773 0.000000 0.035752 0.000001
# 6 0.000000 0.000000 0.000002 0.010056 0.000001 0.031650
#
#
# Mechanical properties :
#
#
# Convention : Reuss Voigt Hill
#
# Bulk Modulus (GPa) = 40.11660 56.35305 48.23483
# Shear Modulus (GPa) = 39.61846 15.11251 27.36548
#
# Velocity S-wave (km/s) = 4.33966 2.68025 3.60669
# Velocity P-wave (km/s) = 6.64678 6.03040 6.34608
#
# Compressibility (1/GPa) = 0.02492733
#
# Stress axis : x y z
#
# Youngs Moduli (GPa) = 40.63243 77.30471 114.82880
#
# Poissons Ratio (x) = 0.52404 -0.07123
# Poissons Ratio (y) = 0.27544 0.51735
# Poissons Ratio (z) = -0.02521 0.34829
#
# Static dielectric constant tensor:
#      x y z
#    x 3.417380 0.000000 0.076380 
#    y 0.000000 3.966630 0.000000 
#    z 0.076380 0.000000 4.411750 
# 
# 
# High freq. dielectric constant tensor:
#      x y z
#    x 1.780900 0.000000 -0.001820 
#    y 0.000000 1.835110 0.000000 
#    z -0.001820 0.000000 1.855090 
# 
# From -- ./inp_files/289751.got.cif
#   From: 2010.06.25/outbox.cif.g09.slc.cpg/sg15_145_cif.got.tgz:289751.got - 2010.06.28 07:06:18.
