data_PCOD8139835
_publ_section_title
;
Structure prediction by ZEFSAII (Michael W. Deem and Ramdas Pophale) SiO2 
 PCOD8139835
Probable space group: C 2/C
;
_chemical_formula_sum "Si O2"
_cell_formula_units_Z 48
_cell_length_a 17.790122
_cell_length_b 8.505924
_cell_length_c 18.003387
_cell_angle_alpha 90.000000
_cell_angle_beta 127.525662
_cell_angle_gamma 90.000000
_cell_volume 2160.588054
_symmetry_space_group_name_H-M "C 2/C"
_symmetry_group_IT_number 15
_symmetry_cell_setting 'monoclinic'
loop_
_space_group_symop_operation_xyz
x,y,z
-x,y,1/2-z
-x,-y,-z
x,-y,1/2+z
1/2+x,1/2+y,z
1/2-x,1/2+y,1/2-z
1/2-x,1/2-y,-z
1/2+x,1/2-y,1/2+z
loop_
_atom_site_type_symbol
_atom_site_label
_atom_site_fract_x
_atom_site_fract_y
_atom_site_fract_z
Si Si1 0.963585 0.311651 0.149676
Si Si2 0.280372 0.997409 0.003118
Si Si3 0.783706 0.068593 0.193807
Si Si4 0.359216 0.829000 0.334516
Si Si5 0.638029 0.683210 0.008214
Si Si6 0.514934 0.545477 0.678345
O O1 0.000000 0.379297 0.250000
O O2 0.034734 0.373068 0.127965
O O3 0.856574 0.367828 0.072877
O O4 0.964434 0.123833 0.150675
O O5 0.209236 0.041767 0.027579
O O6 0.221686 0.926165 0.898659
O O7 0.333402 0.154631 0.011884
O O8 0.799668 0.245759 0.232559
O O9 0.689858 0.991763 0.172159
O O10 0.873793 0.963720 0.272271
O O11 0.363271 0.702508 0.404018
O O12 0.532513 0.646764 0.915355
O O13 0.500000 0.627258 0.750000
#
# Coordination Sequence:
#
# PCOD8139835 Si02
#       6
#     8   8   8   8   8   8
#     4  10  24  41  61  92 127 164 214 253 317 378
#     4  10  22  41  62  93 124 165 210 258 313 380
#     4  10  22  40  63  89 128 162 207 261 316 371
#     4  10  24  40  60  96 126 165 213 261 314 374
#     4  10  22  39  64  92 124 161 215 256 315 375
#     4  10  20  40  61  89 123 163 204 255 310 376
#
# _framework density 22.216172
#
# number of rings (size 3 to 8) (size 9 to 14) (size 15 to 20)
#    0.000    2.000    1.667    0.000    2.333   10.667 
#    0.000    0.000    0.000    0.000    0.000    0.000 
#    0.000    0.000    0.000    0.000    0.000    0.000 
#
# Total GULP energy -297622.808027 kJ/mol
# GULP energy per Si atom -12400.950334 kJ/mol
# Density = 2.216561 g / cm^3
# Si number density = 22.216172 Si / 1000 Ang^3
#
#
#
# Elastic Constant Matrix: (Units=GPa)
#
#
# Indices 1 2 3 4 5 6 
#
# 1 101.1930 -1.7891 28.4203 0.0000 -5.2602 0.0000
# 2 -1.7891 25.4584 23.8020 0.0000 -3.8228 0.0000
# 3 28.4203 23.8020 126.1831 0.0000 11.0245 0.0000
# 4 0.0000 0.0000 0.0000 26.4834 0.0000 11.2488
# 5 -5.2602 -3.8228 11.0245 0.0000 27.0768 0.0000
# 6 0.0000 0.0000 0.0000 11.2488 0.0000 24.7120
#
#
#
# Elastic Compliance Matrix: (Units=1/GPa)
#
#
# Indices 1 2 3 4 5 6 
#
# 1 0.011304 0.005124 -0.003907 0.000000 0.004510 0.000000
# 2 0.005124 0.053253 -0.012384 0.000000 0.013556 0.000000
# 3 -0.003907 -0.012384 0.011779 0.000000 -0.007303 0.000000
# 4 0.000000 0.000000 0.000000 0.046810 0.000000 -0.021308
# 5 0.004510 0.013556 -0.007303 0.000000 0.042696 0.000000
# 6 0.000000 0.000000 0.000000 -0.021308 0.000000 0.050165
#
#
# Mechanical properties :
#
#
# Convention : Reuss Voigt Hill
#
# Bulk Modulus (GPa) = 18.51707 39.30009 28.90858
# Shear Modulus (GPa) = 19.50524 29.14786 24.32655
#
# Velocity S-wave (km/s) = 2.96628 3.62610 3.31266
# Velocity P-wave (km/s) = 4.48161 5.93799 5.26044
#
# Compressibility (1/GPa) = 0.05400423
#
# Stress axis : x y z
#
# Youngs Moduli (GPa) = 88.46144 18.77813 84.89743
#
# Poissons Ratio (x) = -0.09622 0.33167
# Poissons Ratio (y) = -0.45329 1.05135
# Poissons Ratio (z) = 0.34559 0.23254
#
# Static dielectric constant tensor:
#      x y z
#    x 4.122220 0.000000 -0.093970 
#    y 0.000000 3.639070 0.000000 
#    z -0.093970 0.000000 4.103010 
# 
# 
# High freq. dielectric constant tensor:
#      x y z
#    x 1.882540 0.000000 0.002510 
#    y 0.000000 1.849660 0.000000 
#    z 0.002510 0.000000 1.878770 
# 
# From -- ./inp_files/247631.got.cif
#   From: 2010.06.25/outbox.cif.g09.slc.cpg/sg15_124_cif.got.tgz:247631.got - 2010.06.28 07:06:18.
