data_PCOD8139905
_publ_section_title
;
Structure prediction by ZEFSAII (Michael W. Deem and Ramdas Pophale) SiO2 
 PCOD8139905
Probable space group: C 2/C
;
_chemical_formula_sum "Si O2"
_cell_formula_units_Z 52
_cell_length_a 12.515912
_cell_length_b 20.438585
_cell_length_c 15.898766
_cell_angle_alpha 90.000000
_cell_angle_beta 38.627192
_cell_angle_gamma 90.000000
_cell_volume 2538.841524
_symmetry_space_group_name_H-M "C 2/C"
_symmetry_group_IT_number 15
_symmetry_cell_setting 'monoclinic'
loop_
_space_group_symop_operation_xyz
x,y,z
-x,y,1/2-z
-x,-y,-z
x,-y,1/2+z
1/2+x,1/2+y,z
1/2-x,1/2+y,1/2-z
1/2-x,1/2-y,-z
1/2+x,1/2-y,1/2+z
loop_
_atom_site_type_symbol
_atom_site_label
_atom_site_fract_x
_atom_site_fract_y
_atom_site_fract_z
Si Si1 0.165179 0.483160 0.007050
Si Si2 0.815100 0.607465 0.853532
Si Si3 0.533628 0.098150 0.438566
Si Si4 0.599052 0.720555 0.040808
Si Si5 0.789772 0.723317 0.193992
Si Si6 0.215808 0.138699 0.731202
Si Si7 0.500000 0.441731 0.250000
O O1 0.135291 0.423584 0.960100
O O2 0.346439 0.512755 0.872909
O O3 0.167678 0.459083 0.102590
O O4 0.009829 0.535593 0.093307
O O5 0.781044 0.600044 0.774764
O O6 0.000000 0.644439 0.750000
O O7 0.652436 0.646241 0.989175
O O8 0.645987 0.151379 0.315662
O O9 0.356713 0.132264 0.572441
O O10 0.414349 0.721861 0.198818
O O11 0.750000 0.750000 0.000000
O O12 0.596396 0.763657 0.958359
O O13 0.826372 0.784168 0.233023
O O14 0.045869 0.103200 0.802235
#
# Coordination Sequence:
#
# PCOD8139905 Si02
#       7
#     8   8   8   8   8   8   4
#     4  10  22  38  62  89 120 173 206 259 304 381
#     4  11  21  37  61  90 124 160 202 264 322 354
#     4  10  20  40  63  86 128 167 211 247 317 382
#     4  11  21  33  57  94 127 160 204 262 317 373
#     4  11  21  37  63  89 124 166 209 256 312 376
#     4  10  21  42  62  87 126 164 200 268 316 367
#     4  10  24  42  64  86 120 172 216 248 318 372
#
# _framework density 20.481783
#
# number of rings (size 3 to 8) (size 9 to 14) (size 15 to 20)
#    0.000    1.538    3.077    3.231    2.154    0.615 
#    0.000    6.154    1.692    0.000    0.000    0.000 
#    0.000    0.000    0.000    0.000    0.000    0.000 
#
# Total GULP energy -322176.912798 kJ/mol
# GULP energy per Si atom -12391.419723 kJ/mol
# Density = 2.043517 g / cm^3
# Si number density = 20.481783 Si / 1000 Ang^3
#
#
#
# Elastic Constant Matrix: (Units=GPa)
#
#
# Indices 1 2 3 4 5 6 
#
# 1 86.1368 30.6819 15.7373 0.0017 -3.3020 -0.0089
# 2 30.6819 113.3384 38.4988 -0.0012 -3.0242 -0.0011
# 3 15.7373 38.4988 70.4527 0.0023 -11.4317 -0.0078
# 4 0.0017 -0.0012 0.0023 34.3828 -0.0034 -6.4377
# 5 -3.3020 -3.0242 -11.4317 -0.0034 25.2291 0.0055
# 6 -0.0089 -0.0011 -0.0078 -6.4377 0.0055 23.7084
#
#
#
# Elastic Compliance Matrix: (Units=1/GPa)
#
#
# Indices 1 2 3 4 5 6 
#
# 1 0.012947 -0.003127 -0.001046 0.000000 0.000846 0.000004
# 2 -0.003127 0.011642 -0.005940 0.000000 -0.001705 -0.000002
# 3 -0.001046 -0.005940 0.018927 0.000000 0.007727 0.000004
# 4 0.000000 0.000000 0.000000 0.030642 0.000002 0.008320
# 5 0.000846 -0.001705 0.007727 0.000002 0.043044 -0.000007
# 6 0.000004 -0.000002 0.000004 0.008320 -0.000007 0.044438
#
#
# Mechanical properties :
#
#
# Convention : Reuss Voigt Hill
#
# Bulk Modulus (GPa) = 42.93659 48.86265 45.89962
# Shear Modulus (GPa) = 26.36714 28.99806 27.68260
#
# Velocity S-wave (km/s) = 3.59185 3.76679 3.68036
# Velocity P-wave (km/s) = 6.18148 6.54421 6.36543
#
# Compressibility (1/GPa) = 0.02329016
#
# Stress axis : x y z
#
# Youngs Moduli (GPa) = 77.23921 85.89755 52.83390
#
# Poissons Ratio (x) = 0.26860 0.05527
# Poissons Ratio (y) = 0.24152 0.31383
# Poissons Ratio (z) = 0.08079 0.51022
#
# Static dielectric constant tensor:
#      x y z
#    x 3.662200 -0.000010 -0.044320 
#    y -0.000010 3.901270 0.000010 
#    z -0.044320 0.000010 3.916800 
# 
# 
# High freq. dielectric constant tensor:
#      x y z
#    x 1.779060 0.000000 -0.012620 
#    y 0.000000 1.804620 0.000000 
#    z -0.012620 0.000000 1.797350 
# 
# From -- ./inp_files/148124.got.cif
#   From: 2010.06.25/outbox.cif.g09.slc.cpg/sg15_75_cif.got.tgz:148124.got - 2010.06.28 07:06:18.
