data_PCOD8139992
_publ_section_title
;
Structure prediction by ZEFSAII (Michael W. Deem and Ramdas Pophale) SiO2 
 PCOD8139992
Probable space group: C 2/C
;
_chemical_formula_sum "Si O2"
_cell_formula_units_Z 48
_cell_length_a 25.812220
_cell_length_b 18.535650
_cell_length_c 13.021888
_cell_angle_alpha 90.000000
_cell_angle_beta 159.671624
_cell_angle_gamma 90.000000
_cell_volume 2164.397764
_symmetry_space_group_name_H-M "C 2/C"
_symmetry_group_IT_number 15
_symmetry_cell_setting 'monoclinic'
loop_
_space_group_symop_operation_xyz
x,y,z
-x,y,1/2-z
-x,-y,-z
x,-y,1/2+z
1/2+x,1/2+y,z
1/2-x,1/2+y,1/2-z
1/2-x,1/2-y,-z
1/2+x,1/2-y,1/2+z
loop_
_atom_site_type_symbol
_atom_site_label
_atom_site_fract_x
_atom_site_fract_y
_atom_site_fract_z
Si Si1 0.000000 0.320294 0.250000
Si Si2 0.538050 0.250554 0.516973
Si Si3 0.000000 0.834735 0.250000
Si Si4 0.214088 0.417806 0.780112
Si Si5 0.891732 0.612874 0.200635
Si Si6 0.651353 0.304493 0.916333
Si Si7 0.213819 0.576541 0.712306
O O1 0.081825 0.371529 0.483879
O O2 0.120664 0.268014 0.423243
O O3 0.574115 0.286208 0.475249
O O4 0.394086 0.197984 0.238769
O O5 0.529790 0.308583 0.596045
O O6 0.679787 0.201250 0.812064
O O7 0.127265 0.879168 0.429456
O O8 0.171018 0.432254 0.819200
O O9 0.242629 0.491801 0.772870
O O10 0.056807 0.589579 0.475891
O O11 0.785557 0.600674 0.905570
O O12 0.651002 0.377699 0.983812
#
# Coordination Sequence:
#
# PCOD8139992 Si02
#       7
#     4   8   4   8   8   8   8
#     4  12  22  41  67 102 126 176 246 280 328 417
#     4  10  20  40  64  95 129 170 223 284 345 393
#     4  12  26  41  63  98 146 176 220 288 348 413
#     4  12  26  42  67 101 139 184 229 283 352 414
#     4  10  21  42  70  96 132 182 232 282 343 412
#     4  10  21  38  65  94 126 172 223 288 337 396
#     4  10  23  42  67  98 139 178 229 291 346 417
#
# _framework density 22.177067999999998
#
# number of rings (size 3 to 8) (size 9 to 14) (size 15 to 20)
#    0.000    1.333    3.333    3.500    0.000    4.000 
#    0.000    1.667    0.000    0.000    0.000    0.000 
#    0.000    0.000    0.000    0.000    0.000    0.000 
#
# Total GULP energy -297447.929166 kJ/mol
# GULP energy per Si atom -12393.663715 kJ/mol
# Density = 2.212659 g / cm^3
# Si number density = 22.177068 Si / 1000 Ang^3
#
#
#
# Elastic Constant Matrix: (Units=GPa)
#
#
# Indices 1 2 3 4 5 6 
#
# 1 106.3901 25.7786 49.1766 0.0000 -36.6450 0.0000
# 2 25.7786 118.1068 43.4808 0.0000 -21.2911 0.0000
# 3 49.1766 43.4808 78.0111 0.0000 -30.6222 0.0000
# 4 0.0000 0.0000 0.0000 19.3949 0.0000 -3.0701
# 5 -36.6450 -21.2911 -30.6222 0.0000 42.0903 0.0000
# 6 0.0000 0.0000 0.0000 -3.0701 0.0000 27.1234
#
#
#
# Elastic Compliance Matrix: (Units=1/GPa)
#
#
# Indices 1 2 3 4 5 6 
#
# 1 0.015335 0.000668 -0.006531 0.000000 0.008937 0.000000
# 2 0.000668 0.010750 -0.005669 0.000000 0.001895 0.000000
# 3 -0.006531 -0.005669 0.023429 0.000000 0.008491 0.000000
# 4 0.000000 0.000000 0.000000 0.052501 0.000000 0.005943
# 5 0.008937 0.001895 0.008491 0.000000 0.038676 0.000000
# 6 0.000000 0.000000 0.000000 0.005943 0.000000 0.037541
#
#
# Mechanical properties :
#
#
# Convention : Reuss Voigt Hill
#
# Bulk Modulus (GPa) = 37.80723 59.93112 48.86917
# Shear Modulus (GPa) = 23.79704 29.99319 26.89512
#
# Velocity S-wave (km/s) = 3.27929 3.68155 3.48623
# Velocity P-wave (km/s) = 5.60564 6.71969 6.18779
#
# Compressibility (1/GPa) = 0.02644997
#
# Stress axis : x y z
#
# Youngs Moduli (GPa) = 65.21212 93.02594 42.68288
#
# Poissons Ratio (x) = -0.06219 0.27876
# Poissons Ratio (y) = -0.04359 0.24197
# Poissons Ratio (z) = 0.42590 0.52736
#
# Static dielectric constant tensor:
#      x y z
#    x 3.910430 0.000000 -0.367190 
#    y 0.000000 4.035640 0.000000 
#    z -0.367190 0.000000 4.051080 
# 
# 
# High freq. dielectric constant tensor:
#      x y z
#    x 1.875090 0.000000 -0.018470 
#    y 0.000000 1.857410 0.000000 
#    z -0.018470 0.000000 1.869620 
# 
# From -- ./inp_files/124351.got.cif
#   From: 2010.06.25/outbox.cif.g09.slc.cpg/sg15_63_cif.got.tgz:124351.got - 2010.06.28 07:06:18.
