data_PCOD8139034
_publ_section_title
;
Structure prediction by ZEFSAII (Michael W. Deem and Ramdas Pophale) SiO2 
 PCOD8139034
Probable space group: C 2/C
;
_chemical_formula_sum "Si O2"
_cell_formula_units_Z 32
_cell_length_a 18.449243
_cell_length_b 12.092487
_cell_length_c 9.307418
_cell_angle_alpha 90.000000
_cell_angle_beta 50.076785
_cell_angle_gamma 90.000000
_cell_volume 1592.447320
_symmetry_space_group_name_H-M "C 2/C"
_symmetry_group_IT_number 15
_symmetry_cell_setting 'monoclinic'
loop_
_space_group_symop_operation_xyz
x,y,z
-x,y,1/2-z
-x,-y,-z
x,-y,1/2+z
1/2+x,1/2+y,z
1/2-x,1/2+y,1/2-z
1/2-x,1/2-y,-z
1/2+x,1/2-y,1/2+z
loop_
_atom_site_type_symbol
_atom_site_label
_atom_site_fract_x
_atom_site_fract_y
_atom_site_fract_z
Si Si1 0.265699 0.925258 0.463973
Si Si2 0.475492 0.390209 0.116744
Si Si3 0.141912 0.236820 0.292517
Si Si4 0.735162 0.385660 0.194124
O O1 0.183962 0.872923 0.667255
O O2 0.352997 0.838118 0.331438
O O3 0.221879 0.951774 0.362468
O O4 0.295156 0.038416 0.505777
O O5 0.500000 0.411206 0.250000
O O6 0.366403 0.355894 0.241544
O O7 0.500000 0.500000 0.000000
O O8 0.535533 0.287255 0.976609
O O9 0.205132 0.273613 0.351146
#
# Coordination Sequence:
#
# PCOD8139034 Si02
#       4
#     8   8   8   8
#     4   9  19  39  60  93 124 168 199 254 319 367
#     4  12  24  37  64  98 123 159 215 262 308 368
#     4   9  22  38  58  98 129 160 208 256 327 355
#     4  10  20  38  64  88 127 163 208 255 310 367
#
# _framework density 20.094856
#
# number of rings (size 3 to 8) (size 9 to 14) (size 15 to 20)
#    1.500    0.500    2.500    1.500    0.000    1.000 
#    0.000    0.000    0.000    6.000    0.000    0.000 
#    0.000    0.000    0.000    0.000    0.000    0.000 
#
# Total GULP energy -198226.507975 kJ/mol
# GULP energy per Si atom -12389.156748 kJ/mol
# Density = 2.004912 g / cm^3
# Si number density = 20.094856 Si / 1000 Ang^3
#
#
#
# Elastic Constant Matrix: (Units=GPa)
#
#
# Indices 1 2 3 4 5 6 
#
# 1 82.2639 44.9739 33.3718 0.0000 14.2309 0.0000
# 2 44.9739 48.4180 49.2428 0.0000 -4.4058 0.0000
# 3 33.3718 49.2428 91.3303 0.0000 7.9109 0.0000
# 4 0.0000 0.0000 0.0000 49.5757 0.0000 7.6165
# 5 14.2309 -4.4058 7.9109 0.0000 35.3358 0.0000
# 6 0.0000 0.0000 0.0000 7.6165 0.0000 28.3888
#
#
#
# Elastic Compliance Matrix: (Units=1/GPa)
#
#
# Indices 1 2 3 4 5 6 
#
# 1 0.047128 -0.071343 0.024128 0.000000 -0.033277 0.000000
# 2 -0.071343 0.158767 -0.064998 0.000000 0.063080 0.000000
# 3 0.024128 -0.064998 0.039488 0.000000 -0.026662 0.000000
# 4 0.000000 0.000000 0.000000 0.021038 0.000000 -0.005644
# 5 -0.033277 0.063080 -0.026662 0.000000 0.055536 0.000000
# 6 0.000000 0.000000 0.000000 -0.005644 0.000000 0.036740
#
#
# Mechanical properties :
#
#
# Convention : Reuss Voigt Hill
#
# Bulk Modulus (GPa) = 47.71753 53.02102 50.36927
# Shear Modulus (GPa) = 8.47302 28.95498 18.71400
#
# Velocity S-wave (km/s) = 2.05564 3.80006 3.05500
# Velocity P-wave (km/s) = 5.42512 6.75992 6.12897
#
# Compressibility (1/GPa) = 0.02095666
#
# Stress axis : x y z
#
# Youngs Moduli (GPa) = 21.21882 6.29852 25.32433
#
# Poissons Ratio (x) = 0.44936 -0.61103
# Poissons Ratio (y) = 1.51381 1.64604
# Poissons Ratio (z) = -0.51197 0.40939
#
# Static dielectric constant tensor:
#      x y z
#    x 3.436400 0.000000 0.202270 
#    y 0.000000 3.486360 0.000000 
#    z 0.202270 0.000000 3.658860 
# 
# 
# High freq. dielectric constant tensor:
#      x y z
#    x 1.756270 0.000000 0.023460 
#    y 0.000000 1.773070 0.000000 
#    z 0.023460 0.000000 1.788480 
# 
# From -- ./inp_files/27894.got.cif
#   From: 2010.06.25/outbox.cif.g09.slc.cpg/sg15_14_cif.got.tgz:27894.got - 2010.06.28 07:06:18.
