data_PCOD8139798
_publ_section_title
;
Structure prediction by ZEFSAII (Michael W. Deem and Ramdas Pophale) SiO2 
 PCOD8139798
Probable space group: C 2/C
;
_chemical_formula_sum "Si O2"
_cell_formula_units_Z 64
_cell_length_a 19.927354
_cell_length_b 18.558688
_cell_length_c 17.047890
_cell_angle_alpha 90.000000
_cell_angle_beta 148.135622
_cell_angle_gamma 90.000000
_cell_volume 3328.340627
_symmetry_space_group_name_H-M "C 2/C"
_symmetry_group_IT_number 15
_symmetry_cell_setting 'monoclinic'
loop_
_space_group_symop_operation_xyz
x,y,z
-x,y,1/2-z
-x,-y,-z
x,-y,1/2+z
1/2+x,1/2+y,z
1/2-x,1/2+y,1/2-z
1/2-x,1/2-y,-z
1/2+x,1/2-y,1/2+z
loop_
_atom_site_type_symbol
_atom_site_label
_atom_site_fract_x
_atom_site_fract_y
_atom_site_fract_z
Si Si1 0.397014 0.171315 0.445693
Si Si2 0.854110 0.312059 0.083815
Si Si3 0.562522 0.666004 0.517954
Si Si4 0.552055 0.553775 0.880470
Si Si5 0.100148 0.438789 0.114840
Si Si6 0.343258 0.540153 0.787196
Si Si7 0.275813 0.421110 0.434189
Si Si8 0.664047 0.607258 0.139730
O O1 0.352578 0.164466 0.491493
O O2 0.394589 0.253998 0.419232
O O3 0.537150 0.138803 0.569129
O O4 0.310169 0.125985 0.299409
O O5 0.815435 0.384106 0.092422
O O6 0.000000 0.287686 0.250000
O O7 0.750000 0.250000 0.000000
O O8 0.601295 0.614862 0.627143
O O9 0.624746 0.639849 0.498285
O O10 0.409047 0.660443 0.370984
O O11 0.500000 0.592267 0.750000
O O12 0.420457 0.521469 0.785920
O O13 0.645025 0.487179 0.950751
O O14 0.623551 0.612461 0.007386
O O15 0.191667 0.443507 0.128490
O O16 0.190494 0.453869 0.279363
O O17 0.000000 0.500000 0.000000
O O18 0.367801 0.475731 0.872838
#
# Coordination Sequence:
#
# PCOD8139798 Si02
#       8
#     8   8   8   8   8   8   8   8
#     4  12  25  37  62  91 127 182 206 247 321 380
#     4  12  27  40  55  90 145 179 210 250 310 389
#     4  10  21  36  61  85 125 159 213 256 299 369
#     4  11  22  39  66  92 118 154 210 271 325 367
#     4  11  21  37  59  81 122 162 211 261 299 363
#     4  10  20  40  60  87 120 157 208 270 298 370
#     4  11  21  38  56  87 127 166 204 252 306 373
#     4  11  21  40  63  91 120 160 222 260 306 379
#
# _framework density 19.228801000000001
#
# number of rings (size 3 to 8) (size 9 to 14) (size 15 to 20)
#    0.000    1.000    7.500    0.750    7.000    0.500 
#    0.000    0.000    0.000    3.000    0.000    0.000 
#    0.000    0.000    0.000    0.000    0.000    0.000 
#
# Total GULP energy -396430.123931 kJ/mol
# GULP energy per Si atom -12388.441373 kJ/mol
# Density = 1.918503 g / cm^3
# Si number density = 19.228801 Si / 1000 Ang^3
#
#
#
# Elastic Constant Matrix: (Units=GPa)
#
#
# Indices 1 2 3 4 5 6 
#
# 1 79.5118 26.7804 52.2738 -0.0001 6.9238 -0.0001
# 2 26.7804 75.3188 26.0419 0.0001 -3.7878 0.0001
# 3 52.2738 26.0419 104.2941 0.0001 -0.5238 0.0001
# 4 -0.0001 0.0001 0.0001 28.1208 0.0001 11.2902
# 5 6.9238 -3.7878 -0.5238 0.0001 35.1974 0.0001
# 6 -0.0001 0.0001 0.0001 11.2902 0.0001 33.3400
#
#
#
# Elastic Compliance Matrix: (Units=1/GPa)
#
#
# Indices 1 2 3 4 5 6 
#
# 1 0.020499 -0.004336 -0.009215 0.000000 -0.004636 0.000000
# 2 -0.004336 0.015529 -0.001692 0.000000 0.002499 0.000000
# 3 -0.009215 -0.001692 0.014639 0.000000 0.001849 0.000000
# 4 0.000000 0.000000 0.000000 0.041156 0.000000 -0.013937
# 5 -0.004636 0.002499 0.001849 0.000000 0.029620 0.000000
# 6 0.000000 0.000000 0.000000 -0.013937 0.000000 0.034714
#
#
# Mechanical properties :
#
#
# Convention : Reuss Voigt Hill
#
# Bulk Modulus (GPa) = 49.55011 52.14633 50.84822
# Shear Modulus (GPa) = 25.85724 29.60021 27.72873
#
# Velocity S-wave (km/s) = 3.67101 3.92774 3.80154
# Velocity P-wave (km/s) = 6.61763 6.90994 6.76536
#
# Compressibility (1/GPa) = 0.02018159
#
# Stress axis : x y z
#
# Youngs Moduli (GPa) = 48.78260 64.39509 68.31156
#
# Poissons Ratio (x) = 0.27919 0.62950
# Poissons Ratio (y) = 0.21150 0.11558
# Poissons Ratio (z) = 0.44954 0.10895
#
# Static dielectric constant tensor:
#      x y z
#    x 4.075740 0.000000 0.721790 
#    y 0.000000 3.375050 0.000000 
#    z 0.721790 0.000000 3.905690 
# 
# 
# High freq. dielectric constant tensor:
#      x y z
#    x 1.742620 0.000000 0.029580 
#    y 0.000000 1.731290 0.000000 
#    z 0.029580 0.000000 1.750030 
# 
# From -- ./inp_files/216170.got.cif
#   From: 2010.06.25/outbox.cif.g09.slc.cpg/sg15_109_cif.got.tgz:216170.got - 2010.06.28 07:06:18.
