data_PCOD8139716
_publ_section_title
;
Structure prediction by ZEFSAII (Michael W. Deem and Ramdas Pophale) SiO2 
 PCOD8139716
Probable space group: C 2/C
;
_chemical_formula_sum "Si O2"
_cell_formula_units_Z 56
_cell_length_a 11.683372
_cell_length_b 15.831137
_cell_length_c 14.860422
_cell_angle_alpha 90.000000
_cell_angle_beta 57.948722
_cell_angle_gamma 90.000000
_cell_volume 2329.640038
_symmetry_space_group_name_H-M "C 2/C"
_symmetry_group_IT_number 15
_symmetry_cell_setting 'monoclinic'
loop_
_space_group_symop_operation_xyz
x,y,z
-x,y,1/2-z
-x,-y,-z
x,-y,1/2+z
1/2+x,1/2+y,z
1/2-x,1/2+y,1/2-z
1/2-x,1/2-y,-z
1/2+x,1/2-y,1/2+z
loop_
_atom_site_type_symbol
_atom_site_label
_atom_site_fract_x
_atom_site_fract_y
_atom_site_fract_z
Si Si1 0.364380 0.854364 0.255853
Si Si2 0.194889 0.726702 0.428077
Si Si3 0.407396 0.578630 0.926204
Si Si4 0.849471 0.069455 0.314176
Si Si5 0.185661 0.996840 0.859470
Si Si6 0.618756 0.769985 0.633618
Si Si7 0.390403 0.794203 0.055185
O O1 0.500000 0.828830 0.250000
O O2 0.258519 0.779651 0.320090
O O3 0.315445 0.943136 0.315031
O O4 0.382133 0.861842 0.139652
O O5 0.250000 0.750000 0.500000
O O6 0.234260 0.628359 0.404322
O O7 0.036439 0.749098 0.496593
O O8 0.359702 0.518884 0.863861
O O9 0.556335 0.556680 0.899392
O O10 0.405820 0.673976 0.891068
O O11 0.313490 0.561831 0.052431
O O12 0.000000 0.111551 0.250000
O O13 0.797932 0.060417 0.234426
O O14 0.500000 0.799575 0.750000
O O15 0.622972 0.830768 0.542407
O O16 0.765966 0.772605 0.619944
#
# Coordination Sequence:
#
# PCOD8139716 Si02
#       7
#     8   8   8   8   8   8   8
#     4  12  24  43  67  97 139 181 225 281 347 402
#     4  12  24  41  64 100 140 172 227 283 337 412
#     4  10  20  39  68  92 126 173 223 274 336 397
#     4  10  22  39  64  96 129 172 222 278 330 396
#     4  10  22  40  64  96 129 174 228 269 334 408
#     4  11  23  45  70  96 134 176 231 285 335 415
#     4  11  25  41  68  99 129 181 224 275 352 397
#
# _framework density 24.038049999999998
#
# number of rings (size 3 to 8) (size 9 to 14) (size 15 to 20)
#    0.000    1.143    1.429    6.000    2.000    1.143 
#    2.571    1.429    0.000    0.000    0.000    0.000 
#    0.000    0.000    0.000    0.000    0.000    0.000 
#
# Total GULP energy -346982.811653 kJ/mol
# GULP energy per Si atom -12392.243273 kJ/mol
# Density = 2.398334 g / cm^3
# Si number density = 24.038050 Si / 1000 Ang^3
#
#
#
# Elastic Constant Matrix: (Units=GPa)
#
#
# Indices 1 2 3 4 5 6 
#
# 1 124.7778 3.7539 36.5449 0.0000 -7.1432 0.0000
# 2 3.7539 59.5033 16.5876 0.0000 5.9797 0.0000
# 3 36.5449 16.5876 156.0476 0.0000 16.9990 0.0000
# 4 0.0000 0.0000 0.0000 28.2585 0.0000 0.5799
# 5 -7.1432 5.9797 16.9990 0.0000 44.9863 0.0000
# 6 0.0000 0.0000 0.0000 0.5799 0.0000 6.8194
#
#
#
# Elastic Compliance Matrix: (Units=1/GPa)
#
#
# Indices 1 2 3 4 5 6 
#
# 1 0.008823 -0.000145 -0.002300 0.000000 0.002290 0.000000
# 2 -0.000145 0.017443 -0.001632 0.000000 -0.001725 0.000000
# 3 -0.002300 -0.001632 0.007443 0.000000 -0.002961 0.000000
# 4 0.000000 0.000000 0.000000 0.035449 0.000000 -0.003015
# 5 0.002290 -0.001725 -0.002961 0.000000 0.023941 0.000000
# 6 0.000000 0.000000 0.000000 -0.003015 0.000000 0.146897
#
#
# Mechanical properties :
#
#
# Convention : Reuss Voigt Hill
#
# Bulk Modulus (GPa) = 39.13316 50.45570 44.79443
# Shear Modulus (GPa) = 19.48024 34.90901 27.19463
#
# Velocity S-wave (km/s) = 2.84983 3.81496 3.36715
# Velocity P-wave (km/s) = 5.20996 6.35930 5.81311
#
# Compressibility (1/GPa) = 0.02555378
#
# Stress axis : x y z
#
# Youngs Moduli (GPa) = 113.33486 57.32851 134.35351
#
# Poissons Ratio (x) = 0.00834 0.30905
# Poissons Ratio (y) = 0.01649 0.21929
# Poissons Ratio (z) = 0.26071 0.09357
#
# Static dielectric constant tensor:
#      x y z
#    x 5.672070 0.000000 -0.444390 
#    y 0.000000 4.123300 0.000000 
#    z -0.444390 0.000000 4.966950 
# 
# 
# High freq. dielectric constant tensor:
#      x y z
#    x 1.964210 0.000000 0.006440 
#    y 0.000000 1.914030 0.000000 
#    z 0.006440 0.000000 1.976580 
# 
# From -- ./inp_files/145985.got.cif
#   From: 2010.06.25/outbox.cif.g09.slc.cpg/sg15_73_cif.got.tgz:145985.got - 2010.06.28 07:06:18.
