data_PCOD8139648
_publ_section_title
;
Structure prediction by ZEFSAII (Michael W. Deem and Ramdas Pophale) SiO2 
 PCOD8139648
Probable space group: C 2/C
;
_chemical_formula_sum "Si O2"
_cell_formula_units_Z 40
_cell_length_a 15.372177
_cell_length_b 11.954127
_cell_length_c 10.348031
_cell_angle_alpha 90.000000
_cell_angle_beta 106.735214
_cell_angle_gamma 90.000000
_cell_volume 1821.024659
_symmetry_space_group_name_H-M "C 2/C"
_symmetry_group_IT_number 15
_symmetry_cell_setting 'monoclinic'
loop_
_space_group_symop_operation_xyz
x,y,z
-x,y,1/2-z
-x,-y,-z
x,-y,1/2+z
1/2+x,1/2+y,z
1/2-x,1/2+y,1/2-z
1/2-x,1/2-y,-z
1/2+x,1/2-y,1/2+z
loop_
_atom_site_type_symbol
_atom_site_label
_atom_site_fract_x
_atom_site_fract_y
_atom_site_fract_z
Si Si1 0.309298 0.426030 0.451131
Si Si2 0.610042 0.944078 0.424592
Si Si3 0.151926 0.101012 0.236384
Si Si4 0.500000 0.754667 0.250000
Si Si5 0.161748 0.694632 0.166447
Si Si6 0.000000 0.369433 0.750000
O O1 0.202964 0.455458 0.382284
O O2 0.364390 0.501741 0.373193
O O3 0.338082 0.446532 0.612414
O O4 0.330574 0.297031 0.429398
O O5 0.559278 0.830274 0.368390
O O6 0.637911 0.923562 0.585117
O O7 0.545455 0.051636 0.379670
O O8 0.063445 0.178029 0.186875
O O9 0.239232 0.174839 0.228600
O O10 0.079850 0.711872 0.232912
#
# Coordination Sequence:
#
# PCOD8139648 Si02
#       6
#     8   8   8   4   8   4
#     4  11  22  44  66  91 128 172 201 268 311 381
#     4  10  20  39  66  89 119 168 213 252 317 369
#     4  11  23  41  66  93 129 166 214 250 322 369
#     4  11  20  39  64  92 120 171 208 247 302 398
#     4  11  21  42  62  93 127 166 205 265 318 370
#     4  11  22  35  66  96 120 157 218 273 298 364
#
# _framework density 21.965657
#
# number of rings (size 3 to 8) (size 9 to 14) (size 15 to 20)
#    0.000    1.200    6.000    1.800    0.000    1.600 
#    3.600    1.000    0.000    0.000    0.000    0.000 
#    0.000    0.000    0.000    0.000    0.000    0.000 
#
# Total GULP energy -247911.737576 kJ/mol
# GULP energy per Si atom -12395.586879 kJ/mol
# Density = 2.191566 g / cm^3
# Si number density = 21.965657 Si / 1000 Ang^3
#
#
#
# Elastic Constant Matrix: (Units=GPa)
#
#
# Indices 1 2 3 4 5 6 
#
# 1 136.1886 25.7251 7.9394 0.0000 -11.6059 0.0000
# 2 25.7251 48.1077 10.6861 0.0000 -9.3081 0.0000
# 3 7.9394 10.6861 47.2445 0.0000 -12.8558 0.0000
# 4 0.0000 0.0000 0.0000 26.1009 0.0000 -0.2730
# 5 -11.6059 -9.3081 -12.8558 0.0000 27.3609 0.0000
# 6 0.0000 0.0000 0.0000 -0.2730 0.0000 37.3040
#
#
#
# Elastic Compliance Matrix: (Units=1/GPa)
#
#
# Indices 1 2 3 4 5 6 
#
# 1 0.008285 -0.004031 0.000118 0.000000 0.002198 0.000000
# 2 -0.004031 0.024702 -0.003541 0.000000 0.005030 0.000000
# 3 0.000118 -0.003541 0.024805 0.000000 0.010500 0.000000
# 4 0.000000 0.000000 0.000000 0.038316 0.000000 0.000280
# 5 0.002198 0.005030 0.010500 0.000000 0.044126 0.000000
# 6 0.000000 0.000000 0.000000 0.000280 0.000000 0.026809
#
#
# Mechanical properties :
#
#
# Convention : Reuss Voigt Hill
#
# Bulk Modulus (GPa) = 23.31951 35.58244 29.45098
# Shear Modulus (GPa) = 25.47837 30.63251 28.05544
#
# Velocity S-wave (km/s) = 3.40945 3.73844 3.57773
# Velocity P-wave (km/s) = 5.11259 5.90498 5.52302
#
# Compressibility (1/GPa) = 0.04288254
#
# Stress axis : x y z
#
# Youngs Moduli (GPa) = 120.70528 40.48255 40.31468
#
# Poissons Ratio (x) = 0.16318 -0.00474
# Poissons Ratio (y) = 0.48656 0.14276
# Poissons Ratio (z) = -0.01420 0.14336
#
# Static dielectric constant tensor:
#      x y z
#    x 4.321890 0.000000 0.145540 
#    y 0.000000 3.633000 0.000000 
#    z 0.145540 0.000000 3.634710 
# 
# 
# High freq. dielectric constant tensor:
#      x y z
#    x 1.886040 0.000000 0.008700 
#    y 0.000000 1.841510 0.000000 
#    z 0.008700 0.000000 1.840490 
# 
# From -- ./inp_files/38003.got.cif
#   From: 2010.06.25/outbox.cif.g09.slc.cpg/sg15_20_cif.got.tgz:38003.got - 2010.06.28 07:06:18.
