data_PCOD8139305
_publ_section_title
;
Structure prediction by ZEFSAII (Michael W. Deem and Ramdas Pophale) SiO2 
 PCOD8139305
Probable space group: C 2/C
;
_chemical_formula_sum "Si O2"
_cell_formula_units_Z 48
_cell_length_a 10.032123
_cell_length_b 9.824518
_cell_length_c 23.940329
_cell_angle_alpha 90.000000
_cell_angle_beta 110.866324
_cell_angle_gamma 90.000000
_cell_volume 2204.822065
_symmetry_space_group_name_H-M "C 2/C"
_symmetry_group_IT_number 15
_symmetry_cell_setting 'monoclinic'
loop_
_space_group_symop_operation_xyz
x,y,z
-x,y,1/2-z
-x,-y,-z
x,-y,1/2+z
1/2+x,1/2+y,z
1/2-x,1/2+y,1/2-z
1/2-x,1/2-y,-z
1/2+x,1/2-y,1/2+z
loop_
_atom_site_type_symbol
_atom_site_label
_atom_site_fract_x
_atom_site_fract_y
_atom_site_fract_z
Si Si1 0.717992 0.483096 0.569944
Si Si2 0.965545 0.195697 0.524133
Si Si3 0.327943 0.116222 0.490307
Si Si4 0.668393 0.693229 0.776319
Si Si5 0.370432 0.560667 0.615587
Si Si6 0.320966 0.532264 0.312154
O O1 0.595146 0.591152 0.537992
O O2 0.657435 0.337543 0.539693
O O3 0.850189 0.520793 0.548650
O O4 0.762482 0.485437 0.641250
O O5 0.020214 0.346718 0.515616
O O6 0.910002 0.185618 0.579698
O O7 0.250000 0.250000 0.500000
O O8 0.235213 0.043300 0.429280
O O9 0.500000 0.729601 0.750000
O O10 0.703193 0.625913 0.841208
O O11 0.717032 0.589172 0.735453
O O12 0.765806 0.825141 0.779128
O O13 0.509090 0.469926 0.652581
#
# Coordination Sequence:
#
# PCOD8139305 Si02
#       6
#     8   8   8   8   8   8
#     4   8  15  28  49  77 106 141 178 216 268 327
#     4   8  14  28  51  80 112 139 172 217 266 329
#     4   9  15  27  54  85 111 144 178 214 273 337
#     4  10  23  41  58  79 108 148 194 237 280 324
#     4   9  19  35  57  80 107 146 184 221 276 335
#     4  10  20  39  59  77 110 147 187 238 279 323
#
# _framework density 21.770462999999999
#
# number of rings (size 3 to 8) (size 9 to 14) (size 15 to 20)
#    0.000    3.000    0.000    3.000    0.000    5.333 
#    0.000   14.167    0.000    5.000    0.000    0.000 
#    0.000    0.000    0.000    0.000    0.000    0.000 
#
# Total GULP energy -297398.071050 kJ/mol
# GULP energy per Si atom -12391.586294 kJ/mol
# Density = 2.172091 g / cm^3
# Si number density = 21.770463 Si / 1000 Ang^3
#
#
#
# Elastic Constant Matrix: (Units=GPa)
#
#
# Indices 1 2 3 4 5 6 
#
# 1 66.8709 60.2946 53.6919 0.0000 -14.4028 0.0000
# 2 60.2946 113.6214 75.7512 0.0000 -8.8221 0.0000
# 3 53.6919 75.7512 155.4821 0.0000 -33.1491 0.0000
# 4 0.0000 0.0000 0.0000 32.6297 0.0000 -5.8008
# 5 -14.4028 -8.8221 -33.1491 0.0000 16.4430 0.0000
# 6 0.0000 0.0000 0.0000 -5.8008 0.0000 43.3410
#
#
#
# Elastic Compliance Matrix: (Units=1/GPa)
#
#
# Indices 1 2 3 4 5 6 
#
# 1 0.034860 -0.017898 0.002007 0.000000 0.024979 0.000000
# 2 -0.017898 0.023276 -0.010241 0.000000 -0.023835 0.000000
# 3 0.002007 -0.010241 0.017418 0.000000 0.031378 0.000000
# 4 0.000000 0.000000 0.000000 0.031394 0.000000 0.004202
# 5 0.024979 -0.023835 0.031378 0.000000 0.133166 0.000000
# 6 0.000000 0.000000 0.000000 0.004202 0.000000 0.023635
#
#
# Mechanical properties :
#
#
# Convention : Reuss Voigt Hill
#
# Bulk Modulus (GPa) = 42.93603 79.49443 61.21523
# Shear Modulus (GPa) = 15.44278 28.23185 21.83731
#
# Velocity S-wave (km/s) = 2.66624 3.60501 3.17057
# Velocity P-wave (km/s) = 5.40772 7.34318 6.44848
#
# Compressibility (1/GPa) = 0.02329046
#
# Stress axis : x y z
#
# Youngs Moduli (GPa) = 28.68605 42.96268 57.41222
#
# Poissons Ratio (x) = 0.76894 -0.11524
# Poissons Ratio (y) = 0.51342 0.58798
# Poissons Ratio (z) = -0.05758 0.44000
#
# Static dielectric constant tensor:
#      x y z
#    x 4.133910 0.000000 -0.363710 
#    y 0.000000 4.271890 0.000000 
#    z -0.363710 0.000000 4.063620 
# 
# 
# High freq. dielectric constant tensor:
#      x y z
#    x 1.840620 0.000000 -0.021400 
#    y 0.000000 1.854000 0.000000 
#    z -0.021400 0.000000 1.854000 
# 
# From -- ./inp_files/268076.got.cif
#   From: 2010.06.25/outbox.cif.g09.slc.cpg/sg15_135_cif.got.tgz:268076.got - 2010.06.28 07:06:18.
