data_PCOD8139751
_publ_section_title
;
Structure prediction by ZEFSAII (Michael W. Deem and Ramdas Pophale) SiO2 
 PCOD8139751
Probable space group: C 2/C
;
_chemical_formula_sum "Si O2"
_cell_formula_units_Z 48
_cell_length_a 17.422274
_cell_length_b 9.804738
_cell_length_c 26.800351
_cell_angle_alpha 90.000000
_cell_angle_beta 31.079588
_cell_angle_gamma 90.000000
_cell_volume 2363.322979
_symmetry_space_group_name_H-M "C 2/C"
_symmetry_group_IT_number 15
_symmetry_cell_setting 'monoclinic'
loop_
_space_group_symop_operation_xyz
x,y,z
-x,y,1/2-z
-x,-y,-z
x,-y,1/2+z
1/2+x,1/2+y,z
1/2-x,1/2+y,1/2-z
1/2-x,1/2-y,-z
1/2+x,1/2-y,1/2+z
loop_
_atom_site_type_symbol
_atom_site_label
_atom_site_fract_x
_atom_site_fract_y
_atom_site_fract_z
Si Si1 0.631921 0.140074 0.713741
Si Si2 0.633968 0.647583 0.297915
Si Si3 0.419717 0.126314 0.203909
Si Si4 0.154920 0.798883 0.485559
Si Si5 0.199429 0.471191 0.012244
Si Si6 0.498474 0.579033 0.693398
O O1 0.500000 0.185055 0.750000
O O2 0.610269 0.217115 0.778174
O O3 0.793598 0.174130 0.599958
O O4 0.630303 0.979474 0.725785
O O5 0.796009 0.646014 0.230749
O O6 0.511569 0.648655 0.410465
O O7 0.616559 0.516085 0.272448
O O8 0.446656 0.266278 0.217604
O O9 0.566006 0.075675 0.094132
O O10 0.164617 0.636418 0.487942
O O11 0.273179 0.882428 0.453263
O O12 0.338915 0.563227 0.920247
O O13 0.500000 0.533933 0.750000
#
# Coordination Sequence:
#
# PCOD8139751 Si02
#       6
#     8   8   8   8   8   8
#     4  12  21  41  73  91 119 176 225 255 304 392
#     4  11  24  43  64  94 136 168 207 267 330 372
#     4  12  24  41  64  97 137 161 205 279 326 361
#     4  10  20  39  70  95 118 171 229 254 298 396
#     4  10  20  41  66  93 126 170 215 262 314 376
#     4  11  24  41  63  96 129 170 212 262 319 384
#
# _framework density 20.310385
#
# number of rings (size 3 to 8) (size 9 to 14) (size 15 to 20)
#    0.000    1.000    3.333    5.500    0.000    0.667 
#    3.000    1.667    0.000    0.000    0.000    0.000 
#    0.000    0.000    0.000    0.000    0.000    0.000 
#
# Total GULP energy -297729.501123 kJ/mol
# GULP energy per Si atom -12405.395880 kJ/mol
# Density = 2.026416 g / cm^3
# Si number density = 20.310385 Si / 1000 Ang^3
#
#
#
# Elastic Constant Matrix: (Units=GPa)
#
#
# Indices 1 2 3 4 5 6 
#
# 1 66.4181 5.0384 33.0750 0.0003 -8.5677 0.0005
# 2 5.0384 93.8445 15.4996 0.0013 3.9393 0.0009
# 3 33.0750 15.4996 93.1561 -0.0020 10.4287 -0.0014
# 4 0.0003 0.0013 -0.0020 15.9728 -0.0003 5.1229
# 5 -8.5677 3.9393 10.4287 -0.0003 35.9439 -0.0002
# 6 0.0005 0.0009 -0.0014 5.1229 -0.0002 26.6238
#
#
#
# Elastic Compliance Matrix: (Units=1/GPa)
#
#
# Indices 1 2 3 4 5 6 
#
# 1 0.019863 -0.000068 -0.007826 -0.000001 0.007013 -0.000001
# 2 -0.000068 0.010974 -0.001721 -0.000001 -0.000720 0.000000
# 3 -0.007826 -0.001721 0.014457 0.000002 -0.005871 0.000001
# 4 -0.000001 -0.000001 0.000002 0.066724 0.000000 -0.012839
# 5 0.007013 -0.000720 -0.005871 0.000000 0.031275 0.000000
# 6 -0.000001 0.000000 0.000001 -0.012839 0.000000 0.040031
#
#
# Mechanical properties :
#
#
# Convention : Reuss Voigt Hill
#
# Bulk Modulus (GPa) = 38.36811 40.07162 39.21987
# Shear Modulus (GPa) = 23.66944 29.02850 26.34897
#
# Velocity S-wave (km/s) = 3.41748 3.78464 3.60573
# Velocity P-wave (km/s) = 5.87402 6.23461 6.05700
#
# Compressibility (1/GPa) = 0.02606331
#
# Stress axis : x y z
#
# Youngs Moduli (GPa) = 50.34435 91.12401 69.17070
#
# Poissons Ratio (x) = 0.00622 0.54134
# Poissons Ratio (y) = 0.00343 0.11905
# Poissons Ratio (z) = 0.39400 0.15683
#
# Static dielectric constant tensor:
#      x y z
#    x 3.455780 0.000000 0.034890 
#    y 0.000000 3.699670 0.000000 
#    z 0.034890 0.000000 3.743620 
# 
# 
# High freq. dielectric constant tensor:
#      x y z
#    x 1.769700 0.000000 0.004710 
#    y 0.000000 1.802840 0.000000 
#    z 0.004710 0.000000 1.805020 
# 
# From -- ./inp_files/315615.got.cif
#   From: 2010.06.25/outbox.cif.g09.slc.cpg/sg15_158_cif.got.tgz:315615.got - 2010.06.28 07:06:18.
