data_PCOD8139536
_publ_section_title
;
Structure prediction by ZEFSAII (Michael W. Deem and Ramdas Pophale) SiO2 
 PCOD8139536
Probable space group: C 2/C
;
_chemical_formula_sum "Si O2"
_cell_formula_units_Z 60
_cell_length_a 13.290626
_cell_length_b 12.803519
_cell_length_c 17.445688
_cell_angle_alpha 90.000000
_cell_angle_beta 89.956112
_cell_angle_gamma 90.000000
_cell_volume 2968.675725
_symmetry_space_group_name_H-M "C 2/C"
_symmetry_group_IT_number 15
_symmetry_cell_setting 'monoclinic'
loop_
_space_group_symop_operation_xyz
x,y,z
-x,y,1/2-z
-x,-y,-z
x,-y,1/2+z
1/2+x,1/2+y,z
1/2-x,1/2+y,1/2-z
1/2-x,1/2-y,-z
1/2+x,1/2-y,1/2+z
loop_
_atom_site_type_symbol
_atom_site_label
_atom_site_fract_x
_atom_site_fract_y
_atom_site_fract_z
Si Si1 0.615471 0.216809 0.895525
Si Si2 0.228530 0.921563 0.466512
Si Si3 0.189014 0.922640 0.096032
Si Si4 0.757696 0.401190 0.862512
Si Si5 0.500000 0.265680 0.750000
Si Si6 0.303524 0.614683 0.302828
Si Si7 0.066142 0.277944 0.567117
Si Si8 0.153232 0.295653 0.925027
O O1 0.701085 0.128895 0.898220
O O2 0.664046 0.331770 0.890992
O O3 0.544110 0.196913 0.820973
O O4 0.553932 0.214994 0.974918
O O5 0.156433 0.822519 0.456207
O O6 0.330793 0.878694 0.505991
O O7 0.176930 0.008882 0.519723
O O8 0.245785 0.976983 0.384838
O O9 0.102644 0.835422 0.095633
O O10 0.174380 0.997794 0.168572
O O11 0.766875 0.392793 0.771527
O O12 0.858039 0.365028 0.904183
O O13 0.588761 0.335191 0.714392
O O14 0.239805 0.684587 0.362177
O O15 0.959738 0.307451 0.606220
#
# Coordination Sequence:
#
# PCOD8139536 Si02
#       8
#     8   8   8   8   4   8   8   8
#     4  10  20  39  63  96 116 163 203 259 291 368
#     4  10  20  40  59  88 125 162 194 262 295 362
#     4  10  20  41  64  91 124 154 212 249 305 356
#     4  10  20  40  65  85 124 162 209 245 303 362
#     4  10  24  40  66  84 126 162 206 244 314 370
#     4  10  24  44  58  90 126 163 199 257 307 369
#     4  11  21  38  67  93 118 166 205 256 297 372
#     4  10  25  38  58  94 132 153 199 259 316 346
#
# _framework density 20.211033
#
# number of rings (size 3 to 8) (size 9 to 14) (size 15 to 20)
#    0.000    1.867    2.667    0.800    5.600    6.933 
#    0.000    0.000    0.000    0.000    0.000    0.000 
#    0.000    0.000    0.000    0.000    0.000    0.000 
#
# Total GULP energy -371897.008776 kJ/mol
# GULP energy per Si atom -12396.566959 kJ/mol
# Density = 2.016503 g / cm^3
# Si number density = 20.211033 Si / 1000 Ang^3
#
#
#
# Elastic Constant Matrix: (Units=GPa)
#
#
# Indices 1 2 3 4 5 6 
#
# 1 106.8197 6.8067 39.4839 0.0000 -4.0999 0.0000
# 2 6.8067 55.7967 23.8493 0.0000 -4.1029 0.0000
# 3 39.4839 23.8493 113.7371 0.0000 9.9091 0.0000
# 4 0.0000 0.0000 0.0000 33.8370 0.0000 2.6112
# 5 -4.0999 -4.1029 9.9091 0.0000 28.0229 0.0000
# 6 0.0000 0.0000 0.0000 2.6112 0.0000 11.5346
#
#
#
# Elastic Compliance Matrix: (Units=1/GPa)
#
#
# Indices 1 2 3 4 5 6 
#
# 1 0.011012 0.000711 -0.004252 0.000000 0.003219 0.000000
# 2 0.000711 0.020293 -0.004922 0.000000 0.004816 0.000000
# 3 -0.004252 -0.004922 0.011780 0.000000 -0.005508 0.000000
# 4 0.000000 0.000000 0.000000 0.030079 0.000000 -0.006809
# 5 0.003219 0.004816 -0.005508 0.000000 0.038809 0.000000
# 6 0.000000 0.000000 0.000000 -0.006809 0.000000 0.088237
#
#
# Mechanical properties :
#
#
# Convention : Reuss Voigt Hill
#
# Bulk Modulus (GPa) = 38.22731 46.29260 42.25995
# Shear Modulus (GPa) = 22.13804 28.42646 25.28225
#
# Velocity S-wave (km/s) = 3.31319 3.75438 3.54066
# Velocity P-wave (km/s) = 5.79581 6.46128 6.13757
#
# Compressibility (1/GPa) = 0.02615931
#
# Stress axis : x y z
#
# Youngs Moduli (GPa) = 90.81384 49.27755 84.88794
#
# Poissons Ratio (x) = -0.03503 0.36096
# Poissons Ratio (y) = -0.06456 0.41778
# Poissons Ratio (z) = 0.38615 0.24252
#
# Static dielectric constant tensor:
#      x y z
#    x 3.501550 0.000000 0.179770 
#    y 0.000000 3.760030 0.000000 
#    z 0.179770 0.000000 3.838840 
# 
# 
# High freq. dielectric constant tensor:
#      x y z
#    x 1.775450 0.000000 0.012380 
#    y 0.000000 1.791360 0.000000 
#    z 0.012380 0.000000 1.792480 
# 
# From -- ./inp_files/237603.got.cif
#   From: 2010.06.25/outbox.cif.g09.slc.cpg/sg15_119_cif.got.tgz:237603.got - 2010.06.28 07:06:18.
