data_PCOD8139456
_publ_section_title
;
Structure prediction by ZEFSAII (Michael W. Deem and Ramdas Pophale) SiO2 
 PCOD8139456
Probable space group: C 2/C
;
_chemical_formula_sum "Si O2"
_cell_formula_units_Z 48
_cell_length_a 20.164693
_cell_length_b 7.606362
_cell_length_c 18.311052
_cell_angle_alpha 90.000000
_cell_angle_beta 56.944477
_cell_angle_gamma 90.000000
_cell_volume 2353.963396
_symmetry_space_group_name_H-M "C 2/C"
_symmetry_group_IT_number 15
_symmetry_cell_setting 'monoclinic'
loop_
_space_group_symop_operation_xyz
x,y,z
-x,y,1/2-z
-x,-y,-z
x,-y,1/2+z
1/2+x,1/2+y,z
1/2-x,1/2+y,1/2-z
1/2-x,1/2-y,-z
1/2+x,1/2-y,1/2+z
loop_
_atom_site_type_symbol
_atom_site_label
_atom_site_fract_x
_atom_site_fract_y
_atom_site_fract_z
Si Si1 0.423573 0.367378 0.249108
Si Si2 0.382414 0.953472 0.015695
Si Si3 0.068367 0.735295 0.763034
Si Si4 0.808808 0.373217 0.420875
Si Si5 0.236062 0.735278 0.092419
Si Si6 0.557478 0.916151 0.878298
O O1 0.500000 0.305562 0.250000
O O2 0.440792 0.561847 0.206842
O O3 0.342474 0.349313 0.343327
O O4 0.408260 0.236843 0.191763
O O5 0.314795 0.815359 0.082352
O O6 0.390921 0.087346 0.078545
O O7 0.467605 0.863891 0.952498
O O8 0.365075 0.048213 0.949631
O O9 0.146546 0.740089 0.666329
O O10 0.067948 0.606949 0.832957
O O11 0.000000 0.670526 0.750000
O O12 0.750000 0.250000 0.500000
O O13 0.771454 0.525841 0.391255
O O14 0.250000 0.750000 0.000000
#
# Coordination Sequence:
#
# PCOD8139456 Si02
#       6
#     8   8   8   8   8   8
#     4  11  22  39  69  95 124 167 218 262 316 381
#     4  10  23  42  64  91 131 169 210 262 330 372
#     4  11  21  38  66  95 121 167 220 257 311 386
#     4  11  21  39  65  94 126 163 215 266 312 377
#     4  10  20  39  62  92 124 163 209 260 313 372
#     4  11  22  44  64  92 132 171 207 265 325 378
#
# _framework density 20.391141000000001
#
# number of rings (size 3 to 8) (size 9 to 14) (size 15 to 20)
#    0.000    1.333    3.333    4.500    0.000    1.333 
#    9.000    1.667    0.000    0.000    0.000    0.000 
#    0.000    0.000    0.000    0.000    0.000    0.000 
#
# Total GULP energy -297385.616303 kJ/mol
# GULP energy per Si atom -12391.067346 kJ/mol
# Density = 2.034473 g / cm^3
# Si number density = 20.391141 Si / 1000 Ang^3
#
#
#
# Elastic Constant Matrix: (Units=GPa)
#
#
# Indices 1 2 3 4 5 6 
#
# 1 101.3985 28.4455 35.8270 0.0002 -11.9529 -0.0011
# 2 28.4455 92.9884 19.6456 -0.0011 2.5212 -0.0040
# 3 35.8270 19.6456 91.7841 -0.0001 -13.8546 -0.0007
# 4 0.0002 -0.0011 -0.0001 29.3664 0.0005 -0.2560
# 5 -11.9529 2.5212 -13.8546 0.0005 38.5682 -0.0012
# 6 -0.0011 -0.0040 -0.0007 -0.2560 -0.0012 18.5345
#
#
#
# Elastic Compliance Matrix: (Units=1/GPa)
#
#
# Indices 1 2 3 4 5 6 
#
# 1 0.012368 -0.003060 -0.003768 0.000000 0.002679 0.000000
# 2 -0.003060 0.012126 -0.001759 0.000001 -0.002373 0.000002
# 3 -0.003768 -0.001759 0.013305 0.000000 0.003727 0.000000
# 4 0.000000 0.000001 0.000000 0.034057 -0.000001 0.000470
# 5 0.002679 -0.002373 0.003727 -0.000001 0.028252 0.000002
# 6 0.000000 0.000002 0.000000 0.000470 0.000002 0.053960
#
#
# Mechanical properties :
#
#
# Convention : Reuss Voigt Hill
#
# Bulk Modulus (GPa) = 48.48688 50.44525 49.46607
# Shear Modulus (GPa) = 28.07139 30.77734 29.42437
#
# Velocity S-wave (km/s) = 3.71434 3.88925 3.80280
# Velocity P-wave (km/s) = 6.49809 6.70529 6.60250
#
# Compressibility (1/GPa) = 0.02062414
#
# Stress axis : x y z
#
# Youngs Moduli (GPa) = 80.85553 82.46685 75.15903
#
# Poissons Ratio (x) = 0.25234 0.28322
# Poissons Ratio (y) = 0.24741 0.13223
# Poissons Ratio (z) = 0.30468 0.14508
#
# Static dielectric constant tensor:
#      x y z
#    x 3.978100 -0.001040 -0.255090 
#    y -0.001040 -42.575610 0.000690 
#    z -0.255090 0.000690 3.909490 
# 
# 
# High freq. dielectric constant tensor:
#      x y z
#    x 1.784600 0.000000 -0.016610 
#    y 0.000000 1.792640 0.000000 
#    z -0.016610 0.000000 1.807450 
# 
# From -- ./inp_files/213282.got.cif
#   From: 2010.06.25/outbox.cif.g09.slc.cpg/sg15_107_cif.got.tgz:213282.got - 2010.06.28 07:06:18.
