data_PCOD8139452
_publ_section_title
;
Structure prediction by ZEFSAII (Michael W. Deem and Ramdas Pophale) SiO2 
 PCOD8139452
Probable space group: C 2/C
;
_chemical_formula_sum "Si O2"
_cell_formula_units_Z 48
_cell_length_a 24.833289
_cell_length_b 17.961649
_cell_length_c 13.588012
_cell_angle_alpha 90.000000
_cell_angle_beta 159.341140
_cell_angle_gamma 90.000000
_cell_volume 2138.300484
_symmetry_space_group_name_H-M "C 2/C"
_symmetry_group_IT_number 15
_symmetry_cell_setting 'monoclinic'
loop_
_space_group_symop_operation_xyz
x,y,z
-x,y,1/2-z
-x,-y,-z
x,-y,1/2+z
1/2+x,1/2+y,z
1/2-x,1/2+y,1/2-z
1/2-x,1/2-y,-z
1/2+x,1/2-y,1/2+z
loop_
_atom_site_type_symbol
_atom_site_label
_atom_site_fract_x
_atom_site_fract_y
_atom_site_fract_z
Si Si1 0.601778 0.148386 0.251917
Si Si2 0.242290 0.511909 0.567126
Si Si3 0.635988 0.862828 0.314738
Si Si4 0.561095 0.692797 0.671820
Si Si5 0.994593 0.958838 0.127472
Si Si6 0.431621 0.296566 0.738114
O O1 0.516200 0.225508 0.139983
O O2 0.768339 0.174514 0.501163
O O3 0.623947 0.082221 0.370653
O O4 0.508524 0.116987 0.000238
O O5 0.152093 0.434442 0.412353
O O6 0.341524 0.519648 0.637066
O O7 0.361311 0.513342 0.860490
O O8 0.613935 0.790475 0.345420
O O9 0.784938 0.848987 0.502293
O O10 0.452754 0.627728 0.530109
O O11 0.546738 0.692589 0.527748
O O12 0.000000 0.973749 0.250000
O O13 0.500000 0.320667 0.750000
#
# Coordination Sequence:
#
# PCOD8139452 Si02
#       6
#     8   8   8   8   8   8
#     4   9  19  36  62  83 125 165 189 266 326 351
#     4  10  20  39  62  91 129 162 213 267 321 382
#     4  10  20  39  62  91 130 164 212 270 316 380
#     4   9  18  40  61  90 123 163 216 258 306 382
#     4  10  21  39  66  90 121 175 219 260 315 389
#     4  10  21  39  65  92 126 177 215 262 317 382
#
# _framework density 22.447734000000001
#
# number of rings (size 3 to 8) (size 9 to 14) (size 15 to 20)
#    0.000    2.333    1.667    0.500    0.000    0.667 
#   15.000    0.833    0.000    0.000    0.000    0.000 
#    0.000    0.000    0.000    0.000    0.000    0.000 
#
# Total GULP energy -297376.932054 kJ/mol
# GULP energy per Si atom -12390.705502 kJ/mol
# Density = 2.239664 g / cm^3
# Si number density = 22.447734 Si / 1000 Ang^3
#
#
#
# Elastic Constant Matrix: (Units=GPa)
#
#
# Indices 1 2 3 4 5 6 
#
# 1 85.7294 1.8467 30.1815 0.0000 -22.3656 0.0000
# 2 1.8467 127.3293 27.6165 0.0000 -12.4073 0.0000
# 3 30.1815 27.6165 111.6917 0.0000 -13.1572 0.0000
# 4 0.0000 0.0000 0.0000 36.9405 0.0000 -6.1716
# 5 -22.3656 -12.4073 -13.1572 0.0000 20.4915 0.0000
# 6 0.0000 0.0000 0.0000 -6.1716 0.0000 8.1249
#
#
#
# Elastic Compliance Matrix: (Units=1/GPa)
#
#
# Indices 1 2 3 4 5 6 
#
# 1 0.017534 0.002222 -0.003110 0.000000 0.018486 0.000000
# 2 0.002222 0.008896 -0.002034 0.000000 0.006506 0.000000
# 3 -0.003110 -0.002034 0.010549 0.000000 0.002148 0.000000
# 4 0.000000 0.000000 0.000000 0.031005 0.000000 0.023551
# 5 0.018486 0.006506 0.002148 0.000000 0.074296 0.000000
# 6 0.000000 0.000000 0.000000 0.023551 0.000000 0.140967
#
#
# Mechanical properties :
#
#
# Convention : Reuss Voigt Hill
#
# Bulk Modulus (GPa) = 32.11664 49.33774 40.72719
# Shear Modulus (GPa) = 16.69608 30.78511 23.74059
#
# Velocity S-wave (km/s) = 2.73018 3.70728 3.25560
# Velocity P-wave (km/s) = 4.92716 6.35231 5.68457
#
# Compressibility (1/GPa) = 0.03113650
#
# Stress axis : x y z
#
# Youngs Moduli (GPa) = 57.03064 112.40454 94.79196
#
# Poissons Ratio (x) = -0.24971 0.29478
# Poissons Ratio (y) = -0.12670 0.19277
# Poissons Ratio (z) = 0.17735 0.22859
#
# Static dielectric constant tensor:
#      x y z
#    x 3.242580 0.000000 -0.003150 
#    y 0.000000 4.760690 0.000000 
#    z -0.003150 0.000000 4.205410 
# 
# 
# High freq. dielectric constant tensor:
#      x y z
#    x 1.805740 0.000000 -0.011110 
#    y 0.000000 1.913410 0.000000 
#    z -0.011110 0.000000 1.898590 
# 
# From -- ./inp_files/182984.got.cif
#   From: 2010.06.25/outbox.cif.g09.slc.cpg/sg15_92_cif.got.tgz:182984.got - 2010.06.28 07:06:18.
