data_PCOD8139935
_publ_section_title
;
Structure prediction by ZEFSAII (Michael W. Deem and Ramdas Pophale) SiO2 
 PCOD8139935
Probable space group: C 2/C
;
_chemical_formula_sum "Si O2"
_cell_formula_units_Z 44
_cell_length_a 21.221150
_cell_length_b 10.360653
_cell_length_c 9.176266
_cell_angle_alpha 90.000000
_cell_angle_beta 98.269008
_cell_angle_gamma 90.000000
_cell_volume 1996.564573
_symmetry_space_group_name_H-M "C 2/C"
_symmetry_group_IT_number 15
_symmetry_cell_setting 'monoclinic'
loop_
_space_group_symop_operation_xyz
x,y,z
-x,y,1/2-z
-x,-y,-z
x,-y,1/2+z
1/2+x,1/2+y,z
1/2-x,1/2+y,1/2-z
1/2-x,1/2-y,-z
1/2+x,1/2-y,1/2+z
loop_
_atom_site_type_symbol
_atom_site_label
_atom_site_fract_x
_atom_site_fract_y
_atom_site_fract_z
Si Si1 0.482300 0.673009 0.970703
Si Si2 0.000000 0.962910 0.750000
Si Si3 0.869033 0.237874 0.496195
Si Si4 0.205882 0.518675 0.644394
Si Si5 0.703763 0.510988 0.574948
Si Si6 0.361340 0.238643 0.333897
O O1 0.460288 0.629985 0.127285
O O2 0.554640 0.723260 0.991223
O O3 0.463760 0.555047 0.853042
O O4 0.435987 0.784544 0.897088
O O5 0.842361 0.365337 0.408898
O O6 0.848571 0.244721 0.658194
O O7 0.838068 0.116074 0.402362
O O8 0.229401 0.527056 0.817992
O O9 0.272808 0.513767 0.581370
O O10 0.170979 0.384830 0.608304
O O11 0.661717 0.637613 0.582408
#
# Coordination Sequence:
#
# PCOD8139935 Si02
#       6
#     8   4   8   8   8   8
#     4  11  24  41  71 104 136 180 223 281 352 401
#     4  10  20  40  64 102 140 164 228 278 326 404
#     4  12  25  46  70 102 145 174 227 295 335 409
#     4  12  26  45  69  97 142 188 225 273 351 405
#     4  12  24  44  73  99 132 183 235 288 333 395
#     4  12  25  45  71 103 140 180 228 286 341 411
#
# _framework density 22.037853999999999
#
# number of rings (size 3 to 8) (size 9 to 14) (size 15 to 20)
#    0.000    0.364    5.455    4.364    0.000    3.636 
#    0.000    0.000    0.000    0.000    0.000    0.000 
#    0.000    0.000    0.000    0.000    0.000    0.000 
#
# Total GULP energy -272584.166750 kJ/mol
# GULP energy per Si atom -12390.189398 kJ/mol
# Density = 2.198770 g / cm^3
# Si number density = 22.037854 Si / 1000 Ang^3
#
#
#
# Elastic Constant Matrix: (Units=GPa)
#
#
# Indices 1 2 3 4 5 6 
#
# 1 106.7523 60.5081 23.5811 0.0000 22.9502 0.0000
# 2 60.5081 155.3716 34.6742 0.0000 17.3282 0.0000
# 3 23.5811 34.6742 98.5420 0.0000 9.7207 0.0000
# 4 0.0000 0.0000 0.0000 28.6325 0.0000 -0.7614
# 5 22.9502 17.3282 9.7207 0.0000 33.9643 0.0000
# 6 0.0000 0.0000 0.0000 -0.7614 0.0000 14.4492
#
#
#
# Elastic Compliance Matrix: (Units=1/GPa)
#
#
# Indices 1 2 3 4 5 6 
#
# 1 0.013436 -0.004258 -0.001066 0.000000 -0.006601 0.000000
# 2 -0.004258 0.008632 -0.001922 0.000000 -0.000977 0.000000
# 3 -0.001066 -0.001922 0.011229 0.000000 -0.001513 0.000000
# 4 0.000000 0.000000 0.000000 0.034974 0.000000 0.001843
# 5 -0.006601 -0.000977 -0.001513 0.000000 0.034834 0.000000
# 6 0.000000 0.000000 0.000000 0.001843 0.000000 0.069305
#
#
# Mechanical properties :
#
#
# Convention : Reuss Voigt Hill
#
# Bulk Modulus (GPa) = 53.17891 66.46587 59.82239
# Shear Modulus (GPa) = 25.88380 31.53604 28.70992
#
# Velocity S-wave (km/s) = 3.43084 3.78695 3.61329
# Velocity P-wave (km/s) = 6.31485 7.02472 6.67922
#
# Compressibility (1/GPa) = 0.01880445
#
# Stress axis : x y z
#
# Youngs Moduli (GPa) = 74.42848 115.84179 89.05869
#
# Poissons Ratio (x) = 0.49330 0.09490
# Poissons Ratio (y) = 0.31695 0.17118
# Poissons Ratio (z) = 0.07931 0.22267
#
# Static dielectric constant tensor:
#      x y z
#    x 3.846010 0.000000 0.114530 
#    y 0.000000 3.880670 0.000000 
#    z 0.114530 0.000000 4.271250 
# 
# 
# High freq. dielectric constant tensor:
#      x y z
#    x 1.862310 0.000000 0.007890 
#    y 0.000000 1.856160 0.000000 
#    z 0.007890 0.000000 1.884780 
# 
# From -- ./inp_files/54419.got.cif
#   From: 2010.06.25/outbox.cif.g09.slc.cpg/sg15_28_cif.got.tgz:54419.got - 2010.06.28 07:06:18.
