data_PCOD8139701
_publ_section_title
;
Structure prediction by ZEFSAII (Michael W. Deem and Ramdas Pophale) SiO2 
 PCOD8139701
Probable space group: C 2/C
;
_chemical_formula_sum "Si O2"
_cell_formula_units_Z 64
_cell_length_a 11.632466
_cell_length_b 13.459407
_cell_length_c 19.467567
_cell_angle_alpha 90.000000
_cell_angle_beta 90.018221
_cell_angle_gamma 90.000000
_cell_volume 3047.960777
_symmetry_space_group_name_H-M "C 2/C"
_symmetry_group_IT_number 15
_symmetry_cell_setting 'monoclinic'
loop_
_space_group_symop_operation_xyz
x,y,z
-x,y,1/2-z
-x,-y,-z
x,-y,1/2+z
1/2+x,1/2+y,z
1/2-x,1/2+y,1/2-z
1/2-x,1/2-y,-z
1/2+x,1/2-y,1/2+z
loop_
_atom_site_type_symbol
_atom_site_label
_atom_site_fract_x
_atom_site_fract_y
_atom_site_fract_z
Si Si1 0.971751 0.214271 0.527637
Si Si2 0.314622 0.205339 0.301804
Si Si3 0.670465 0.189429 0.353516
Si Si4 0.995567 0.535607 0.327339
Si Si5 0.116274 0.908270 0.586190
Si Si6 0.542975 0.854021 0.412979
Si Si7 0.561665 0.672019 0.320970
Si Si8 0.805442 0.130986 0.911853
O O1 0.906296 0.240320 0.597670
O O2 0.903295 0.121708 0.493427
O O3 0.970401 0.309294 0.476327
O O4 0.105240 0.183259 0.536280
O O5 0.332145 0.236617 0.222554
O O6 0.195503 0.147053 0.312708
O O7 0.317654 0.310443 0.340265
O O8 0.408068 0.128227 0.331448
O O9 0.799128 0.175489 0.381515
O O10 0.619720 0.078766 0.347101
O O11 0.000000 0.490637 0.250000
O O12 0.975418 0.451996 0.385591
O O13 0.992805 0.902588 0.623508
O O14 0.161949 0.017330 0.597415
O O15 0.544489 0.783960 0.346687
O O16 0.674456 0.868597 0.439131
O O17 0.500000 0.655058 0.250000
#
# Coordination Sequence:
#
# PCOD8139701 Si02
#       8
#     8   8   8   8   8   8   8   8
#     4  11  24  41  62  92 130 172 215 258 317 385
#     4  10  22  41  70  93 128 165 209 270 320 375
#     4  11  21  42  64  93 132 163 208 267 323 379
#     4  10  20  39  67  96 124 158 212 267 319 366
#     4  11  23  42  65  92 130 172 209 266 318 382
#     4  10  22  39  66  92 122 171 211 261 317 375
#     4  10  20  40  62  93 126 162 210 259 316 379
#     4  11  22  43  65  92 127 173 214 261 319 377
#
# _framework density 20.997644999999999
#
# number of rings (size 3 to 8) (size 9 to 14) (size 15 to 20)
#    0.000    1.500    3.750    1.500    0.000    0.500 
#    2.250    3.750    0.000    0.000    0.000    0.000 
#    0.000    0.000    0.000    0.000    0.000    0.000 
#
# Total GULP energy -396685.095638 kJ/mol
# GULP energy per Si atom -12396.409239 kJ/mol
# Density = 2.094985 g / cm^3
# Si number density = 20.997645 Si / 1000 Ang^3
#
#
#
# Elastic Constant Matrix: (Units=GPa)
#
#
# Indices 1 2 3 4 5 6 
#
# 1 92.9830 34.4115 42.3876 0.0000 -3.2610 0.0000
# 2 34.4115 92.2863 37.9193 0.0000 0.0131 0.0000
# 3 42.3876 37.9193 93.3295 0.0000 4.8507 0.0000
# 4 0.0000 0.0000 0.0000 29.3436 0.0000 4.8154
# 5 -3.2610 0.0131 4.8507 0.0000 32.5957 0.0000
# 6 0.0000 0.0000 0.0000 4.8154 0.0000 20.5871
#
#
#
# Elastic Compliance Matrix: (Units=1/GPa)
#
#
# Indices 1 2 3 4 5 6 
#
# 1 0.014471 -0.003178 -0.005398 0.000000 0.002252 0.000000
# 2 -0.003178 0.013725 -0.004148 0.000000 0.000294 0.000000
# 3 -0.005398 -0.004148 0.014996 0.000000 -0.002770 0.000000
# 4 0.000000 0.000000 0.000000 0.035439 0.000000 -0.008289
# 5 0.002252 0.000294 -0.002770 0.000000 0.031316 0.000000
# 6 0.000000 0.000000 0.000000 -0.008289 0.000000 0.050513
#
#
# Mechanical properties :
#
#
# Convention : Reuss Voigt Hill
#
# Bulk Modulus (GPa) = 56.36096 56.44839 56.40467
# Shear Modulus (GPa) = 26.06563 27.43063 26.74813
#
# Velocity S-wave (km/s) = 3.52712 3.61829 3.57299
# Velocity P-wave (km/s) = 6.59448 6.66315 6.62891
#
# Compressibility (1/GPa) = 0.01774278
#
# Stress axis : x y z
#
# Youngs Moduli (GPa) = 69.10606 72.85767 66.68568
#
# Poissons Ratio (x) = 0.23155 0.35996
# Poissons Ratio (y) = 0.21963 0.27664
# Poissons Ratio (z) = 0.37303 0.30224
#
# Static dielectric constant tensor:
#      x y z
#    x 4.060860 0.000000 0.175480 
#    y 0.000000 3.526470 0.000000 
#    z 0.175480 0.000000 3.799810 
# 
# 
# High freq. dielectric constant tensor:
#      x y z
#    x 1.834230 0.000000 0.015090 
#    y 0.000000 1.803570 0.000000 
#    z 0.015090 0.000000 1.825260 
# 
# From -- ./inp_files/198333.got.cif
#   From: 2010.06.25/outbox.cif.g09.slc.cpg/sg15_100_cif.got.tgz:198333.got - 2010.06.28 07:06:18.
