data_PCOD8139146
_publ_section_title
;
Structure prediction by ZEFSAII (Michael W. Deem and Ramdas Pophale) SiO2 
 PCOD8139146
Probable space group: C 2/C
;
_chemical_formula_sum "Si O2"
_cell_formula_units_Z 44
_cell_length_a 12.714676
_cell_length_b 27.555508
_cell_length_c 9.241490
_cell_angle_alpha 90.000000
_cell_angle_beta 42.663458
_cell_angle_gamma 90.000000
_cell_volume 2194.256128
_symmetry_space_group_name_H-M "C 2/C"
_symmetry_group_IT_number 15
_symmetry_cell_setting 'monoclinic'
loop_
_space_group_symop_operation_xyz
x,y,z
-x,y,1/2-z
-x,-y,-z
x,-y,1/2+z
1/2+x,1/2+y,z
1/2-x,1/2+y,1/2-z
1/2-x,1/2-y,-z
1/2+x,1/2-y,1/2+z
loop_
_atom_site_type_symbol
_atom_site_label
_atom_site_fract_x
_atom_site_fract_y
_atom_site_fract_z
Si Si1 0.500000 0.238198 0.250000
Si Si2 0.667089 0.034482 0.138482
Si Si3 0.674339 0.600340 0.736187
Si Si4 0.168123 0.903266 0.804283
Si Si5 0.833572 0.579728 0.857387
Si Si6 0.217346 0.181403 0.448814
O O1 0.389926 0.202501 0.272723
O O2 0.398710 0.273424 0.454165
O O3 0.500000 0.052365 0.250000
O O4 0.709975 0.058701 0.248527
O O5 0.670099 0.977688 0.162246
O O6 0.791141 0.053123 0.895898
O O7 0.799509 0.606000 0.738828
O O8 0.676188 0.648805 0.634067
O O9 0.508911 0.587216 0.972619
O O10 0.194466 0.905870 0.606455
O O11 0.209713 0.849353 0.811954
O O12 0.000000 0.597135 0.750000
#
# Coordination Sequence:
#
# PCOD8139146 Si02
#       6
#     4   8   8   8   8   8
#     4  10  20  38  66  88 112 134 188 236 288 342
#     4  10  21  37  57  83 114 155 203 236 265 327
#     4  11  22  37  57  86 120 149 192 235 282 334
#     4  11  22  37  57  86 120 149 192 235 282 334
#     4  11  24  37  55  82 118 161 194 229 280 336
#     4  10  21  38  63  93 108 142 183 239 283 342
#
# _framework density 20.052354999999999
#
# number of rings (size 3 to 8) (size 9 to 14) (size 15 to 20)
#    0.000    1.455    1.818    4.364    7.636    7.273 
#    0.000    0.000    0.000    6.545    0.000    0.000 
#    0.000    0.000    0.000    0.000    0.000    0.000 
#
# Total GULP energy -272752.676718 kJ/mol
# GULP energy per Si atom -12397.848942 kJ/mol
# Density = 2.000671 g / cm^3
# Si number density = 20.052355 Si / 1000 Ang^3
#
#
#
# Elastic Constant Matrix: (Units=GPa)
#
#
# Indices 1 2 3 4 5 6 
#
# 1 73.7754 9.2954 7.3807 0.0000 -2.4478 0.0000
# 2 9.2954 40.8103 8.1844 0.0000 -6.5311 0.0000
# 3 7.3807 8.1844 66.8794 0.0000 -2.7556 0.0000
# 4 0.0000 0.0000 0.0000 -55.7758 0.0000 23.6072
# 5 -2.4478 -6.5311 -2.7556 0.0000 43.3958 0.0000
# 6 0.0000 0.0000 0.0000 23.6072 0.0000 -2.3317
#
#
#
# Elastic Compliance Matrix: (Units=1/GPa)
#
#
# Indices 1 2 3 4 5 6 
#
# 1 0.014050 -0.002919 -0.001182 0.000000 0.000278 0.000000
# 2 -0.002919 0.026298 -0.002747 0.000000 0.003619 0.000000
# 3 -0.001182 -0.002747 0.015440 0.000000 0.000500 0.000000
# 4 0.000000 0.000000 0.000000 0.005458 0.000000 0.055254
# 5 0.000278 0.003619 0.000500 0.000000 0.023636 0.000000
# 6 0.000000 0.000000 0.000000 0.055254 0.000000 0.130547
#
#
# Mechanical properties :
#
#
# Convention : Reuss Voigt Hill
#
# Bulk Modulus (GPa) = 23.75710 25.68733 24.72221
# Shear Modulus (GPa) = 20.56308 7.49797 14.03052
#
# Velocity S-wave (km/s) = 3.20577 1.93580 2.64804
# Velocity P-wave (km/s) = 5.05726 4.22307 4.65887
#
# Compressibility (1/GPa) = 0.04209269
#
# Stress axis : x y z
#
# Youngs Moduli (GPa) = 71.17515 38.02505 64.76888
#
# Poissons Ratio (x) = 0.11098 0.07655
# Poissons Ratio (y) = 0.20773 0.17793
# Poissons Ratio (z) = 0.08412 0.10446
#
# Static dielectric constant tensor:
#      x y z
#    x 3.886390 0.000000 -0.161060 
#    y 0.000000 3.593660 0.000000 
#    z -0.161060 0.000000 3.607410 
# 
# 
# High freq. dielectric constant tensor:
#      x y z
#    x 1.789070 0.000000 -0.019990 
#    y 0.000000 1.769700 0.000000 
#    z -0.019990 0.000000 1.781170 
# 
# From -- ./inp_files/33983.got.cif
#   From: 2010.06.25/outbox.cif.g09.slc.cpg/sg15_17_cif.got.tgz:33983.got - 2010.06.28 07:06:18.
