data_PCOD8140213
_publ_section_title
;
Structure prediction by ZEFSAII (Michael W. Deem and Ramdas Pophale) SiO2 
 PCOD8140213
Probable space group: C 2/C
;
_chemical_formula_sum "Si O2"
_cell_formula_units_Z 48
_cell_length_a 14.594577
_cell_length_b 17.180746
_cell_length_c 17.474477
_cell_angle_alpha 90.000000
_cell_angle_beta 34.676677
_cell_angle_gamma 90.000000
_cell_volume 2492.917219
_symmetry_space_group_name_H-M "C 2/C"
_symmetry_group_IT_number 15
_symmetry_cell_setting 'monoclinic'
loop_
_space_group_symop_operation_xyz
x,y,z
-x,y,1/2-z
-x,-y,-z
x,-y,1/2+z
1/2+x,1/2+y,z
1/2-x,1/2+y,1/2-z
1/2-x,1/2-y,-z
1/2+x,1/2-y,1/2+z
loop_
_atom_site_type_symbol
_atom_site_label
_atom_site_fract_x
_atom_site_fract_y
_atom_site_fract_z
Si Si1 0.264611 0.484771 0.986598
Si Si2 0.847297 0.745993 0.755901
Si Si3 0.000000 0.613890 0.750000
Si Si4 0.923798 0.869826 0.421171
Si Si5 0.500000 0.628559 0.250000
Si Si6 0.239772 0.120530 0.616171
Si Si7 0.520988 0.245483 0.997898
O O1 0.339664 0.546315 0.996372
O O2 0.403412 0.422359 0.876813
O O3 0.221785 0.531548 0.937110
O O4 0.107409 0.442475 0.124877
O O5 0.870782 0.818265 0.795744
O O6 0.665184 0.749477 0.851729
O O7 0.888067 0.666034 0.771940
O O8 0.962866 0.756629 0.603737
O O9 0.839883 0.834664 0.402022
O O10 0.114593 0.880788 0.272979
O O11 0.891115 0.814597 0.515935
O O12 0.403381 0.162937 0.529313
#
# Coordination Sequence:
#
# PCOD8140213 Si02
#       7
#     8   8   4   8   4   8   8
#     4  10  20  40  70  83 122 171 199 249 305 373
#     4  11  26  38  65  88 124 166 207 266 290 359
#     4  11  24  46  56  93 126 160 222 249 294 366
#     4   9  19  39  65  93 123 161 194 250 311 371
#     4  11  20  46  64  81 116 180 214 235 320 358
#     4   9  19  39  65  93 123 161 194 250 311 371
#     4  12  21  41  60  98 126 152 206 255 309 360
#
# _framework density 19.254549999999998
#
# number of rings (size 3 to 8) (size 9 to 14) (size 15 to 20)
#    1.000    0.667    3.333    2.500    0.000    4.000 
#    0.000   10.000    0.000    0.000    0.000    0.000 
#    0.000    0.000    0.000    0.000    0.000    0.000 
#
# Total GULP energy -297485.952129 kJ/mol
# GULP energy per Si atom -12395.248005 kJ/mol
# Density = 1.921073 g / cm^3
# Si number density = 19.254550 Si / 1000 Ang^3
#
#
#
# Elastic Constant Matrix: (Units=GPa)
#
#
# Indices 1 2 3 4 5 6 
#
# 1 65.5003 35.6599 15.5352 -0.0016 -6.4563 0.0041
# 2 35.6599 109.7175 31.0593 -0.0039 -9.1227 0.0021
# 3 15.5352 31.0593 83.9572 -0.0058 -11.4323 0.0080
# 4 -0.0016 -0.0039 -0.0058 32.3786 0.0006 2.3883
# 5 -6.4563 -9.1227 -11.4323 0.0006 34.5664 -0.0053
# 6 0.0041 0.0021 0.0080 2.3883 -0.0053 15.7099
#
#
#
# Elastic Compliance Matrix: (Units=1/GPa)
#
#
# Indices 1 2 3 4 5 6 
#
# 1 0.018773 -0.005635 -0.001166 0.000000 0.001633 -0.000003
# 2 -0.005635 0.011948 -0.003237 0.000000 0.001030 0.000002
# 3 -0.001166 -0.003237 0.013800 0.000002 0.003492 -0.000006
# 4 0.000000 0.000000 0.000002 0.031235 0.000000 -0.004749
# 5 0.001633 0.001030 0.003492 0.000000 0.030662 0.000008
# 6 -0.000003 0.000002 -0.000006 -0.004749 0.000008 0.064376
#
#
# Mechanical properties :
#
#
# Convention : Reuss Voigt Hill
#
# Bulk Modulus (GPa) = 40.91229 47.07598 43.99414
# Shear Modulus (GPa) = 25.12330 28.32568 26.72449
#
# Velocity S-wave (km/s) = 3.61612 3.83967 3.72957
# Velocity P-wave (km/s) = 6.22329 6.64529 6.43775
#
# Compressibility (1/GPa) = 0.02444253
#
# Stress axis : x y z
#
# Youngs Moduli (GPa) = 53.26851 83.69659 72.46563
#
# Poissons Ratio (x) = 0.47167 0.08453
# Poissons Ratio (y) = 0.30019 0.23457
# Poissons Ratio (z) = 0.06214 0.27093
#
# Static dielectric constant tensor:
#      x y z
#    x 3.306790 0.000000 -0.152060 
#    y 0.000000 3.471880 -0.000020 
#    z -0.152060 -0.000020 -3.573180 
# 
# 
# High freq. dielectric constant tensor:
#      x y z
#    x 1.733630 0.000000 -0.002340 
#    y 0.000000 1.748960 0.000000 
#    z -0.002340 0.000000 1.747720 
# 
# From -- ./inp_files/248963.got.cif
#   From: 2010.06.25/outbox.cif.g09.slc.cpg/sg15_125_cif.got.tgz:248963.got - 2010.06.28 07:06:18.
