data_PCOD8140987
_publ_section_title
;
Structure prediction by ZEFSAII (Michael W. Deem and Ramdas Pophale) SiO2 
 PCOD8140987
Probable space group: C 2/C
;
_chemical_formula_sum "Si O2"
_cell_formula_units_Z 48
_cell_length_a 20.635058
_cell_length_b 14.169905
_cell_length_c 8.764813
_cell_angle_alpha 90.000000
_cell_angle_beta 77.309173
_cell_angle_gamma 90.000000
_cell_volume 2500.193393
_symmetry_space_group_name_H-M "C 2/C"
_symmetry_group_IT_number 15
_symmetry_cell_setting 'monoclinic'
loop_
_space_group_symop_operation_xyz
x,y,z
-x,y,1/2-z
-x,-y,-z
x,-y,1/2+z
1/2+x,1/2+y,z
1/2-x,1/2+y,1/2-z
1/2-x,1/2-y,-z
1/2+x,1/2-y,1/2+z
loop_
_atom_site_type_symbol
_atom_site_label
_atom_site_fract_x
_atom_site_fract_y
_atom_site_fract_z
Si Si1 0.862765 0.934723 0.669029
Si Si2 0.923957 0.102464 0.832978
Si Si3 0.221085 0.585573 0.132648
Si Si4 0.669052 0.722907 0.785421
Si Si5 0.174809 0.239021 0.104589
Si Si6 0.295685 0.101401 0.705086
O O1 0.920552 0.910129 0.517830
O O2 0.798132 0.946597 0.593609
O O3 0.843605 0.856795 0.802385
O O4 0.886025 0.023650 0.753913
O O5 0.888453 0.201680 0.807576
O O6 0.000000 0.105542 0.750000
O O7 0.212646 0.685654 0.219943
O O8 0.184649 0.501158 0.240157
O O9 0.190013 0.597080 0.981797
O O10 0.719188 0.633286 0.767612
O O11 0.632927 0.740029 0.968269
O O12 0.157433 0.324078 0.229493
O O13 0.250000 0.250000 0.000000
#
# Coordination Sequence:
#
# PCOD8140987 Si02
#       6
#     8   8   8   8   8   8
#     4  12  21  37  58  81 120 159 203 253 292 356
#     4  12  26  40  58  86 123 174 212 240 287 355
#     4  12  20  33  56  87 116 157 188 250 317 354
#     4  11  21  36  57  81 121 152 198 249 300 362
#     4  10  21  34  55  85 116 151 190 247 317 365
#     4  11  21  32  52  85 120 145 189 235 312 370
#
# _framework density 19.198513999999999
#
# number of rings (size 3 to 8) (size 9 to 14) (size 15 to 20)
#    0.000    0.667    6.667    4.000    4.667    0.000 
#    0.000    0.000    0.000    0.000    0.000   11.667 
#    0.000    0.000    0.000    0.000    0.000    0.000 
#
# Total GULP energy -297362.342781 kJ/mol
# GULP energy per Si atom -12390.097616 kJ/mol
# Density = 1.915482 g / cm^3
# Si number density = 19.198514 Si / 1000 Ang^3
#
#
#
# Elastic Constant Matrix: (Units=GPa)
#
#
# Indices 1 2 3 4 5 6 
#
# 1 46.8127 30.6529 18.4821 0.0000 -4.6116 0.0000
# 2 30.6529 78.7491 11.2763 0.0000 3.4895 0.0000
# 3 18.4821 11.2763 114.3077 0.0000 17.3313 0.0000
# 4 0.0000 0.0000 0.0000 35.9483 0.0000 8.0830
# 5 -4.6116 3.4895 17.3313 0.0000 25.2727 0.0000
# 6 0.0000 0.0000 0.0000 8.0830 0.0000 15.6799
#
#
#
# Elastic Compliance Matrix: (Units=1/GPa)
#
#
# Indices 1 2 3 4 5 6 
#
# 1 0.033075 -0.012553 -0.005901 0.000000 0.011815 0.000000
# 2 -0.012553 0.017668 0.001120 0.000000 -0.005498 0.000000
# 3 -0.005901 0.001120 0.010913 0.000000 -0.008715 0.000000
# 4 0.000000 0.000000 0.000000 0.031465 0.000000 -0.016220
# 5 0.011815 -0.005498 -0.008715 0.000000 0.048460 0.000000
# 6 0.000000 0.000000 0.000000 -0.016220 0.000000 0.072137
#
#
# Mechanical properties :
#
#
# Convention : Reuss Voigt Hill
#
# Bulk Modulus (GPa) = 37.05156 40.07690 38.56423
# Shear Modulus (GPa) = 19.42634 27.34405 23.38520
#
# Velocity S-wave (km/s) = 3.18444 3.77806 3.49388
# Velocity P-wave (km/s) = 5.73253 6.32075 6.03382
#
# Compressibility (1/GPa) = 0.02698942
#
# Stress axis : x y z
#
# Youngs Moduli (GPa) = 30.23426 56.59952 91.63106
#
# Poissons Ratio (x) = 0.71049 0.54070
# Poissons Ratio (y) = 0.37953 -0.10266
# Poissons Ratio (z) = 0.17841 -0.06341
#
# Static dielectric constant tensor:
#      x y z
#    x 3.185200 0.000000 0.466210 
#    y 0.000000 3.688260 0.000000 
#    z 0.466210 0.000000 3.938110 
# 
# 
# High freq. dielectric constant tensor:
#      x y z
#    x 1.680370 0.000000 0.033550 
#    y 0.000000 1.754210 0.000000 
#    z 0.033550 0.000000 1.771050 
# 
# From -- ./inp_files/55225.got.cif
#   From: 2010.06.25/outbox.cif.g09.slc.cpg/sg15_28_cif.got.tgz:55225.got - 2010.06.28 07:06:18.
