data_PCOD8140541
_publ_section_title
;
Structure prediction by ZEFSAII (Michael W. Deem and Ramdas Pophale) SiO2 
 PCOD8140541
Probable space group: C 2/C
;
_chemical_formula_sum "Si O2"
_cell_formula_units_Z 48
_cell_length_a 20.339337
_cell_length_b 13.819676
_cell_length_c 11.795929
_cell_angle_alpha 90.000000
_cell_angle_beta 141.386902
_cell_angle_gamma 90.000000
_cell_volume 2069.149756
_symmetry_space_group_name_H-M "C 2/C"
_symmetry_group_IT_number 15
_symmetry_cell_setting 'monoclinic'
loop_
_space_group_symop_operation_xyz
x,y,z
-x,y,1/2-z
-x,-y,-z
x,-y,1/2+z
1/2+x,1/2+y,z
1/2-x,1/2+y,1/2-z
1/2-x,1/2-y,-z
1/2+x,1/2-y,1/2+z
loop_
_atom_site_type_symbol
_atom_site_label
_atom_site_fract_x
_atom_site_fract_y
_atom_site_fract_z
Si Si1 0.971826 0.776474 0.885599
Si Si2 0.183033 0.173475 0.145881
Si Si3 0.216411 0.474887 0.258893
Si Si4 0.041344 0.596912 0.116708
Si Si5 0.666288 0.299586 0.009617
Si Si6 0.647606 0.862279 0.973762
O O1 0.927377 0.834861 0.934013
O O2 0.874320 0.761935 0.666711
O O3 0.066809 0.832896 0.953199
O O4 0.017077 0.672646 0.984868
O O5 0.214995 0.070931 0.137698
O O6 0.273885 0.210198 0.352499
O O7 0.167059 0.248654 0.021782
O O8 0.089991 0.497132 0.122063
O O9 0.258133 0.393468 0.402385
O O10 0.233555 0.429580 0.155160
O O11 0.144774 0.624459 0.334331
O O12 0.954160 0.597893 0.096079
#
# Coordination Sequence:
#
# PCOD8140541 Si02
#       6
#     8   8   8   8   8   8
#     4  10  21  41  65  87 132 166 209 263 315 376
#     4  10  21  40  62  92 122 175 208 255 324 374
#     4  11  22  38  63  95 125 168 210 259 323 369
#     4  10  20  42  64  90 124 172 207 267 315 368
#     4  10  22  41  60  96 128 161 217 263 307 387
#     4   9  22  40  61  94 128 156 222 263 302 385
#
# _framework density 23.197934
#
# number of rings (size 3 to 8) (size 9 to 14) (size 15 to 20)
#    0.000    2.000    1.667    1.000    2.333    1.333 
#    6.000    6.667    0.000    0.000    0.000    0.000 
#    0.000    0.000    0.000    0.000    0.000    0.000 
#
# Total GULP energy -297332.880471 kJ/mol
# GULP energy per Si atom -12388.870020 kJ/mol
# Density = 2.314513 g / cm^3
# Si number density = 23.197934 Si / 1000 Ang^3
#
#
#
# Elastic Constant Matrix: (Units=GPa)
#
#
# Indices 1 2 3 4 5 6 
#
# 1 39.1366 23.2352 9.4198 0.0000 7.5020 0.0000
# 2 23.2352 126.9096 53.9811 0.0000 -14.5061 0.0000
# 3 9.4198 53.9811 118.4653 0.0000 -23.1195 0.0000
# 4 0.0000 0.0000 0.0000 24.2914 0.0000 9.5853
# 5 7.5020 -14.5061 -23.1195 0.0000 34.0471 0.0000
# 6 0.0000 0.0000 0.0000 9.5853 0.0000 33.4504
#
#
#
# Elastic Compliance Matrix: (Units=1/GPa)
#
#
# Indices 1 2 3 4 5 6 
#
# 1 0.031822 -0.006315 -0.001782 0.000000 -0.010913 0.000000
# 2 -0.006315 0.011079 -0.003866 0.000000 0.003487 0.000000
# 3 -0.001782 -0.003866 0.011643 0.000000 0.006652 0.000000
# 4 0.000000 0.000000 0.000000 0.046415 0.000000 -0.013300
# 5 -0.010913 0.003487 0.006652 0.000000 0.037778 0.000000
# 6 0.000000 0.000000 0.000000 -0.013300 0.000000 0.033706
#
#
# Mechanical properties :
#
#
# Convention : Reuss Voigt Hill
#
# Bulk Modulus (GPa) = 32.66210 50.86484 41.76347
# Shear Modulus (GPa) = 24.20439 31.54947 27.87693
#
# Velocity S-wave (km/s) = 3.23365 3.69183 3.47031
# Velocity P-wave (km/s) = 5.29644 6.33616 5.83949
#
# Compressibility (1/GPa) = 0.03061653
#
# Stress axis : x y z
#
# Youngs Moduli (GPa) = 31.42512 90.26392 85.89194
#
# Poissons Ratio (x) = 0.57004 0.15309
# Poissons Ratio (y) = 0.19846 0.33202
# Poissons Ratio (z) = 0.05601 0.34892
#
# Static dielectric constant tensor:
#      x y z
#    x 4.529770 0.000000 -0.146640 
#    y 0.000000 3.817880 0.000000 
#    z -0.146640 0.000000 5.116410 
# 
# 
# High freq. dielectric constant tensor:
#      x y z
#    x 1.920370 0.000000 0.004030 
#    y 0.000000 1.892840 0.000000 
#    z 0.004030 0.000000 1.931320 
# 
# From -- ./inp_files/112985.got.cif
#   From: 2010.06.25/outbox.cif.g09.slc.cpg/sg15_57_cif.got.tgz:112985.got - 2010.06.28 07:06:18.
