data_PCOD8140391
_publ_section_title
;
Structure prediction by ZEFSAII (Michael W. Deem and Ramdas Pophale) SiO2 
 PCOD8140391
Probable space group: C 2/C
;
_chemical_formula_sum "Si O2"
_cell_formula_units_Z 60
_cell_length_a 12.162735
_cell_length_b 19.632380
_cell_length_c 16.160737
_cell_angle_alpha 90.000000
_cell_angle_beta 133.313267
_cell_angle_gamma 90.000000
_cell_volume 2807.801273
_symmetry_space_group_name_H-M "C 2/C"
_symmetry_group_IT_number 15
_symmetry_cell_setting 'monoclinic'
loop_
_space_group_symop_operation_xyz
x,y,z
-x,y,1/2-z
-x,-y,-z
x,-y,1/2+z
1/2+x,1/2+y,z
1/2-x,1/2+y,1/2-z
1/2-x,1/2-y,-z
1/2+x,1/2-y,1/2+z
loop_
_atom_site_type_symbol
_atom_site_label
_atom_site_fract_x
_atom_site_fract_y
_atom_site_fract_z
Si Si1 0.190510 0.195666 0.767495
Si Si2 0.000069 0.666116 0.509490
Si Si3 0.896221 0.603519 0.616010
Si Si4 0.910898 0.654975 0.284336
Si Si5 0.672204 0.299359 0.074951
Si Si6 0.406914 0.401410 0.914756
Si Si7 0.500000 0.417737 0.250000
Si Si8 0.635125 0.502624 0.958690
O O1 0.089816 0.263223 0.725133
O O2 0.247694 0.188010 0.703170
O O3 0.091235 0.129219 0.733836
O O4 0.335423 0.200919 0.901788
O O5 0.989027 0.610653 0.577978
O O6 0.990262 0.633913 0.412191
O O7 0.863823 0.719688 0.454245
O O8 0.796353 0.672500 0.575046
O O9 0.788999 0.538628 0.549614
O O10 0.000000 0.590390 0.750000
O O11 0.743676 0.625079 0.206667
O O12 0.000000 0.625378 0.250000
O O13 0.513760 0.337645 0.985974
O O14 0.488009 0.455856 0.897511
O O15 0.361024 0.434560 0.977181
O O16 0.380611 0.465824 0.140637
#
# Coordination Sequence:
#
# PCOD8140391 Si02
#       8
#     8   8   8   8   8   8   4   8
#     4  11  22  40  66  97 128 171 212 272 329 398
#     4  11  24  39  65 102 130 166 218 270 337 390
#     4  11  23  44  67  92 133 176 222 271 327 384
#     4  11  25  40  65 100 136 162 213 280 334 383
#     4  10  20  41  66  95 129 170 216 268 332 389
#     4  10  21  44  64  89 126 176 216 266 321 387
#     4  12  24  42  68  96 130 176 226 260 328 396
#     4  10  25  41  68  90 128 182 221 261 315 398
#
# _framework density 21.369033999999999
#
# number of rings (size 3 to 8) (size 9 to 14) (size 15 to 20)
#    0.000    1.333    4.667    0.400    3.733    1.067 
#    0.000    0.667    0.000    0.000    0.000    0.000 
#    0.000    0.000    0.000    0.000    0.000    0.000 
#
# Total GULP energy -372001.760542 kJ/mol
# GULP energy per Si atom -12400.058685 kJ/mol
# Density = 2.132040 g / cm^3
# Si number density = 21.369034 Si / 1000 Ang^3
#
#
#
# Elastic Constant Matrix: (Units=GPa)
#
#
# Indices 1 2 3 4 5 6 
#
# 1 77.0415 15.9177 44.6762 0.0000 -15.1804 0.0000
# 2 15.9177 42.2030 29.6917 0.0000 -9.9954 0.0000
# 3 44.6762 29.6917 157.6104 0.0000 -8.4767 0.0000
# 4 0.0000 0.0000 0.0000 21.6099 0.0000 -2.9946
# 5 -15.1804 -9.9954 -8.4767 0.0000 37.3399 0.0000
# 6 0.0000 0.0000 0.0000 -2.9946 0.0000 11.9362
#
#
#
# Elastic Compliance Matrix: (Units=1/GPa)
#
#
# Indices 1 2 3 4 5 6 
#
# 1 0.016851 -0.002230 -0.004070 0.000000 0.005330 0.000000
# 2 -0.002230 0.029116 -0.004538 0.000000 0.005857 0.000000
# 3 -0.004070 -0.004538 0.008300 0.000000 -0.000985 0.000000
# 4 0.000000 0.000000 0.000000 0.047942 0.000000 0.012028
# 5 0.005330 0.005857 -0.000985 0.000000 0.030292 0.000000
# 6 0.000000 0.000000 0.000000 0.012028 0.000000 0.086796
#
#
# Mechanical properties :
#
#
# Convention : Reuss Voigt Hill
#
# Bulk Modulus (GPa) = 30.68266 50.82513 40.75390
# Shear Modulus (GPa) = 19.85412 26.61515 23.23463
#
# Velocity S-wave (km/s) = 3.05143 3.53299 3.30101
# Velocity P-wave (km/s) = 5.17732 6.36230 5.80015
#
# Compressibility (1/GPa) = 0.03259169
#
# Stress axis : x y z
#
# Youngs Moduli (GPa) = 59.34343 34.34542 120.47771
#
# Poissons Ratio (x) = 0.07659 0.49032
# Poissons Ratio (y) = 0.13234 0.54672
# Poissons Ratio (z) = 0.24152 0.15586
#
# Static dielectric constant tensor:
#      x y z
#    x 3.681690 0.000000 -0.041240 
#    y 0.000000 3.753800 0.000000 
#    z -0.041240 0.000000 3.867860 
# 
# 
# High freq. dielectric constant tensor:
#      x y z
#    x 1.830580 0.000000 -0.001310 
#    y 0.000000 1.827620 0.000000 
#    z -0.001310 0.000000 1.847790 
# 
# From -- ./inp_files/148118.got.cif
#   From: 2010.06.25/outbox.cif.g09.slc.cpg/sg15_75_cif.got.tgz:148118.got - 2010.06.28 07:06:18.
