data_PCOD8140305
_publ_section_title
;
Structure prediction by ZEFSAII (Michael W. Deem and Ramdas Pophale) SiO2 
 PCOD8140305
Probable space group: C 2/C
;
_chemical_formula_sum "Si O2"
_cell_formula_units_Z 56
_cell_length_a 16.268412
_cell_length_b 9.011628
_cell_length_c 23.030753
_cell_angle_alpha 90.000000
_cell_angle_beta 56.144791
_cell_angle_gamma 90.000000
_cell_volume 2803.941993
_symmetry_space_group_name_H-M "C 2/C"
_symmetry_group_IT_number 15
_symmetry_cell_setting 'monoclinic'
loop_
_space_group_symop_operation_xyz
x,y,z
-x,y,1/2-z
-x,-y,-z
x,-y,1/2+z
1/2+x,1/2+y,z
1/2-x,1/2+y,1/2-z
1/2-x,1/2-y,-z
1/2+x,1/2-y,1/2+z
loop_
_atom_site_type_symbol
_atom_site_label
_atom_site_fract_x
_atom_site_fract_y
_atom_site_fract_z
Si Si1 0.674710 0.915255 0.453518
Si Si2 0.996149 0.991974 0.070435
Si Si3 0.288034 0.126723 0.388621
Si Si4 0.661845 0.014890 0.827983
Si Si5 0.698782 0.354041 0.805890
Si Si6 0.294854 0.591012 0.491108
Si Si7 0.529326 0.162840 0.104120
O O1 0.701916 0.742624 0.439354
O O2 0.654328 0.992596 0.400388
O O3 0.578793 0.929294 0.531975
O O4 0.767735 0.992699 0.446478
O O5 0.001022 0.825776 0.093233
O O6 0.897123 0.062057 0.133966
O O7 0.000000 0.000000 0.000000
O O8 0.086738 0.094594 0.055658
O O9 0.287178 0.124610 0.318857
O O10 0.396057 0.172330 0.370183
O O11 0.251200 0.972720 0.430891
O O12 0.670441 0.184316 0.803371
O O13 0.760427 0.927764 0.769020
O O14 0.566450 0.931400 0.838998
O O15 0.250000 0.750000 0.500000
#
# Coordination Sequence:
#
# PCOD8140305 Si02
#       7
#     8   8   8   8   8   8   8
#     4  10  20  41  63  92 125 161 206 248 310 381
#     4  12  22  39  65  98 125 163 201 264 316 370
#     4  10  20  43  62  89 124 167 202 252 304 381
#     4  11  25  41  63  90 120 171 208 262 304 378
#     4  11  25  43  63  87 129 162 215 253 320 372
#     4  11  22  34  61  98 128 154 200 259 315 356
#     4  11  21  39  69  91 123 163 216 249 312 372
#
# _framework density 19.971882999999998
#
# number of rings (size 3 to 8) (size 9 to 14) (size 15 to 20)
#    0.000    1.143    4.286    3.000    6.000    1.714 
#    0.000    0.714    3.143    0.000    0.000    0.000 
#    0.000    0.000    0.000    0.000    0.000    0.000 
#
# Total GULP energy -347193.938566 kJ/mol
# GULP energy per Si atom -12399.783520 kJ/mol
# Density = 1.992643 g / cm^3
# Si number density = 19.971883 Si / 1000 Ang^3
#
#
#
# Elastic Constant Matrix: (Units=GPa)
#
#
# Indices 1 2 3 4 5 6 
#
# 1 112.4364 55.7999 40.6678 0.0000 -16.7231 0.0000
# 2 55.7999 115.5646 45.1755 0.0000 -4.2980 0.0000
# 3 40.6678 45.1755 83.3952 0.0000 -21.2778 0.0000
# 4 0.0000 0.0000 0.0000 27.7801 0.0000 -6.3716
# 5 -16.7231 -4.2980 -21.2778 0.0000 28.7530 0.0000
# 6 0.0000 0.0000 0.0000 -6.3716 0.0000 34.3685
#
#
#
# Elastic Compliance Matrix: (Units=1/GPa)
#
#
# Indices 1 2 3 4 5 6 
#
# 1 0.013071 -0.005257 -0.002203 0.000000 0.005186 0.000000
# 2 -0.005257 0.013369 -0.006100 0.000000 -0.005574 0.000000
# 3 -0.002203 -0.006100 0.019491 0.000000 0.012230 0.000000
# 4 0.000000 0.000000 0.000000 0.037596 0.000000 0.006970
# 5 0.005186 -0.005574 0.012230 0.000000 0.046013 0.000000
# 6 0.000000 0.000000 0.000000 0.006970 0.000000 0.030389
#
#
# Mechanical properties :
#
#
# Convention : Reuss Voigt Hill
#
# Bulk Modulus (GPa) = 53.16560 66.07586 59.62073
# Shear Modulus (GPa) = 25.86395 29.49718 27.68056
#
# Velocity S-wave (km/s) = 3.60254 3.84726 3.72691
# Velocity P-wave (km/s) = 6.63192 7.27265 6.95967
#
# Compressibility (1/GPa) = 0.01880915
#
# Stress axis : x y z
#
# Youngs Moduli (GPa) = 76.50397 74.79943 51.30691
#
# Poissons Ratio (x) = 0.39324 0.11303
# Poissons Ratio (y) = 0.40220 0.31300
# Poissons Ratio (z) = 0.16854 0.45631
#
# Static dielectric constant tensor:
#      x y z
#    x 3.825730 0.000000 -0.044620 
#    y 0.000000 3.564850 0.000000 
#    z -0.044620 0.000000 3.446650 
# 
# 
# High freq. dielectric constant tensor:
#      x y z
#    x 1.787370 0.000000 -0.003490 
#    y 0.000000 1.783600 0.000000 
#    z -0.003490 0.000000 1.766650 
# 
# From -- ./inp_files/242820.got.cif
#   From: 2010.06.25/outbox.cif.g09.slc.cpg/sg15_122_cif.got.tgz:242820.got - 2010.06.28 07:06:18.
