data_PCOD8140299
_publ_section_title
;
Structure prediction by ZEFSAII (Michael W. Deem and Ramdas Pophale) SiO2 
 PCOD8140299
Probable space group: C 2/C
;
_chemical_formula_sum "Si O2"
_cell_formula_units_Z 52
_cell_length_a 11.058071
_cell_length_b 28.397786
_cell_length_c 9.904450
_cell_angle_alpha 90.000000
_cell_angle_beta 54.720964
_cell_angle_gamma 90.000000
_cell_volume 2539.043072
_symmetry_space_group_name_H-M "C 2/C"
_symmetry_group_IT_number 15
_symmetry_cell_setting 'monoclinic'
loop_
_space_group_symop_operation_xyz
x,y,z
-x,y,1/2-z
-x,-y,-z
x,-y,1/2+z
1/2+x,1/2+y,z
1/2-x,1/2+y,1/2-z
1/2-x,1/2-y,-z
1/2+x,1/2-y,1/2+z
loop_
_atom_site_type_symbol
_atom_site_label
_atom_site_fract_x
_atom_site_fract_y
_atom_site_fract_z
Si Si1 0.500000 0.837993 0.750000
Si Si2 0.989466 0.888956 0.910641
Si Si3 0.433650 0.303516 0.143918
Si Si4 0.811069 0.413271 0.738885
Si Si5 0.405475 0.216028 0.571128
Si Si6 0.807364 0.423335 0.443457
Si Si7 0.000000 0.655701 0.750000
Si Si8 0.500000 0.008046 0.250000
O O1 0.363429 0.869734 0.793052
O O2 0.574606 0.806961 0.587583
O O3 0.000000 0.867448 0.750000
O O4 0.133923 0.916581 0.871429
O O5 0.937356 0.850810 0.053615
O O6 0.864763 0.929952 0.981471
O O7 0.500000 0.312209 0.250000
O O8 0.265676 0.283908 0.269675
O O9 0.533401 0.268570 0.988640
O O10 0.842297 0.400647 0.565313
O O11 0.900383 0.460741 0.715195
O O12 0.507726 0.189250 0.614398
O O13 0.883730 0.474158 0.398390
O O14 0.865671 0.381322 0.309384
#
# Coordination Sequence:
#
# PCOD8140299 Si02
#       8
#     4   8   8   8   8   8   4   4
#     4  11  22  41  66  88 132 172 216 259 328 371
#     4  10  23  41  65  90 129 169 214 262 322 373
#     4  12  26  42  62  95 131 171 220 267 320 370
#     4  10  21  39  63  94 122 164 212 261 320 382
#     4  12  26  41  64  93 130 174 219 269 312 380
#     4  10  20  41  63  89 126 162 207 262 313 389
#     4  11  22  41  64  90 122 168 216 255 318 369
#     4  10  22  36  66  96 124 162 208 258 322 386
#
# _framework density 20.480156999999998
#
# number of rings (size 3 to 8) (size 9 to 14) (size 15 to 20)
#    0.000    1.231    3.846    1.846    3.231    1.231 
#    0.000    0.000    0.000    0.000    0.000    0.000 
#    0.000    0.000    0.000    0.000    0.000    0.000 
#
# Total GULP energy -322117.478397 kJ/mol
# GULP energy per Si atom -12389.133785 kJ/mol
# Density = 2.043354 g / cm^3
# Si number density = 20.480157 Si / 1000 Ang^3
#
#
#
# Elastic Constant Matrix: (Units=GPa)
#
#
# Indices 1 2 3 4 5 6 
#
# 1 138.9123 52.2725 41.2898 0.0000 -22.1892 0.0000
# 2 52.2725 94.6650 39.0620 0.0000 -3.5411 0.0000
# 3 41.2898 39.0620 90.2520 0.0000 -15.0898 0.0000
# 4 0.0000 0.0000 0.0000 73.6668 0.0000 6.1686
# 5 -22.1892 -3.5411 -15.0898 0.0000 33.7758 0.0000
# 6 0.0000 0.0000 0.0000 6.1686 0.0000 25.7644
#
#
#
# Elastic Compliance Matrix: (Units=1/GPa)
#
#
# Indices 1 2 3 4 5 6 
#
# 1 0.010423 -0.004825 -0.001751 0.000000 0.005559 0.000000
# 2 -0.004825 0.015141 -0.004983 0.000000 -0.003808 0.000000
# 3 -0.001751 -0.004983 0.014869 0.000000 0.004970 0.000000
# 4 0.000000 0.000000 0.000000 0.013852 0.000000 -0.003317
# 5 0.005559 -0.003808 0.004970 0.000000 0.035081 0.000000
# 6 0.000000 0.000000 0.000000 -0.003317 0.000000 0.039607
#
#
# Mechanical properties :
#
#
# Convention : Reuss Voigt Hill
#
# Bulk Modulus (GPa) = 57.74934 65.45310 61.60122
# Shear Modulus (GPa) = 31.67330 39.38837 35.53083
#
# Velocity S-wave (km/s) = 3.93687 4.39024 4.16972
# Velocity P-wave (km/s) = 6.99458 7.59787 7.30246
#
# Compressibility (1/GPa) = 0.01731622
#
# Stress axis : x y z
#
# Youngs Moduli (GPa) = 95.94362 66.04392 67.25607
#
# Poissons Ratio (x) = 0.31866 0.11774
# Poissons Ratio (y) = 0.46293 0.33512
# Poissons Ratio (z) = 0.16795 0.32908
#
# Static dielectric constant tensor:
#      x y z
#    x 3.926660 0.000000 -0.088340 
#    y 0.000000 3.602390 0.000000 
#    z -0.088340 0.000000 3.854820 
# 
# 
# High freq. dielectric constant tensor:
#      x y z
#    x 1.817050 0.000000 -0.002930 
#    y 0.000000 1.788650 0.000000 
#    z -0.002930 0.000000 1.803980 
# 
# From -- ./inp_files/34148.got.cif
#   From: 2010.06.25/outbox.cif.g09.slc.cpg/sg15_18_cif.got.tgz:34148.got - 2010.06.28 07:06:18.
