data_PCOD8140961
_publ_section_title
;
Structure prediction by ZEFSAII (Michael W. Deem and Ramdas Pophale) SiO2 
 PCOD8140961
Probable space group: C 2/C
;
_chemical_formula_sum "Si O2"
_cell_formula_units_Z 52
_cell_length_a 18.815620
_cell_length_b 16.803496
_cell_length_c 9.622077
_cell_angle_alpha 90.000000
_cell_angle_beta 59.240938
_cell_angle_gamma 90.000000
_cell_volume 2614.235603
_symmetry_space_group_name_H-M "C 2/C"
_symmetry_group_IT_number 15
_symmetry_cell_setting 'monoclinic'
loop_
_space_group_symop_operation_xyz
x,y,z
-x,y,1/2-z
-x,-y,-z
x,-y,1/2+z
1/2+x,1/2+y,z
1/2-x,1/2+y,1/2-z
1/2-x,1/2-y,-z
1/2+x,1/2-y,1/2+z
loop_
_atom_site_type_symbol
_atom_site_label
_atom_site_fract_x
_atom_site_fract_y
_atom_site_fract_z
Si Si1 0.333273 0.743821 0.504692
Si Si2 0.309120 0.570218 0.533992
Si Si3 0.833274 0.243823 0.828747
Si Si4 0.500000 0.000006 0.750000
Si Si5 0.126582 0.622933 0.029102
Si Si6 0.626577 0.877066 0.217761
Si Si7 0.690875 0.429780 0.152242
O O1 0.250000 0.750000 0.500000
O O2 0.362628 0.651717 0.463731
O O3 0.320280 0.766962 0.679714
O O4 0.396670 0.805850 0.367895
O O5 0.214139 0.585622 0.584450
O O6 0.347579 0.499999 0.402416
O O7 0.312757 0.539353 0.687241
O O8 0.896671 0.305854 0.838739
O O9 0.862634 0.151720 0.810988
O O10 0.750000 0.250000 0.000000
O O11 0.443067 0.944653 0.902835
O O12 0.443085 0.055358 0.710992
O O13 0.133920 0.658466 0.866089
O O14 0.214147 0.585632 0.987278
#
# Coordination Sequence:
#
# PCOD8140961 Si02
#       7
#     8   8   8   4   8   8   8
#     4   9  18  32  49  70  98 132 170 214 261 307
#     4   9  17  30  48  73  99 128 167 210 257 305
#     4   9  18  32  49  70  98 132 170 214 261 307
#     4  12  22  36  52  74 108 144 180 216 250 308
#     4  10  21  34  48  71 101 138 179 212 254 308
#     4  10  21  34  48  71 101 138 179 212 254 308
#     4   9  17  30  48  73  99 128 167 210 257 305
#
# _framework density 19.891090999999999
#
# number of rings (size 3 to 8) (size 9 to 14) (size 15 to 20)
#    0.000    2.462    1.538    3.231    0.000    8.615 
#    0.000    0.000    0.000    0.000    0.000    1.077 
#    0.000    7.385    0.000    0.000    0.000    0.000 
#
# Total GULP energy -322165.198513 kJ/mol
# GULP energy per Si atom -12390.969174 kJ/mol
# Density = 1.984582 g / cm^3
# Si number density = 19.891091 Si / 1000 Ang^3
#
#
#
# Elastic Constant Matrix: (Units=GPa)
#
#
# Indices 1 2 3 4 5 6 
#
# 1 30.9526 33.5129 20.9159 0.0000 5.1808 0.0000
# 2 33.5129 151.1551 80.0549 0.0000 19.7264 0.0000
# 3 20.9159 80.0549 114.3855 0.0000 30.1824 0.0000
# 4 0.0000 0.0000 0.0000 41.1328 0.0000 3.9455
# 5 5.1808 19.7264 30.1824 0.0000 21.7199 0.0000
# 6 0.0000 0.0000 0.0000 3.9455 0.0000 31.8281
#
#
#
# Elastic Compliance Matrix: (Units=1/GPa)
#
#
# Indices 1 2 3 4 5 6 
#
# 1 0.042767 -0.008483 -0.001933 0.000000 0.000190 0.000000
# 2 -0.008483 0.012210 -0.007267 0.000000 0.001032 0.000000
# 3 -0.001933 -0.007267 0.019451 0.000000 -0.019968 0.000000
# 4 0.000000 0.000000 0.000000 0.024604 0.000000 -0.003050
# 5 0.000190 0.001032 -0.019968 0.000000 0.072806 0.000000
# 6 0.000000 0.000000 0.000000 -0.003050 0.000000 0.031797
#
#
# Mechanical properties :
#
#
# Convention : Reuss Voigt Hill
#
# Bulk Modulus (GPa) = 25.60046 62.82894 44.21470
# Shear Modulus (GPa) = 19.83959 29.73677 24.78818
#
# Velocity S-wave (km/s) = 3.16161 3.87069 3.53398
# Velocity P-wave (km/s) = 5.12113 7.18550 6.23928
#
# Compressibility (1/GPa) = 0.03906180
#
# Stress axis : x y z
#
# Youngs Moduli (GPa) = 23.38278 81.89675 51.41213
#
# Poissons Ratio (x) = 0.69470 0.09940
# Poissons Ratio (y) = 0.19835 0.37361
# Poissons Ratio (z) = 0.04521 0.59514
#
# Static dielectric constant tensor:
#      x y z
#    x 3.198550 0.000000 0.188360 
#    y 0.000000 4.244860 0.000000 
#    z 0.188360 0.000000 3.643010 
# 
# 
# High freq. dielectric constant tensor:
#      x y z
#    x 1.714480 0.000000 0.025800 
#    y 0.000000 1.788270 0.000000 
#    z 0.025800 0.000000 1.775350 
# 
# From -- ./inp_files/48516.got.cif
#   From: 2010.06.25/outbox.cif.g09.slc.cpg/sg15_25_cif.got.tgz:48516.got - 2010.06.28 07:06:18.
