data_PCOD8140879
_publ_section_title
;
Structure prediction by ZEFSAII (Michael W. Deem and Ramdas Pophale) SiO2 
 PCOD8140879
Probable space group: C 2/C
;
_chemical_formula_sum "Si O2"
_cell_formula_units_Z 64
_cell_length_a 9.194296
_cell_length_b 32.206088
_cell_length_c 10.567557
_cell_angle_alpha 90.000000
_cell_angle_beta 88.506821
_cell_angle_gamma 90.000000
_cell_volume 3128.121109
_symmetry_space_group_name_H-M "C 2/C"
_symmetry_group_IT_number 15
_symmetry_cell_setting 'monoclinic'
loop_
_space_group_symop_operation_xyz
x,y,z
-x,y,1/2-z
-x,-y,-z
x,-y,1/2+z
1/2+x,1/2+y,z
1/2-x,1/2+y,1/2-z
1/2-x,1/2-y,-z
1/2+x,1/2-y,1/2+z
loop_
_atom_site_type_symbol
_atom_site_label
_atom_site_fract_x
_atom_site_fract_y
_atom_site_fract_z
Si Si1 0.663112 0.203477 0.210634
Si Si2 0.435658 0.559401 0.390684
Si Si3 0.837791 0.592602 0.712296
Si Si4 0.330150 0.708417 0.456005
Si Si5 0.739259 0.875482 0.025695
Si Si6 0.080018 0.345382 0.494737
Si Si7 0.106622 0.034448 0.628323
Si Si8 0.915218 0.743209 0.624235
O O1 0.500000 0.218371 0.250000
O O2 0.758039 0.191266 0.329078
O O3 0.746650 0.242811 0.142899
O O4 0.658854 0.160373 0.128695
O O5 0.500000 0.569039 0.250000
O O6 0.317953 0.595126 0.421849
O O7 0.553501 0.557708 0.501741
O O8 0.362247 0.514059 0.393749
O O9 0.746724 0.603985 0.837875
O O10 0.827590 0.630727 0.613045
O O11 0.765843 0.552414 0.652630
O O12 0.000000 0.581406 0.750000
O O13 0.250000 0.750000 0.500000
O O14 0.315157 0.669232 0.548495
O O15 0.500920 0.717699 0.439489
O O16 0.573080 0.868662 0.985335
O O17 0.063313 0.296959 0.461249
O O18 0.000000 0.041795 0.750000
O O19 0.000000 0.731604 0.750000
#
# Coordination Sequence:
#
# PCOD8140879 Si02
#       8
#     8   8   8   8   8   8   8   8
#     4  11  22  39  58  83 128 170 222 283 336 395
#     4  10  23  40  74 102 136 180 212 280 348 411
#     4  10  23  40  69  96 133 177 221 279 336 409
#     4  11  22  38  62  88 127 176 221 271 338 397
#     4  11  21  40  65  94 132 173 223 263 342 401
#     4  11  22  40  60  89 131 174 218 280 335 391
#     4  10  20  45  71 102 140 169 223 276 342 411
#     4  10  21  37  59  84 117 173 222 265 329 390
#
# _framework density 20.459567
#
# number of rings (size 3 to 8) (size 9 to 14) (size 15 to 20)
#    0.000    1.500    3.750    1.500    1.750    3.500 
#    0.000    3.125    2.750    0.000    0.000    0.000 
#    0.000    0.000    0.000    0.000    0.000    0.000 
#
# Total GULP energy -396622.159960 kJ/mol
# GULP energy per Si atom -12394.442499 kJ/mol
# Density = 2.041300 g / cm^3
# Si number density = 20.459567 Si / 1000 Ang^3
#
#
#
# Elastic Constant Matrix: (Units=GPa)
#
#
# Indices 1 2 3 4 5 6 
#
# 1 102.7826 58.3015 41.6118 0.0000 -4.6415 0.0000
# 2 58.3015 109.9996 48.4408 0.0000 1.6056 0.0000
# 3 41.6118 48.4408 113.1973 0.0000 -7.2169 0.0000
# 4 0.0000 0.0000 0.0000 31.2403 0.0000 -2.4753
# 5 -4.6415 1.6056 -7.2169 0.0000 30.6336 0.0000
# 6 0.0000 0.0000 0.0000 -2.4753 0.0000 34.6040
#
#
#
# Elastic Compliance Matrix: (Units=1/GPa)
#
#
# Indices 1 2 3 4 5 6 
#
# 1 0.014588 -0.006723 -0.002358 0.000000 0.002007 0.000000
# 2 -0.006723 0.014393 -0.003859 0.000000 -0.002682 0.000000
# 3 -0.002358 -0.003859 0.011515 0.000000 0.002558 0.000000
# 4 0.000000 0.000000 0.000000 0.032192 0.000000 0.002303
# 5 0.002007 -0.002682 0.002558 0.000000 0.033691 0.000000
# 6 0.000000 0.000000 0.000000 0.002303 0.000000 0.029063
#
#
# Mechanical properties :
#
#
# Convention : Reuss Voigt Hill
#
# Bulk Modulus (GPa) = 68.41267 69.18751 68.80009
# Shear Modulus (GPa) = 30.08552 31.13728 30.61140
#
# Velocity S-wave (km/s) = 3.83885 3.90538 3.87226
# Velocity P-wave (km/s) = 7.29106 7.36384 7.32754
#
# Compressibility (1/GPa) = 0.01461717
#
# Stress axis : x y z
#
# Youngs Moduli (GPa) = 68.55041 69.48049 86.84209
#
# Poissons Ratio (x) = 0.46710 0.20474
# Poissons Ratio (y) = 0.46085 0.33510
# Poissons Ratio (z) = 0.16162 0.26810
#
# Static dielectric constant tensor:
#      x y z
#    x 3.660490 0.000000 -0.071240 
#    y 0.000000 3.630770 0.000000 
#    z -0.071240 0.000000 4.192240 
# 
# 
# High freq. dielectric constant tensor:
#      x y z
#    x 1.789500 0.000000 -0.004880 
#    y 0.000000 1.786400 0.000000 
#    z -0.004880 0.000000 1.818210 
# 
# From -- ./inp_files/82583.got.cif
#   From: 2010.06.25/outbox.cif.g09.slc.cpg/sg15_42_cif.got.tgz:82583.got - 2010.06.28 07:06:18.
