data_PCOD8140489
_publ_section_title
;
Structure prediction by ZEFSAII (Michael W. Deem and Ramdas Pophale) SiO2 
 PCOD8140489
Probable space group: C 2/C
;
_chemical_formula_sum "Si O2"
_cell_formula_units_Z 48
_cell_length_a 18.077257
_cell_length_b 8.273522
_cell_length_c 30.962956
_cell_angle_alpha 90.000000
_cell_angle_beta 149.987290
_cell_angle_gamma 90.000000
_cell_volume 2316.339438
_symmetry_space_group_name_H-M "C 2/C"
_symmetry_group_IT_number 15
_symmetry_cell_setting 'monoclinic'
loop_
_space_group_symop_operation_xyz
x,y,z
-x,y,1/2-z
-x,-y,-z
x,-y,1/2+z
1/2+x,1/2+y,z
1/2-x,1/2+y,1/2-z
1/2-x,1/2-y,-z
1/2+x,1/2-y,1/2+z
loop_
_atom_site_type_symbol
_atom_site_label
_atom_site_fract_x
_atom_site_fract_y
_atom_site_fract_z
Si Si1 0.663986 0.717847 0.337756
Si Si2 0.569199 0.984341 0.671231
Si Si3 0.925458 0.248675 0.485176
Si Si4 0.566465 0.106922 0.979036
Si Si5 0.119416 0.581709 0.341901
Si Si6 0.682205 0.712507 0.667058
O O1 0.500000 0.643686 0.250000
O O2 0.758019 0.641462 0.424893
O O3 0.740106 0.677004 0.330499
O O4 0.661226 0.909245 0.343426
O O5 0.444986 0.931966 0.642687
O O6 0.634490 0.822672 0.683056
O O7 0.486340 0.111721 0.597438
O O8 0.707917 0.071640 0.763253
O O9 0.963671 0.424814 0.522513
O O10 0.760129 0.197683 0.411568
O O11 0.968593 0.260257 0.456185
O O12 0.037976 0.133972 0.569719
O O13 0.000000 0.664690 0.250000
#
# Coordination Sequence:
#
# PCOD8140489 Si02
#       6
#     8   8   8   8   8   8
#     4  10  20  42  60  88 126 158 196 251 298 355
#     4  11  23  41  61  91 123 156 205 249 299 355
#     4   9  21  42  61  88 123 161 201 243 302 362
#     4   9  21  38  64  89 119 161 204 243 296 363
#     4  11  23  40  61  91 126 158 196 250 304 356
#     4  10  22  41  62  86 124 158 198 250 297 360
#
# _framework density 20.722352000000001
#
# number of rings (size 3 to 8) (size 9 to 14) (size 15 to 20)
#    0.000    2.000    3.333    1.000    2.333    8.000 
#    6.000    0.000    0.000    0.000    0.000    0.000 
#    0.000    0.000    0.000    0.000    0.000    0.000 
#
# Total GULP energy -297404.088596 kJ/mol
# GULP energy per Si atom -12391.837025 kJ/mol
# Density = 2.067519 g / cm^3
# Si number density = 20.722352 Si / 1000 Ang^3
#
#
#
# Elastic Constant Matrix: (Units=GPa)
#
#
# Indices 1 2 3 4 5 6 
#
# 1 140.2674 35.3476 87.4125 0.0000 5.9412 -0.0001
# 2 35.3476 25.6808 17.4691 0.0001 7.5670 -0.0001
# 3 87.4125 17.4691 150.2416 -0.0001 19.3243 0.0001
# 4 0.0000 0.0001 -0.0001 30.7327 0.0000 5.5052
# 5 5.9412 7.5670 19.3243 0.0000 37.7131 0.0000
# 6 -0.0001 -0.0001 0.0001 5.5052 0.0000 12.7781
#
#
#
# Elastic Compliance Matrix: (Units=1/GPa)
#
#
# Indices 1 2 3 4 5 6 
#
# 1 0.016933 -0.019259 -0.008314 0.000000 0.005457 0.000000
# 2 -0.019259 0.065675 0.005217 0.000000 -0.012817 0.000001
# 3 -0.008314 0.005217 0.011619 0.000000 -0.005690 0.000000
# 4 0.000000 0.000000 0.000000 0.035260 0.000000 -0.015191
# 5 0.005457 -0.012817 -0.005690 0.000000 0.031144 0.000000
# 6 0.000000 0.000001 0.000000 -0.015191 0.000000 0.084804
#
#
# Mechanical properties :
#
#
# Convention : Reuss Voigt Hill
#
# Bulk Modulus (GPa) = 20.19587 66.29424 43.24506
# Shear Modulus (GPa) = 16.30521 27.97549 22.14035
#
# Velocity S-wave (km/s) = 2.80811 3.67824 3.27223
# Velocity P-wave (km/s) = 4.50345 7.07816 5.93218
#
# Compressibility (1/GPa) = 0.04951507
#
# Stress axis : x y z
#
# Youngs Moduli (GPa) = 59.05768 15.22642 86.06920
#
# Poissons Ratio (x) = 0.29324 0.71560
# Poissons Ratio (y) = 1.13737 -0.44904
# Poissons Ratio (z) = 0.49102 -0.07944
#
# Static dielectric constant tensor:
#      x y z
#    x 3.842920 0.000000 -0.088700 
#    y 0.000000 3.347360 0.000000 
#    z -0.088700 0.000000 4.346800 
# 
# 
# High freq. dielectric constant tensor:
#      x y z
#    x 1.810450 0.000000 0.002040 
#    y 0.000000 1.777360 0.000000 
#    z 0.002040 0.000000 1.835890 
# 
# From -- ./inp_files/209308.got.cif
#   From: 2010.06.25/outbox.cif.g09.slc.cpg/sg15_105_cif.got.tgz:209308.got - 2010.06.28 07:06:18.
