data_PCOD8140617
_publ_section_title
;
Structure prediction by ZEFSAII (Michael W. Deem and Ramdas Pophale) SiO2 
 PCOD8140617
Probable space group: C 2/C
;
_chemical_formula_sum "Si O2"
_cell_formula_units_Z 56
_cell_length_a 10.747170
_cell_length_b 13.110749
_cell_length_c 17.718801
_cell_angle_alpha 90.000000
_cell_angle_beta 72.119976
_cell_angle_gamma 90.000000
_cell_volume 2376.056199
_symmetry_space_group_name_H-M "C 2/C"
_symmetry_group_IT_number 15
_symmetry_cell_setting 'monoclinic'
loop_
_space_group_symop_operation_xyz
x,y,z
-x,y,1/2-z
-x,-y,-z
x,-y,1/2+z
1/2+x,1/2+y,z
1/2-x,1/2+y,1/2-z
1/2-x,1/2-y,-z
1/2+x,1/2-y,1/2+z
loop_
_atom_site_type_symbol
_atom_site_label
_atom_site_fract_x
_atom_site_fract_y
_atom_site_fract_z
Si Si1 0.607333 0.128143 0.897066
Si Si2 0.350373 0.264933 0.746612
Si Si3 0.063114 0.519300 0.158531
Si Si4 0.516136 0.337326 0.536162
Si Si5 0.440167 0.462357 0.682572
Si Si6 0.293692 0.632551 0.627425
Si Si7 0.248450 0.367356 0.516294
O O1 0.678780 0.181821 0.813270
O O2 0.542000 0.023773 0.881109
O O3 0.510361 0.216316 0.948348
O O4 0.706960 0.085370 0.943031
O O5 0.500000 0.258460 0.750000
O O6 0.323334 0.379603 0.720243
O O7 0.239303 0.242359 0.829756
O O8 0.156059 0.423518 0.155167
O O9 0.144766 0.608624 0.102277
O O10 0.000000 0.556050 0.250000
O O11 0.539202 0.397362 0.610508
O O12 0.650566 0.348627 0.465925
O O13 0.394417 0.396946 0.517109
O O14 0.500000 0.495873 0.750000
O O15 0.397779 0.567643 0.654422
O O16 0.250000 0.250000 0.500000
#
# Coordination Sequence:
#
# PCOD8140617 Si02
#       7
#     8   8   8   8   8   8   8
#     4  10  20  42  66  97 129 175 225 270 330 403
#     4  10  20  43  66  92 138 176 220 284 333 388
#     4  12  23  43  70  97 131 178 225 279 334 395
#     4  10  23  42  65  96 136 176 211 282 345 388
#     4  10  23  42  65  95 134 177 220 276 339 402
#     4  12  22  42  67  97 134 169 223 278 343 397
#     4  10  23  44  64  95 141 176 219 277 336 403
#
# _framework density 23.568466999999998
#
# number of rings (size 3 to 8) (size 9 to 14) (size 15 to 20)
#    0.000    1.429    4.286    0.857    0.000    1.714 
#    5.143    0.000    0.000    0.000    0.000    0.000 
#    0.000    0.000    0.000    0.000    0.000    0.000 
#
# Total GULP energy -346929.855012 kJ/mol
# GULP energy per Si atom -12390.351965 kJ/mol
# Density = 2.351482 g / cm^3
# Si number density = 23.568467 Si / 1000 Ang^3
#
#
#
# Elastic Constant Matrix: (Units=GPa)
#
#
# Indices 1 2 3 4 5 6 
#
# 1 38.4858 -3.5458 39.5151 0.0000 8.1313 0.0000
# 2 -3.5458 59.7924 21.3836 0.0000 -5.5950 0.0000
# 3 39.5151 21.3836 151.4745 0.0000 1.0250 0.0000
# 4 0.0000 0.0000 0.0000 45.7645 0.0000 0.0979
# 5 8.1313 -5.5950 1.0250 0.0000 36.0495 0.0000
# 6 0.0000 0.0000 0.0000 0.0979 0.0000 9.2193
#
#
#
# Elastic Compliance Matrix: (Units=1/GPa)
#
#
# Indices 1 2 3 4 5 6 
#
# 1 0.039444 0.005558 -0.011022 0.000000 -0.007721 0.000000
# 2 0.005558 0.018685 -0.004100 0.000000 0.001763 0.000000
# 3 -0.011022 -0.004100 0.010045 0.000000 0.001564 0.000000
# 4 0.000000 0.000000 0.000000 0.021852 0.000000 -0.000232
# 5 -0.007721 0.001763 0.001564 0.000000 0.029710 0.000000
# 6 0.000000 0.000000 0.000000 -0.000232 0.000000 0.108470
#
#
# Mechanical properties :
#
#
# Convention : Reuss Voigt Hill
#
# Bulk Modulus (GPa) = 20.38837 40.49539 30.44188
# Shear Modulus (GPa) = 18.96218 31.03330 24.99774
#
# Velocity S-wave (km/s) = 2.83955 3.63261 3.26029
# Velocity P-wave (km/s) = 4.40684 5.90032 5.20740
#
# Compressibility (1/GPa) = 0.04904758
#
# Stress axis : x y z
#
# Youngs Moduli (GPa) = 25.35251 53.51794 99.54923
#
# Poissons Ratio (x) = -0.29748 1.09724
# Poissons Ratio (y) = -0.14092 0.40813
# Poissons Ratio (z) = 0.27944 0.21941
#
# Static dielectric constant tensor:
#      x y z
#    x 4.748690 0.000000 0.692710 
#    y 0.000000 4.125990 0.000000 
#    z 0.692710 0.000000 4.739410 
# 
# 
# High freq. dielectric constant tensor:
#      x y z
#    x 1.907780 0.000000 0.023540 
#    y 0.000000 1.922380 0.000000 
#    z 0.023540 0.000000 1.947330 
# 
# From -- ./inp_files/198197.got.cif
#   From: 2010.06.25/outbox.cif.g09.slc.cpg/sg15_100_cif.got.tgz:198197.got - 2010.06.28 07:06:18.
