data_PCOD8140120
_publ_section_title
;
Structure prediction by ZEFSAII (Michael W. Deem and Ramdas Pophale) SiO2 
 PCOD8140120
Probable space group: C 2/C
;
_chemical_formula_sum "Si O2"
_cell_formula_units_Z 40
_cell_length_a 8.351921
_cell_length_b 21.061455
_cell_length_c 10.293320
_cell_angle_alpha 90.000000
_cell_angle_beta 84.232976
_cell_angle_gamma 90.000000
_cell_volume 1801.467988
_symmetry_space_group_name_H-M "C 2/C"
_symmetry_group_IT_number 15
_symmetry_cell_setting 'monoclinic'
loop_
_space_group_symop_operation_xyz
x,y,z
-x,y,1/2-z
-x,-y,-z
x,-y,1/2+z
1/2+x,1/2+y,z
1/2-x,1/2+y,1/2-z
1/2-x,1/2-y,-z
1/2+x,1/2-y,1/2+z
loop_
_atom_site_type_symbol
_atom_site_label
_atom_site_fract_x
_atom_site_fract_y
_atom_site_fract_z
Si Si1 0.572162 0.310966 0.611911
Si Si2 0.879716 0.945417 0.966332
Si Si3 0.686244 0.387848 0.268659
Si Si4 0.604626 0.987412 0.364672
Si Si5 0.613950 0.251371 0.351967
O O1 0.500000 0.282676 0.750000
O O2 0.523964 0.384569 0.597326
O O3 0.511997 0.273619 0.487732
O O4 0.764963 0.302973 0.609943
O O5 0.762097 0.968287 0.861535
O O6 0.774236 0.923183 0.098932
O O7 0.000000 0.000000 0.000000
O O8 0.500000 0.403106 0.250000
O O9 0.819178 0.415687 0.156310
O O10 0.708220 0.312182 0.282935
O O11 0.500000 0.007927 0.250000
O O12 0.500000 0.000000 0.500000
O O13 0.500000 0.221994 0.250000
#
# Coordination Sequence:
#
# PCOD8140120 Si02
#       5
#     8   8   8   8   8
#     4  10  23  40  66  99 126 169 222 277 319 388
#     4  11  23  40  65  92 132 174 218 267 326 406
#     4  10  20  40  67  89 124 183 219 260 326 407
#     4  12  25  39  59  99 134 167 215 276 341 387
#     4   9  21  44  65  93 131 170 222 270 333 386
#
# _framework density 22.204115000000002
#
# number of rings (size 3 to 8) (size 9 to 14) (size 15 to 20)
#    0.000    1.600    4.000    0.000    2.800    2.400 
#    3.600    0.000    0.000    0.000    0.000    0.000 
#    0.000    0.000    0.000    0.000    0.000    0.000 
#
# Total GULP energy -247844.315426 kJ/mol
# GULP energy per Si atom -12392.215771 kJ/mol
# Density = 2.215358 g / cm^3
# Si number density = 22.204115 Si / 1000 Ang^3
#
#
#
# Elastic Constant Matrix: (Units=GPa)
#
#
# Indices 1 2 3 4 5 6 
#
# 1 75.1883 18.8761 42.3552 0.0000 20.6524 0.0000
# 2 18.8761 62.7828 17.5136 0.0000 2.5238 0.0000
# 3 42.3552 17.5136 143.3476 0.0000 9.0317 0.0000
# 4 0.0000 0.0000 0.0000 18.7187 0.0000 10.5992
# 5 20.6524 2.5238 9.0317 0.0000 56.5141 0.0000
# 6 0.0000 0.0000 0.0000 10.5992 0.0000 24.5978
#
#
#
# Elastic Compliance Matrix: (Units=1/GPa)
#
#
# Indices 1 2 3 4 5 6 
#
# 1 0.018519 -0.004047 -0.004609 0.000000 -0.005850 0.000000
# 2 -0.004047 0.017384 -0.000982 0.000000 0.000860 0.000000
# 3 -0.004609 -0.000982 0.008434 0.000000 0.000380 0.000000
# 4 0.000000 0.000000 0.000000 0.070664 0.000000 -0.030449
# 5 -0.005850 0.000860 0.000380 0.000000 0.019733 0.000000
# 6 0.000000 0.000000 0.000000 -0.030449 0.000000 0.053775
#
#
# Mechanical properties :
#
#
# Convention : Reuss Voigt Hill
#
# Bulk Modulus (GPa) = 39.90296 48.75651 44.32973
# Shear Modulus (GPa) = 23.13324 33.47105 28.30214
#
# Velocity S-wave (km/s) = 3.23126 3.88677 3.57408
# Velocity P-wave (km/s) = 5.65079 6.49220 6.08605
#
# Compressibility (1/GPa) = 0.02506080
#
# Stress axis : x y z
#
# Youngs Moduli (GPa) = 53.99810 57.52359 118.56935
#
# Poissons Ratio (x) = 0.23280 0.54647
# Poissons Ratio (y) = 0.21854 0.11647
# Poissons Ratio (z) = 0.24887 0.05650
#
# Static dielectric constant tensor:
#      x y z
#    x 3.846390 0.000000 0.257080 
#    y 0.000000 3.861400 0.000000 
#    z 0.257080 0.000000 4.385050 
# 
# 
# High freq. dielectric constant tensor:
#      x y z
#    x 1.848230 0.000000 0.019840 
#    y 0.000000 1.860220 0.000000 
#    z 0.019840 0.000000 1.888890 
# 
# From -- ./inp_files/23642.got.cif
#   From: 2010.06.25/outbox.cif.g09.slc.cpg/sg15_12_cif.got.tgz:23642.got - 2010.06.28 07:06:18.
