data_PCOD8140221
_publ_section_title
;
Structure prediction by ZEFSAII (Michael W. Deem and Ramdas Pophale) SiO2 
 PCOD8140221
Probable space group: C 2/C
;
_chemical_formula_sum "Si O2"
_cell_formula_units_Z 56
_cell_length_a 7.878691
_cell_length_b 15.667722
_cell_length_c 22.664527
_cell_angle_alpha 90.000000
_cell_angle_beta 70.968722
_cell_angle_gamma 90.000000
_cell_volume 2644.812834
_symmetry_space_group_name_H-M "C 2/C"
_symmetry_group_IT_number 15
_symmetry_cell_setting 'monoclinic'
loop_
_space_group_symop_operation_xyz
x,y,z
-x,y,1/2-z
-x,-y,-z
x,-y,1/2+z
1/2+x,1/2+y,z
1/2-x,1/2+y,1/2-z
1/2-x,1/2-y,-z
1/2+x,1/2-y,1/2+z
loop_
_atom_site_type_symbol
_atom_site_label
_atom_site_fract_x
_atom_site_fract_y
_atom_site_fract_z
Si Si1 0.444049 0.789101 0.820718
Si Si2 0.669407 0.481085 0.412043
Si Si3 0.845794 0.919194 0.692217
Si Si4 0.260685 0.397856 0.829785
Si Si5 0.317216 0.805506 0.066597
Si Si6 0.562718 0.361011 0.997317
Si Si7 0.537531 0.021170 0.928202
O O1 0.500000 0.751387 0.750000
O O2 0.298778 0.863237 0.826880
O O3 0.619737 0.820258 0.837534
O O4 0.349695 0.719939 0.873033
O O5 0.637639 0.491402 0.345363
O O6 0.600686 0.387157 0.440133
O O7 0.561631 0.560291 0.452664
O O8 0.873288 0.498640 0.404763
O O9 0.772853 0.944477 0.764868
O O10 0.037324 0.868528 0.674854
O O11 0.201286 0.463391 0.887203
O O12 0.457015 0.728260 0.035995
O O13 0.426358 0.879041 0.086603
O O14 0.245089 0.848666 0.014170
O O15 0.500000 0.000000 0.000000
#
# Coordination Sequence:
#
# PCOD8140221 Si02
#       7
#     8   8   8   8   8   8   8
#     4  10  21  42  68  91 123 168 211 264 325 381
#     4  11  21  41  63  93 127 170 213 261 315 385
#     4  10  20  40  70  93 122 163 220 264 311 387
#     4  10  22  40  67  95 120 168 217 260 320 383
#     4  11  22  41  59  92 131 163 210 266 321 374
#     4  10  22  37  62  88 125 169 206 261 320 378
#     4  12  24  38  62  95 128 170 212 259 317 383
#
# _framework density 21.173521999999998
#
# number of rings (size 3 to 8) (size 9 to 14) (size 15 to 20)
#    0.000    1.429    4.286    0.857    4.000    0.571 
#    7.714    0.000    0.000    0.000    0.000    0.000 
#    0.000    0.000    0.000    0.000    0.000    0.000 
#
# Total GULP energy -346981.918465 kJ/mol
# GULP energy per Si atom -12392.211374 kJ/mol
# Density = 2.112533 g / cm^3
# Si number density = 21.173522 Si / 1000 Ang^3
#
#
#
# Elastic Constant Matrix: (Units=GPa)
#
#
# Indices 1 2 3 4 5 6 
#
# 1 91.5884 8.8069 23.8280 0.0000 -2.6311 0.0000
# 2 8.8069 74.9464 43.8200 0.0000 -7.5653 0.0000
# 3 23.8280 43.8200 119.2891 0.0000 -6.5538 0.0000
# 4 0.0000 0.0000 0.0000 19.2198 0.0000 -3.5670
# 5 -2.6311 -7.5653 -6.5538 0.0000 29.5560 0.0000
# 6 0.0000 0.0000 0.0000 -3.5670 0.0000 30.2630
#
#
#
# Elastic Compliance Matrix: (Units=1/GPa)
#
#
# Indices 1 2 3 4 5 6 
#
# 1 0.011525 0.000036 -0.002286 0.000000 0.000528 0.000000
# 2 0.000036 0.017260 -0.006180 0.000000 0.003051 0.000000
# 3 -0.002286 -0.006180 0.011148 0.000000 0.000687 0.000000
# 4 0.000000 0.000000 0.000000 0.053193 0.000000 0.006270
# 5 0.000528 0.003051 0.000687 0.000000 0.034814 0.000000
# 6 0.000000 0.000000 0.000000 0.006270 0.000000 0.033783
#
#
# Mechanical properties :
#
#
# Convention : Reuss Voigt Hill
#
# Bulk Modulus (GPa) = 43.34312 48.74820 46.04566
# Shear Modulus (GPa) = 26.84223 29.76569 28.30396
#
# Velocity S-wave (km/s) = 3.56438 3.75346 3.66014
# Velocity P-wave (km/s) = 6.12002 6.46976 6.29732
#
# Compressibility (1/GPa) = 0.02307171
#
# Stress axis : x y z
#
# Youngs Moduli (GPa) = 86.76835 57.93782 89.70618
#
# Poissons Ratio (x) = -0.00207 0.20509
# Poissons Ratio (y) = -0.00310 0.55437
# Poissons Ratio (z) = 0.19837 0.35805
#
# Static dielectric constant tensor:
#      x y z
#    x 3.846120 0.000000 -0.051500 
#    y 0.000000 3.649110 0.000000 
#    z -0.051500 0.000000 4.148030 
# 
# 
# High freq. dielectric constant tensor:
#      x y z
#    x 1.828740 0.000000 -0.001160 
#    y 0.000000 1.794830 0.000000 
#    z -0.001160 0.000000 1.845990 
# 
# From -- ./inp_files/264232.got.cif
#   From: 2010.06.25/outbox.cif.g09.slc.cpg/sg15_133_cif.got.tgz:264232.got - 2010.06.28 07:06:18.
