data_PCOD8140480
_publ_section_title
;
Structure prediction by ZEFSAII (Michael W. Deem and Ramdas Pophale) SiO2 
 PCOD8140480
Probable space group: C 2/C
;
_chemical_formula_sum "Si O2"
_cell_formula_units_Z 60
_cell_length_a 27.011500
_cell_length_b 13.519617
_cell_length_c 8.982515
_cell_angle_alpha 90.000000
_cell_angle_beta 102.590431
_cell_angle_gamma 90.000000
_cell_volume 3201.400626
_symmetry_space_group_name_H-M "C 2/C"
_symmetry_group_IT_number 15
_symmetry_cell_setting 'monoclinic'
loop_
_space_group_symop_operation_xyz
x,y,z
-x,y,1/2-z
-x,-y,-z
x,-y,1/2+z
1/2+x,1/2+y,z
1/2-x,1/2+y,1/2-z
1/2-x,1/2-y,-z
1/2+x,1/2-y,1/2+z
loop_
_atom_site_type_symbol
_atom_site_label
_atom_site_fract_x
_atom_site_fract_y
_atom_site_fract_z
Si Si1 0.855808 0.183089 0.577560
Si Si2 0.662154 0.129306 0.282382
Si Si3 0.000000 0.032571 0.250000
Si Si4 0.664991 0.518676 0.715441
Si Si5 0.723837 0.676379 0.210058
Si Si6 0.432615 0.425305 0.964985
Si Si7 0.259460 0.114912 0.660513
Si Si8 0.682123 0.995805 0.548355
O O1 0.864001 0.263916 0.713807
O O2 0.844267 0.074036 0.634202
O O3 0.806965 0.218371 0.452362
O O4 0.905502 0.175371 0.504999
O O5 0.723443 0.132616 0.314494
O O6 0.644106 0.075946 0.118248
O O7 0.648143 0.061274 0.415386
O O8 0.032625 0.963055 0.378632
O O9 0.035326 0.099009 0.164338
O O10 0.690917 0.411824 0.762775
O O11 0.610464 0.506477 0.601223
O O12 0.700042 0.588486 0.634893
O O13 0.732666 0.766369 0.330498
O O14 0.279114 0.075594 0.515002
O O15 0.287792 0.065609 0.818623
#
# Coordination Sequence:
#
# PCOD8140480 Si02
#       8
#     8   8   4   8   8   8   8   8
#     4  11  21  36  51  82 108 151 184 237 272 324
#     4  11  20  34  53  70 107 152 196 226 269 305
#     4  10  20  42  58  80 106 146 168 224 320 340
#     4  11  21  33  53  81 112 147 203 222 265 316
#     4  11  21  31  51  68 110 158 189 235 260 309
#     4  10  22  36  60  79 110 142 177 233 280 358
#     4  11  21  35  48  73 107 156 202 229 267 304
#     4  10  21  34  49  70 101 157 193 235 256 305
#
# _framework density 18.741796999999998
#
# number of rings (size 3 to 8) (size 9 to 14) (size 15 to 20)
#    0.000    1.333    6.667    1.200    1.867    0.533 
#    4.800    0.000    0.000    0.000    0.000    0.000 
#    0.000    3.200    0.000    0.000    0.000    0.000 
#
# Total GULP energy -371849.249518 kJ/mol
# GULP energy per Si atom -12394.974984 kJ/mol
# Density = 1.869914 g / cm^3
# Si number density = 18.741797 Si / 1000 Ang^3
#
#
#
# Elastic Constant Matrix: (Units=GPa)
#
#
# Indices 1 2 3 4 5 6 
#
# 1 71.6799 35.6063 35.9707 0.0000 -14.3020 0.0000
# 2 35.6063 111.3789 36.0584 0.0000 -15.7263 0.0000
# 3 35.9707 36.0584 91.3774 0.0000 -23.6512 0.0000
# 4 0.0000 0.0000 0.0000 34.6558 0.0000 -9.1170
# 5 -14.3020 -15.7263 -23.6512 0.0000 31.7601 0.0000
# 6 0.0000 0.0000 0.0000 -9.1170 0.0000 16.9409
#
#
#
# Elastic Compliance Matrix: (Units=1/GPa)
#
#
# Indices 1 2 3 4 5 6 
#
# 1 0.019123 -0.004036 -0.005232 0.000000 0.002717 0.000000
# 2 -0.004036 0.011317 -0.002350 0.000000 0.002036 0.000000
# 3 -0.005232 -0.002350 0.016128 0.000000 0.008491 0.000000
# 4 0.000000 0.000000 0.000000 0.033614 0.000000 0.018090
# 5 0.002717 0.002036 0.008491 0.000000 0.040041 0.000000
# 6 0.000000 0.000000 0.000000 0.018090 0.000000 0.068764
#
#
# Mechanical properties :
#
#
# Convention : Reuss Voigt Hill
#
# Bulk Modulus (GPa) = 42.85883 54.41189 48.63536
# Shear Modulus (GPa) = 22.72717 27.79142 25.25929
#
# Velocity S-wave (km/s) = 3.48608 3.85497 3.67516
# Velocity P-wave (km/s) = 6.25471 6.99355 6.63442
#
# Compressibility (1/GPa) = 0.02333242
#
# Stress axis : x y z
#
# Youngs Moduli (GPa) = 52.29189 88.36332 62.00321
#
# Poissons Ratio (x) = 0.35664 0.32441
# Poissons Ratio (y) = 0.21105 0.14570
# Poissons Ratio (z) = 0.27360 0.20765
#
# Static dielectric constant tensor:
#      x y z
#    x 3.281820 0.000000 -0.294560 
#    y 0.000000 3.547050 0.000000 
#    z -0.294560 0.000000 3.652110 
# 
# 
# High freq. dielectric constant tensor:
#      x y z
#    x 1.676620 0.000000 -0.024310 
#    y 0.000000 1.720020 0.000000 
#    z -0.024310 0.000000 1.742560 
# 
# From -- ./inp_files/65982.got.cif
#   From: 2010.06.25/outbox.cif.g09.slc.cpg/sg15_33_cif.got.tgz:65982.got - 2010.06.28 07:06:18.
