data_PCOD8140385
_publ_section_title
;
Structure prediction by ZEFSAII (Michael W. Deem and Ramdas Pophale) SiO2 
 PCOD8140385
Probable space group: C 2/C
;
_chemical_formula_sum "Si O2"
_cell_formula_units_Z 44
_cell_length_a 8.546047
_cell_length_b 18.310767
_cell_length_c 17.835085
_cell_angle_alpha 90.000000
_cell_angle_beta 130.854514
_cell_angle_gamma 90.000000
_cell_volume 2110.974679
_symmetry_space_group_name_H-M "C 2/C"
_symmetry_group_IT_number 15
_symmetry_cell_setting 'monoclinic'
loop_
_space_group_symop_operation_xyz
x,y,z
-x,y,1/2-z
-x,-y,-z
x,-y,1/2+z
1/2+x,1/2+y,z
1/2-x,1/2+y,1/2-z
1/2-x,1/2-y,-z
1/2+x,1/2-y,1/2+z
loop_
_atom_site_type_symbol
_atom_site_label
_atom_site_fract_x
_atom_site_fract_y
_atom_site_fract_z
Si Si1 0.343912 0.817202 0.266346
Si Si2 0.862078 0.310229 0.436837
Si Si3 0.500000 0.077369 0.250000
Si Si4 0.724914 0.027735 0.596462
Si Si5 0.828468 0.023247 0.797215
Si Si6 0.000476 0.704252 0.362450
O O1 0.500000 0.797512 0.250000
O O2 0.462301 0.815007 0.384464
O O3 0.184673 0.751832 0.226551
O O4 0.222336 0.891085 0.206783
O O5 0.741564 0.386275 0.405797
O O6 0.712554 0.241798 0.402893
O O7 0.027950 0.305381 0.556409
O O8 0.298548 0.025228 0.183403
O O9 0.496154 0.124774 0.324094
O O10 0.749020 0.003320 0.689470
O O11 0.929774 0.000020 0.615914
O O12 0.500000 0.000000 0.500000
#
# Coordination Sequence:
#
# PCOD8140385 Si02
#       6
#     8   8   4   8   8   8
#     4  11  21  42  67  93 130 180 220 272 336 405
#     4  10  21  40  66  92 124 177 224 266 335 400
#     4  12  22  42  64 104 136 170 222 286 332 384
#     4  10  20  41  66  92 129 179 223 272 330 403
#     4  10  22  39  67  94 132 175 223 271 339 393
#     4  11  22  40  66  93 132 175 218 276 334 400
#
# _framework density 20.843454000000001
#
# number of rings (size 3 to 8) (size 9 to 14) (size 15 to 20)
#    0.000    1.455    4.545    1.091    0.000    0.727 
#    6.545   10.909    0.000    0.000    0.000    0.000 
#    0.000    0.000    0.000    0.000    0.000    0.000 
#
# Total GULP energy -272567.370098 kJ/mol
# GULP energy per Si atom -12389.425914 kJ/mol
# Density = 2.079601 g / cm^3
# Si number density = 20.843454 Si / 1000 Ang^3
#
#
#
# Elastic Constant Matrix: (Units=GPa)
#
#
# Indices 1 2 3 4 5 6 
#
# 1 86.6427 41.1196 33.2237 0.0000 -7.8413 0.0000
# 2 41.1196 101.5438 25.7596 0.0000 -0.7111 0.0000
# 3 33.2237 25.7596 99.0875 0.0000 -10.9402 0.0000
# 4 0.0000 0.0000 0.0000 18.2035 0.0000 -5.1820
# 5 -7.8413 -0.7111 -10.9402 0.0000 36.9015 0.0000
# 6 0.0000 0.0000 0.0000 -5.1820 0.0000 32.5077
#
#
#
# Elastic Compliance Matrix: (Units=1/GPa)
#
#
# Indices 1 2 3 4 5 6 
#
# 1 0.015698 -0.005425 -0.003615 0.000000 0.002159 0.000000
# 2 -0.005425 0.012432 -0.001565 0.000000 -0.001377 0.000000
# 3 -0.003615 -0.001565 0.012016 0.000000 0.002764 0.000000
# 4 0.000000 0.000000 0.000000 0.057546 0.000000 0.009173
# 5 0.002159 -0.001377 0.002764 0.000000 0.028351 0.000000
# 6 0.000000 0.000000 0.000000 0.009173 0.000000 0.032224
#
#
# Mechanical properties :
#
#
# Convention : Reuss Voigt Hill
#
# Bulk Modulus (GPa) = 52.80679 54.16442 53.48561
# Shear Modulus (GPa) = 26.91242 30.00064 28.45653
#
# Velocity S-wave (km/s) = 3.59718 3.79797 3.69894
# Velocity P-wave (km/s) = 6.53015 6.72870 6.63017
#
# Compressibility (1/GPa) = 0.01893696
#
# Stress axis : x y z
#
# Youngs Moduli (GPa) = 63.70397 80.43756 83.22117
#
# Poissons Ratio (x) = 0.43634 0.30082
# Poissons Ratio (y) = 0.34557 0.13025
# Poissons Ratio (z) = 0.23027 0.12590
#
# Static dielectric constant tensor:
#      x y z
#    x 3.714580 0.000000 -0.162100 
#    y 0.000000 3.744810 0.000000 
#    z -0.162100 0.000000 3.832680 
# 
# 
# High freq. dielectric constant tensor:
#      x y z
#    x 1.805210 0.000000 -0.014030 
#    y 0.000000 1.819710 0.000000 
#    z -0.014030 0.000000 1.805060 
# 
# From -- ./inp_files/134305.got.cif
#   From: 2010.06.25/outbox.cif.g09.slc.cpg/sg15_68_cif.got.tgz:134305.got - 2010.06.28 07:06:18.
