data_PCOD8140664
_publ_section_title
;
Structure prediction by ZEFSAII (Michael W. Deem and Ramdas Pophale) SiO2 
 PCOD8140664
Probable space group: C 2/C
;
_chemical_formula_sum "Si O2"
_cell_formula_units_Z 48
_cell_length_a 16.541234
_cell_length_b 9.770591
_cell_length_c 14.115359
_cell_angle_alpha 90.000000
_cell_angle_beta 73.671520
_cell_angle_gamma 90.000000
_cell_volume 2189.276540
_symmetry_space_group_name_H-M "C 2/C"
_symmetry_group_IT_number 15
_symmetry_cell_setting 'monoclinic'
loop_
_space_group_symop_operation_xyz
x,y,z
-x,y,1/2-z
-x,-y,-z
x,-y,1/2+z
1/2+x,1/2+y,z
1/2-x,1/2+y,1/2-z
1/2-x,1/2-y,-z
1/2+x,1/2-y,1/2+z
loop_
_atom_site_type_symbol
_atom_site_label
_atom_site_fract_x
_atom_site_fract_y
_atom_site_fract_z
Si Si1 0.830960 0.742032 0.904356
Si Si2 0.037270 0.796829 0.500440
Si Si3 0.175320 0.044918 0.649665
Si Si4 0.632168 0.578328 0.459709
Si Si5 0.781367 0.503846 0.782148
Si Si6 0.080105 0.723742 0.277389
O O1 0.818449 0.625468 0.831566
O O2 0.845146 0.883950 0.844866
O O3 0.750000 0.750000 0.000000
O O4 0.916325 0.704645 0.934840
O O5 0.060068 0.732123 0.393472
O O6 0.935350 0.802294 0.544486
O O7 0.077587 0.945321 0.500717
O O8 0.184415 0.108005 0.540232
O O9 0.101026 0.126657 0.727795
O O10 0.261564 0.061250 0.682809
O O11 0.694132 0.554210 0.352749
O O12 0.842762 0.376886 0.761505
O O13 0.000000 0.662041 0.250000
#
# Coordination Sequence:
#
# PCOD8140664 Si02
#       6
#     8   8   8   8   8   8
#     4  11  21  42  66  97 134 180 220 278 339 401
#     4  10  20  42  68  96 134 175 227 280 332 392
#     4  11  21  40  68  97 129 176 227 276 324 403
#     4  10  21  38  70 103 125 175 234 276 328 405
#     4  12  24  41  69 105 136 175 228 278 349 401
#     4  12  25  43  66  99 141 176 221 286 344 397
#
# _framework density 21.925052000000001
#
# number of rings (size 3 to 8) (size 9 to 14) (size 15 to 20)
#    0.000    1.000    6.667    2.000    0.000    0.667 
#    0.000    5.000    0.000    0.000    0.000    0.000 
#    0.000    0.000    0.000    0.000    0.000    0.000 
#
# Total GULP energy -297524.378178 kJ/mol
# GULP energy per Si atom -12396.849091 kJ/mol
# Density = 2.187515 g / cm^3
# Si number density = 21.925052 Si / 1000 Ang^3
#
#
#
# Elastic Constant Matrix: (Units=GPa)
#
#
# Indices 1 2 3 4 5 6 
#
# 1 150.0083 54.7208 68.7157 0.0000 28.6450 0.0000
# 2 54.7208 59.0829 17.9750 0.0000 6.5603 0.0000
# 3 68.7157 17.9750 58.3874 0.0000 42.3202 0.0000
# 4 0.0000 0.0000 0.0000 26.6966 0.0000 3.3437
# 5 28.6450 6.5603 42.3202 0.0000 48.0289 0.0000
# 6 0.0000 0.0000 0.0000 3.3437 0.0000 28.1779
#
#
#
# Elastic Compliance Matrix: (Units=1/GPa)
#
#
# Indices 1 2 3 4 5 6 
#
# 1 0.032852 -0.016497 -0.058163 0.000000 0.033910 0.000000
# 2 -0.016497 0.027839 0.017904 0.000000 -0.009740 0.000000
# 3 -0.058163 0.017904 0.156908 0.000000 -0.106014 0.000000
# 4 0.000000 0.000000 0.000000 0.038023 0.000000 -0.004512
# 5 0.033910 -0.009740 -0.106014 0.000000 0.095340 0.000000
# 6 0.000000 0.000000 0.000000 -0.004512 0.000000 0.036024
#
#
# Mechanical properties :
#
#
# Convention : Reuss Voigt Hill
#
# Bulk Modulus (GPa) = 9.60740 61.14463 35.37601
# Shear Modulus (GPa) = 9.34241 28.98516 19.16379
#
# Velocity S-wave (km/s) = 2.06647 3.63989 2.95966
# Velocity P-wave (km/s) = 3.17572 6.75379 5.27725
#
# Compressibility (1/GPa) = 0.10408648
#
# Stress axis : x y z
#
# Youngs Moduli (GPa) = 30.43932 35.92127 6.37317
#
# Poissons Ratio (x) = 0.59258 0.37069
# Poissons Ratio (y) = 0.50215 -0.11411
# Poissons Ratio (z) = 1.77046 -0.64314
#
# Static dielectric constant tensor:
#      x y z
#    x 4.537320 0.000000 0.533240 
#    y 0.000000 3.774060 0.000000 
#    z 0.533240 0.000000 3.985800 
# 
# 
# High freq. dielectric constant tensor:
#      x y z
#    x 1.871680 0.000000 0.031170 
#    y 0.000000 1.836100 0.000000 
#    z 0.031170 0.000000 1.864700 
# 
# From -- ./inp_files/151954.got.cif
#   From: 2010.06.25/outbox.cif.g09.slc.cpg/sg15_76_cif.got.tgz:151954.got - 2010.06.28 07:06:18.
