data_PCOD8140701
_publ_section_title
;
Structure prediction by ZEFSAII (Michael W. Deem and Ramdas Pophale) SiO2 
 PCOD8140701
Probable space group: C 2/C
;
_chemical_formula_sum "Si O2"
_cell_formula_units_Z 44
_cell_length_a 8.063122
_cell_length_b 12.188232
_cell_length_c 25.162615
_cell_angle_alpha 90.000000
_cell_angle_beta 49.548277
_cell_angle_gamma 90.000000
_cell_volume 1881.730835
_symmetry_space_group_name_H-M "C 2/C"
_symmetry_group_IT_number 15
_symmetry_cell_setting 'monoclinic'
loop_
_space_group_symop_operation_xyz
x,y,z
-x,y,1/2-z
-x,-y,-z
x,-y,1/2+z
1/2+x,1/2+y,z
1/2-x,1/2+y,1/2-z
1/2-x,1/2-y,-z
1/2+x,1/2-y,1/2+z
loop_
_atom_site_type_symbol
_atom_site_label
_atom_site_fract_x
_atom_site_fract_y
_atom_site_fract_z
Si Si1 0.465178 0.050332 0.591640
Si Si2 0.422619 0.287445 0.601914
Si Si3 0.554461 0.513558 0.612491
Si Si4 0.205276 0.033179 0.240438
Si Si5 0.674356 0.364987 0.992868
Si Si6 0.000000 0.315161 0.750000
O O1 0.563276 0.174865 0.569804
O O2 0.301715 0.042142 0.575783
O O3 0.345267 0.041217 0.672592
O O4 0.640310 0.956574 0.548870
O O5 0.536157 0.380456 0.613938
O O6 0.419286 0.345226 0.545394
O O7 0.182834 0.252647 0.676075
O O8 0.387758 0.547913 0.694011
O O9 0.496179 0.580897 0.570605
O O10 0.367620 0.119367 0.232842
O O11 0.000000 0.086340 0.250000
O O12 0.750000 0.250000 0.000000
#
# Coordination Sequence:
#
# PCOD8140701 Si02
#       6
#     8   8   8   8   8   4
#     4  11  23  44  67  96 134 176 226 273 340 400
#     4  11  24  41  69  95 130 182 219 281 337 400
#     4  10  23  42  64  96 134 168 223 276 337 396
#     4   9  20  40  69  95 134 179 223 284 334 404
#     4  12  24  43  67  99 133 179 220 276 341 407
#     4  10  20  42  70  98 132 180 236 272 348 406
#
# _framework density 23.382725000000001
#
# number of rings (size 3 to 8) (size 9 to 14) (size 15 to 20)
#    0.000    1.455    3.636    1.091    3.818    0.727 
#    3.273    0.000    8.000    0.000    0.000    0.000 
#    0.000    0.000    0.000    0.000    0.000    0.000 
#
# Total GULP energy -272545.376185 kJ/mol
# GULP energy per Si atom -12388.426190 kJ/mol
# Density = 2.332951 g / cm^3
# Si number density = 23.382725 Si / 1000 Ang^3
#
#
#
# Elastic Constant Matrix: (Units=GPa)
#
#
# Indices 1 2 3 4 5 6 
#
# 1 56.9552 24.1881 25.2155 0.0018 20.3918 0.0011
# 2 24.1881 151.3348 39.0840 0.0010 4.3741 0.0009
# 3 25.2155 39.0840 135.8572 0.0019 25.8599 0.0014
# 4 0.0018 0.0010 0.0019 2.7672 -0.0020 -14.9659
# 5 20.3918 4.3741 25.8599 -0.0020 26.9528 -0.0013
# 6 0.0011 0.0009 0.0014 -14.9659 -0.0013 27.6545
#
#
#
# Elastic Compliance Matrix: (Units=1/GPa)
#
#
# Indices 1 2 3 4 5 6 
#
# 1 0.025889 -0.003541 -0.000205 0.000020 -0.018816 0.000009
# 2 -0.003541 0.007644 -0.002221 -0.000002 0.003570 -0.000001
# 3 -0.000205 -0.002221 0.009714 0.000009 -0.008804 0.000004
# 4 0.000020 -0.000002 0.000009 -0.187549 -0.000042 -0.101496
# 5 -0.018816 0.003570 -0.008804 -0.000042 0.059205 -0.000019
# 6 0.000009 -0.000001 0.000004 -0.101496 -0.000019 -0.018767
#
#
# Mechanical properties :
#
#
# Convention : Reuss Voigt Hill
#
# Bulk Modulus (GPa) = 31.93668 57.90249 44.91959
# Shear Modulus (GPa) = -61.35623 28.51888 -16.41868
#
# Velocity S-wave (km/s) = -5.12805 3.49615 -2.65273
# Velocity P-wave (km/s) = 4.62328 6.41203 3.14161
#
# Compressibility (1/GPa) = 0.03131196
#
# Stress axis : x y z
#
# Youngs Moduli (GPa) = 38.62684 130.81507 102.94824
#
# Poissons Ratio (x) = 0.46323 0.02109
# Poissons Ratio (y) = 0.13678 0.22869
# Poissons Ratio (z) = 0.00791 0.29060
#
# Static dielectric constant tensor:
#      x y z
#    x 4.151810 0.000000 0.279620 
#    y 0.000000 4.137170 0.000000 
#    z 0.279620 0.000000 4.954460 
# 
# 
# High freq. dielectric constant tensor:
#      x y z
#    x 1.910030 0.000000 0.023090 
#    y 0.000000 1.912840 0.000000 
#    z 0.023090 0.000000 1.955610 
# 
# From -- ./inp_files/230187.got.cif
#   From: 2010.06.25/outbox.cif.g09.slc.cpg/sg15_116_cif.got.tgz:230187.got - 2010.06.28 07:06:18.
