data_PCOD8140294
_publ_section_title
;
Structure prediction by ZEFSAII (Michael W. Deem and Ramdas Pophale) SiO2 
 PCOD8140294
Probable space group: C 2/C
;
_chemical_formula_sum "Si O2"
_cell_formula_units_Z 44
_cell_length_a 15.781157
_cell_length_b 9.199412
_cell_length_c 17.333858
_cell_angle_alpha 90.000000
_cell_angle_beta 60.210237
_cell_angle_gamma 90.000000
_cell_volume 2183.941146
_symmetry_space_group_name_H-M "C 2/C"
_symmetry_group_IT_number 15
_symmetry_cell_setting 'monoclinic'
loop_
_space_group_symop_operation_xyz
x,y,z
-x,y,1/2-z
-x,-y,-z
x,-y,1/2+z
1/2+x,1/2+y,z
1/2-x,1/2+y,1/2-z
1/2-x,1/2-y,-z
1/2+x,1/2-y,1/2+z
loop_
_atom_site_type_symbol
_atom_site_label
_atom_site_fract_x
_atom_site_fract_y
_atom_site_fract_z
Si Si1 0.085673 0.779183 0.654040
Si Si2 0.126255 0.616111 0.907948
Si Si3 0.160261 0.030720 0.719938
Si Si4 0.500000 0.240078 0.250000
Si Si5 0.942374 0.490036 0.903511
Si Si6 0.046258 0.914302 0.909672
O O1 0.121024 0.618253 0.610507
O O2 0.000000 0.738814 0.750000
O O3 0.046746 0.864698 0.597758
O O4 0.160234 0.882796 0.667317
O O5 0.229272 0.581674 0.822310
O O6 0.110578 0.787394 0.917114
O O7 0.043800 0.547323 0.891693
O O8 0.126170 0.561789 0.995935
O O9 0.094277 0.157677 0.714578
O O10 0.120145 0.007002 0.824148
O O11 0.526476 0.141642 0.165078
O O12 0.000000 0.000000 0.000000
#
# Coordination Sequence:
#
# PCOD8140294 Si02
#       6
#     8   8   8   4   8   8
#     4   9  18  40  62  84 124 164 200 244 324 370
#     4  10  24  40  63  95 124 159 219 255 314 379
#     4  11  23  40  63  95 124 165 210 261 310 383
#     4  12  22  38  66  90 122 166 210 256 314 366
#     4  10  22  42  63  87 124 167 204 264 312 373
#     4  10  20  41  63  87 128 170 199 255 320 373
#
# _framework density 20.147064
#
# number of rings (size 3 to 8) (size 9 to 14) (size 15 to 20)
#    0.000    1.818    3.636    1.091    2.545    1.455 
#    0.000    0.000    0.000    0.000    0.000    0.000 
#    0.000    0.000    0.000    0.000    0.000    0.000 
#
# Total GULP energy -272675.496769 kJ/mol
# GULP energy per Si atom -12394.340762 kJ/mol
# Density = 2.010121 g / cm^3
# Si number density = 20.147064 Si / 1000 Ang^3
#
#
#
# Elastic Constant Matrix: (Units=GPa)
#
#
# Indices 1 2 3 4 5 6 
#
# 1 49.8991 34.0851 45.8599 0.0000 -4.1566 0.0000
# 2 34.0851 123.0116 59.5448 0.0000 11.1776 0.0001
# 3 45.8599 59.5448 111.0627 0.0000 13.9572 0.0000
# 4 0.0000 0.0000 0.0000 31.6335 0.0000 -0.3081
# 5 -4.1566 11.1776 13.9572 0.0000 33.8767 0.0000
# 6 0.0000 0.0001 0.0000 -0.3081 0.0000 18.8839
#
#
#
# Elastic Compliance Matrix: (Units=1/GPa)
#
#
# Indices 1 2 3 4 5 6 
#
# 1 0.037522 -0.004403 -0.014653 0.000000 0.012094 0.000000
# 2 -0.004403 0.011547 -0.004035 0.000000 -0.002688 0.000000
# 3 -0.014653 -0.004035 0.018219 0.000000 -0.007973 0.000000
# 4 0.000000 0.000000 0.000000 0.031617 0.000000 0.000516
# 5 0.012094 -0.002688 -0.007973 0.000000 0.035174 0.000000
# 6 0.000000 0.000000 0.000000 0.000516 0.000000 0.052963
#
#
# Mechanical properties :
#
#
# Convention : Reuss Voigt Hill
#
# Bulk Modulus (GPa) = 47.37726 62.55033 54.96380
# Shear Modulus (GPa) = 20.81082 26.51108 23.66095
#
# Velocity S-wave (km/s) = 3.21743 3.63144 3.43069
# Velocity P-wave (km/s) = 6.11304 6.97835 6.55998
#
# Compressibility (1/GPa) = 0.02110717
#
# Stress axis : x y z
#
# Youngs Moduli (GPa) = 26.65097 86.60554 54.88650
#
# Poissons Ratio (x) = 0.38133 0.80424
# Poissons Ratio (y) = 0.11735 0.22145
# Poissons Ratio (z) = 0.39051 0.34943
#
# Static dielectric constant tensor:
#      x y z
#    x 1.393390 0.000000 -1.015920 
#    y 0.000000 4.072220 0.000000 
#    z -1.015920 0.000000 2.952980 
# 
# 
# High freq. dielectric constant tensor:
#      x y z
#    x 1.760040 0.000000 0.018930 
#    y 0.000000 1.804550 0.000000 
#    z 0.018930 0.000000 1.796050 
# 
# From -- ./inp_files/159644.got.cif
#   From: 2010.06.25/outbox.cif.g09.slc.cpg/sg15_80_cif.got.tgz:159644.got - 2010.06.28 07:06:18.
