data_PCOD8140672
_publ_section_title
;
Structure prediction by ZEFSAII (Michael W. Deem and Ramdas Pophale) SiO2 
 PCOD8140672
Probable space group: C 2/C
;
_chemical_formula_sum "Si O2"
_cell_formula_units_Z 48
_cell_length_a 8.768821
_cell_length_b 16.172459
_cell_length_c 27.835033
_cell_angle_alpha 90.000000
_cell_angle_beta 142.272115
_cell_angle_gamma 90.000000
_cell_volume 2415.449743
_symmetry_space_group_name_H-M "C 2/C"
_symmetry_group_IT_number 15
_symmetry_cell_setting 'monoclinic'
loop_
_space_group_symop_operation_xyz
x,y,z
-x,y,1/2-z
-x,-y,-z
x,-y,1/2+z
1/2+x,1/2+y,z
1/2-x,1/2+y,1/2-z
1/2-x,1/2-y,-z
1/2+x,1/2-y,1/2+z
loop_
_atom_site_type_symbol
_atom_site_label
_atom_site_fract_x
_atom_site_fract_y
_atom_site_fract_z
Si Si1 0.816071 0.765579 0.071458
Si Si2 0.440676 0.342754 0.666662
Si Si3 0.089889 0.608972 0.163012
Si Si4 0.668975 0.835209 0.502785
Si Si5 0.761602 0.544949 0.567259
Si Si6 0.688490 0.163858 0.833673
O O1 0.605840 0.819957 0.044625
O O2 0.867189 0.677248 0.110241
O O3 0.066983 0.818338 0.136597
O O4 0.750000 0.750000 0.000000
O O5 0.716503 0.379610 0.744645
O O6 0.234958 0.385137 0.648932
O O7 0.365179 0.359676 0.593052
O O8 0.447361 0.246035 0.680875
O O9 0.975647 0.518097 0.136428
O O10 0.750000 0.750000 0.500000
O O11 0.666221 0.910616 0.464636
O O12 0.500000 0.500000 0.500000
O O13 0.735359 0.612346 0.601603
O O14 0.500000 0.117938 0.750000
#
# Coordination Sequence:
#
# PCOD8140672 Si02
#       6
#     8   8   8   8   8   8
#     4  11  19  39  70  92 124 178 223 257 323 405
#     4  10  20  42  69  90 127 176 220 258 324 402
#     4  10  21  42  63  95 132 169 211 277 328 380
#     4  12  23  40  69 100 127 171 226 271 321 399
#     4  12  27  43  63 101 140 163 217 289 332 378
#     4  11  21  44  69  92 127 180 219 261 329 403
#
# _framework density 19.872074999999999
#
# number of rings (size 3 to 8) (size 9 to 14) (size 15 to 20)
#    0.000    1.000    8.333    2.000    0.000    2.000 
#    6.000    4.167    0.000    0.000    0.000    0.000 
#    0.000    0.000    0.000    0.000    0.000    0.000 
#
# Total GULP energy -297612.004243 kJ/mol
# GULP energy per Si atom -12400.500177 kJ/mol
# Density = 1.982685 g / cm^3
# Si number density = 19.872075 Si / 1000 Ang^3
#
#
#
# Elastic Constant Matrix: (Units=GPa)
#
#
# Indices 1 2 3 4 5 6 
#
# 1 86.4649 50.0182 53.0738 0.0000 1.3827 0.0000
# 2 50.0182 99.7589 50.6504 0.0000 8.0038 0.0000
# 3 53.0738 50.6504 148.4312 0.0003 4.3473 -0.0001
# 4 0.0000 0.0000 0.0003 39.5422 0.0001 -2.4626
# 5 1.3827 8.0038 4.3473 0.0001 29.7704 0.0000
# 6 0.0000 0.0000 -0.0001 -2.4626 0.0000 26.8607
#
#
#
# Elastic Compliance Matrix: (Units=1/GPa)
#
#
# Indices 1 2 3 4 5 6 
#
# 1 0.018217 -0.007181 -0.004113 0.000000 0.001685 0.000000
# 2 -0.007181 0.015170 -0.002510 0.000000 -0.003378 0.000000
# 3 -0.004113 -0.002510 0.009078 0.000000 -0.000460 0.000000
# 4 0.000000 0.000000 0.000000 0.025435 0.000000 0.002332
# 5 0.001685 -0.003378 -0.000460 0.000000 0.034488 0.000000
# 6 0.000000 0.000000 0.000000 0.002332 0.000000 0.037443
#
#
# Mechanical properties :
#
#
# Convention : Reuss Voigt Hill
#
# Bulk Modulus (GPa) = 67.30628 71.34885 69.32757
# Shear Modulus (GPa) = 29.00413 31.29551 30.14982
#
# Velocity S-wave (km/s) = 3.82454 3.97274 3.89935
# Velocity P-wave (km/s) = 7.31069 7.55153 7.43208
#
# Compressibility (1/GPa) = 0.01485745
#
# Stress axis : x y z
#
# Youngs Moduli (GPa) = 54.89420 65.91941 110.16049
#
# Poissons Ratio (x) = 0.47336 0.45306
# Poissons Ratio (y) = 0.39419 0.27651
# Poissons Ratio (z) = 0.22576 0.16546
#
# Static dielectric constant tensor:
#      x y z
#    x -15.204690 -0.000470 -0.170230 
#    y -0.000470 4.144260 -0.000020 
#    z -0.170230 -0.000020 4.016820 
# 
# 
# High freq. dielectric constant tensor:
#      x y z
#    x 1.763520 0.000000 0.006580 
#    y 0.000000 1.764330 0.000000 
#    z 0.006580 0.000000 1.796380 
# 
# From -- ./inp_files/289092.got.cif
#   From: 2010.06.25/outbox.cif.g09.slc.cpg/sg15_145_cif.got.tgz:289092.got - 2010.06.28 07:06:18.
