data_PCOD8140716
_publ_section_title
;
Structure prediction by ZEFSAII (Michael W. Deem and Ramdas Pophale) SiO2 
 PCOD8140716
Probable space group: C 2/C
;
_chemical_formula_sum "Si O2"
_cell_formula_units_Z 44
_cell_length_a 30.258732
_cell_length_b 8.663843
_cell_length_c 24.434312
_cell_angle_alpha 90.000000
_cell_angle_beta 162.138322
_cell_angle_gamma 90.000000
_cell_volume 1964.733373
_symmetry_space_group_name_H-M "C 2/C"
_symmetry_group_IT_number 15
_symmetry_cell_setting 'monoclinic'
loop_
_space_group_symop_operation_xyz
x,y,z
-x,y,1/2-z
-x,-y,-z
x,-y,1/2+z
1/2+x,1/2+y,z
1/2-x,1/2+y,1/2-z
1/2-x,1/2-y,-z
1/2+x,1/2-y,1/2+z
loop_
_atom_site_type_symbol
_atom_site_label
_atom_site_fract_x
_atom_site_fract_y
_atom_site_fract_z
Si Si1 0.190918 0.643472 0.355284
Si Si2 0.850573 0.393644 0.102323
Si Si3 0.148499 0.585840 0.180240
Si Si4 0.905211 0.022488 0.748829
Si Si5 0.000000 0.906162 0.250000
Si Si6 0.090046 0.914297 0.061348
O O1 0.127125 0.506962 0.318604
O O2 0.202604 0.587129 0.306514
O O3 0.084005 0.791693 0.228952
O O4 0.351857 0.692667 0.566879
O O5 0.000000 0.344252 0.250000
O O6 0.750000 0.250000 0.000000
O O7 0.763316 0.480870 0.951262
O O8 0.131411 0.750434 0.132982
O O9 0.262962 0.500126 0.277847
O O10 0.000000 0.500000 0.000000
O O11 0.978391 0.983394 0.776672
O O12 0.987812 0.912207 0.887939
O O13 0.000000 0.000000 0.000000
#
# Coordination Sequence:
#
# PCOD8140716 Si02
#       6
#     8   8   8   8   4   8
#     4  11  25  45  76 106 150 196 255 307 383 465
#     4  11  28  46  73 112 151 197 247 313 383 448
#     4  12  28  49  77 109 150 205 258 323 388 464
#     4  11  25  44  76 105 150 195 253 311 379 464
#     4  10  20  42  72 108 146 190 242 316 378 450
#     4  12  26  50  74 110 150 201 261 319 391 464
#
# _framework density 22.394895000000002
#
# number of rings (size 3 to 8) (size 9 to 14) (size 15 to 20)
#    0.000    0.727    3.636    3.273   12.727    1.455 
#    0.000    0.000    0.000    0.000    0.000    0.000 
#    0.000    0.000    0.000    0.000    0.000    0.000 
#
# Total GULP energy -272681.356543 kJ/mol
# GULP energy per Si atom -12394.607116 kJ/mol
# Density = 2.234392 g / cm^3
# Si number density = 22.394895 Si / 1000 Ang^3
#
#
#
# Elastic Constant Matrix: (Units=GPa)
#
#
# Indices 1 2 3 4 5 6 
#
# 1 159.6729 63.0903 80.5846 -0.0004 11.1488 -0.0002
# 2 63.0903 136.4088 51.3914 -0.0006 8.3847 -0.0005
# 3 80.5846 51.3914 135.0950 -0.0011 7.7287 -0.0010
# 4 -0.0004 -0.0006 -0.0011 27.6927 -0.0008 1.6891
# 5 11.1488 8.3847 7.7287 -0.0008 55.5050 -0.0006
# 6 -0.0002 -0.0005 -0.0010 1.6891 -0.0006 35.6405
#
#
#
# Elastic Compliance Matrix: (Units=1/GPa)
#
#
# Indices 1 2 3 4 5 6 
#
# 1 0.009790 -0.002676 -0.004771 0.000000 -0.000898 0.000000
# 2 -0.002676 0.009328 -0.001918 0.000000 -0.000605 0.000000
# 3 -0.004771 -0.001918 0.010994 0.000000 -0.000283 0.000000
# 4 0.000000 0.000000 0.000000 0.036215 0.000000 -0.001716
# 5 -0.000898 -0.000605 -0.000283 0.000000 0.018327 0.000000
# 6 0.000000 0.000000 0.000000 -0.001716 0.000000 0.028139
#
#
# Mechanical properties :
#
#
# Convention : Reuss Voigt Hill
#
# Bulk Modulus (GPa) = 87.84508 91.25661 89.55085
# Shear Modulus (GPa) = 36.95009 39.50835 38.22922
#
# Velocity S-wave (km/s) = 4.06634 4.20476 4.13613
# Velocity P-wave (km/s) = 7.83310 8.02562 7.92995
#
# Compressibility (1/GPa) = 0.01138368
#
# Stress axis : x y z
#
# Youngs Moduli (GPa) = 102.14017 107.20276 90.96034
#
# Poissons Ratio (x) = 0.28683 0.43396
# Poissons Ratio (y) = 0.27328 0.17445
# Poissons Ratio (z) = 0.48730 0.20561
#
# Static dielectric constant tensor:
#      x y z
#    x 4.351740 0.000000 0.013720 
#    y 0.000000 4.011970 0.000000 
#    z 0.013720 0.000000 4.190530 
# 
# 
# High freq. dielectric constant tensor:
#      x y z
#    x 1.898540 0.000000 0.002960 
#    y 0.000000 1.877050 0.000000 
#    z 0.002960 0.000000 1.892430 
# 
# From -- ./inp_files/284489.got.cif
#   From: 2010.06.25/outbox.cif.g09.slc.cpg/sg15_143_cif.got.tgz:284489.got - 2010.06.28 07:06:18.
