data_PCOD8140598
_publ_section_title
;
Structure prediction by ZEFSAII (Michael W. Deem and Ramdas Pophale) SiO2 
 PCOD8140598
Probable space group: C 2/C
;
_chemical_formula_sum "Si O2"
_cell_formula_units_Z 44
_cell_length_a 7.671564
_cell_length_b 25.872080
_cell_length_c 16.383136
_cell_angle_alpha 90.000000
_cell_angle_beta 41.676604
_cell_angle_gamma 90.000000
_cell_volume 2162.147063
_symmetry_space_group_name_H-M "C 2/C"
_symmetry_group_IT_number 15
_symmetry_cell_setting 'monoclinic'
loop_
_space_group_symop_operation_xyz
x,y,z
-x,y,1/2-z
-x,-y,-z
x,-y,1/2+z
1/2+x,1/2+y,z
1/2-x,1/2+y,1/2-z
1/2-x,1/2-y,-z
1/2+x,1/2-y,1/2+z
loop_
_atom_site_type_symbol
_atom_site_label
_atom_site_fract_x
_atom_site_fract_y
_atom_site_fract_z
Si Si1 0.474623 0.118475 0.037601
Si Si2 0.086484 0.036173 0.128097
Si Si3 0.261061 0.371712 0.707896
Si Si4 0.010077 0.077425 0.843936
Si Si5 0.500000 0.865852 0.250000
Si Si6 0.253858 0.189402 0.987155
O O1 0.371408 0.064885 0.029933
O O2 0.290301 0.133367 0.177681
O O3 0.457312 0.165178 0.980105
O O4 0.775795 0.113418 0.960124
O O5 0.000000 0.028149 0.250000
O O6 0.887720 0.072214 0.146461
O O7 0.067934 0.979562 0.094190
O O8 0.458974 0.328085 0.608974
O O9 0.000000 0.364574 0.750000
O O10 0.289784 0.096584 0.779261
O O11 0.000000 0.080371 0.750000
O O12 0.653099 0.828278 0.134884
O O13 0.250000 0.250000 0.000000
#
# Coordination Sequence:
#
# PCOD8140598 Si02
#       6
#     8   8   8   8   4   8
#     4  10  20  42  66  91 131 174 215 267 317 378
#     4   8  18  34  64  92 130 176 206 255 321 377
#     4  10  21  41  63  97 126 167 226 261 306 393
#     4  11  21  40  62  99 141 170 207 263 326 381
#     4  12  26  42  66 102 130 168 216 264 326 394
#     4  11  25  45  67  91 127 169 217 276 326 378
#
# _framework density 20.350142000000002
#
# number of rings (size 3 to 8) (size 9 to 14) (size 15 to 20)
#    0.000    1.818    1.818    3.273    3.818    0.000 
#    3.273    6.364    0.000    0.000    0.000    0.000 
#    0.000    0.000    0.000    0.000    0.000    0.000 
#
# Total GULP energy -272704.940989 kJ/mol
# GULP energy per Si atom -12395.679136 kJ/mol
# Density = 2.030382 g / cm^3
# Si number density = 20.350142 Si / 1000 Ang^3
#
#
#
# Elastic Constant Matrix: (Units=GPa)
#
#
# Indices 1 2 3 4 5 6 
#
# 1 121.8322 69.8882 45.6640 0.0000 -24.1961 0.0000
# 2 69.8882 153.3722 51.3398 0.0000 -7.8845 0.0000
# 3 45.6640 51.3398 108.8358 0.0000 -10.2812 0.0001
# 4 0.0000 0.0000 0.0000 22.4347 0.0000 3.4212
# 5 -24.1961 -7.8845 -10.2812 0.0000 40.5879 0.0000
# 6 0.0000 0.0000 0.0001 3.4212 0.0000 12.6535
#
#
#
# Elastic Compliance Matrix: (Units=1/GPa)
#
#
# Indices 1 2 3 4 5 6 
#
# 1 0.013212 -0.004799 -0.002688 0.000000 0.006263 0.000000
# 2 -0.004799 0.009500 -0.002626 0.000000 -0.001681 0.000000
# 3 -0.002688 -0.002626 0.011634 0.000000 0.000834 0.000000
# 4 0.000000 0.000000 0.000000 0.046491 0.000000 -0.012570
# 5 0.006263 -0.001681 0.000834 0.000000 0.028256 0.000000
# 6 0.000000 0.000000 0.000000 -0.012570 0.000000 0.082428
#
#
# Mechanical properties :
#
#
# Convention : Reuss Voigt Hill
#
# Bulk Modulus (GPa) = 70.82713 79.75824 75.29268
# Shear Modulus (GPa) = 23.09966 29.61178 26.35572
#
# Velocity S-wave (km/s) = 3.37280 3.81873 3.60267
# Velocity P-wave (km/s) = 7.07442 7.66301 7.37459
#
# Compressibility (1/GPa) = 0.01411888
#
# Stress axis : x y z
#
# Youngs Moduli (GPa) = 75.68781 105.26838 85.95666
#
# Poissons Ratio (x) = 0.50515 0.23106
# Poissons Ratio (y) = 0.36320 0.22576
# Poissons Ratio (z) = 0.20346 0.27649
#
# Static dielectric constant tensor:
#      x y z
#    x 3.693730 0.000000 -0.110940 
#    y 0.000000 3.658150 0.000000 
#    z -0.110940 0.000000 3.904790 
# 
# 
# High freq. dielectric constant tensor:
#      x y z
#    x 1.792790 0.000000 -0.008030 
#    y 0.000000 1.779530 0.000000 
#    z -0.008030 0.000000 1.803040 
# 
# From -- ./inp_files/193150.got.cif
#   From: 2010.06.25/outbox.cif.g09.slc.cpg/sg15_97_cif.got.tgz:193150.got - 2010.06.28 07:06:18.
