data_PCOD8140803
_publ_section_title
;
Structure prediction by ZEFSAII (Michael W. Deem and Ramdas Pophale) SiO2 
 PCOD8140803
Probable space group: C 2/C
;
_chemical_formula_sum "Si O2"
_cell_formula_units_Z 60
_cell_length_a 21.178736
_cell_length_b 25.619324
_cell_length_c 7.644854
_cell_angle_alpha 90.000000
_cell_angle_beta 134.422181
_cell_angle_gamma 90.000000
_cell_volume 2962.496305
_symmetry_space_group_name_H-M "C 2/C"
_symmetry_group_IT_number 15
_symmetry_cell_setting 'monoclinic'
loop_
_space_group_symop_operation_xyz
x,y,z
-x,y,1/2-z
-x,-y,-z
x,-y,1/2+z
1/2+x,1/2+y,z
1/2-x,1/2+y,1/2-z
1/2-x,1/2-y,-z
1/2+x,1/2-y,1/2+z
loop_
_atom_site_type_symbol
_atom_site_label
_atom_site_fract_x
_atom_site_fract_y
_atom_site_fract_z
Si Si1 0.348464 0.734288 0.639765
Si Si2 0.000000 0.616267 0.250000
Si Si3 0.310287 0.098904 0.801334
Si Si4 0.828415 0.940202 0.695757
Si Si5 0.827429 0.717978 0.740209
Si Si6 0.992859 0.693023 0.548733
Si Si7 0.149269 0.943021 0.145218
Si Si8 0.593984 0.623366 0.846618
O O1 0.250000 0.750000 0.500000
O O2 0.367050 0.752274 0.481218
O O3 0.361892 0.672272 0.665307
O O4 0.418621 0.761732 0.904878
O O5 0.087257 0.582775 0.466316
O O6 0.971164 0.651585 0.357156
O O7 0.274650 0.067292 0.561452
O O8 0.297340 0.160326 0.739462
O O9 0.248488 0.082627 0.847545
O O10 0.844915 0.995383 0.815948
O O11 0.847715 0.896466 0.877858
O O12 0.885753 0.933776 0.624128
O O13 0.750000 0.750000 0.500000
O O14 0.910328 0.717988 0.773844
O O15 0.000000 0.664410 0.750000
O O16 0.086948 0.919352 0.176303
O O17 0.500000 0.636399 0.750000
#
# Coordination Sequence:
#
# PCOD8140803 Si02
#       8
#     8   4   8   8   8   8   8   8
#     4  12  24  41  62  92 134 173 216 265 317 389
#     4  10  20  44  60  94 130 164 216 272 312 392
#     4   9  20  38  66  88 125 171 209 268 321 392
#     4  10  22  44  67  93 126 175 215 273 341 390
#     4  11  20  38  60  91 129 166 210 260 316 383
#     4  11  22  39  60  86 127 173 209 258 314 375
#     4  10  22  44  65  92 127 172 214 273 336 398
#     4  12  25  41  66  99 131 170 223 275 319 393
#
# _framework density 20.253191000000001
#
# number of rings (size 3 to 8) (size 9 to 14) (size 15 to 20)
#    0.800    0.533    4.000    3.200    0.000    2.133 
#    2.400    0.667    0.000    0.000    0.000    0.000 
#    0.000    0.000    0.000    0.000    0.000    0.000 
#
# Total GULP energy -371671.591605 kJ/mol
# GULP energy per Si atom -12389.053054 kJ/mol
# Density = 2.020709 g / cm^3
# Si number density = 20.253191 Si / 1000 Ang^3
#
#
#
# Elastic Constant Matrix: (Units=GPa)
#
#
# Indices 1 2 3 4 5 6 
#
# 1 96.5495 14.8238 38.0400 0.0000 -1.2126 0.0000
# 2 14.8238 63.1475 14.5142 0.0000 1.7243 0.0000
# 3 38.0400 14.5142 85.2255 0.0000 -5.7871 0.0000
# 4 0.0000 0.0000 0.0000 17.5449 0.0000 -0.3727
# 5 -1.2126 1.7243 -5.7871 0.0000 47.1736 0.0000
# 6 0.0000 0.0000 0.0000 -0.3727 0.0000 18.8801
#
#
#
# Elastic Compliance Matrix: (Units=1/GPa)
#
#
# Indices 1 2 3 4 5 6 
#
# 1 0.012755 -0.001742 -0.005415 0.000000 -0.000273 0.000000
# 2 -0.001742 0.016762 -0.002139 0.000000 -0.000920 0.000000
# 3 -0.005415 -0.002139 0.014633 0.000000 0.001734 0.000000
# 4 0.000000 0.000000 0.000000 0.057021 0.000000 0.001126
# 5 -0.000273 -0.000920 0.001734 0.000000 0.021438 0.000000
# 6 0.000000 0.000000 0.000000 0.001126 0.000000 0.052988
#
#
# Mechanical properties :
#
#
# Convention : Reuss Voigt Hill
#
# Bulk Modulus (GPa) = 39.12939 42.18650 40.65795
# Shear Modulus (GPa) = 24.66611 28.55602 26.61107
#
# Velocity S-wave (km/s) = 3.49361 3.75901 3.62874
# Velocity P-wave (km/s) = 5.96957 6.30198 6.13803
#
# Compressibility (1/GPa) = 0.02555623
#
# Stress axis : x y z
#
# Youngs Moduli (GPa) = 78.40134 59.65958 68.34054
#
# Poissons Ratio (x) = 0.10394 0.37006
# Poissons Ratio (y) = 0.13659 0.14621
# Poissons Ratio (z) = 0.42454 0.12764
#
# Static dielectric constant tensor:
#      x y z
#    x 3.689990 0.000000 -0.190920 
#    y 0.000000 3.388230 0.000000 
#    z -0.190920 0.000000 3.952190 
# 
# 
# High freq. dielectric constant tensor:
#      x y z
#    x 1.793970 0.000000 -0.008300 
#    y 0.000000 1.774120 0.000000 
#    z -0.008300 0.000000 1.794520 
# 
# From -- ./inp_files/58788.got.cif
#   From: 2010.06.25/outbox.cif.g09.slc.cpg/sg15_30_cif.got.tgz:58788.got - 2010.06.28 07:06:18.
