data_PCOD8140510
_publ_section_title
;
Structure prediction by ZEFSAII (Michael W. Deem and Ramdas Pophale) SiO2 
 PCOD8140510
Probable space group: C 2/C
;
_chemical_formula_sum "Si O2"
_cell_formula_units_Z 56
_cell_length_a 25.712916
_cell_length_b 9.153634
_cell_length_c 18.098728
_cell_angle_alpha 90.000000
_cell_angle_beta 44.651859
_cell_angle_gamma 90.000000
_cell_volume 2993.801263
_symmetry_space_group_name_H-M "C 2/C"
_symmetry_group_IT_number 15
_symmetry_cell_setting 'monoclinic'
loop_
_space_group_symop_operation_xyz
x,y,z
-x,y,1/2-z
-x,-y,-z
x,-y,1/2+z
1/2+x,1/2+y,z
1/2-x,1/2+y,1/2-z
1/2-x,1/2-y,-z
1/2+x,1/2-y,1/2+z
loop_
_atom_site_type_symbol
_atom_site_label
_atom_site_fract_x
_atom_site_fract_y
_atom_site_fract_z
Si Si1 0.536974 0.057321 0.387429
Si Si2 0.255932 0.992913 0.668288
Si Si3 0.423570 0.890150 0.289847
Si Si4 0.690065 0.644286 0.092955
Si Si5 0.210184 0.857041 0.984524
Si Si6 0.806852 0.310400 0.752237
Si Si7 0.107764 0.611293 0.052785
O O1 0.603894 0.168881 0.338466
O O2 0.473982 0.128695 0.398926
O O3 0.500000 0.000000 0.500000
O O4 0.571217 0.928393 0.302554
O O5 0.208945 0.905431 0.655964
O O6 0.265215 0.887460 0.727473
O O7 0.210367 0.138515 0.734512
O O8 0.338465 0.027381 0.557494
O O9 0.500000 0.853822 0.250000
O O10 0.384679 0.734625 0.332585
O O11 0.387683 0.023706 0.373621
O O12 0.750000 0.750000 0.000000
O O13 0.682757 0.505758 0.047496
O O14 0.270042 0.887264 0.860375
O O15 0.250000 0.750000 0.000000
O O16 0.135922 0.776527 0.032624
#
# Coordination Sequence:
#
# PCOD8140510 Si02
#       7
#     8   8   8   8   8   8   8
#     4  11  22  39  67  87 124 168 207 245 306 380
#     4  11  24  38  64  92 125 159 209 255 312 366
#     4  10  23  39  61  92 122 163 205 250 311 374
#     4  12  22  39  67  91 126 160 206 266 311 363
#     4  11  21  40  64  94 121 158 212 262 307 370
#     4  11  24  40  61  96 122 161 211 255 311 367
#     4  10  20  42  62  90 121 159 211 252 307 374
#
# _framework density 18.705316
#
# number of rings (size 3 to 8) (size 9 to 14) (size 15 to 20)
#    0.000    1.143    5.714    1.714    4.000    0.000 
#    2.571    0.000    0.000    4.286    0.000    0.000 
#    0.000    0.000    0.000    0.000    0.000    0.000 
#
# Total GULP energy -347124.618310 kJ/mol
# GULP energy per Si atom -12397.307797 kJ/mol
# Density = 1.866274 g / cm^3
# Si number density = 18.705316 Si / 1000 Ang^3
#
#
#
# Elastic Constant Matrix: (Units=GPa)
#
#
# Indices 1 2 3 4 5 6 
#
# 1 91.4388 56.0066 45.8023 0.0024 6.0490 -0.0027
# 2 56.0066 113.9651 65.4190 0.0035 1.2609 -0.0046
# 3 45.8023 65.4190 122.4017 -0.0001 10.8002 -0.0019
# 4 0.0024 0.0035 -0.0001 39.7723 0.0000 3.8275
# 5 6.0490 1.2609 10.8002 0.0000 40.2649 0.0009
# 6 -0.0027 -0.0046 -0.0019 3.8275 0.0009 26.2645
#
#
#
# Elastic Compliance Matrix: (Units=1/GPa)
#
#
# Indices 1 2 3 4 5 6 
#
# 1 0.016301 -0.006596 -0.002434 0.000000 -0.001589 0.000000
# 2 -0.006596 0.015410 -0.005954 -0.000001 0.002105 0.000002
# 3 -0.002434 -0.005954 0.012510 0.000001 -0.002803 0.000000
# 4 0.000000 -0.000001 0.000001 0.025501 0.000000 -0.003716
# 5 -0.001589 0.002105 -0.002803 0.000000 0.025760 -0.000001
# 6 0.000000 0.000002 0.000000 -0.003716 -0.000001 0.038616
#
#
# Mechanical properties :
#
#
# Convention : Reuss Voigt Hill
#
# Bulk Modulus (GPa) = 70.15865 73.58460 71.87162
# Shear Modulus (GPa) = 29.61782 31.96553 30.79167
#
# Velocity S-wave (km/s) = 3.98350 4.13837 4.06167
# Velocity P-wave (km/s) = 7.66462 7.89044 7.77835
#
# Compressibility (1/GPa) = 0.01425341
#
# Stress axis : x y z
#
# Youngs Moduli (GPa) = 61.34697 64.89094 79.93485
#
# Poissons Ratio (x) = 0.42801 0.19458
# Poissons Ratio (y) = 0.40464 0.47592
# Poissons Ratio (z) = 0.14933 0.38635
#
# Static dielectric constant tensor:
#      x y z
#    x 3.688800 0.000000 -0.019350 
#    y 0.000000 2.782950 0.000010 
#    z -0.019350 0.000010 3.653470 
# 
# 
# High freq. dielectric constant tensor:
#      x y z
#    x 1.738340 0.000000 0.003970 
#    y 0.000000 1.717070 0.000000 
#    z 0.003970 0.000000 1.736950 
# 
# From -- ./inp_files/218524.got.cif
#   From: 2010.06.25/outbox.cif.g09.slc.cpg/sg15_110_cif.got.tgz:218524.got - 2010.06.28 07:06:18.
