data_PCOD8140936
_publ_section_title
;
Structure prediction by ZEFSAII (Michael W. Deem and Ramdas Pophale) SiO2 
 PCOD8140936
Probable space group: C 2/C
;
_chemical_formula_sum "Si O2"
_cell_formula_units_Z 40
_cell_length_a 25.136510
_cell_length_b 8.465807
_cell_length_c 18.628297
_cell_angle_alpha 90.000000
_cell_angle_beta 32.449150
_cell_angle_gamma 90.000000
_cell_volume 2126.950649
_symmetry_space_group_name_H-M "C 2/C"
_symmetry_group_IT_number 15
_symmetry_cell_setting 'monoclinic'
loop_
_space_group_symop_operation_xyz
x,y,z
-x,y,1/2-z
-x,-y,-z
x,-y,1/2+z
1/2+x,1/2+y,z
1/2-x,1/2+y,1/2-z
1/2-x,1/2-y,-z
1/2+x,1/2-y,1/2+z
loop_
_atom_site_type_symbol
_atom_site_label
_atom_site_fract_x
_atom_site_fract_y
_atom_site_fract_z
Si Si1 0.873814 0.598722 0.687846
Si Si2 0.500073 0.576141 0.829616
Si Si3 0.645978 0.376738 0.429413
Si Si4 0.946770 0.743505 0.095132
Si Si5 0.017427 0.725677 0.808540
O O1 0.761923 0.651635 0.802050
O O2 0.882182 0.414487 0.660947
O O3 0.941757 0.707443 0.559223
O O4 0.903448 0.623106 0.737500
O O5 0.500000 0.653704 0.750000
O O6 0.553506 0.697120 0.822487
O O7 0.558065 0.407517 0.757185
O O8 0.390008 0.536188 0.987736
O O9 0.606621 0.379565 0.391740
O O10 0.589479 0.225316 0.529323
O O11 0.000000 0.650627 0.750000
#
# Coordination Sequence:
#
# PCOD8140936 Si02
#       5
#     8   8   8   8   8
#     4  10  21  33  55  82 108 134 181 219 264 309
#     4   9  19  38  56  73 108 146 173 213 267 316
#     4   9  19  33  58  77 104 142 178 212 263 319
#     4  10  21  35  54  81 107 137 174 229 259 306
#     4   8  18  35  53  77 110 143 170 216 264 311
#
# _framework density 18.806266000000001
#
# number of rings (size 3 to 8) (size 9 to 14) (size 15 to 20)
#    1.200    1.600    0.000    0.600    2.800    1.600 
#    0.000    1.000    0.000    0.000    0.000    0.000 
#    0.000    0.000    0.000    0.000    0.000    0.000 
#
# Total GULP energy -247788.786295 kJ/mol
# GULP energy per Si atom -12389.439315 kJ/mol
# Density = 1.876346 g / cm^3
# Si number density = 18.806266 Si / 1000 Ang^3
#
#
#
# Elastic Constant Matrix: (Units=GPa)
#
#
# Indices 1 2 3 4 5 6 
#
# 1 161.9654 35.0841 74.9793 -0.0011 19.2014 0.0009
# 2 35.0841 38.7022 23.6464 -0.0140 1.4773 0.0055
# 3 74.9793 23.6464 80.0773 -0.0084 -13.9899 0.0025
# 4 -0.0011 -0.0140 -0.0084 12.7545 0.0032 5.1478
# 5 19.2014 1.4773 -13.9899 0.0032 41.3446 -0.0006
# 6 0.0009 0.0055 0.0025 5.1478 -0.0006 29.4505
#
#
#
# Elastic Compliance Matrix: (Units=1/GPa)
#
#
# Indices 1 2 3 4 5 6 
#
# 1 0.015944 -0.004274 -0.015873 -0.000012 -0.012623 0.000004
# 2 -0.004274 0.033497 -0.006113 0.000037 -0.001280 -0.000012
# 3 -0.015873 -0.006113 0.032396 0.000010 0.018552 -0.000002
# 4 -0.000012 0.000037 0.000010 0.084355 0.000001 -0.014745
# 5 -0.012623 -0.001280 0.018552 0.000001 0.036373 0.000000
# 6 0.000004 -0.000012 -0.000002 -0.014745 0.000000 0.036533
#
#
# Mechanical properties :
#
#
# Convention : Reuss Voigt Hill
#
# Bulk Modulus (GPa) = 34.10873 60.90717 47.50795
# Shear Modulus (GPa) = 16.58980 26.51225 21.55102
#
# Velocity S-wave (km/s) = 2.97331 3.75875 3.38886
# Velocity P-wave (km/s) = 5.47391 7.16202 6.37410
#
# Compressibility (1/GPa) = 0.02931800
#
# Stress axis : x y z
#
# Youngs Moduli (GPa) = 62.71777 29.85360 30.86778
#
# Poissons Ratio (x) = 0.12760 0.48995
# Poissons Ratio (y) = 0.26807 0.18869
# Poissons Ratio (z) = 0.99549 0.18249
#
# Static dielectric constant tensor:
#      x y z
#    x 3.351840 0.000000 0.244290 
#    y 0.000000 3.086090 0.000010 
#    z 0.244290 0.000010 3.219730 
# 
# 
# High freq. dielectric constant tensor:
#      x y z
#    x 1.732720 0.000000 0.019130 
#    y 0.000000 1.702620 0.000000 
#    z 0.019130 0.000000 1.704010 
# 
# From -- ./inp_files/213686.got.cif
#   From: 2010.06.25/outbox.cif.g09.slc.cpg/sg15_107_cif.got.tgz:213686.got - 2010.06.28 07:06:18.
