data_PCOD8140736
_publ_section_title
;
Structure prediction by ZEFSAII (Michael W. Deem and Ramdas Pophale) SiO2 
 PCOD8140736
Probable space group: C 2/C
;
_chemical_formula_sum "Si O2"
_cell_formula_units_Z 52
_cell_length_a 27.254311
_cell_length_b 10.699643
_cell_length_c 8.625154
_cell_angle_alpha 90.000000
_cell_angle_beta 89.582852
_cell_angle_gamma 90.000000
_cell_volume 2515.126554
_symmetry_space_group_name_H-M "C 2/C"
_symmetry_group_IT_number 15
_symmetry_cell_setting 'monoclinic'
loop_
_space_group_symop_operation_xyz
x,y,z
-x,y,1/2-z
-x,-y,-z
x,-y,1/2+z
1/2+x,1/2+y,z
1/2-x,1/2+y,1/2-z
1/2-x,1/2-y,-z
1/2+x,1/2-y,1/2+z
loop_
_atom_site_type_symbol
_atom_site_label
_atom_site_fract_x
_atom_site_fract_y
_atom_site_fract_z
Si Si1 0.887718 0.833283 0.817825
Si Si2 0.191598 0.836754 0.233224
Si Si3 0.061317 0.618472 0.531049
Si Si4 0.144380 0.034959 0.458985
Si Si5 0.835846 0.584146 0.122585
Si Si6 0.500000 0.059081 0.250000
Si Si7 0.199696 0.646232 0.682107
O O1 0.932219 0.745634 0.871197
O O2 0.893396 0.880935 0.641346
O O3 0.834641 0.767479 0.829085
O O4 0.889323 0.951714 0.930676
O O5 0.179168 0.873247 0.057232
O O6 0.162480 0.709295 0.272831
O O7 0.249544 0.812291 0.243085
O O8 0.177866 0.950222 0.346894
O O9 0.113359 0.566909 0.471337
O O10 0.027600 0.642248 0.379429
O O11 0.039172 0.522425 0.654625
O O12 0.827220 0.461236 0.220950
O O13 0.792622 0.598036 0.994881
#
# Coordination Sequence:
#
# PCOD8140736 Si02
#       7
#     8   8   8   8   8   4   8
#     4  10  22  40  60  87 123 163 209 252 302 373
#     4  11  22  38  56  86 122 174 218 253 297 345
#     4  10  20  43  62 100 122 155 198 245 331 364
#     4  10  22  39  58  82 117 176 208 251 289 360
#     4  11  23  38  58  90 127 164 203 263 299 369
#     4  10  22  40  76  94 126 150 186 268 316 398
#     4  11  23  35  57  86 128 166 213 262 298 347
#
# _framework density 20.674904999999999
#
# number of rings (size 3 to 8) (size 9 to 14) (size 15 to 20)
#    0.000    1.538    3.077    3.231    6.462    0.615 
#    5.538    0.000    0.000    2.769    0.000    0.000 
#    0.000    0.000    0.000    0.000    0.000    0.000 
#
# Total GULP energy -322370.296680 kJ/mol
# GULP energy per Si atom -12398.857565 kJ/mol
# Density = 2.062785 g / cm^3
# Si number density = 20.674905 Si / 1000 Ang^3
#
#
#
# Elastic Constant Matrix: (Units=GPa)
#
#
# Indices 1 2 3 4 5 6 
#
# 1 78.3081 37.5384 37.8245 0.0000 11.3575 0.0000
# 2 37.5384 80.2039 56.3332 0.0000 8.7474 0.0000
# 3 37.8245 56.3332 150.9984 0.0000 24.8550 0.0000
# 4 0.0000 0.0000 0.0000 44.9644 0.0000 8.0527
# 5 11.3575 8.7474 24.8550 0.0000 36.9844 0.0000
# 6 0.0000 0.0000 0.0000 8.0527 0.0000 20.8753
#
#
#
# Elastic Compliance Matrix: (Units=1/GPa)
#
#
# Indices 1 2 3 4 5 6 
#
# 1 0.017038 -0.006768 -0.001288 0.000000 -0.002766 0.000000
# 2 -0.006768 0.019587 -0.005837 0.000000 0.001369 0.000000
# 3 -0.001288 -0.005837 0.009929 0.000000 -0.004897 0.000000
# 4 0.000000 0.000000 0.000000 0.023890 0.000000 -0.009216
# 5 -0.002766 0.001369 -0.004897 0.000000 0.030855 0.000000
# 6 0.000000 0.000000 0.000000 -0.009216 0.000000 0.051458
#
#
# Mechanical properties :
#
#
# Convention : Reuss Voigt Hill
#
# Bulk Modulus (GPa) = 53.28426 63.65583 58.47005
# Shear Modulus (GPa) = 26.76692 32.41912 29.59302
#
# Velocity S-wave (km/s) = 3.60204 3.96415 3.78742
# Velocity P-wave (km/s) = 6.56719 7.19780 6.88972
#
# Compressibility (1/GPa) = 0.01876727
#
# Stress axis : x y z
#
# Youngs Moduli (GPa) = 58.69368 51.05554 100.71774
#
# Poissons Ratio (x) = 0.34556 0.12968
# Poissons Ratio (y) = 0.39725 0.58789
# Poissons Ratio (z) = 0.07557 0.29801
#
# Static dielectric constant tensor:
#      x y z
#    x 3.449820 0.000000 0.232600 
#    y 0.000000 3.763680 0.000000 
#    z 0.232600 0.000000 4.289330 
# 
# 
# High freq. dielectric constant tensor:
#      x y z
#    x 1.773980 0.000000 0.008440 
#    y 0.000000 1.805260 0.000000 
#    z 0.008440 0.000000 1.836420 
# 
# From -- ./inp_files/65184.got.cif
#   From: 2010.06.25/outbox.cif.g09.slc.cpg/sg15_33_cif.got.tgz:65184.got - 2010.06.28 07:06:18.
