data_PCOD8140151
_publ_section_title
;
Structure prediction by ZEFSAII (Michael W. Deem and Ramdas Pophale) SiO2 
 PCOD8140151
Probable space group: C 2/C
;
_chemical_formula_sum "Si O2"
_cell_formula_units_Z 48
_cell_length_a 12.574789
_cell_length_b 13.012312
_cell_length_c 13.557671
_cell_angle_alpha 90.000000
_cell_angle_beta 119.275383
_cell_angle_gamma 90.000000
_cell_volume 1935.066562
_symmetry_space_group_name_H-M "C 2/C"
_symmetry_group_IT_number 15
_symmetry_cell_setting 'monoclinic'
loop_
_space_group_symop_operation_xyz
x,y,z
-x,y,1/2-z
-x,-y,-z
x,-y,1/2+z
1/2+x,1/2+y,z
1/2-x,1/2+y,1/2-z
1/2-x,1/2-y,-z
1/2+x,1/2-y,1/2+z
loop_
_atom_site_type_symbol
_atom_site_label
_atom_site_fract_x
_atom_site_fract_y
_atom_site_fract_z
Si Si1 0.858331 0.395521 0.228611
Si Si2 0.578790 0.718954 0.900227
Si Si3 0.882402 0.704396 0.540040
Si Si4 0.919821 0.098989 0.944338
Si Si5 0.730746 0.258802 0.657741
Si Si6 0.906398 0.604978 0.347512
O O1 0.931046 0.350394 0.163534
O O2 0.723567 0.424461 0.127261
O O3 0.855781 0.311715 0.314556
O O4 0.922739 0.491593 0.310888
O O5 0.461492 0.643974 0.856644
O O6 0.653436 0.695261 0.834804
O O7 0.530597 0.836552 0.872709
O O8 0.661537 0.695039 0.032909
O O9 0.750000 0.750000 0.500000
O O10 0.954030 0.808208 0.537645
O O11 0.888424 0.616075 0.458001
O O12 0.000000 0.000000 0.000000
O O13 0.781066 0.349951 0.747409
#
# Coordination Sequence:
#
# PCOD8140151 Si02
#       6
#     8   8   8   8   8   8
#     4  11  23  40  72  99 136 192 233 285 372 413
#     4  10  23  41  65  97 140 177 235 299 336 431
#     4   9  19  41  65  96 145 178 227 305 342 425
#     4  10  20  40  68 100 135 176 233 295 351 413
#     4  11  22  42  67  94 136 188 232 289 356 422
#     4  11  22  41  69  99 143 183 235 293 360 426
#
# _framework density 24.805347999999999
#
# number of rings (size 3 to 8) (size 9 to 14) (size 15 to 20)
#    0.000    1.667    5.000    1.500    0.000    6.000 
#    0.000    8.333    3.667    0.000    0.000    0.000 
#    0.000    0.000    0.000    0.000    0.000    0.000 
#
# Total GULP energy -297380.523570 kJ/mol
# GULP energy per Si atom -12390.855149 kJ/mol
# Density = 2.474889 g / cm^3
# Si number density = 24.805348 Si / 1000 Ang^3
#
#
#
# Elastic Constant Matrix: (Units=GPa)
#
#
# Indices 1 2 3 4 5 6 
#
# 1 114.9389 35.8159 25.4469 0.0000 -40.0215 0.0000
# 2 35.8159 132.3653 58.3178 0.0000 -15.6640 0.0000
# 3 25.4469 58.3178 171.9503 0.0000 -21.3231 0.0000
# 4 0.0000 0.0000 0.0000 51.6192 0.0000 7.9065
# 5 -40.0215 -15.6640 -21.3231 0.0000 41.4450 0.0000
# 6 0.0000 0.0000 0.0000 7.9065 0.0000 33.7257
#
#
#
# Elastic Compliance Matrix: (Units=1/GPa)
#
#
# Indices 1 2 3 4 5 6 
#
# 1 0.013731 -0.002377 0.000328 0.000000 0.012530 0.000000
# 2 -0.002377 0.009441 -0.002876 0.000000 -0.000207 0.000000
# 3 0.000328 -0.002876 0.007100 0.000000 0.002883 0.000000
# 4 0.000000 0.000000 0.000000 0.020094 0.000000 -0.004711
# 5 0.012530 -0.000207 0.002883 0.000000 0.037633 0.000000
# 6 0.000000 0.000000 0.000000 -0.004711 0.000000 0.030755
#
#
# Mechanical properties :
#
#
# Convention : Reuss Voigt Hill
#
# Bulk Modulus (GPa) = 48.96692 73.15729 61.06210
# Shear Modulus (GPa) = 36.92451 45.33624 41.13037
#
# Velocity S-wave (km/s) = 3.86239 4.27978 4.07643
# Velocity P-wave (km/s) = 6.29873 7.34701 6.84297
#
# Compressibility (1/GPa) = 0.02042195
#
# Stress axis : x y z
#
# Youngs Moduli (GPa) = 72.82607 105.92609 140.84756
#
# Poissons Ratio (x) = 0.25181 -0.04619
# Poissons Ratio (y) = 0.17312 0.40503
# Poissons Ratio (z) = -0.02388 0.30461
#
# Static dielectric constant tensor:
#      x y z
#    x 5.333410 0.000000 -0.093590 
#    y 0.000000 4.342860 0.000000 
#    z -0.093590 0.000000 4.898970 
# 
# 
# High freq. dielectric constant tensor:
#      x y z
#    x 2.024560 0.000000 0.007490 
#    y 0.000000 1.955560 0.000000 
#    z 0.007490 0.000000 2.009340 
# 
# From -- ./inp_files/152741.got.cif
#   From: 2010.06.25/outbox.cif.g09.slc.cpg/sg15_77_cif.got.tgz:152741.got - 2010.06.28 07:06:18.
