data_PCOD8140422
_publ_section_title
;
Structure prediction by ZEFSAII (Michael W. Deem and Ramdas Pophale) SiO2 
 PCOD8140422
Probable space group: C 2/C
;
_chemical_formula_sum "Si O2"
_cell_formula_units_Z 44
_cell_length_a 5.613744
_cell_length_b 27.872070
_cell_length_c 13.255740
_cell_angle_alpha 90.000000
_cell_angle_beta 61.481923
_cell_angle_gamma 90.000000
_cell_volume 1822.425929
_symmetry_space_group_name_H-M "C 2/C"
_symmetry_group_IT_number 15
_symmetry_cell_setting 'monoclinic'
loop_
_space_group_symop_operation_xyz
x,y,z
-x,y,1/2-z
-x,-y,-z
x,-y,1/2+z
1/2+x,1/2+y,z
1/2-x,1/2+y,1/2-z
1/2-x,1/2-y,-z
1/2+x,1/2-y,1/2+z
loop_
_atom_site_type_symbol
_atom_site_label
_atom_site_fract_x
_atom_site_fract_y
_atom_site_fract_z
Si Si1 0.000000 0.992177 0.750000
Si Si2 0.785754 0.084477 0.436792
Si Si3 0.425051 0.757003 0.067077
Si Si4 0.788417 0.838753 0.652547
Si Si5 0.743111 0.857114 0.433345
Si Si6 0.296332 0.424115 0.164656
O O1 0.798937 0.960504 0.859033
O O2 0.814494 0.024735 0.715940
O O3 0.482803 0.102840 0.503145
O O4 0.867808 0.068278 0.532677
O O5 0.979882 0.126258 0.351346
O O6 0.327899 0.717927 0.171725
O O7 0.361428 0.812156 0.113882
O O8 0.250000 0.750000 0.000000
O O9 0.750000 0.750000 0.000000
O O10 0.500000 0.858041 0.750000
O O11 0.826383 0.837697 0.525275
O O12 0.994884 0.884900 0.331830
O O13 0.000000 0.402860 0.250000
#
# Coordination Sequence:
#
# PCOD8140422 Si02
#       6
#     4   8   8   8   8   8
#     4  12  26  44  68 104 136 184 244 304 376 436
#     4  11  23  43  72  96 139 185 234 306 361 440
#     4  10  20  41  68 100 143 188 236 298 360 439
#     4  10  21  39  64 105 137 181 237 291 358 433
#     4  10  22  43  69  96 138 188 232 294 365 434
#     4  11  26  45  66  99 141 185 246 297 367 439
#
# _framework density 24.143640999999999
#
# number of rings (size 3 to 8) (size 9 to 14) (size 15 to 20)
#    0.000    1.455    1.818    2.727    0.000    6.545 
#    4.909    0.000    0.000    0.000    0.000    0.000 
#    0.000    0.000    0.000    0.000    0.000    0.000 
#
# Total GULP energy -272629.044785 kJ/mol
# GULP energy per Si atom -12392.229308 kJ/mol
# Density = 2.408869 g / cm^3
# Si number density = 24.143641 Si / 1000 Ang^3
#
#
#
# Elastic Constant Matrix: (Units=GPa)
#
#
# Indices 1 2 3 4 5 6 
#
# 1 139.8439 66.4433 36.7439 0.0000 -42.7765 0.0000
# 2 66.4433 190.2873 66.0031 0.0000 -23.0966 0.0000
# 3 36.7439 66.0031 96.9530 0.0000 -18.6092 0.0000
# 4 0.0000 0.0000 0.0000 26.7668 0.0000 -11.4042
# 5 -42.7765 -23.0966 -18.6092 0.0000 47.5809 0.0000
# 6 0.0000 0.0000 0.0000 -11.4042 0.0000 26.2279
#
#
#
# Elastic Compliance Matrix: (Units=1/GPa)
#
#
# Indices 1 2 3 4 5 6 
#
# 1 0.011196 -0.002583 -0.000858 0.000000 0.008476 0.000000
# 2 -0.002583 0.007595 -0.004248 0.000000 -0.000297 0.000000
# 3 -0.000858 -0.004248 0.014042 0.000000 0.002658 0.000000
# 4 0.000000 0.000000 0.000000 0.045855 0.000000 0.019938
# 5 0.008476 -0.000297 0.002658 0.000000 0.029533 0.000000
# 6 0.000000 0.000000 0.000000 0.019938 0.000000 0.046797
#
#
# Mechanical properties :
#
#
# Convention : Reuss Voigt Hill
#
# Bulk Modulus (GPa) = 57.29230 85.05163 71.17197
# Shear Modulus (GPa) = 28.37467 37.30803 32.84135
#
# Velocity S-wave (km/s) = 3.43190 3.93523 3.69216
# Velocity P-wave (km/s) = 6.28373 7.48010 6.90786
#
# Compressibility (1/GPa) = 0.01745435
#
# Stress axis : x y z
#
# Youngs Moduli (GPa) = 89.31485 131.67139 71.21595
#
# Poissons Ratio (x) = 0.34012 0.06109
# Poissons Ratio (y) = 0.23071 0.30255
# Poissons Ratio (z) = 0.07661 0.55939
#
# Static dielectric constant tensor:
#      x y z
#    x 4.394010 0.000000 0.174920 
#    y 0.000000 4.901300 0.000000 
#    z 0.174920 0.000000 4.470980 
# 
# 
# High freq. dielectric constant tensor:
#      x y z
#    x 1.958260 0.000000 -0.004280 
#    y 0.000000 1.973280 0.000000 
#    z -0.004280 0.000000 1.946450 
# 
# From -- ./inp_files/73859.got.cif
#   From: 2010.06.25/outbox.cif.g09.slc.cpg/sg15_37_cif.got.tgz:73859.got - 2010.06.28 07:06:18.
