data_PCOD8140435
_publ_section_title
;
Structure prediction by ZEFSAII (Michael W. Deem and Ramdas Pophale) SiO2 
 PCOD8140435
Probable space group: C 2/C
;
_chemical_formula_sum "Si O2"
_cell_formula_units_Z 56
_cell_length_a 17.861145
_cell_length_b 16.217126
_cell_length_c 10.113722
_cell_angle_alpha 90.000000
_cell_angle_beta 125.175204
_cell_angle_gamma 90.000000
_cell_volume 2394.560400
_symmetry_space_group_name_H-M "C 2/C"
_symmetry_group_IT_number 15
_symmetry_cell_setting 'monoclinic'
loop_
_space_group_symop_operation_xyz
x,y,z
-x,y,1/2-z
-x,-y,-z
x,-y,1/2+z
1/2+x,1/2+y,z
1/2-x,1/2+y,1/2-z
1/2-x,1/2-y,-z
1/2+x,1/2-y,1/2+z
loop_
_atom_site_type_symbol
_atom_site_label
_atom_site_fract_x
_atom_site_fract_y
_atom_site_fract_z
Si Si1 0.777318 0.185337 0.420143
Si Si2 0.477968 0.652339 0.585549
Si Si3 0.362564 0.270096 0.392719
Si Si4 0.287265 0.099494 0.718507
Si Si5 0.748671 0.521813 0.947972
Si Si6 0.646021 0.750096 0.339703
Si Si7 0.571698 0.573168 0.207269
O O1 0.750000 0.250000 0.500000
O O2 0.881977 0.200625 0.488143
O O3 0.712179 0.201584 0.227516
O O4 0.763075 0.095172 0.461447
O O5 0.500000 0.613115 0.750000
O O6 0.556700 0.718946 0.630860
O O7 0.478716 0.573140 0.487488
O O8 0.313146 0.359423 0.363864
O O9 0.410591 0.240378 0.579143
O O10 0.307477 0.047265 0.875376
O O11 0.362332 0.173167 0.772241
O O12 0.293031 0.047958 0.586923
O O13 0.649449 0.495392 0.793319
O O14 0.750000 0.750000 0.500000
O O15 0.617317 0.664281 0.245689
O O16 0.500000 0.562661 0.250000
#
# Coordination Sequence:
#
# PCOD8140435 Si02
#       7
#     8   8   8   8   8   8   8
#     4  12  25  43  68  99 149 196 246 303 368 443
#     4  12  23  40  69 103 143 194 243 301 365 433
#     4  11  22  44  67 103 137 194 257 292 361 449
#     4  11  23  39  66 100 142 187 242 298 361 436
#     4  12  25  41  65 107 146 192 238 305 376 441
#     4  10  20  41  68  92 139 189 250 292 342 450
#     4  12  24  43  70 110 150 195 236 300 385 455
#
# _framework density 23.386339
#
# number of rings (size 3 to 8) (size 9 to 14) (size 15 to 20)
#    0.000    0.571    7.143    2.571    2.000    1.714 
#    0.000    5.000    0.000    0.000    3.714    4.000 
#    0.000    0.000    0.000    0.000    0.000    0.000 
#
# Total GULP energy -346948.980357 kJ/mol
# GULP energy per Si atom -12391.035013 kJ/mol
# Density = 2.333311 g / cm^3
# Si number density = 23.386339 Si / 1000 Ang^3
#
#
#
# Elastic Constant Matrix: (Units=GPa)
#
#
# Indices 1 2 3 4 5 6 
#
# 1 88.9923 34.1371 24.8217 0.0000 -27.5137 0.0000
# 2 34.1371 111.9036 34.3142 0.0000 -11.4190 0.0000
# 3 24.8217 34.3142 111.0282 0.0000 -37.3633 0.0000
# 4 0.0000 0.0000 0.0000 31.1415 0.0000 -9.2038
# 5 -27.5137 -11.4190 -37.3633 0.0000 44.3016 0.0000
# 6 0.0000 0.0000 0.0000 -9.2038 0.0000 31.7517
#
#
#
# Elastic Compliance Matrix: (Units=1/GPa)
#
#
# Indices 1 2 3 4 5 6 
#
# 1 0.015404 -0.004036 0.000940 0.000000 0.009319 0.000000
# 2 -0.004036 0.010930 -0.003311 0.000000 -0.002482 0.000000
# 3 0.000940 -0.003311 0.013585 0.000000 0.011187 0.000000
# 4 0.000000 0.000000 0.000000 0.035120 0.000000 0.010180
# 5 0.009319 -0.002482 0.011187 0.000000 0.037156 0.000000
# 6 0.000000 0.000000 0.000000 0.010180 0.000000 0.034445
#
#
# Mechanical properties :
#
#
# Convention : Reuss Voigt Hill
#
# Bulk Modulus (GPa) = 36.89527 55.38555 46.14041
# Shear Modulus (GPa) = 29.67556 36.01573 32.84565
#
# Velocity S-wave (km/s) = 3.56606 3.92858 3.75170
# Velocity P-wave (km/s) = 5.72420 6.65677 6.20802
#
# Compressibility (1/GPa) = 0.02710374
#
# Stress axis : x y z
#
# Youngs Moduli (GPa) = 64.91675 91.49523 73.61287
#
# Poissons Ratio (x) = 0.36931 -0.06918
# Poissons Ratio (y) = 0.26203 0.24371
# Poissons Ratio (z) = -0.06100 0.30291
#
# Static dielectric constant tensor:
#      x y z
#    x 4.733410 0.000000 -0.619950 
#    y 0.000000 4.014270 0.000000 
#    z -0.619950 0.000000 4.515180 
# 
# 
# High freq. dielectric constant tensor:
#      x y z
#    x 1.921590 0.000000 -0.045320 
#    y 0.000000 1.915280 0.000000 
#    z -0.045320 0.000000 1.933800 
# 
# From -- ./inp_files/105799.got.cif
#   From: 2010.06.25/outbox.cif.g09.slc.cpg/sg15_53_cif.got.tgz:105799.got - 2010.06.28 07:06:18.
