data_PCOD8140257
_publ_section_title
;
Structure prediction by ZEFSAII (Michael W. Deem and Ramdas Pophale) SiO2 
 PCOD8140257
Probable space group: C 2/C
;
_chemical_formula_sum "Si O2"
_cell_formula_units_Z 64
_cell_length_a 25.506052
_cell_length_b 11.694873
_cell_length_c 22.853450
_cell_angle_alpha 90.000000
_cell_angle_beta 152.102913
_cell_angle_gamma 90.000000
_cell_volume 3189.550881
_symmetry_space_group_name_H-M "C 2/C"
_symmetry_group_IT_number 15
_symmetry_cell_setting 'monoclinic'
loop_
_space_group_symop_operation_xyz
x,y,z
-x,y,1/2-z
-x,-y,-z
x,-y,1/2+z
1/2+x,1/2+y,z
1/2-x,1/2+y,1/2-z
1/2-x,1/2-y,-z
1/2+x,1/2-y,1/2+z
loop_
_atom_site_type_symbol
_atom_site_label
_atom_site_fract_x
_atom_site_fract_y
_atom_site_fract_z
Si Si1 0.098083 0.477208 0.482115
Si Si2 0.439336 0.400043 0.311446
Si Si3 0.323958 0.402706 0.760939
Si Si4 0.224047 0.610595 0.520990
Si Si5 0.236562 0.565764 0.294448
Si Si6 0.104264 0.658296 0.674202
Si Si7 0.989781 0.683539 0.438273
Si Si8 0.666674 0.360211 0.487675
O O1 0.197085 0.436733 0.621495
O O2 0.149013 0.502042 0.467746
O O3 0.995360 0.387223 0.381515
O O4 0.056704 0.601053 0.461327
O O5 0.417453 0.516415 0.324821
O O6 0.330746 0.365905 0.167656
O O7 0.475318 0.305379 0.393959
O O8 0.543483 0.416611 0.369817
O O9 0.333238 0.414897 0.840962
O O10 0.345575 0.277814 0.754219
O O11 0.261331 0.577978 0.492068
O O12 0.153604 0.727881 0.455302
O O13 0.206155 0.432051 0.272353
O O14 0.129633 0.631395 0.163868
O O15 0.271828 0.623047 0.389953
O O16 0.057992 0.689508 0.565077
#
# Coordination Sequence:
#
# PCOD8140257 Si02
#       8
#     8   8   8   8   8   8   8   8
#     4  10  20  41  59  84 124 160 196 250 310 361
#     4  11  23  38  62  91 126 155 202 257 311 363
#     4  11  24  36  62  92 120 167 201 251 308 370
#     4  10  22  39  63  89 119 164 196 254 318 360
#     4  11  22  38  60  90 124 163 200 250 308 373
#     4  11  23  38  60  87 127 163 212 240 301 377
#     4  11  19  37  60  88 122 164 192 251 309 367
#     4  11  22  38  61  92 125 149 204 261 302 366
#
# _framework density 20.065521
#
# number of rings (size 3 to 8) (size 9 to 14) (size 15 to 20)
#    0.000    1.250    5.000    1.875    1.750    3.000 
#    0.000    2.500    0.000    9.750    0.000    0.000 
#    0.000    0.000    0.000    0.000    0.000    0.000 
#
# Total GULP energy -396723.237343 kJ/mol
# GULP energy per Si atom -12397.601167 kJ/mol
# Density = 2.001985 g / cm^3
# Si number density = 20.065521 Si / 1000 Ang^3
#
#
#
# Elastic Constant Matrix: (Units=GPa)
#
#
# Indices 1 2 3 4 5 6 
#
# 1 147.2630 49.4513 18.5784 0.0000 22.7867 0.0000
# 2 49.4513 119.5260 16.1483 0.0000 20.1169 0.0000
# 3 18.5784 16.1483 38.5684 0.0001 19.1788 0.0000
# 4 0.0000 0.0000 0.0001 11.3053 0.0000 -7.9006
# 5 22.7867 20.1169 19.1788 0.0000 31.8398 0.0000
# 6 0.0000 0.0000 0.0000 -7.9006 0.0000 19.4787
#
#
#
# Elastic Compliance Matrix: (Units=1/GPa)
#
#
# Indices 1 2 3 4 5 6 
#
# 1 0.008404 -0.002716 -0.001104 0.000000 -0.003633 0.000000
# 2 -0.002716 0.010293 -0.001048 0.000000 -0.003928 0.000000
# 3 -0.001104 -0.001048 0.037370 0.000000 -0.021057 0.000000
# 4 0.000000 0.000000 0.000000 0.123444 0.000000 0.050069
# 5 -0.003633 -0.003928 -0.021057 0.000000 0.049173 0.000000
# 6 0.000000 0.000000 0.000000 0.050069 0.000000 0.071646
#
#
# Mechanical properties :
#
#
# Convention : Reuss Voigt Hill
#
# Bulk Modulus (GPa) = 21.58434 52.63484 37.10959
# Shear Modulus (GPa) = 15.36047 27.27005 21.31526
#
# Velocity S-wave (km/s) = 2.76980 3.69053 3.26280
# Velocity P-wave (km/s) = 4.58359 6.66697 5.72092
#
# Compressibility (1/GPa) = 0.04632988
#
# Stress axis : x y z
#
# Youngs Moduli (GPa) = 118.98747 97.15434 26.75962
#
# Poissons Ratio (x) = 0.26391 0.02955
# Poissons Ratio (y) = 0.32322 0.02804
# Poissons Ratio (z) = 0.13140 0.10180
#
# Static dielectric constant tensor:
#      x y z
#    x 3.808370 0.000000 0.263490 
#    y 0.000000 3.576040 0.000000 
#    z 0.263490 0.000000 3.621700 
# 
# 
# High freq. dielectric constant tensor:
#      x y z
#    x 1.784780 0.000000 0.019640 
#    y 0.000000 1.768700 0.000000 
#    z 0.019640 0.000000 1.777040 
# 
# From -- ./inp_files/117554.got.cif
#   From: 2010.06.25/outbox.cif.g09.slc.cpg/sg15_59_cif.got.tgz:117554.got - 2010.06.28 07:06:18.
