data_PCOD8141514
_publ_section_title
;
Structure prediction by ZEFSAII (Michael W. Deem and Ramdas Pophale) SiO2 
 PCOD8141514
Probable space group: C 2/C
;
_chemical_formula_sum "Si O2"
_cell_formula_units_Z 32
_cell_length_a 4.793444
_cell_length_b 24.149719
_cell_length_c 12.855984
_cell_angle_alpha 90.000000
_cell_angle_beta 91.901810
_cell_angle_gamma 90.000000
_cell_volume 1487.393139
_symmetry_space_group_name_H-M "C 2/C"
_symmetry_group_IT_number 15
_symmetry_cell_setting 'monoclinic'
loop_
_space_group_symop_operation_xyz
x,y,z
-x,y,1/2-z
-x,-y,-z
x,-y,1/2+z
1/2+x,1/2+y,z
1/2-x,1/2+y,1/2-z
1/2-x,1/2-y,-z
1/2+x,1/2-y,1/2+z
loop_
_atom_site_type_symbol
_atom_site_label
_atom_site_fract_x
_atom_site_fract_y
_atom_site_fract_z
Si Si1 0.983384 0.657862 0.626908
Si Si2 0.416751 0.605776 0.367533
Si Si3 0.408865 0.938267 0.978662
Si Si4 0.035116 0.200026 0.984762
O O1 0.887514 0.597484 0.585189
O O2 0.000000 0.662770 0.750000
O O3 0.777042 0.706676 0.572044
O O4 0.302939 0.661470 0.595254
O O5 0.500000 0.602658 0.250000
O O6 0.598317 0.559616 0.429375
O O7 0.496936 0.667863 0.406557
O O8 0.097242 0.591804 0.391986
O O9 0.500000 0.000000 0.000000
O O10 0.250000 0.250000 0.000000
#
# Coordination Sequence:
#
# PCOD8141514 Si02
#       4
#     8   8   8   8
#     4  10  21  37  57  84 116 150 192 240 289 346
#     4  10  21  37  58  85 116 150 193 241 289 347
#     4  10  21  38  58  85 118 152 192 238 289 350
#     4  10  21  38  58  82 114 150 192 241 290 345
#
# _framework density 21.514147999999999
#
# number of rings (size 3 to 8) (size 9 to 14) (size 15 to 20)
#    0.000    2.000    0.000    3.000    0.000    3.000 
#    0.000    7.500    0.000    0.000    0.000    0.000 
#    0.000    0.000    0.000    0.000    0.000    0.000 
#
# Total GULP energy -198211.502313 kJ/mol
# GULP energy per Si atom -12388.218895 kJ/mol
# Density = 2.146518 g / cm^3
# Si number density = 21.514148 Si / 1000 Ang^3
#
#
#
# Elastic Constant Matrix: (Units=GPa)
#
#
# Indices 1 2 3 4 5 6 
#
# 1 94.7494 4.9837 -0.3241 0.0000 2.2876 0.0000
# 2 4.9837 64.3967 3.3325 0.0000 15.1209 0.0000
# 3 -0.3241 3.3325 90.2631 0.0000 11.5079 0.0000
# 4 0.0000 0.0000 0.0000 10.2111 0.0000 -2.9872
# 5 2.2876 15.1209 11.5079 0.0000 29.2754 0.0000
# 6 0.0000 0.0000 0.0000 -2.9872 0.0000 37.4967
#
#
#
# Elastic Compliance Matrix: (Units=1/GPa)
#
#
# Indices 1 2 3 4 5 6 
#
# 1 0.010604 -0.000707 0.000130 0.000000 -0.000515 0.000000
# 2 -0.000707 0.017744 0.000530 0.000000 -0.009318 0.000000
# 3 0.000130 0.000530 0.011681 0.000000 -0.004876 0.000000
# 4 0.000000 0.000000 0.000000 0.100269 0.000000 0.007988
# 5 -0.000515 -0.009318 -0.004876 0.000000 0.040928 0.000000
# 6 0.000000 0.000000 0.000000 0.007988 0.000000 0.027305
#
#
# Mechanical properties :
#
#
# Convention : Reuss Voigt Hill
#
# Bulk Modulus (GPa) = 25.03968 29.48816 27.26392
# Shear Modulus (GPa) = 22.52889 31.49110 27.00999
#
# Velocity S-wave (km/s) = 3.23951 3.83003 3.54708
# Velocity P-wave (km/s) = 5.06522 5.77019 5.42916
#
# Compressibility (1/GPa) = 0.03993661
#
# Stress axis : x y z
#
# Youngs Moduli (GPa) = 94.30233 56.35721 85.60729
#
# Poissons Ratio (x) = 0.03982 -0.01111
# Poissons Ratio (y) = 0.06663 -0.04540
# Poissons Ratio (z) = -0.01224 -0.02989
#
# Static dielectric constant tensor:
#      x y z
#    x 4.651430 0.000000 -0.201390 
#    y 0.000000 4.286360 0.000000 
#    z -0.201390 0.000000 3.699940 
# 
# 
# High freq. dielectric constant tensor:
#      x y z
#    x 1.873640 0.000000 -0.014400 
#    y 0.000000 1.828250 0.000000 
#    z -0.014400 0.000000 1.832800 
# 
# From -- ./inp_files/72230.got.cif
#   From: 2010.06.25/outbox.cif.g09.slc.cpg/sg15_37_cif.got.tgz:72230.got - 2010.06.28 07:06:18.
