data_PCOD8141779
_publ_section_title
;
Structure prediction by ZEFSAII (Michael W. Deem and Ramdas Pophale) SiO2 
 PCOD8141779
Probable space group: C 2/C
;
_chemical_formula_sum "Si O2"
_cell_formula_units_Z 48
_cell_length_a 20.211038
_cell_length_b 10.927602
_cell_length_c 21.455822
_cell_angle_alpha 90.000000
_cell_angle_beta 30.846760
_cell_angle_gamma 90.000000
_cell_volume 2429.735407
_symmetry_space_group_name_H-M "C 2/C"
_symmetry_group_IT_number 15
_symmetry_cell_setting 'monoclinic'
loop_
_space_group_symop_operation_xyz
x,y,z
-x,y,1/2-z
-x,-y,-z
x,-y,1/2+z
1/2+x,1/2+y,z
1/2-x,1/2+y,1/2-z
1/2-x,1/2-y,-z
1/2+x,1/2-y,1/2+z
loop_
_atom_site_type_symbol
_atom_site_label
_atom_site_fract_x
_atom_site_fract_y
_atom_site_fract_z
Si Si1 0.977070 0.444471 0.085484
Si Si2 0.683787 0.630599 0.493470
Si Si3 0.048386 0.985233 0.776559
Si Si4 0.700376 0.492752 0.854861
Si Si5 0.480574 0.339779 0.576115
Si Si6 0.309146 0.092900 0.520916
O O1 0.827372 0.453698 0.221734
O O2 0.012029 0.302474 0.054077
O O3 0.000000 0.500000 0.000000
O O4 0.061972 0.516168 0.068502
O O5 0.539589 0.602012 0.634461
O O6 0.731466 0.544681 0.399919
O O7 0.679766 0.766242 0.467879
O O8 0.785479 0.601336 0.465902
O O9 0.032191 0.883383 0.842262
O O10 0.000000 0.928508 0.750000
O O11 0.194905 0.029860 0.652399
O O12 0.649967 0.377636 0.854689
O O13 0.595394 0.600705 0.942842
#
# Coordination Sequence:
#
# PCOD8141779 Si02
#       6
#     8   8   8   8   8   8
#     4  12  26  39  63  94 119 157 209 254 309 367
#     4   9  20  40  61  93 122 160 200 248 309 356
#     4   9  19  39  63  87 123 166 200 244 311 364
#     4  10  23  41  64  86 122 162 201 252 307 365
#     4  10  23  44  62  87 124 164 203 253 310 369
#     4  10  21  37  64  92 125 155 204 254 297 369
#
# _framework density 19.755237999999999
#
# number of rings (size 3 to 8) (size 9 to 14) (size 15 to 20)
#    0.000    2.000    0.000    2.000    7.000    0.667 
#    3.000    2.500    0.000    0.000    0.000    0.000 
#    0.000    0.000    0.000    0.000    0.000    0.000 
#
# Total GULP energy -297585.385708 kJ/mol
# GULP energy per Si atom -12399.391071 kJ/mol
# Density = 1.971027 g / cm^3
# Si number density = 19.755238 Si / 1000 Ang^3
#
#
#
# Elastic Constant Matrix: (Units=GPa)
#
#
# Indices 1 2 3 4 5 6 
#
# 1 97.2452 50.1591 38.1049 0.0000 -0.6680 0.0000
# 2 50.1591 129.0388 32.5202 -0.0002 -2.7391 0.0001
# 3 38.1049 32.5202 107.4579 -0.0001 1.8198 0.0001
# 4 0.0000 -0.0002 -0.0001 22.5770 0.0001 1.5125
# 5 -0.6680 -2.7391 1.8198 0.0001 30.5711 0.0000
# 6 0.0000 0.0001 0.0001 1.5125 0.0000 30.6455
#
#
#
# Elastic Compliance Matrix: (Units=1/GPa)
#
#
# Indices 1 2 3 4 5 6 
#
# 1 0.014042 -0.004547 -0.003605 0.000000 0.000114 0.000000
# 2 -0.004547 0.009887 -0.001394 0.000000 0.000870 0.000000
# 3 -0.003605 -0.001394 0.011021 0.000000 -0.000860 0.000000
# 4 0.000000 0.000000 0.000000 0.044440 0.000000 -0.002193
# 5 0.000114 0.000870 -0.000860 0.000000 0.032842 0.000000
# 6 0.000000 0.000000 0.000000 -0.002193 0.000000 0.032739
#
#
# Mechanical properties :
#
#
# Convention : Reuss Voigt Hill
#
# Bulk Modulus (GPa) = 63.06599 63.92338 63.49469
# Shear Modulus (GPa) = 29.52447 30.95591 30.24019
#
# Velocity S-wave (km/s) = 3.87009 3.96279 3.91672
# Velocity P-wave (km/s) = 7.20854 7.30522 7.25704
#
# Compressibility (1/GPa) = 0.01585641
#
# Stress axis : x y z
#
# Youngs Moduli (GPa) = 71.21348 101.14180 90.73659
#
# Poissons Ratio (x) = 0.45993 0.32712
# Poissons Ratio (y) = 0.32384 0.12652
# Poissons Ratio (z) = 0.25674 0.14103
#
# Static dielectric constant tensor:
#      x y z
#    x 3.788000 0.000000 0.035700 
#    y 0.000000 3.149880 0.000000 
#    z 0.035700 0.000000 3.627130 
# 
# 
# High freq. dielectric constant tensor:
#      x y z
#    x 1.783120 0.000000 0.006670 
#    y 0.000000 1.760010 0.000000 
#    z 0.006670 0.000000 1.774570 
# 
# From -- ./inp_files/252497.got.cif
#   From: 2010.06.25/outbox.cif.g09.slc.cpg/sg15_127_cif.got.tgz:252497.got - 2010.06.28 07:06:18.
