data_PCOD8141721
_publ_section_title
;
Structure prediction by ZEFSAII (Michael W. Deem and Ramdas Pophale) SiO2 
 PCOD8141721
Probable space group: C 2/C
;
_chemical_formula_sum "Si O2"
_cell_formula_units_Z 48
_cell_length_a 10.998430
_cell_length_b 19.633393
_cell_length_c 12.160515
_cell_angle_alpha 90.000000
_cell_angle_beta 111.959007
_cell_angle_gamma 90.000000
_cell_volume 2435.394347
_symmetry_space_group_name_H-M "C 2/C"
_symmetry_group_IT_number 15
_symmetry_cell_setting 'monoclinic'
loop_
_space_group_symop_operation_xyz
x,y,z
-x,y,1/2-z
-x,-y,-z
x,-y,1/2+z
1/2+x,1/2+y,z
1/2-x,1/2+y,1/2-z
1/2-x,1/2-y,-z
1/2+x,1/2-y,1/2+z
loop_
_atom_site_type_symbol
_atom_site_label
_atom_site_fract_x
_atom_site_fract_y
_atom_site_fract_z
Si Si1 0.045687 0.238287 0.383439
Si Si2 0.039815 0.926570 0.385362
Si Si3 0.291563 0.144123 0.452439
Si Si4 0.793937 0.029166 0.929349
Si Si5 0.149613 0.588449 0.268761
Si Si6 0.819710 0.189427 0.462404
O O1 0.145332 0.175386 0.398196
O O2 0.107483 0.297595 0.478059
O O3 0.000000 0.267272 0.250000
O O4 0.916215 0.212986 0.399713
O O5 0.100242 0.851493 0.417547
O O6 0.000000 0.943621 0.250000
O O7 0.911081 0.928570 0.415736
O O8 0.147835 0.981449 0.456123
O O9 0.301362 0.083736 0.545360
O O10 0.333063 0.112819 0.350057
O O11 0.719849 0.984559 0.811864
O O12 0.208280 0.643959 0.370199
O O13 0.000000 0.578932 0.250000
O O14 0.750000 0.250000 0.500000
#
# Coordination Sequence:
#
# PCOD8141721 Si02
#       6
#     8   8   8   8   8   8
#     4  11  23  41  66  96 126 172 216 259 320 383
#     4  10  21  37  62  92 121 163 213 263 316 373
#     4  11  23  41  68  93 131 169 214 266 319 389
#     4  10  22  40  63  93 125 166 217 260 315 384
#     4  11  24  42  65  93 130 172 209 271 330 372
#     4  11  23  40  63  93 128 166 214 266 319 382
#
# _framework density 19.709333000000001
#
# number of rings (size 3 to 8) (size 9 to 14) (size 15 to 20)
#    0.000    1.333    3.333    2.000    0.000    5.333 
#    0.000    0.000    0.000    0.000    0.000    0.000 
#    0.000    0.000    0.000    0.000    0.000    0.000 
#
# Total GULP energy -297669.539663 kJ/mol
# GULP energy per Si atom -12402.897486 kJ/mol
# Density = 1.966447 g / cm^3
# Si number density = 19.709333 Si / 1000 Ang^3
#
#
#
# Elastic Constant Matrix: (Units=GPa)
#
#
# Indices 1 2 3 4 5 6 
#
# 1 80.9331 41.3800 18.1295 0.0000 11.3170 0.0000
# 2 41.3800 108.4676 41.7428 0.0000 -2.5417 0.0000
# 3 18.1295 41.7428 102.9175 0.0000 0.9310 0.0000
# 4 0.0000 0.0000 0.0000 29.6099 0.0000 -3.0288
# 5 11.3170 -2.5417 0.9310 0.0000 27.3693 0.0000
# 6 0.0000 0.0000 0.0000 -3.0288 0.0000 41.4612
#
#
#
# Elastic Compliance Matrix: (Units=1/GPa)
#
#
# Indices 1 2 3 4 5 6 
#
# 1 0.016779 -0.006477 -0.000260 0.000000 -0.007531 0.000000
# 2 -0.006477 0.013462 -0.004356 0.000000 0.004077 0.000000
# 3 -0.000260 -0.004356 0.011535 0.000000 -0.000689 0.000000
# 4 0.000000 0.000000 0.000000 0.034027 0.000000 0.002486
# 5 -0.007531 0.004077 -0.000689 0.000000 0.040053 0.000000
# 6 0.000000 0.000000 0.000000 0.002486 0.000000 0.024301
#
#
# Mechanical properties :
#
#
# Convention : Reuss Voigt Hill
#
# Bulk Modulus (GPa) = 51.04895 54.98031 53.01463
# Shear Modulus (GPa) = 29.60773 32.42581 31.01677
#
# Velocity S-wave (km/s) = 3.88005 4.06051 3.97130
# Velocity P-wave (km/s) = 6.78456 7.06681 6.92712
#
# Compressibility (1/GPa) = 0.01958904
#
# Stress axis : x y z
#
# Youngs Moduli (GPa) = 59.59817 74.28107 86.68929
#
# Poissons Ratio (x) = 0.48115 0.02257
# Poissons Ratio (y) = 0.38604 0.37763
# Poissons Ratio (z) = 0.01552 0.32358
#
# Static dielectric constant tensor:
#      x y z
#    x 3.762940 0.000000 0.020700 
#    y 0.000000 3.688760 0.000000 
#    z 0.020700 0.000000 3.604840 
# 
# 
# High freq. dielectric constant tensor:
#      x y z
#    x 1.773210 0.000000 -0.000960 
#    y 0.000000 1.775180 0.000000 
#    z -0.000960 0.000000 1.772710 
# 
# From -- ./inp_files/87877.got.cif
#   From: 2010.06.25/outbox.cif.g09.slc.cpg/sg15_44_cif.got.tgz:87877.got - 2010.06.28 07:06:18.
