data_PCOD8141369
_publ_section_title
;
Structure prediction by ZEFSAII (Michael W. Deem and Ramdas Pophale) SiO2 
 PCOD8141369
Probable space group: C 2/C
;
_chemical_formula_sum "Si O2"
_cell_formula_units_Z 56
_cell_length_a 17.372463
_cell_length_b 15.271620
_cell_length_c 18.564472
_cell_angle_alpha 90.000000
_cell_angle_beta 144.950050
_cell_angle_gamma 90.000000
_cell_volume 2828.528922
_symmetry_space_group_name_H-M "C 2/C"
_symmetry_group_IT_number 15
_symmetry_cell_setting 'monoclinic'
loop_
_space_group_symop_operation_xyz
x,y,z
-x,y,1/2-z
-x,-y,-z
x,-y,1/2+z
1/2+x,1/2+y,z
1/2-x,1/2+y,1/2-z
1/2-x,1/2-y,-z
1/2+x,1/2-y,1/2+z
loop_
_atom_site_type_symbol
_atom_site_label
_atom_site_fract_x
_atom_site_fract_y
_atom_site_fract_z
Si Si1 0.681247 0.595447 0.634920
Si Si2 0.747514 0.089869 0.324264
Si Si3 0.439197 0.283605 0.908308
Si Si4 0.284435 0.138664 0.866121
Si Si5 0.975405 0.509878 0.065131
Si Si6 0.158566 0.725708 0.362363
Si Si7 0.957185 0.342448 0.299239
O O1 0.655658 0.495052 0.590572
O O2 0.556678 0.658907 0.531945
O O3 0.725230 0.588907 0.751858
O O4 0.800630 0.634622 0.678435
O O5 0.808056 0.153580 0.308512
O O6 0.599037 0.062365 0.191064
O O7 0.733863 0.140378 0.389198
O O8 0.408823 0.199971 0.935664
O O9 0.476073 0.249585 0.856531
O O10 0.166515 0.194211 0.812076
O O11 0.341203 0.069104 0.968501
O O12 0.957403 0.418990 0.095091
O O13 0.000000 0.500000 0.000000
O O14 0.250000 0.750000 0.500000
O O15 0.000000 0.707629 0.250000
O O16 0.000000 0.329248 0.250000
#
# Coordination Sequence:
#
# PCOD8141369 Si02
#       7
#     8   8   8   8   8   8   8
#     4  10  21  39  61  90 117 157 206 257 302 360
#     4  10  22  37  65  88 120 160 206 253 308 368
#     4  10  21  36  61  88 122 154 202 248 309 360
#     4  10  22  36  64  91 119 157 208 254 302 370
#     4  11  19  39  64  93 115 157 209 257 302 361
#     4  11  25  41  62  93 130 170 203 257 322 377
#     4  10  23  38  60  90 121 159 206 252 302 366
#
# _framework density 19.798276999999999
#
# number of rings (size 3 to 8) (size 9 to 14) (size 15 to 20)
#    0.000    1.714    4.286    1.286   10.000    5.143 
#    0.000    0.000    3.143    0.000    0.000    0.000 
#    0.000    0.000    0.000    0.000    0.000    0.000 
#
# Total GULP energy -347004.472440 kJ/mol
# GULP energy per Si atom -12393.016873 kJ/mol
# Density = 1.975322 g / cm^3
# Si number density = 19.798277 Si / 1000 Ang^3
#
#
#
# Elastic Constant Matrix: (Units=GPa)
#
#
# Indices 1 2 3 4 5 6 
#
# 1 95.6765 47.4725 38.8729 0.0003 -13.8948 0.0001
# 2 47.4725 131.6190 52.7803 0.0004 -3.5688 0.0002
# 3 38.8729 52.7803 83.2589 0.0009 -10.6854 0.0005
# 4 0.0003 0.0004 0.0009 32.7973 0.0005 -2.8581
# 5 -13.8948 -3.5688 -10.6854 0.0005 25.0905 0.0002
# 6 0.0001 0.0002 0.0005 -2.8581 0.0002 18.6637
#
#
#
# Elastic Compliance Matrix: (Units=1/GPa)
#
#
# Indices 1 2 3 4 5 6 
#
# 1 0.014647 -0.003602 -0.003787 0.000000 0.005986 0.000000
# 2 -0.003602 0.011118 -0.005733 0.000000 -0.002855 0.000000
# 3 -0.003787 -0.005733 0.018024 -0.000001 0.004764 -0.000001
# 4 0.000000 0.000000 -0.000001 0.030903 -0.000001 0.004732
# 5 0.005986 -0.002855 0.004764 -0.000001 0.044793 -0.000001
# 6 0.000000 0.000000 -0.000001 0.004732 -0.000001 0.054305
#
#
# Mechanical properties :
#
#
# Convention : Reuss Voigt Hill
#
# Bulk Modulus (GPa) = 56.99230 65.42286 61.20758
# Shear Modulus (GPa) = 24.28562 26.73888 25.51225
#
# Velocity S-wave (km/s) = 3.50616 3.67899 3.59362
# Velocity P-wave (km/s) = 6.72606 7.15284 6.94273
#
# Compressibility (1/GPa) = 0.01754623
#
# Stress axis : x y z
#
# Youngs Moduli (GPa) = 68.27284 89.94091 55.48027
#
# Poissons Ratio (x) = 0.32397 0.21010
# Poissons Ratio (y) = 0.24592 0.31806
# Poissons Ratio (z) = 0.25854 0.51562
#
# Static dielectric constant tensor:
#      x y z
#    x 3.645660 0.000000 0.156590 
#    y 0.000000 4.128160 0.000000 
#    z 0.156590 0.000000 3.369140 
# 
# 
# High freq. dielectric constant tensor:
#      x y z
#    x 1.757980 0.000000 0.003110 
#    y 0.000000 1.788110 0.000000 
#    z 0.003110 0.000000 1.756110 
# 
# From -- ./inp_files/211246.got.cif
#   From: 2010.06.25/outbox.cif.g09.slc.cpg/sg15_106_cif.got.tgz:211246.got - 2010.06.28 07:06:18.
