data_PCOD8141357
_publ_section_title
;
Structure prediction by ZEFSAII (Michael W. Deem and Ramdas Pophale) SiO2 
 PCOD8141357
Probable space group: C 2/C
;
_chemical_formula_sum "Si O2"
_cell_formula_units_Z 40
_cell_length_a 13.438987
_cell_length_b 11.995619
_cell_length_c 23.058287
_cell_angle_alpha 90.000000
_cell_angle_beta 30.223768
_cell_angle_gamma 90.000000
_cell_volume 1871.159633
_symmetry_space_group_name_H-M "C 2/C"
_symmetry_group_IT_number 15
_symmetry_cell_setting 'monoclinic'
loop_
_space_group_symop_operation_xyz
x,y,z
-x,y,1/2-z
-x,-y,-z
x,-y,1/2+z
1/2+x,1/2+y,z
1/2-x,1/2+y,1/2-z
1/2-x,1/2-y,-z
1/2+x,1/2-y,1/2+z
loop_
_atom_site_type_symbol
_atom_site_label
_atom_site_fract_x
_atom_site_fract_y
_atom_site_fract_z
Si Si1 0.007919 0.877029 0.968920
Si Si2 0.418468 0.879924 0.350872
Si Si3 0.796069 0.534508 0.027430
Si Si4 0.606390 0.652966 0.293714
Si Si5 0.002648 0.656984 0.474523
O O1 0.144178 0.871865 0.842987
O O2 0.795559 0.830267 0.055733
O O3 0.070103 0.786189 0.986427
O O4 0.000000 0.000000 0.000000
O O5 0.500000 0.934820 0.250000
O O6 0.386093 0.971760 0.416889
O O7 0.555365 0.780847 0.305154
O O8 0.567427 0.572948 0.143198
O O9 0.937870 0.618674 0.990946
O O10 0.813430 0.411433 0.046185
O O11 0.812081 0.627476 0.159617
#
# Coordination Sequence:
#
# PCOD8141357 Si02
#       5
#     8   8   8   8   8
#     4  11  23  38  59  93 125 160 207 256 301 370
#     4  11  19  37  63  84 119 159 210 247 300 364
#     4  10  21  36  60  96 121 149 210 261 298 356
#     4  11  20  39  63  91 120 165 210 248 301 370
#     4  11  21  37  64  92 124 158 206 254 309 361
#
# _framework density 21.377117999999999
#
# number of rings (size 3 to 8) (size 9 to 14) (size 15 to 20)
#    0.000    1.200    6.000    1.800    2.800    0.000 
#    0.000    4.000    0.000    4.800    0.000    0.000 
#    0.000    0.000    0.000    0.000    0.000    0.000 
#
# Total GULP energy -247870.155424 kJ/mol
# GULP energy per Si atom -12393.507771 kJ/mol
# Density = 2.132846 g / cm^3
# Si number density = 21.377118 Si / 1000 Ang^3
#
#
#
# Elastic Constant Matrix: (Units=GPa)
#
#
# Indices 1 2 3 4 5 6 
#
# 1 69.0974 44.0177 36.9449 0.0004 24.5468 -0.0001
# 2 44.0177 141.7964 20.2151 -0.0008 11.0828 0.0000
# 3 36.9449 20.2151 89.4627 -0.0015 29.7793 -0.0004
# 4 0.0004 -0.0008 -0.0015 19.0156 -0.0006 2.5176
# 5 24.5468 11.0828 29.7793 -0.0006 40.9998 0.0002
# 6 -0.0001 0.0000 -0.0004 2.5176 0.0002 30.4428
#
#
#
# Elastic Compliance Matrix: (Units=1/GPa)
#
#
# Indices 1 2 3 4 5 6 
#
# 1 0.024645 -0.006125 -0.005847 -0.000002 -0.008853 0.000000
# 2 -0.006125 0.008842 0.000140 0.000001 0.001175 0.000000
# 3 -0.005847 0.000140 0.016365 0.000001 -0.008423 0.000000
# 4 -0.000002 0.000001 0.000001 0.053171 0.000001 -0.004397
# 5 -0.008853 0.001175 -0.008423 0.000001 0.035491 0.000000
# 6 0.000000 0.000000 0.000000 -0.004397 0.000000 0.033212
#
#
# Mechanical properties :
#
#
# Convention : Reuss Voigt Hill
#
# Bulk Modulus (GPa) = 38.18418 55.85686 47.02052
# Shear Modulus (GPa) = 24.49554 31.37022 27.93288
#
# Velocity S-wave (km/s) = 3.38875 3.83491 3.61871
# Velocity P-wave (km/s) = 5.76303 6.76718 6.28519
#
# Compressibility (1/GPa) = 0.02618885
#
# Stress axis : x y z
#
# Youngs Moduli (GPa) = 40.57536 113.09742 61.10765
#
# Poissons Ratio (x) = 0.69274 0.35728
# Poissons Ratio (y) = 0.24853 -0.00858
# Poissons Ratio (z) = 0.23724 -0.01588
#
# Static dielectric constant tensor:
#      x y z
#    x 3.967830 0.000000 0.414580 
#    y 0.000000 3.617090 0.000000 
#    z 0.414580 0.000000 3.979220 
# 
# 
# High freq. dielectric constant tensor:
#      x y z
#    x 1.825550 0.000000 0.028380 
#    y 0.000000 1.820330 0.000000 
#    z 0.028380 0.000000 1.836030 
# 
# From -- ./inp_files/151190.got.cif
#   From: 2010.06.25/outbox.cif.g09.slc.cpg/sg15_76_cif.got.tgz:151190.got - 2010.06.28 07:06:18.
