data_PCOD8141910
_publ_section_title
;
Structure prediction by ZEFSAII (Michael W. Deem and Ramdas Pophale) SiO2 
 PCOD8141910
Probable space group: C 2/C
;
_chemical_formula_sum "Si O2"
_cell_formula_units_Z 56
_cell_length_a 24.331995
_cell_length_b 24.164482
_cell_length_c 5.296986
_cell_angle_alpha 90.000000
_cell_angle_beta 58.079812
_cell_angle_gamma 90.000000
_cell_volume 2643.516072
_symmetry_space_group_name_H-M "C 2/C"
_symmetry_group_IT_number 15
_symmetry_cell_setting 'monoclinic'
loop_
_space_group_symop_operation_xyz
x,y,z
-x,y,1/2-z
-x,-y,-z
x,-y,1/2+z
1/2+x,1/2+y,z
1/2-x,1/2+y,1/2-z
1/2-x,1/2-y,-z
1/2+x,1/2-y,1/2+z
loop_
_atom_site_type_symbol
_atom_site_label
_atom_site_fract_x
_atom_site_fract_y
_atom_site_fract_z
Si Si1 0.234173 0.981101 0.617917
Si Si2 0.931124 0.640855 0.011193
Si Si3 0.377845 0.027380 0.288063
Si Si4 0.839665 0.810805 0.211229
Si Si5 0.660778 0.790067 0.089180
Si Si6 0.217877 0.145247 0.132352
Si Si7 0.934497 0.753687 0.286258
O O1 0.245608 0.916261 0.571244
O O2 0.194922 0.003732 0.469145
O O3 0.300979 0.015982 0.479395
O O4 0.892510 0.592866 0.252559
O O5 0.946876 0.692218 0.153585
O O6 0.886176 0.660890 0.889490
O O7 0.000000 0.617324 0.750000
O O8 0.409344 0.000832 0.462977
O O9 0.804688 0.840015 0.530518
O O10 0.914106 0.797938 0.118191
O O11 0.813977 0.748604 0.203946
O O12 0.834174 0.848629 0.970538
O O13 0.623906 0.748685 0.369567
O O14 0.721884 0.815615 0.086020
O O15 0.000000 0.776507 0.250000
#
# Coordination Sequence:
#
# PCOD8141910 Si02
#       7
#     8   8   8   8   8   8   8
#     4  10  21  38  58  86 120 163 205 257 319 364
#     4  11  24  38  61  89 124 177 229 264 310 365
#     4  10  23  39  57  81 115 159 223 272 315 348
#     4  11  25  41  62  94 124 165 209 262 321 387
#     4  11  23  39  62  90 129 169 209 265 315 379
#     4  12  24  39  64  91 128 164 216 260 322 385
#     4  11  24  42  65  91 131 167 215 259 315 378
#
# _framework density 21.183907999999999
#
# number of rings (size 3 to 8) (size 9 to 14) (size 15 to 20)
#    0.000    1.143    2.857    3.429   10.000    0.571 
#    0.000    0.000    0.000    0.000    0.000    0.000 
#    0.000   11.429    0.000    0.000    0.000    0.000 
#
# Total GULP energy -346981.020603 kJ/mol
# GULP energy per Si atom -12392.179307 kJ/mol
# Density = 2.113569 g / cm^3
# Si number density = 21.183908 Si / 1000 Ang^3
#
#
#
# Elastic Constant Matrix: (Units=GPa)
#
#
# Indices 1 2 3 4 5 6 
#
# 1 96.9424 35.3964 37.7587 0.0000 24.9486 0.0000
# 2 35.3964 76.7312 21.5579 0.0000 0.5426 0.0000
# 3 37.7587 21.5579 92.3650 0.0000 32.0115 0.0000
# 4 0.0000 0.0000 0.0000 32.3799 0.0000 4.7613
# 5 24.9486 0.5426 32.0115 0.0000 33.8448 0.0000
# 6 0.0000 0.0000 0.0000 4.7613 0.0000 22.4452
#
#
#
# Elastic Compliance Matrix: (Units=1/GPa)
#
#
# Indices 1 2 3 4 5 6 
#
# 1 0.016072 -0.006974 -0.001302 0.000000 -0.010504 0.000000
# 2 -0.006974 0.017396 -0.004306 0.000000 0.008935 0.000000
# 3 -0.001302 -0.004306 0.017863 0.000000 -0.015866 0.000000
# 4 0.000000 0.000000 0.000000 0.031878 0.000000 -0.006762
# 5 -0.010504 0.008935 -0.015866 0.000000 0.052154 0.000000
# 6 0.000000 0.000000 0.000000 -0.006762 0.000000 0.045987
#
#
# Mechanical properties :
#
#
# Convention : Reuss Voigt Hill
#
# Bulk Modulus (GPa) = 38.21534 50.60716 44.41125
# Shear Modulus (GPa) = 23.23025 29.15569 26.19297
#
# Velocity S-wave (km/s) = 3.31509 3.71389 3.52014
# Velocity P-wave (km/s) = 5.72119 6.50630 6.12634
#
# Compressibility (1/GPa) = 0.02616750
#
# Stress axis : x y z
#
# Youngs Moduli (GPa) = 62.21867 57.48365 55.98233
#
# Poissons Ratio (x) = 0.40090 0.07289
# Poissons Ratio (y) = 0.43392 0.24105
# Poissons Ratio (z) = 0.08101 0.24751
#
# Static dielectric constant tensor:
#      x y z
#    x 4.041160 0.000000 0.686980 
#    y 0.000000 3.691560 0.000000 
#    z 0.686980 0.000000 4.371520 
# 
# 
# High freq. dielectric constant tensor:
#      x y z
#    x 1.816130 0.000000 0.041840 
#    y 0.000000 1.815020 0.000000 
#    z 0.041840 0.000000 1.824980 
# 
# From -- ./inp_files/16107.got.cif
#   From: 2010.06.25/outbox.cif.g09.slc.cpg/sg15_9_cif.got.tgz:16107.got - 2010.06.28 07:06:18.
