data_PCOD8141497
_publ_section_title
;
Structure prediction by ZEFSAII (Michael W. Deem and Ramdas Pophale) SiO2 
 PCOD8141497
Probable space group: C 2/C
;
_chemical_formula_sum "Si O2"
_cell_formula_units_Z 64
_cell_length_a 14.105363
_cell_length_b 25.888884
_cell_length_c 9.091933
_cell_angle_alpha 90.000000
_cell_angle_beta 96.036983
_cell_angle_gamma 90.000000
_cell_volume 3301.707661
_symmetry_space_group_name_H-M "C 2/C"
_symmetry_group_IT_number 15
_symmetry_cell_setting 'monoclinic'
loop_
_space_group_symop_operation_xyz
x,y,z
-x,y,1/2-z
-x,-y,-z
x,-y,1/2+z
1/2+x,1/2+y,z
1/2-x,1/2+y,1/2-z
1/2-x,1/2-y,-z
1/2+x,1/2-y,1/2+z
loop_
_atom_site_type_symbol
_atom_site_label
_atom_site_fract_x
_atom_site_fract_y
_atom_site_fract_z
Si Si1 0.889093 0.900203 0.259095
Si Si2 0.799648 0.103670 0.434821
Si Si3 0.569547 0.487124 0.642098
Si Si4 0.863576 0.713456 0.401511
Si Si5 0.202829 0.181544 0.548306
Si Si6 0.606632 0.695279 0.225061
Si Si7 0.596826 0.137047 0.345145
Si Si8 0.542336 0.798878 0.103937
O O1 0.844374 0.868869 0.388646
O O2 0.000000 0.883921 0.250000
O O3 0.882198 0.960604 0.292543
O O4 0.819729 0.889976 0.111054
O O5 0.846625 0.051403 0.384403
O O6 0.847894 0.153639 0.374326
O O7 0.687439 0.098387 0.372171
O O8 0.500000 0.460825 0.750000
O O9 0.500000 0.500000 0.500000
O O10 0.811718 0.767624 0.353789
O O11 0.814201 0.676670 0.520524
O O12 0.871989 0.685542 0.247168
O O13 0.964812 0.728020 0.486079
O O14 0.162821 0.196338 0.383703
O O15 0.500000 0.679791 0.250000
O O16 0.614892 0.752194 0.152437
O O17 0.500000 0.113238 0.250000
O O18 0.584437 0.154409 0.513314
O O19 0.500000 0.821525 0.250000
#
# Coordination Sequence:
#
# PCOD8141497 Si02
#       8
#     8   8   8   8   8   8   8   8
#     4  11  25  39  59  97 125 162 200 253 312 373
#     4  12  24  40  65  91 124 163 205 253 314 368
#     4  11  23  43  64  93 130 158 193 248 316 385
#     4  10  21  38  53  85 120 171 204 256 300 344
#     4  11  22  36  56  83 128 159 218 246 298 367
#     4  11  21  35  56  90 121 169 206 249 304 364
#     4  10  24  41  62  90 121 167 213 256 304 355
#     4  10  21  37  56  82 122 160 209 256 298 352
#
# _framework density 19.383908999999999
#
# number of rings (size 3 to 8) (size 9 to 14) (size 15 to 20)
#    0.000    1.250    6.250    1.125    5.250    1.000 
#    0.000    0.000    0.000    0.750    0.000    0.000 
#    0.000    0.000    0.000    0.000    0.000    0.000 
#
# Total GULP energy -396450.695096 kJ/mol
# GULP energy per Si atom -12389.084222 kJ/mol
# Density = 1.933979 g / cm^3
# Si number density = 19.383909 Si / 1000 Ang^3
#
#
#
# Elastic Constant Matrix: (Units=GPa)
#
#
# Indices 1 2 3 4 5 6 
#
# 1 87.0472 46.7921 49.7340 0.0000 13.3582 0.0000
# 2 46.7921 69.2696 36.2921 0.0000 -5.2358 0.0000
# 3 49.7340 36.2921 97.1861 0.0000 3.7143 0.0000
# 4 0.0000 0.0000 0.0000 33.1104 0.0000 -3.5747
# 5 13.3582 -5.2358 3.7143 0.0000 39.2673 0.0000
# 6 0.0000 0.0000 0.0000 -3.5747 0.0000 32.2214
#
#
#
# Elastic Compliance Matrix: (Units=1/GPa)
#
#
# Indices 1 2 3 4 5 6 
#
# 1 0.024050 -0.013285 -0.006991 0.000000 -0.009292 0.000000
# 2 -0.013285 0.025655 -0.003096 0.000000 0.008233 0.000000
# 3 -0.006991 -0.003096 0.015003 0.000000 0.000546 0.000000
# 4 0.000000 0.000000 0.000000 0.030568 0.000000 0.003391
# 5 -0.009292 0.008233 0.000546 0.000000 0.029673 0.000000
# 6 0.000000 0.000000 0.000000 0.003391 0.000000 0.031411
#
#
# Mechanical properties :
#
#
# Convention : Reuss Voigt Hill
#
# Bulk Modulus (GPa) = 55.67297 57.68216 56.67757
# Shear Modulus (GPa) = 23.91278 28.96546 26.43912
#
# Velocity S-wave (km/s) = 3.51613 3.86982 3.69721
# Velocity P-wave (km/s) = 6.72814 7.05618 6.89411
#
# Compressibility (1/GPa) = 0.01796204
#
# Stress axis : x y z
#
# Youngs Moduli (GPa) = 41.58068 38.97833 66.65542
#
# Poissons Ratio (x) = 0.51784 0.46598
# Poissons Ratio (y) = 0.55241 0.20640
# Poissons Ratio (z) = 0.29069 0.12070
#
# Static dielectric constant tensor:
#      x y z
#    x 3.471370 0.000000 0.231770 
#    y 0.000000 6.354720 0.000000 
#    z 0.231770 0.000000 3.667800 
# 
# 
# High freq. dielectric constant tensor:
#      x y z
#    x 1.761620 0.000000 0.003670 
#    y 0.000000 1.714830 0.000000 
#    z 0.003670 0.000000 1.772070 
# 
# From -- ./inp_files/42622.got.cif
#   From: 2010.06.25/outbox.cif.g09.slc.cpg/sg15_22_cif.got.tgz:42622.got - 2010.06.28 07:06:18.
