data_PCOD8141290
_publ_section_title
;
Structure prediction by ZEFSAII (Michael W. Deem and Ramdas Pophale) SiO2 
 PCOD8141290
Probable space group: C 2/C
;
_chemical_formula_sum "Si O2"
_cell_formula_units_Z 64
_cell_length_a 15.835000
_cell_length_b 21.015413
_cell_length_c 8.624331
_cell_angle_alpha 90.000000
_cell_angle_beta 88.483150
_cell_angle_gamma 90.000000
_cell_volume 2868.991111
_symmetry_space_group_name_H-M "C 2/C"
_symmetry_group_IT_number 15
_symmetry_cell_setting 'monoclinic'
loop_
_space_group_symop_operation_xyz
x,y,z
-x,y,1/2-z
-x,-y,-z
x,-y,1/2+z
1/2+x,1/2+y,z
1/2-x,1/2+y,1/2-z
1/2-x,1/2-y,-z
1/2+x,1/2-y,1/2+z
loop_
_atom_site_type_symbol
_atom_site_label
_atom_site_fract_x
_atom_site_fract_y
_atom_site_fract_z
Si Si1 0.416227 0.750413 0.341329
Si Si2 0.761431 0.492261 0.199051
Si Si3 0.483095 0.648369 0.569858
Si Si4 0.185708 0.405451 0.560710
Si Si5 0.297301 0.186832 0.040086
Si Si6 0.676850 0.425615 0.474747
Si Si7 0.647289 0.679953 0.442962
Si Si8 0.407094 0.204649 0.328729
O O1 0.500000 0.772367 0.250000
O O2 0.440182 0.711009 0.495778
O O3 0.370974 0.815070 0.403761
O O4 0.355632 0.708897 0.230681
O O5 0.807353 0.550423 0.285452
O O6 0.718588 0.441589 0.310692
O O7 0.825374 0.453060 0.084840
O O8 0.684300 0.517181 0.095842
O O9 0.500000 0.662424 0.750000
O O10 0.420850 0.589369 0.548467
O O11 0.568878 0.631113 0.471776
O O12 0.266751 0.358110 0.533142
O O13 0.101851 0.360611 0.569023
O O14 0.335564 0.191056 0.207171
O O15 0.250000 0.250000 0.000000
O O16 0.231447 0.130780 0.042640
O O17 0.624939 0.734749 0.571274
O O18 0.500000 0.212571 0.250000
#
# Coordination Sequence:
#
# PCOD8141290 Si02
#       8
#     8   8   8   8   8   8   8   8
#     4  10  21  36  57  94 139 163 203 264 329 410
#     4  10  24  44  67  92 129 181 244 277 319 397
#     4  11  21  39  63  97 139 173 209 270 348 403
#     4  11  23  45  67  94 129 181 225 281 335 393
#     4  12  23  39  68  99 132 174 222 264 355 410
#     4  11  23  43  68  92 133 181 227 286 328 401
#     4  11  23  40  67 103 140 170 216 277 355 421
#     4  12  26  43  69 106 140 173 223 282 350 421
#
# _framework density 22.307493999999998
#
# number of rings (size 3 to 8) (size 9 to 14) (size 15 to 20)
#    0.000    1.000    2.500    5.250    3.500    0.000 
#    0.000    7.500    0.000    0.000    0.000    0.000 
#    0.000    0.000    0.000    0.000    0.000    0.000 
#
# Total GULP energy -396531.606186 kJ/mol
# GULP energy per Si atom -12391.612693 kJ/mol
# Density = 2.225672 g / cm^3
# Si number density = 22.307494 Si / 1000 Ang^3
#
#
#
# Elastic Constant Matrix: (Units=GPa)
#
#
# Indices 1 2 3 4 5 6 
#
# 1 61.7785 27.9773 14.7166 0.0000 3.9035 0.0000
# 2 27.9773 88.5072 32.7665 0.0000 -3.8122 0.0000
# 3 14.7166 32.7665 116.0928 0.0000 7.8361 0.0000
# 4 0.0000 0.0000 0.0000 33.4599 0.0000 -8.4229
# 5 3.9035 -3.8122 7.8361 0.0000 25.3440 0.0000
# 6 0.0000 0.0000 0.0000 -8.4229 0.0000 22.9859
#
#
#
# Elastic Compliance Matrix: (Units=1/GPa)
#
#
# Indices 1 2 3 4 5 6 
#
# 1 0.019291 -0.006083 -0.000476 0.000000 -0.003739 0.000000
# 2 -0.006083 0.014772 -0.003688 0.000000 0.004299 0.000000
# 3 -0.000476 -0.003688 0.009955 0.000000 -0.003560 0.000000
# 4 0.000000 0.000000 0.000000 0.032923 0.000000 0.012064
# 5 -0.003739 0.004299 -0.003560 0.000000 0.041780 0.000000
# 6 0.000000 0.000000 0.000000 0.012064 0.000000 0.047926
#
#
# Mechanical properties :
#
#
# Convention : Reuss Voigt Hill
#
# Bulk Modulus (GPa) = 42.51010 46.36660 44.43835
# Shear Modulus (GPa) = 25.64313 29.08585 27.36449
#
# Velocity S-wave (km/s) = 3.39415 3.61482 3.50622
# Velocity P-wave (km/s) = 5.87010 6.18489 6.02955
#
# Compressibility (1/GPa) = 0.02352382
#
# Stress axis : x y z
#
# Youngs Moduli (GPa) = 51.83710 67.69589 100.44729
#
# Poissons Ratio (x) = 0.41177 0.04784
# Poissons Ratio (y) = 0.31531 0.37049
# Poissons Ratio (z) = 0.02469 0.24969
#
# Static dielectric constant tensor:
#      x y z
#    x 6.065660 0.000000 -1.244550 
#    y 0.000000 4.345680 0.000000 
#    z -1.244550 0.000000 5.104040 
# 
# 
# High freq. dielectric constant tensor:
#      x y z
#    x 1.866060 0.000000 -0.008560 
#    y 0.000000 1.863040 0.000000 
#    z -0.008560 0.000000 1.906940 
# 
# From -- ./inp_files/50252.got.cif
#   From: 2010.06.25/outbox.cif.g09.slc.cpg/sg15_26_cif.got.tgz:50252.got - 2010.06.28 07:06:18.
