data_PCOD8141873
_publ_section_title
;
Structure prediction by ZEFSAII (Michael W. Deem and Ramdas Pophale) SiO2 
 PCOD8141873
Probable space group: C 2/C
;
_chemical_formula_sum "Si O2"
_cell_formula_units_Z 32
_cell_length_a 7.807094
_cell_length_b 34.798452
_cell_length_c 5.244253
_cell_angle_alpha 90.000000
_cell_angle_beta 84.382444
_cell_angle_gamma 90.000000
_cell_volume 1417.888971
_symmetry_space_group_name_H-M "C 2/C"
_symmetry_group_IT_number 15
_symmetry_cell_setting 'monoclinic'
loop_
_space_group_symop_operation_xyz
x,y,z
-x,y,1/2-z
-x,-y,-z
x,-y,1/2+z
1/2+x,1/2+y,z
1/2-x,1/2+y,1/2-z
1/2-x,1/2-y,-z
1/2+x,1/2-y,1/2+z
loop_
_atom_site_type_symbol
_atom_site_label
_atom_site_fract_x
_atom_site_fract_y
_atom_site_fract_z
Si Si1 0.307506 0.484494 0.081481
Si Si2 0.803778 0.359070 0.778873
Si Si3 0.198526 0.226839 0.256810
Si Si4 0.293072 0.900399 0.284065
O O1 0.214796 0.509840 0.319864
O O2 0.300780 0.441153 0.181633
O O3 0.500000 0.500000 0.000000
O O4 0.794211 0.313313 0.772524
O O5 0.721599 0.376023 0.533799
O O6 0.000000 0.371573 0.750000
O O7 0.721763 0.378116 0.044345
O O8 0.250000 0.250000 0.500000
O O9 0.000000 0.218010 0.250000
O O10 0.250000 0.250000 0.000000
O O11 0.500000 0.904930 0.250000
#
# Coordination Sequence:
#
# PCOD8141873 Si02
#       4
#     8   8   8   8
#     4  10  21  38  56  84 117 160 209 256 331 373
#     4  10  21  40  63  94 128 167 210 266 332 388
#     4  12  25  44  69 102 136 179 224 274 331 404
#     4  10  21  38  62  88 122 163 212 267 324 390
#
# _framework density 22.568762
#
# number of rings (size 3 to 8) (size 9 to 14) (size 15 to 20)
#    0.000    1.500    0.000    5.250    0.000    3.000 
#   13.500    0.000    0.000    0.000    0.000    0.000 
#    0.000    0.000    0.000    0.000    0.000    0.000 
#
# Total GULP energy -198283.570208 kJ/mol
# GULP energy per Si atom -12392.723138 kJ/mol
# Density = 2.251739 g / cm^3
# Si number density = 22.568762 Si / 1000 Ang^3
#
#
#
# Elastic Constant Matrix: (Units=GPa)
#
#
# Indices 1 2 3 4 5 6 
#
# 1 36.9087 -0.5856 17.1978 0.0000 7.6949 0.0000
# 2 -0.5856 188.7875 106.7767 0.0000 8.0991 0.0000
# 3 17.1978 106.7767 258.1421 0.0000 34.1180 0.0000
# 4 0.0000 0.0000 0.0000 57.6646 0.0000 0.9853
# 5 7.6949 8.0991 34.1180 0.0000 21.1290 0.0000
# 6 0.0000 0.0000 0.0000 0.9853 0.0000 35.4751
#
#
#
# Elastic Compliance Matrix: (Units=1/GPa)
#
#
# Indices 1 2 3 4 5 6 
#
# 1 0.029618 0.001193 -0.001247 0.000000 -0.009231 0.000000
# 2 0.001193 0.007068 -0.003290 0.000000 0.002168 0.000000
# 3 -0.001247 -0.003290 0.006472 0.000000 -0.008736 0.000000
# 4 0.000000 0.000000 0.000000 0.017350 0.000000 -0.000482
# 5 -0.009231 0.002168 -0.008736 0.000000 0.063965 0.000000
# 6 0.000000 0.000000 0.000000 -0.000482 0.000000 0.028202
#
#
# Mechanical properties :
#
#
# Convention : Reuss Voigt Hill
#
# Bulk Modulus (GPa) = 27.41839 81.17958 54.29898
# Shear Modulus (GPa) = 29.15107 46.88371 38.01739
#
# Velocity S-wave (km/s) = 3.59786 4.56276 4.10874
# Velocity P-wave (km/s) = 5.42537 7.98789 6.82792
#
# Compressibility (1/GPa) = 0.03647188
#
# Stress axis : x y z
#
# Youngs Moduli (GPa) = 33.76306 141.47683 154.50548
#
# Poissons Ratio (x) = -0.16878 0.19262
# Poissons Ratio (y) = -0.04028 0.50828
# Poissons Ratio (z) = 0.04209 0.46542
#
# Static dielectric constant tensor:
#      x y z
#    x 3.195610 0.000000 -1.229130 
#    y 0.000000 3.977160 0.000000 
#    z -1.229130 0.000000 1.254550 
# 
# 
# High freq. dielectric constant tensor:
#      x y z
#    x 1.864390 0.000000 0.012530 
#    y 0.000000 1.897090 0.000000 
#    z 0.012530 0.000000 1.926730 
# 
# From -- ./inp_files/2355.got.cif
#   From: 2010.06.25/outbox.cif.g09.slc.cpg/sg15_2_cif.got.tgz:2355.got - 2010.06.28 07:06:18.
