data_PCOD8141595
_publ_section_title
;
Structure prediction by ZEFSAII (Michael W. Deem and Ramdas Pophale) SiO2 
 PCOD8141595
Probable space group: C 2/C
;
_chemical_formula_sum "Si O2"
_cell_formula_units_Z 64
_cell_length_a 31.461827
_cell_length_b 16.883472
_cell_length_c 12.853294
_cell_angle_alpha 90.000000
_cell_angle_beta 27.388610
_cell_angle_gamma 90.000000
_cell_volume 3140.797642
_symmetry_space_group_name_H-M "C 2/C"
_symmetry_group_IT_number 15
_symmetry_cell_setting 'monoclinic'
loop_
_space_group_symop_operation_xyz
x,y,z
-x,y,1/2-z
-x,-y,-z
x,-y,1/2+z
1/2+x,1/2+y,z
1/2-x,1/2+y,1/2-z
1/2-x,1/2-y,-z
1/2+x,1/2-y,1/2+z
loop_
_atom_site_type_symbol
_atom_site_label
_atom_site_fract_x
_atom_site_fract_y
_atom_site_fract_z
Si Si1 0.941250 0.720495 0.777895
Si Si2 0.096524 0.293595 0.564390
Si Si3 0.593635 0.032569 0.004240
Si Si4 0.112316 0.720287 0.267059
Si Si5 0.297117 0.913679 0.618846
Si Si6 0.778449 0.870899 0.507841
Si Si7 0.232540 0.798358 0.433904
Si Si8 0.732757 0.962284 0.044703
O O1 0.000000 0.750240 0.750000
O O2 0.010183 0.708500 0.532168
O O3 0.889206 0.639106 0.915199
O O4 0.866302 0.785099 0.905042
O O5 0.081537 0.374561 0.535370
O O6 0.113175 0.311331 0.648383
O O7 0.190572 0.259251 0.310584
O O8 0.000000 0.244868 0.750000
O O9 0.500000 0.990664 0.250000
O O10 0.627198 0.013677 0.811436
O O11 0.675469 0.000431 0.899731
O O12 0.181794 0.668374 0.184183
O O13 0.138743 0.813881 0.208732
O O14 0.223217 0.877377 0.862011
O O15 0.255534 0.925817 0.595047
O O16 0.793800 0.957621 0.422574
O O17 0.250000 0.750000 0.500000
O O18 0.236521 0.892879 0.442429
#
# Coordination Sequence:
#
# PCOD8141595 Si02
#       8
#     8   8   8   8   8   8   8   8
#     4  12  24  39  62  93 126 170 214 257 315 379
#     4  10  21  37  59  92 127 164 207 255 319 375
#     4   9  20  32  50  90 130 157 196 254 319 387
#     4  11  23  39  62  88 128 162 211 262 310 381
#     4  11  20  37  61  90 124 163 208 255 322 387
#     4  10  23  42  60  93 124 167 210 263 321 369
#     4  11  22  40  64  92 126 165 214 262 312 380
#     4  10  22  38  63  88 121 165 211 262 318 375
#
# _framework density 20.376989999999999
#
# number of rings (size 3 to 8) (size 9 to 14) (size 15 to 20)
#    0.000    1.500    2.500    2.625    7.000    0.500 
#    0.000    0.625    0.000    0.750    0.000    0.000 
#    0.000    0.000    0.000    0.000    0.000    0.000 
#
# Total GULP energy -396462.662633 kJ/mol
# GULP energy per Si atom -12389.458207 kJ/mol
# Density = 2.033061 g / cm^3
# Si number density = 20.376990 Si / 1000 Ang^3
#
#
#
# Elastic Constant Matrix: (Units=GPa)
#
#
# Indices 1 2 3 4 5 6 
#
# 1 104.0456 20.0635 28.3706 0.0000 16.9420 0.0000
# 2 20.0635 80.6020 5.2084 0.0000 -0.5995 0.0000
# 3 28.3706 5.2084 76.2515 0.0000 14.5338 0.0000
# 4 0.0000 0.0000 0.0000 16.9912 0.0000 4.6786
# 5 16.9420 -0.5995 14.5338 0.0000 37.6087 0.0000
# 6 0.0000 0.0000 0.0000 4.6786 0.0000 29.8717
#
#
#
# Elastic Compliance Matrix: (Units=1/GPa)
#
#
# Indices 1 2 3 4 5 6 
#
# 1 0.011719 -0.002727 -0.003411 0.000000 -0.004005 0.000000
# 2 -0.002727 0.013107 -0.000167 0.000000 0.001502 0.000000
# 3 -0.003411 -0.000167 0.015224 0.000000 -0.004349 0.000000
# 4 0.000000 0.000000 0.000000 0.061507 0.000000 -0.009633
# 5 -0.004005 0.001502 -0.004349 0.000000 0.030098 0.000000
# 6 0.000000 0.000000 0.000000 -0.009633 0.000000 0.034985
#
#
# Mechanical properties :
#
#
# Convention : Reuss Voigt Hill
#
# Bulk Modulus (GPa) = 36.44103 40.90935 38.67519
# Shear Modulus (GPa) = 26.53976 30.71140 28.62558
#
# Velocity S-wave (km/s) = 3.61285 3.88643 3.75213
# Velocity P-wave (km/s) = 5.94355 6.34499 6.14755
#
# Compressibility (1/GPa) = 0.02744159
#
# Stress axis : x y z
#
# Youngs Moduli (GPa) = 85.33127 76.29337 65.68600
#
# Poissons Ratio (x) = 0.20801 0.22404
# Poissons Ratio (y) = 0.23266 0.01098
# Poissons Ratio (z) = 0.29104 0.01275
#
# Static dielectric constant tensor:
#      x y z
#    x 3.585160 0.000000 0.117970 
#    y 0.000000 3.693140 0.000000 
#    z 0.117970 0.000000 4.124490 
# 
# 
# High freq. dielectric constant tensor:
#      x y z
#    x 1.786120 0.000000 0.024410 
#    y 0.000000 1.790430 0.000000 
#    z 0.024410 0.000000 1.795480 
# 
# From -- ./inp_files/127284.got.cif
#   From: 2010.06.25/outbox.cif.g09.slc.cpg/sg15_64_cif.got.tgz:127284.got - 2010.06.28 07:06:18.
