data_PCOD8141090
_publ_section_title
;
Structure prediction by ZEFSAII (Michael W. Deem and Ramdas Pophale) SiO2 
 PCOD8141090
Probable space group: C 2/C
;
_chemical_formula_sum "Si O2"
_cell_formula_units_Z 56
_cell_length_a 10.909380
_cell_length_b 22.665174
_cell_length_c 21.897558
_cell_angle_alpha 90.000000
_cell_angle_beta 148.708154
_cell_angle_gamma 90.000000
_cell_volume 2812.254831
_symmetry_space_group_name_H-M "C 2/C"
_symmetry_group_IT_number 15
_symmetry_cell_setting 'monoclinic'
loop_
_space_group_symop_operation_xyz
x,y,z
-x,y,1/2-z
-x,-y,-z
x,-y,1/2+z
1/2+x,1/2+y,z
1/2-x,1/2+y,1/2-z
1/2-x,1/2-y,-z
1/2+x,1/2-y,1/2+z
loop_
_atom_site_type_symbol
_atom_site_label
_atom_site_fract_x
_atom_site_fract_y
_atom_site_fract_z
Si Si1 0.061747 0.069872 0.465986
Si Si2 0.986621 0.061704 0.578086
Si Si3 0.584522 0.753003 0.349544
Si Si4 0.886673 0.758233 0.961564
Si Si5 0.212503 0.821892 0.694482
Si Si6 0.957011 0.616495 0.801217
Si Si7 0.679169 0.165375 0.471904
O O1 0.012291 0.069960 0.516792
O O2 0.328842 0.091474 0.566657
O O3 0.860473 0.111825 0.352961
O O4 0.038504 0.007791 0.421188
O O5 0.207305 0.086454 0.711734
O O6 0.754481 0.096660 0.504217
O O7 0.500000 0.725431 0.250000
O O8 0.519192 0.706889 0.373726
O O9 0.442999 0.813283 0.303383
O O10 0.861777 0.763840 0.463944
O O11 0.827910 0.692230 0.961763
O O12 0.714687 0.783532 0.834997
O O13 0.879907 0.800683 0.018034
O O14 0.428085 0.823561 0.833191
O O15 0.000000 0.598481 0.750000
#
# Coordination Sequence:
#
# PCOD8141090 Si02
#       7
#     8   8   8   8   8   8   8
#     4  10  21  35  56  87 115 156 207 247 298 359
#     4  10  21  37  56  81 123 160 194 250 306 358
#     4  11  20  38  60  86 121 158 200 245 305 364
#     4  11  22  38  56  91 122 159 194 249 307 365
#     4  12  23  37  61  94 121 158 205 253 303 376
#     4   9  18  34  54  78 113 152 191 240 293 350
#     4  11  23  38  59  88 130 156 195 251 315 366
#
# _framework density 19.912848
#
# number of rings (size 3 to 8) (size 9 to 14) (size 15 to 20)
#    0.000    1.429    4.286    2.571    4.000    0.000 
#    0.000    0.000    0.000    0.857    3.714    0.000 
#    0.000    0.000    0.000    0.000    0.000    0.000 
#
# Total GULP energy -347064.987764 kJ/mol
# GULP energy per Si atom -12395.178134 kJ/mol
# Density = 1.986753 g / cm^3
# Si number density = 19.912848 Si / 1000 Ang^3
#
#
#
# Elastic Constant Matrix: (Units=GPa)
#
#
# Indices 1 2 3 4 5 6 
#
# 1 57.8640 49.2313 25.8132 0.0000 0.9038 -0.0006
# 2 49.2313 133.1317 43.0356 -0.0001 -2.4960 0.0003
# 3 25.8132 43.0356 82.4602 -0.0022 10.3910 -0.0005
# 4 0.0000 -0.0001 -0.0022 20.8292 0.0007 6.4880
# 5 0.9038 -2.4960 10.3910 0.0007 22.1489 -0.0013
# 6 -0.0006 0.0003 -0.0005 6.4880 -0.0013 27.3990
#
#
#
# Elastic Compliance Matrix: (Units=1/GPa)
#
#
# Indices 1 2 3 4 5 6 
#
# 1 0.026160 -0.008472 -0.003733 -0.000001 -0.000271 0.000001
# 2 -0.008472 0.012032 -0.004083 0.000000 0.003617 0.000000
# 3 -0.003733 -0.004083 0.016437 0.000002 -0.008019 -0.000001
# 4 -0.000001 0.000000 0.000002 0.051833 -0.000003 -0.012274
# 5 -0.000271 0.003617 -0.008019 -0.000003 0.049330 0.000003
# 6 0.000001 0.000000 -0.000001 -0.012274 0.000003 0.039404
#
#
# Mechanical properties :
#
#
# Convention : Reuss Voigt Hill
#
# Bulk Modulus (GPa) = 45.34775 56.62403 50.98589
# Shear Modulus (GPa) = 21.26546 24.43379 22.84963
#
# Velocity S-wave (km/s) = 3.27146 3.50671 3.39112
# Velocity P-wave (km/s) = 6.09036 6.70027 6.40258
#
# Compressibility (1/GPa) = 0.02205181
#
# Stress axis : x y z
#
# Youngs Moduli (GPa) = 38.22690 83.11204 60.83735
#
# Poissons Ratio (x) = 0.70412 0.22713
# Poissons Ratio (y) = 0.32385 0.24841
# Poissons Ratio (z) = 0.14272 0.33936
#
# Static dielectric constant tensor:
#      x y z
#    x 3.372430 0.000000 0.062280 
#    y 0.000000 3.657290 -0.000010 
#    z 0.062280 -0.000010 3.703130 
# 
# 
# High freq. dielectric constant tensor:
#      x y z
#    x 1.735680 0.000000 0.009900 
#    y 0.000000 1.764600 0.000000 
#    z 0.009900 0.000000 1.788320 
# 
# From -- ./inp_files/293701.got.cif
#   From: 2010.06.25/outbox.cif.g09.slc.cpg/sg15_147_cif.got.tgz:293701.got - 2010.06.28 07:06:18.
