data_PCOD8141864
_publ_section_title
;
Structure prediction by ZEFSAII (Michael W. Deem and Ramdas Pophale) SiO2 
 PCOD8141864
Probable space group: C 2/C
;
_chemical_formula_sum "Si O2"
_cell_formula_units_Z 60
_cell_length_a 17.301266
_cell_length_b 20.699617
_cell_length_c 9.213654
_cell_angle_alpha 90.000000
_cell_angle_beta 116.071684
_cell_angle_gamma 90.000000
_cell_volume 2963.922518
_symmetry_space_group_name_H-M "C 2/C"
_symmetry_group_IT_number 15
_symmetry_cell_setting 'monoclinic'
loop_
_space_group_symop_operation_xyz
x,y,z
-x,y,1/2-z
-x,-y,-z
x,-y,1/2+z
1/2+x,1/2+y,z
1/2-x,1/2+y,1/2-z
1/2-x,1/2-y,-z
1/2+x,1/2-y,1/2+z
loop_
_atom_site_type_symbol
_atom_site_label
_atom_site_fract_x
_atom_site_fract_y
_atom_site_fract_z
Si Si1 0.461607 0.590146 0.966808
Si Si2 0.500000 0.499579 0.250000
Si Si3 0.161278 0.190109 0.730221
Si Si4 0.592587 0.062305 0.672089
Si Si5 0.393994 0.947246 0.999905
Si Si6 0.356902 0.817466 0.442463
Si Si7 0.126642 0.172008 0.029264
Si Si8 0.175951 0.335191 0.756214
O O1 0.442630 0.546557 0.807263
O O2 0.390876 0.646176 0.926064
O O3 0.447260 0.545819 0.097089
O O4 0.557313 0.622068 0.038121
O O5 0.259357 0.169278 0.816197
O O6 0.157210 0.264294 0.675618
O O7 0.116537 0.177185 0.848118
O O8 0.494638 0.041415 0.606126
O O9 0.586659 0.134149 0.604244
O O10 0.642512 0.012138 0.607082
O O11 0.643344 0.060985 0.868272
O O12 0.371765 0.885981 0.883625
O O13 0.387917 0.745379 0.427013
O O14 0.366356 0.834670 0.619577
O O15 0.222233 0.149113 0.153312
#
# Coordination Sequence:
#
# PCOD8141864 Si02
#       8
#     8   4   8   8   8   8   8   8
#     4  11  20  42  58  84 111 158 188 238 284 332
#     4  10  24  38  60  82 116 142 204 238 272 340
#     4   9  18  36  60  82 115 147 191 228 280 335
#     4  10  21  38  56  80 112 147 186 229 278 336
#     4  10  21  38  56  80 112 147 186 229 278 336
#     4   9  19  36  57  87 112 146 188 236 274 339
#     4   9  18  36  60  82 115 147 191 228 280 335
#     4   9  19  36  57  87 112 146 188 236 274 339
#
# _framework density 20.243442999999999
#
# number of rings (size 3 to 8) (size 9 to 14) (size 15 to 20)
#    0.000    2.400    1.333    2.400    1.867    1.600 
#    9.600    1.333    0.000    0.000    0.000    0.000 
#    0.000    0.000    0.000    0.000    0.000    0.000 
#
# Total GULP energy -371782.557647 kJ/mol
# GULP energy per Si atom -12392.751922 kJ/mol
# Density = 2.019737 g / cm^3
# Si number density = 20.243443 Si / 1000 Ang^3
#
#
#
# Elastic Constant Matrix: (Units=GPa)
#
#
# Indices 1 2 3 4 5 6 
#
# 1 35.0458 25.7783 21.4370 0.0000 -2.7945 0.0000
# 2 25.7783 120.4162 55.7468 0.0000 -5.7070 0.0000
# 3 21.4370 55.7468 101.2461 0.0000 -11.4165 0.0000
# 4 0.0000 0.0000 0.0000 38.1014 0.0000 0.9106
# 5 -2.7945 -5.7070 -11.4165 0.0000 23.0996 0.0000
# 6 0.0000 0.0000 0.0000 0.9106 0.0000 15.6761
#
#
#
# Elastic Compliance Matrix: (Units=1/GPa)
#
#
# Indices 1 2 3 4 5 6 
#
# 1 0.035311 -0.005505 -0.004360 0.000000 0.000757 0.000000
# 2 -0.005505 0.012006 -0.005492 0.000000 -0.000414 0.000000
# 3 -0.004360 -0.005492 0.014415 0.000000 0.005240 0.000000
# 4 0.000000 0.000000 0.000000 0.026282 0.000000 -0.001527
# 5 0.000757 -0.000414 0.005240 0.000000 0.045870 0.000000
# 6 0.000000 0.000000 0.000000 -0.001527 0.000000 0.063880
#
#
# Mechanical properties :
#
#
# Convention : Reuss Voigt Hill
#
# Bulk Modulus (GPa) = 32.23926 51.40359 41.82143
# Shear Modulus (GPa) = 20.93670 25.62514 23.28092
#
# Velocity S-wave (km/s) = 3.21946 3.56174 3.39491
# Velocity P-wave (km/s) = 5.45713 6.50865 6.00594
#
# Compressibility (1/GPa) = 0.03101808
#
# Stress axis : x y z
#
# Youngs Moduli (GPa) = 28.32015 83.29399 69.37411
#
# Poissons Ratio (x) = 0.45852 0.30247
# Poissons Ratio (y) = 0.15590 0.38097
# Poissons Ratio (z) = 0.12348 0.45741
#
# Static dielectric constant tensor:
#      x y z
#    x 3.348150 0.000000 -0.130550 
#    y 0.000000 3.815260 0.000000 
#    z -0.130550 0.000000 3.722650 
# 
# 
# High freq. dielectric constant tensor:
#      x y z
#    x 1.753400 0.000000 -0.000210 
#    y 0.000000 1.807900 0.000000 
#    z -0.000210 0.000000 1.782560 
# 
# From -- ./inp_files/50689.got.cif
#   From: 2010.06.25/outbox.cif.g09.slc.cpg/sg15_26_cif.got.tgz:50689.got - 2010.06.28 07:06:18.
