data_PCOD8141901
_publ_section_title
;
Structure prediction by ZEFSAII (Michael W. Deem and Ramdas Pophale) SiO2 
 PCOD8141901
Probable space group: C 2/C
;
_chemical_formula_sum "Si O2"
_cell_formula_units_Z 64
_cell_length_a 9.440665
_cell_length_b 13.969471
_cell_length_c 29.718482
_cell_angle_alpha 90.000000
_cell_angle_beta 117.644294
_cell_angle_gamma 90.000000
_cell_volume 3471.898195
_symmetry_space_group_name_H-M "C 2/C"
_symmetry_group_IT_number 15
_symmetry_cell_setting 'monoclinic'
loop_
_space_group_symop_operation_xyz
x,y,z
-x,y,1/2-z
-x,-y,-z
x,-y,1/2+z
1/2+x,1/2+y,z
1/2-x,1/2+y,1/2-z
1/2-x,1/2-y,-z
1/2+x,1/2-y,1/2+z
loop_
_atom_site_type_symbol
_atom_site_label
_atom_site_fract_x
_atom_site_fract_y
_atom_site_fract_z
Si Si1 0.489374 0.762590 0.301927
Si Si2 0.800224 0.897885 0.888723
Si Si3 0.387888 0.397260 0.619034
Si Si4 0.163090 0.734428 0.033691
Si Si5 0.844319 0.253600 0.699738
Si Si6 0.774317 0.116600 0.881310
Si Si7 0.086952 0.886229 0.368638
Si Si8 0.189379 0.738048 0.539875
O O1 0.500000 0.765287 0.250000
O O2 0.553937 0.660817 0.328696
O O3 0.306555 0.777988 0.291581
O O4 0.603763 0.844133 0.339406
O O5 0.695048 0.847825 0.834746
O O6 0.784742 0.839822 0.932399
O O7 0.984657 0.894215 0.902221
O O8 0.742997 0.005850 0.888476
O O9 0.228663 0.352044 0.574168
O O10 0.362947 0.504508 0.632215
O O11 0.166743 0.830526 0.064684
O O12 0.250000 0.750000 0.000000
O O13 0.990907 0.704282 0.990953
O O14 0.896613 0.164698 0.676737
O O15 0.000000 0.284025 0.750000
O O16 0.907742 0.126591 0.861792
O O17 0.215784 0.845432 0.421827
O O18 0.250000 0.750000 0.500000
#
# Coordination Sequence:
#
# PCOD8141901 Si02
#       8
#     8   8   8   8   8   8   8   8
#     4  10  21  39  61  83 112 146 185 222 279 343
#     4   9  20  38  59  81 113 146 190 228 275 334
#     4   9  20  38  58  83 110 150 186 231 276 329
#     4  11  21  36  59  80 116 153 191 227 276 331
#     4  10  21  39  61  84 112 145 178 233 284 327
#     4  10  21  38  59  84 110 151 188 230 275 334
#     4  10  21  38  58  83 117 143 188 235 279 324
#     4  11  21  36  55  86 114 151 189 233 274 326
#
# _framework density 18.433720000000001
#
# number of rings (size 3 to 8) (size 9 to 14) (size 15 to 20)
#    0.000    2.000    2.500    0.750    1.750    3.000 
#    2.250    2.500    0.000    0.000    0.000    0.000 
#    0.000    0.000    0.000    0.000    0.000    0.000 
#
# Total GULP energy -396763.847659 kJ/mol
# GULP energy per Si atom -12398.870239 kJ/mol
# Density = 1.839176 g / cm^3
# Si number density = 18.433720 Si / 1000 Ang^3
#
#
#
# Elastic Constant Matrix: (Units=GPa)
#
#
# Indices 1 2 3 4 5 6 
#
# 1 105.8045 38.6415 44.3386 0.0000 6.7029 0.0000
# 2 38.6415 140.6558 39.7511 0.0000 4.3359 0.0000
# 3 44.3386 39.7511 100.8813 0.0000 6.6509 0.0000
# 4 0.0000 0.0000 0.0000 9.6897 0.0000 0.7275
# 5 6.7029 4.3359 6.6509 0.0000 43.0331 0.0000
# 6 0.0000 0.0000 0.0000 0.7275 0.0000 25.3475
#
#
#
# Elastic Compliance Matrix: (Units=1/GPa)
#
#
# Indices 1 2 3 4 5 6 
#
# 1 0.012129 -0.002041 -0.004461 0.000000 -0.000994 0.000000
# 2 -0.002041 0.008348 -0.002382 0.000000 -0.000155 0.000000
# 3 -0.004461 -0.002382 0.012882 0.000000 -0.001056 0.000000
# 4 0.000000 0.000000 0.000000 0.103425 0.000000 -0.002969
# 5 -0.000994 -0.000155 -0.001056 0.000000 0.023572 0.000000
# 6 0.000000 0.000000 0.000000 -0.002969 0.000000 0.039537
#
#
# Mechanical properties :
#
#
# Convention : Reuss Voigt Hill
#
# Bulk Modulus (GPa) = 64.14165 65.86715 65.00440
# Shear Modulus (GPa) = 22.43580 30.58810 26.51195
#
# Velocity S-wave (km/s) = 3.49249 4.07794 3.79652
# Velocity P-wave (km/s) = 7.15085 7.61461 7.38637
#
# Compressibility (1/GPa) = 0.01559049
#
# Stress axis : x y z
#
# Youngs Moduli (GPa) = 82.44540 119.78540 77.62888
#
# Poissons Ratio (x) = 0.24445 0.34632
# Poissons Ratio (y) = 0.16825 0.18494
# Poissons Ratio (z) = 0.36781 0.28537
#
# Static dielectric constant tensor:
#      x y z
#    x 3.447540 0.000000 0.046820 
#    y 0.000000 3.420430 0.000000 
#    z 0.046820 0.000000 3.402770 
# 
# 
# High freq. dielectric constant tensor:
#      x y z
#    x 1.721430 0.000000 0.001990 
#    y 0.000000 1.712010 0.000000 
#    z 0.001990 0.000000 1.724330 
# 
# From -- ./inp_files/288794.got.cif
#   From: 2010.06.25/outbox.cif.g09.slc.cpg/sg15_145_cif.got.tgz:288794.got - 2010.06.28 07:06:18.
