data_PCOD8141590
_publ_section_title
;
Structure prediction by ZEFSAII (Michael W. Deem and Ramdas Pophale) SiO2 
 PCOD8141590
Probable space group: C 2/C
;
_chemical_formula_sum "Si O2"
_cell_formula_units_Z 64
_cell_length_a 11.629136
_cell_length_b 26.468868
_cell_length_c 14.171990
_cell_angle_alpha 90.000000
_cell_angle_beta 136.343201
_cell_angle_gamma 90.000000
_cell_volume 3011.444525
_symmetry_space_group_name_H-M "C 2/C"
_symmetry_group_IT_number 15
_symmetry_cell_setting 'monoclinic'
loop_
_space_group_symop_operation_xyz
x,y,z
-x,y,1/2-z
-x,-y,-z
x,-y,1/2+z
1/2+x,1/2+y,z
1/2-x,1/2+y,1/2-z
1/2-x,1/2-y,-z
1/2+x,1/2-y,1/2+z
loop_
_atom_site_type_symbol
_atom_site_label
_atom_site_fract_x
_atom_site_fract_y
_atom_site_fract_z
Si Si1 0.875070 0.454954 0.425859
Si Si2 0.932748 0.148141 0.608390
Si Si3 0.491764 0.729168 0.988420
Si Si4 0.938563 0.314945 0.615331
Si Si5 0.138827 0.038920 0.964537
Si Si6 0.663819 0.285599 0.789163
Si Si7 0.169355 0.022230 0.192954
Si Si8 0.350159 0.116798 0.375488
O O1 0.780067 0.459293 0.469391
O O2 0.753742 0.467822 0.266936
O O3 0.000000 0.500000 0.500000
O O4 0.977314 0.402411 0.470724
O O5 0.736676 0.157472 0.482486
O O6 0.972556 0.089164 0.615733
O O7 0.000000 0.165229 0.750000
O O8 0.027228 0.177961 0.582171
O O9 0.575634 0.772013 0.972761
O O10 0.303552 0.745057 0.903190
O O11 0.613471 0.719600 0.149299
O O12 0.000000 0.290056 0.750000
O O13 0.082292 0.356188 0.678869
O O14 0.216087 0.038069 0.114807
O O15 0.024074 0.988145 0.895150
O O16 0.500000 0.274113 0.750000
O O17 0.739857 0.340690 0.862845
O O18 0.231527 0.068916 0.291998
#
# Coordination Sequence:
#
# PCOD8141590 Si02
#       8
#     8   8   8   8   8   8   8   8
#     4  10  21  37  59  89 122 164 210 265 317 374
#     4  12  22  36  63  96 134 167 202 270 336 389
#     4  11  23  41  62  99 128 167 218 266 320 399
#     4  11  21  37  63  96 132 166 206 260 335 393
#     4  11  22  38  61  90 129 170 214 262 327 389
#     4  11  24  44  68  90 126 175 223 265 320 378
#     4  10  22  39  60  91 125 170 213 265 319 386
#     4  10  22  38  62  91 121 161 218 262 314 389
#
# _framework density 21.25226
#
# number of rings (size 3 to 8) (size 9 to 14) (size 15 to 20)
#    0.000    1.250    1.250    6.000    0.000    3.500 
#    0.000    0.000    0.000    1.500    0.000    0.000 
#    0.000    0.000    0.000    0.000    0.000    0.000 
#
# Total GULP energy -396454.624766 kJ/mol
# GULP energy per Si atom -12389.207024 kJ/mol
# Density = 2.120389 g / cm^3
# Si number density = 21.252260 Si / 1000 Ang^3
#
#
#
# Elastic Constant Matrix: (Units=GPa)
#
#
# Indices 1 2 3 4 5 6 
#
# 1 70.8505 39.6281 15.3973 0.0000 13.3958 0.0000
# 2 39.6281 104.7787 14.0342 0.0000 8.3692 0.0000
# 3 15.3973 14.0342 65.0680 0.0000 -0.9047 0.0000
# 4 0.0000 0.0000 0.0000 39.5741 0.0000 6.0451
# 5 13.3958 8.3692 -0.9047 0.0000 34.3004 0.0000
# 6 0.0000 0.0000 0.0000 6.0451 0.0000 13.8431
#
#
#
# Elastic Compliance Matrix: (Units=1/GPa)
#
#
# Indices 1 2 3 4 5 6 
#
# 1 0.019633 -0.006486 -0.003333 0.000000 -0.006173 0.000000
# 2 -0.006486 0.012182 -0.001099 0.000000 -0.000468 0.000000
# 3 -0.003333 -0.001099 0.016422 0.000000 0.002003 0.000000
# 4 0.000000 0.000000 0.000000 0.027075 0.000000 -0.011823
# 5 -0.006173 -0.000468 0.002003 0.000000 0.031732 0.000000
# 6 0.000000 0.000000 0.000000 -0.011823 0.000000 0.077401
#
#
# Mechanical properties :
#
#
# Convention : Reuss Voigt Hill
#
# Bulk Modulus (GPa) = 37.87699 42.09070 39.98385
# Shear Modulus (GPa) = 23.24696 28.98603 26.11650
#
# Velocity S-wave (km/s) = 3.31094 3.69711 3.50934
# Velocity P-wave (km/s) = 5.69892 6.17034 5.93931
#
# Compressibility (1/GPa) = 0.02640125
#
# Stress axis : x y z
#
# Youngs Moduli (GPa) = 50.93358 82.09106 60.89349
#
# Poissons Ratio (x) = 0.53244 0.20295
# Poissons Ratio (y) = 0.33036 0.06693
# Poissons Ratio (z) = 0.16975 0.09022
#
# Static dielectric constant tensor:
#      x y z
#    x 3.751950 0.000000 0.203260 
#    y 0.000000 4.078100 0.000000 
#    z 0.203260 0.000000 3.915540 
# 
# 
# High freq. dielectric constant tensor:
#      x y z
#    x 1.820290 0.000000 0.016470 
#    y 0.000000 1.838360 0.000000 
#    z 0.016470 0.000000 1.839310 
# 
# From -- ./inp_files/148788.got.cif
#   From: 2010.06.25/outbox.cif.g09.slc.cpg/sg15_75_cif.got.tgz:148788.got - 2010.06.28 07:06:18.
