data_PCOD8141193
_publ_section_title
;
Structure prediction by ZEFSAII (Michael W. Deem and Ramdas Pophale) SiO2 
 PCOD8141193
Probable space group: C 2/C
;
_chemical_formula_sum "Si O2"
_cell_formula_units_Z 44
_cell_length_a 16.936533
_cell_length_b 8.014582
_cell_length_c 16.492785
_cell_angle_alpha 90.000000
_cell_angle_beta 100.812844
_cell_angle_gamma 90.000000
_cell_volume 2198.970035
_symmetry_space_group_name_H-M "C 2/C"
_symmetry_group_IT_number 15
_symmetry_cell_setting 'monoclinic'
loop_
_space_group_symop_operation_xyz
x,y,z
-x,y,1/2-z
-x,-y,-z
x,-y,1/2+z
1/2+x,1/2+y,z
1/2-x,1/2+y,1/2-z
1/2-x,1/2-y,-z
1/2+x,1/2-y,1/2+z
loop_
_atom_site_type_symbol
_atom_site_label
_atom_site_fract_x
_atom_site_fract_y
_atom_site_fract_z
Si Si1 0.629383 0.111911 0.352460
Si Si2 0.304106 0.351735 0.271784
Si Si3 0.858328 0.226482 0.312772
Si Si4 0.724040 0.377008 0.062370
Si Si5 0.500000 0.110634 0.750000
Si Si6 0.660642 0.303668 0.506005
O O1 0.648202 0.232481 0.280092
O O2 0.604336 0.226422 0.425182
O O3 0.704910 0.994807 0.388776
O O4 0.551633 0.003132 0.319984
O O5 0.209618 0.355141 0.230974
O O6 0.336322 0.540923 0.278075
O O7 0.313018 0.282641 0.366335
O O8 0.943941 0.271181 0.292469
O O9 0.865166 0.255795 0.410145
O O10 0.657505 0.494274 0.006344
O O11 0.750000 0.250000 0.000000
O O12 0.750000 0.250000 0.500000
#
# Coordination Sequence:
#
# PCOD8141193 Si02
#       6
#     8   8   8   8   4   8
#     4  11  23  39  64  94 131 169 211 267 321 386
#     4  11  20  41  67  96 119 174 225 262 302 383
#     4  11  22  39  66  93 130 166 217 265 318 382
#     4  10  21  35  64  99 123 160 219 272 309 364
#     4  12  26  42  58  98 136 174 208 258 340 386
#     4   9  19  38  61  95 120 164 214 271 306 365
#
# _framework density 20.009367000000001
#
# number of rings (size 3 to 8) (size 9 to 14) (size 15 to 20)
#    0.000    1.455    7.273    0.000    2.545    4.364 
#    0.000    0.000    0.000    5.455    0.000    0.000 
#    0.000    0.000    0.000    0.000    0.000    0.000 
#
# Total GULP energy -272627.435627 kJ/mol
# GULP energy per Si atom -12392.156165 kJ/mol
# Density = 1.996382 g / cm^3
# Si number density = 20.009367 Si / 1000 Ang^3
#
#
#
# Elastic Constant Matrix: (Units=GPa)
#
#
# Indices 1 2 3 4 5 6 
#
# 1 101.9087 51.1915 50.6322 0.0000 -22.4808 0.0000
# 2 51.1915 112.3074 101.9511 0.0000 -13.2229 0.0000
# 3 50.6322 101.9511 173.5574 0.0000 -37.3047 0.0000
# 4 0.0000 0.0000 0.0000 43.4018 0.0000 -3.4998
# 5 -22.4808 -13.2229 -37.3047 0.0000 30.1436 0.0000
# 6 0.0000 0.0000 0.0000 -3.4998 0.0000 26.8844
#
#
#
# Elastic Compliance Matrix: (Units=1/GPa)
#
#
# Indices 1 2 3 4 5 6 
#
# 1 0.014868 -0.007890 0.002638 0.000000 0.010893 0.000000
# 2 -0.007890 0.024592 -0.015110 0.000000 -0.013795 0.000000
# 3 0.002638 -0.015110 0.017529 0.000000 0.017033 0.000000
# 4 0.000000 0.000000 0.000000 0.023285 0.000000 0.003031
# 5 0.010893 -0.013795 0.017033 0.000000 0.056326 0.000000
# 6 0.000000 0.000000 0.000000 0.003031 0.000000 0.037591
#
#
# Mechanical properties :
#
#
# Convention : Reuss Voigt Hill
#
# Bulk Modulus (GPa) = 61.47273 88.36921 74.92097
# Shear Modulus (GPa) = 22.69271 32.35253 27.52262
#
# Velocity S-wave (km/s) = 3.37130 4.02539 3.71278
# Velocity P-wave (km/s) = 6.77812 8.11572 7.47689
#
# Compressibility (1/GPa) = 0.01626738
#
# Stress axis : x y z
#
# Youngs Moduli (GPa) = 67.25893 40.66292 57.04885
#
# Poissons Ratio (x) = 0.32081 -0.15051
# Poissons Ratio (y) = 0.53065 0.86199
# Poissons Ratio (z) = -0.17745 0.61440
#
# Static dielectric constant tensor:
#      x y z
#    x 3.308480 0.000000 -0.181170 
#    y 0.000000 3.993620 0.000000 
#    z -0.181170 0.000000 4.034800 
# 
# 
# High freq. dielectric constant tensor:
#      x y z
#    x 1.741960 0.000000 -0.018170 
#    y 0.000000 1.787620 0.000000 
#    z -0.018170 0.000000 1.802900 
# 
# From -- ./inp_files/159406.got.cif
#   From: 2010.06.25/outbox.cif.g09.slc.cpg/sg15_80_cif.got.tgz:159406.got - 2010.06.28 07:06:18.
