data_PCOD8141512
_publ_section_title
;
Structure prediction by ZEFSAII (Michael W. Deem and Ramdas Pophale) SiO2 
 PCOD8141512
Probable space group: C 2/C
;
_chemical_formula_sum "Si O2"
_cell_formula_units_Z 32
_cell_length_a 13.228327
_cell_length_b 7.479253
_cell_length_c 26.032676
_cell_angle_alpha 90.000000
_cell_angle_beta 138.455127
_cell_angle_gamma 90.000000
_cell_volume 1708.168374
_symmetry_space_group_name_H-M "C 2/C"
_symmetry_group_IT_number 15
_symmetry_cell_setting 'monoclinic'
loop_
_space_group_symop_operation_xyz
x,y,z
-x,y,1/2-z
-x,-y,-z
x,-y,1/2+z
1/2+x,1/2+y,z
1/2-x,1/2+y,1/2-z
1/2-x,1/2-y,-z
1/2+x,1/2-y,1/2+z
loop_
_atom_site_type_symbol
_atom_site_label
_atom_site_fract_x
_atom_site_fract_y
_atom_site_fract_z
Si Si1 0.142632 0.757743 0.150191
Si Si2 0.274879 0.261000 0.591158
Si Si3 0.415766 0.631336 0.322022
Si Si4 0.429886 0.932020 0.065705
O O1 0.218138 0.804604 0.124449
O O2 0.262062 0.659793 0.232290
O O3 0.995904 0.630904 0.089176
O O4 0.086267 0.941649 0.151687
O O5 0.436252 0.365014 0.659169
O O6 0.303115 0.091057 0.563363
O O7 0.149373 0.393427 0.518980
O O8 0.434736 0.787370 0.372350
#
# Coordination Sequence:
#
# PCOD8141512 Si02
#       4
#     8   8   8   8
#     4  12  20  38  61  79 115 152 178 231 282 316
#     4   9  21  41  55  83 118 140 184 238 269 326
#     4  10  21  37  57  84 111 146 190 223 270 339
#     4   9  21  41  55  86 114 138 193 230 266 343
#
# _framework density 18.733516000000002
#
# number of rings (size 3 to 8) (size 9 to 14) (size 15 to 20)
#    1.500    0.500    2.500    1.500    0.000    2.000 
#    4.500    0.000    0.000    0.000    0.000    0.000 
#    0.000    0.000    0.000    0.000    0.000    0.000 
#
# Total GULP energy -198288.831218 kJ/mol
# GULP energy per Si atom -12393.051951 kJ/mol
# Density = 1.869088 g / cm^3
# Si number density = 18.733516 Si / 1000 Ang^3
#
#
#
# Elastic Constant Matrix: (Units=GPa)
#
#
# Indices 1 2 3 4 5 6 
#
# 1 73.8500 17.0296 -9.5585 0.0000 -4.7941 0.0000
# 2 17.0296 67.7668 -7.8743 0.0000 -8.6128 0.0000
# 3 -9.5585 -7.8743 31.5687 0.0000 7.3074 0.0000
# 4 0.0000 0.0000 0.0000 21.8236 0.0000 1.0659
# 5 -4.7941 -8.6128 7.3074 0.0000 13.7028 0.0000
# 6 0.0000 0.0000 0.0000 1.0659 0.0000 12.7514
#
#
#
# Elastic Compliance Matrix: (Units=1/GPa)
#
#
# Indices 1 2 3 4 5 6 
#
# 1 0.014794 -0.003148 0.003370 0.000000 0.001400 0.000000
# 2 -0.003148 0.016808 0.001197 0.000000 0.008825 0.000000
# 3 0.003370 0.001197 0.037132 0.000000 -0.017871 0.000000
# 4 0.000000 0.000000 0.000000 0.046010 0.000000 -0.003846
# 5 0.001400 0.008825 -0.017871 0.000000 0.088545 0.000000
# 6 0.000000 0.000000 0.000000 -0.003846 0.000000 0.078744
#
#
# Mechanical properties :
#
#
# Convention : Reuss Voigt Hill
#
# Bulk Modulus (GPa) = 13.97202 19.15322 16.56262
# Shear Modulus (GPa) = 16.49871 21.22816 18.86343
#
# Velocity S-wave (km/s) = 2.97089 3.36990 3.17667
# Velocity P-wave (km/s) = 4.38665 5.03864 4.72391
#
# Compressibility (1/GPa) = 0.07157163
#
# Stress axis : x y z
#
# Youngs Moduli (GPa) = 67.59500 59.49448 26.93061
#
# Poissons Ratio (x) = 0.18730 -0.09076
# Poissons Ratio (y) = 0.21280 -0.03222
# Poissons Ratio (z) = -0.22780 -0.07119
#
# Static dielectric constant tensor:
#      x y z
#    x 3.198330 0.000000 0.068800 
#    y 0.000000 3.129480 0.000000 
#    z 0.068800 0.000000 3.531000 
# 
# 
# High freq. dielectric constant tensor:
#      x y z
#    x 1.710090 0.000000 0.004210 
#    y 0.000000 1.708330 0.000000 
#    z 0.004210 0.000000 1.742850 
# 
# From -- ./inp_files/149888.got.cif
#   From: 2010.06.25/outbox.cif.g09.slc.cpg/sg15_75_cif.got.tgz:149888.got - 2010.06.28 07:06:18.
