data_PCOD8141341
_publ_section_title
;
Structure prediction by ZEFSAII (Michael W. Deem and Ramdas Pophale) SiO2 
 PCOD8141341
Probable space group: C 2/C
;
_chemical_formula_sum "Si O2"
_cell_formula_units_Z 40
_cell_length_a 7.174017
_cell_length_b 23.042291
_cell_length_c 12.954912
_cell_angle_alpha 90.000000
_cell_angle_beta 62.247858
_cell_angle_gamma 90.000000
_cell_volume 1895.183153
_symmetry_space_group_name_H-M "C 2/C"
_symmetry_group_IT_number 15
_symmetry_cell_setting 'monoclinic'
loop_
_space_group_symop_operation_xyz
x,y,z
-x,y,1/2-z
-x,-y,-z
x,-y,1/2+z
1/2+x,1/2+y,z
1/2-x,1/2+y,1/2-z
1/2-x,1/2-y,-z
1/2+x,1/2-y,1/2+z
loop_
_atom_site_type_symbol
_atom_site_label
_atom_site_fract_x
_atom_site_fract_y
_atom_site_fract_z
Si Si1 0.482462 0.775922 0.460143
Si Si2 0.763629 0.068729 0.032158
Si Si3 0.668276 0.190631 0.124329
Si Si4 0.793799 0.960870 0.149902
Si Si5 0.021615 0.407483 0.402555
O O1 0.250000 0.750000 0.500000
O O2 0.531837 0.779113 0.569261
O O3 0.661732 0.733661 0.367470
O O4 0.523322 0.837807 0.395852
O O5 0.801911 0.134873 0.054667
O O6 0.733981 0.028410 0.141214
O O7 0.562329 0.068182 0.007158
O O8 0.956998 0.047387 0.910868
O O9 0.500000 0.169063 0.250000
O O10 0.688563 0.936430 0.280277
O O11 0.711337 0.926408 0.070149
#
# Coordination Sequence:
#
# PCOD8141341 Si02
#       5
#     8   8   8   8   8
#     4  10  22  41  62  88 121 155 206 252 302 366
#     4  10  21  39  57  84 124 150 201 245 293 362
#     4  10  23  38  60  88 118 163 193 252 308 359
#     4  10  21  36  60  88 113 160 195 243 298 353
#     4  10  21  36  61  88 114 155 197 251 297 354
#
# _framework density 21.106141000000001
#
# number of rings (size 3 to 8) (size 9 to 14) (size 15 to 20)
#    0.000    2.000    0.000    2.400    2.800    8.800 
#    0.000    0.000    4.400    0.000    0.000    0.000 
#    0.000    0.000    0.000    0.000    0.000    0.000 
#
# Total GULP energy -247874.530359 kJ/mol
# GULP energy per Si atom -12393.726518 kJ/mol
# Density = 2.105810 g / cm^3
# Si number density = 21.106141 Si / 1000 Ang^3
#
#
#
# Elastic Constant Matrix: (Units=GPa)
#
#
# Indices 1 2 3 4 5 6 
#
# 1 102.8786 46.7681 12.1509 0.0000 -0.1161 0.0000
# 2 46.7681 137.7330 23.1676 0.0000 0.0322 0.0000
# 3 12.1509 23.1676 59.9036 0.0000 -8.6526 0.0000
# 4 0.0000 0.0000 0.0000 33.3365 0.0000 -3.4940
# 5 -0.1161 0.0322 -8.6526 0.0000 19.1714 0.0000
# 6 0.0000 0.0000 0.0000 -3.4940 0.0000 30.5940
#
#
#
# Elastic Compliance Matrix: (Units=1/GPa)
#
#
# Indices 1 2 3 4 5 6 
#
# 1 0.011540 -0.003761 -0.000936 0.000000 -0.000346 0.000000
# 2 -0.003761 0.009030 -0.002926 0.000000 -0.001358 0.000000
# 3 -0.000936 -0.002926 0.019271 0.000000 0.008697 0.000000
# 4 0.000000 0.000000 0.000000 0.030361 0.000000 0.003467
# 5 -0.000346 -0.001358 0.008697 0.000000 0.056086 0.000000
# 6 0.000000 0.000000 0.000000 0.003467 0.000000 0.033082
#
#
# Mechanical properties :
#
#
# Convention : Reuss Voigt Hill
#
# Bulk Modulus (GPa) = 40.65811 51.63205 46.14508
# Shear Modulus (GPa) = 27.35015 31.18227 29.26621
#
# Velocity S-wave (km/s) = 3.60368 3.84787 3.72778
# Velocity P-wave (km/s) = 6.05151 6.65264 6.35918
#
# Compressibility (1/GPa) = 0.02459534
#
# Stress axis : x y z
#
# Youngs Moduli (GPa) = 86.65439 110.74316 51.89123
#
# Poissons Ratio (x) = 0.41650 0.04859
# Poissons Ratio (y) = 0.32590 0.15181
# Poissons Ratio (z) = 0.08113 0.32399
#
# Static dielectric constant tensor:
#      x y z
#    x 3.986070 0.000000 0.081170 
#    y 0.000000 3.958060 0.000000 
#    z 0.081170 0.000000 3.466960 
# 
# 
# High freq. dielectric constant tensor:
#      x y z
#    x 1.836880 0.000000 0.002030 
#    y 0.000000 1.842520 0.000000 
#    z 0.002030 0.000000 1.801110 
# 
# From -- ./inp_files/129281.got.cif
#   From: 2010.06.25/outbox.cif.g09.slc.cpg/sg15_65_cif.got.tgz:129281.got - 2010.06.28 07:06:18.
