data_PCOD8141759
_publ_section_title
;
Structure prediction by ZEFSAII (Michael W. Deem and Ramdas Pophale) SiO2 
 PCOD8141759
Probable space group: C 2/C
;
_chemical_formula_sum "Si O2"
_cell_formula_units_Z 64
_cell_length_a 23.177400
_cell_length_b 21.911603
_cell_length_c 17.446280
_cell_angle_alpha 90.000000
_cell_angle_beta 21.003625
_cell_angle_gamma 90.000000
_cell_volume 3175.721725
_symmetry_space_group_name_H-M "C 2/C"
_symmetry_group_IT_number 15
_symmetry_cell_setting 'monoclinic'
loop_
_space_group_symop_operation_xyz
x,y,z
-x,y,1/2-z
-x,-y,-z
x,-y,1/2+z
1/2+x,1/2+y,z
1/2-x,1/2+y,1/2-z
1/2-x,1/2-y,-z
1/2+x,1/2-y,1/2+z
loop_
_atom_site_type_symbol
_atom_site_label
_atom_site_fract_x
_atom_site_fract_y
_atom_site_fract_z
Si Si1 0.814882 0.283346 0.993450
Si Si2 0.379567 0.382070 0.066434
Si Si3 0.338479 0.294755 0.778139
Si Si4 0.411714 0.838529 0.160356
Si Si5 0.727770 0.312681 0.817957
Si Si6 0.925369 0.890141 0.185378
Si Si7 0.553340 0.518748 0.267597
Si Si8 0.345481 0.889633 0.400800
O O1 0.000000 0.297937 0.750000
O O2 0.750000 0.250000 0.000000
O O3 0.784819 0.245190 0.109151
O O4 0.722275 0.346976 0.110019
O O5 0.200318 0.357372 0.272438
O O6 0.421642 0.398987 0.100008
O O7 0.499105 0.327504 0.894167
O O8 0.404492 0.444870 0.989371
O O9 0.360058 0.223581 0.767823
O O10 0.312343 0.295373 0.719152
O O11 0.194001 0.325519 0.005668
O O12 0.387615 0.885917 0.258897
O O13 0.591310 0.838683 0.902890
O O14 0.595498 0.363276 0.006169
O O15 0.898331 0.956638 0.251877
O O16 0.500000 0.500342 0.250000
O O17 0.703339 0.563293 0.087416
O O18 0.500000 0.918403 0.250000
#
# Coordination Sequence:
#
# PCOD8141759 Si02
#       8
#     8   8   8   8   8   8   8   8
#     4  12  26  44  68 100 135 167 217 279 330 396
#     4  10  23  41  65  98 129 175 225 270 314 393
#     4  10  21  37  63  94 140 176 210 255 334 396
#     4  12  21  38  65 100 138 169 216 265 327 402
#     4  11  23  42  64 100 133 171 203 272 336 394
#     4  11  25  45  71  93 128 178 219 264 339 393
#     4  11  24  46  68  90 129 178 227 275 321 380
#     4  11  23  41  62  97 136 176 218 269 317 380
#
# _framework density 20.152899000000001
#
# number of rings (size 3 to 8) (size 9 to 14) (size 15 to 20)
#    0.000    1.000    3.750    3.750    3.500    0.500 
#    0.000    1.875    0.000    0.000    0.000    0.000 
#    0.000    0.000    0.000    0.000    0.000    0.000 
#
# Total GULP energy -396724.660225 kJ/mol
# GULP energy per Si atom -12397.645632 kJ/mol
# Density = 2.010703 g / cm^3
# Si number density = 20.152899 Si / 1000 Ang^3
#
#
#
# Elastic Constant Matrix: (Units=GPa)
#
#
# Indices 1 2 3 4 5 6 
#
# 1 79.3892 36.1514 30.7080 -0.3420 -14.2798 0.1412
# 2 36.1514 120.3044 50.7860 -0.3012 -5.4891 0.1258
# 3 30.7080 50.7860 139.0915 -0.6569 -19.8791 0.2727
# 4 -0.3420 -0.3012 -0.6569 -33.7580 0.1940 12.6188
# 5 -14.2798 -5.4891 -19.8791 0.1940 35.3940 -0.0872
# 6 0.1412 0.1258 0.2727 12.6188 -0.0872 17.3884
#
#
#
# Elastic Compliance Matrix: (Units=1/GPa)
#
#
# Indices 1 2 3 4 5 6 
#
# 1 0.015818 -0.003964 -0.001327 -0.000071 0.005022 -0.000002
# 2 -0.003964 0.010830 -0.003335 -0.000002 -0.001793 -0.000001
# 3 -0.001327 -0.003335 0.009296 -0.000116 0.004169 -0.000006
# 4 -0.000071 -0.000002 -0.000116 -0.023298 0.000075 0.016910
# 5 0.005022 -0.001793 0.004169 0.000075 0.032342 0.000014
# 6 -0.000002 -0.000001 -0.000006 0.016910 0.000014 0.045238
#
#
# Mechanical properties :
#
#
# Convention : Reuss Voigt Hill
#
# Bulk Modulus (GPa) = 53.50572 63.78621 58.64596
# Shear Modulus (GPa) = 43.97228 18.54755 31.25991
#
# Velocity S-wave (km/s) = 4.67618 3.03700 3.94272
# Velocity P-wave (km/s) = 7.46747 6.63458 7.06331
#
# Compressibility (1/GPa) = 0.01868959
#
# Stress axis : x y z
#
# Youngs Moduli (GPa) = 63.22072 92.33994 107.57720
#
# Poissons Ratio (x) = 0.36602 0.14280
# Poissons Ratio (y) = 0.25060 0.35880
# Poissons Ratio (z) = 0.08392 0.30798
#
# Static dielectric constant tensor:
#      x y z
#    x 3.811080 -0.000300 -0.058650 
#    y -0.000300 3.539680 0.000330 
#    z -0.058650 0.000330 3.828440 
# 
# 
# High freq. dielectric constant tensor:
#      x y z
#    x 1.802980 -0.000010 -0.005600 
#    y -0.000010 1.771790 0.000020 
#    z -0.005600 0.000020 1.790970 
# 
# From -- ./inp_files/220263.got.cif
#   From: 2010.06.25/outbox.cif.g09.slc.cpg/sg15_111_cif.got.tgz:220263.got - 2010.06.28 07:06:18.
