data_PCOD8141338
_publ_section_title
;
Structure prediction by ZEFSAII (Michael W. Deem and Ramdas Pophale) SiO2 
 PCOD8141338
Probable space group: C 2/C
;
_chemical_formula_sum "Si O2"
_cell_formula_units_Z 56
_cell_length_a 6.084515
_cell_length_b 25.733677
_cell_length_c 18.720396
_cell_angle_alpha 90.000000
_cell_angle_beta 64.038374
_cell_angle_gamma 90.000000
_cell_volume 2635.389286
_symmetry_space_group_name_H-M "C 2/C"
_symmetry_group_IT_number 15
_symmetry_cell_setting 'monoclinic'
loop_
_space_group_symop_operation_xyz
x,y,z
-x,y,1/2-z
-x,-y,-z
x,-y,1/2+z
1/2+x,1/2+y,z
1/2-x,1/2+y,1/2-z
1/2-x,1/2-y,-z
1/2+x,1/2-y,1/2+z
loop_
_atom_site_type_symbol
_atom_site_label
_atom_site_fract_x
_atom_site_fract_y
_atom_site_fract_z
Si Si1 0.195569 0.190958 0.359383
Si Si2 0.000000 0.360695 0.250000
Si Si3 0.469552 0.886269 0.610472
Si Si4 0.486872 0.402276 0.168313
Si Si5 0.000000 0.866740 0.750000
Si Si6 0.681666 0.809305 0.356165
Si Si7 0.919942 0.943320 0.489698
Si Si8 0.240319 0.149516 0.000046
O O1 0.426639 0.157960 0.352014
O O2 0.277281 0.250777 0.346767
O O3 0.104058 0.170974 0.296111
O O4 0.981894 0.186908 0.447962
O O5 0.203214 0.397445 0.183862
O O6 0.168534 0.324975 0.275504
O O7 0.215070 0.903692 0.686023
O O8 0.666642 0.931946 0.568879
O O9 0.411918 0.862481 0.542357
O O10 0.500000 0.421452 0.250000
O O11 0.624841 0.347592 0.134274
O O12 0.610636 0.441545 0.092927
O O13 0.406110 0.817683 0.422729
O O14 0.131005 0.903193 0.482527
O O15 0.000000 0.000000 0.500000
#
# Coordination Sequence:
#
# PCOD8141338 Si02
#       8
#     8   4   8   8   4   8   8   8
#     4  10  22  35  61  91 129 173 210 254 307 381
#     4  10  21  36  60  86 132 162 200 250 317 368
#     4  10  22  41  62  94 129 166 214 267 312 374
#     4  10  22  39  64  91 129 159 201 269 320 378
#     4  10  21  40  64  86 138 168 216 258 317 374
#     4  11  20  36  60  94 128 169 209 249 314 383
#     4  11  23  44  72  92 121 167 219 270 334 387
#     4  10  21  39  61  91 126 163 206 267 316 375
#
# _framework density 21.249234000000001
#
# number of rings (size 3 to 8) (size 9 to 14) (size 15 to 20)
#    0.000    1.714    2.857    1.286    0.000    6.857 
#    0.000    0.000   26.714    0.000    0.000    0.000 
#    0.000    0.000    0.000    0.000    0.000    0.000 
#
# Total GULP energy -346998.677297 kJ/mol
# GULP energy per Si atom -12392.809903 kJ/mol
# Density = 2.120087 g / cm^3
# Si number density = 21.249234 Si / 1000 Ang^3
#
#
#
# Elastic Constant Matrix: (Units=GPa)
#
#
# Indices 1 2 3 4 5 6 
#
# 1 92.4479 30.1400 39.6732 0.0000 -8.9253 0.0000
# 2 30.1400 95.6799 52.2934 0.0000 -4.1549 0.0000
# 3 39.6732 52.2934 133.3335 0.0000 -17.5092 0.0000
# 4 0.0000 0.0000 0.0000 17.5525 0.0000 3.0646
# 5 -8.9253 -4.1549 -17.5092 0.0000 50.3350 0.0000
# 6 0.0000 0.0000 0.0000 3.0646 0.0000 23.2549
#
#
#
# Elastic Compliance Matrix: (Units=1/GPa)
#
#
# Indices 1 2 3 4 5 6 
#
# 1 0.012913 -0.002546 -0.002694 0.000000 0.001143 0.000000
# 2 -0.002546 0.013832 -0.004796 0.000000 -0.000978 0.000000
# 3 -0.002694 -0.004796 0.010550 0.000000 0.002796 0.000000
# 4 0.000000 0.000000 0.000000 0.058314 0.000000 -0.007685
# 5 0.001143 -0.000978 0.002796 0.000000 0.020961 0.000000
# 6 0.000000 0.000000 0.000000 -0.007685 0.000000 0.044014
#
#
# Mechanical properties :
#
#
# Convention : Reuss Voigt Hill
#
# Bulk Modulus (GPa) = 58.05856 62.85273 60.45565
# Shear Modulus (GPa) = 26.82445 31.51878 29.17162
#
# Velocity S-wave (km/s) = 3.55684 3.85553 3.70919
# Velocity P-wave (km/s) = 6.65208 7.03301 6.84519
#
# Compressibility (1/GPa) = 0.01722399
#
# Stress axis : x y z
#
# Youngs Moduli (GPa) = 77.43988 72.29515 94.78987
#
# Poissons Ratio (x) = 0.18406 0.25534
# Poissons Ratio (y) = 0.19715 0.45460
# Poissons Ratio (z) = 0.20861 0.34672
#
# Static dielectric constant tensor:
#      x y z
#    x 4.069390 0.000000 -0.230170 
#    y 0.000000 3.306490 0.000000 
#    z -0.230170 0.000000 4.332570 
# 
# 
# High freq. dielectric constant tensor:
#      x y z
#    x 1.848450 0.000000 -0.010080 
#    y 0.000000 1.780080 0.000000 
#    z -0.010080 0.000000 1.858860 
# 
# From -- ./inp_files/186265.got.cif
#   From: 2010.06.25/outbox.cif.g09.slc.cpg/sg15_94_cif.got.tgz:186265.got - 2010.06.28 07:06:18.
