data_PCOD8141763
_publ_section_title
;
Structure prediction by ZEFSAII (Michael W. Deem and Ramdas Pophale) SiO2 
 PCOD8141763
Probable space group: C 2/C
;
_chemical_formula_sum "Si O2"
_cell_formula_units_Z 56
_cell_length_a 11.271437
_cell_length_b 28.069642
_cell_length_c 8.858245
_cell_angle_alpha 90.000000
_cell_angle_beta 111.588812
_cell_angle_gamma 90.000000
_cell_volume 2606.009380
_symmetry_space_group_name_H-M "C 2/C"
_symmetry_group_IT_number 15
_symmetry_cell_setting 'monoclinic'
loop_
_space_group_symop_operation_xyz
x,y,z
-x,y,1/2-z
-x,-y,-z
x,-y,1/2+z
1/2+x,1/2+y,z
1/2-x,1/2+y,1/2-z
1/2-x,1/2-y,-z
1/2+x,1/2-y,1/2+z
loop_
_atom_site_type_symbol
_atom_site_label
_atom_site_fract_x
_atom_site_fract_y
_atom_site_fract_z
Si Si1 0.658552 0.947262 0.144453
Si Si2 0.644666 0.043416 0.979935
Si Si3 0.008329 0.796026 0.421116
Si Si4 0.842920 0.637311 0.362168
Si Si5 0.247132 0.802638 0.054344
Si Si6 0.566663 0.801057 0.102346
Si Si7 0.752196 0.645499 0.992985
O O1 0.506422 0.948306 0.080269
O O2 0.702843 0.949638 0.339558
O O3 0.727560 0.902223 0.097785
O O4 0.697779 0.993406 0.066008
O O5 0.694200 0.083486 0.115930
O O6 0.030041 0.753703 0.552054
O O7 0.106865 0.840743 0.471814
O O8 0.000000 0.773537 0.250000
O O9 0.868956 0.817597 0.392344
O O10 0.733573 0.667178 0.395475
O O11 0.839507 0.641336 0.181978
O O12 0.975931 0.657583 0.492283
O O13 0.389502 0.809241 0.200133
O O14 0.250000 0.750000 0.000000
O O15 0.699934 0.808686 0.076782
#
# Coordination Sequence:
#
# PCOD8141763 Si02
#       7
#     8   8   8   8   8   8   8
#     4  10  21  38  63  96 134 170 210 271 332 402
#     4  10  21  37  63  97 135 166 212 269 340 390
#     4  12  26  43  64  90 130 178 227 269 322 394
#     4  12  24  38  66  96 131 170 214 275 332 390
#     4  12  26  43  63  92 127 176 225 275 325 388
#     4  12  24  41  63  91 133 171 220 272 331 388
#     4  12  24  41  64  92 133 173 218 264 333 394
#
# _framework density 21.488796000000001
#
# number of rings (size 3 to 8) (size 9 to 14) (size 15 to 20)
#    0.000    0.571    4.286    4.714    2.000    2.857 
#    0.000    0.000    0.000    0.857    0.000    0.000 
#    0.000    0.000    0.000    0.000    0.000    0.000 
#
# Total GULP energy -346930.037314 kJ/mol
# GULP energy per Si atom -12390.358476 kJ/mol
# Density = 2.143989 g / cm^3
# Si number density = 21.488796 Si / 1000 Ang^3
#
#
#
# Elastic Constant Matrix: (Units=GPa)
#
#
# Indices 1 2 3 4 5 6 
#
# 1 75.5662 28.3225 0.7879 0.0000 5.0776 0.0000
# 2 28.3225 114.5151 32.5700 0.0000 -1.9931 0.0000
# 3 0.7879 32.5700 108.5325 0.0000 -9.0442 0.0000
# 4 0.0000 0.0000 0.0000 36.9235 0.0000 -10.6567
# 5 5.0776 -1.9931 -9.0442 0.0000 28.5675 0.0000
# 6 0.0000 0.0000 0.0000 -10.6567 0.0000 30.4262
#
#
#
# Elastic Compliance Matrix: (Units=1/GPa)
#
#
# Indices 1 2 3 4 5 6 
#
# 1 0.014892 -0.003975 0.000864 0.000000 -0.002651 0.000000
# 2 -0.003975 0.010610 -0.003117 0.000000 0.000460 0.000000
# 3 0.000864 -0.003117 0.010386 0.000000 0.002917 0.000000
# 4 0.000000 0.000000 0.000000 0.030129 0.000000 0.010552
# 5 -0.002651 0.000460 0.002917 0.000000 0.036432 0.000000
# 6 0.000000 0.000000 0.000000 0.010552 0.000000 0.036562
#
#
# Mechanical properties :
#
#
# Convention : Reuss Voigt Hill
#
# Bulk Modulus (GPa) = 42.67595 46.88607 44.78101
# Shear Modulus (GPa) = 31.39167 34.97901 33.18534
#
# Velocity S-wave (km/s) = 3.82624 4.03895 3.93403
# Velocity P-wave (km/s) = 6.27876 6.60432 6.44360
#
# Compressibility (1/GPa) = 0.02343240
#
# Stress axis : x y z
#
# Youngs Moduli (GPa) = 67.14819 94.24976 96.28355
#
# Poissons Ratio (x) = 0.37465 -0.08318
# Poissons Ratio (y) = 0.26692 0.30010
# Poissons Ratio (z) = -0.05801 0.29376
#
# Static dielectric constant tensor:
#      x y z
#    x 4.032580 0.000000 -0.164330 
#    y 0.000000 3.776830 0.000000 
#    z -0.164330 0.000000 4.139460 
# 
# 
# High freq. dielectric constant tensor:
#      x y z
#    x 1.834350 0.000000 -0.028640 
#    y 0.000000 1.834280 0.000000 
#    z -0.028640 0.000000 1.856200 
# 
# From -- ./inp_files/34358.got.cif
#   From: 2010.06.25/outbox.cif.g09.slc.cpg/sg15_18_cif.got.tgz:34358.got - 2010.06.28 07:06:18.
