data_PCOD8141384
_publ_section_title
;
Structure prediction by ZEFSAII (Michael W. Deem and Ramdas Pophale) SiO2 
 PCOD8141384
Probable space group: C 2/C
;
_chemical_formula_sum "Si O2"
_cell_formula_units_Z 52
_cell_length_a 26.296989
_cell_length_b 20.268464
_cell_length_c 4.982159
_cell_angle_alpha 90.000000
_cell_angle_beta 72.964728
_cell_angle_gamma 90.000000
_cell_volume 2538.977969
_symmetry_space_group_name_H-M "C 2/C"
_symmetry_group_IT_number 15
_symmetry_cell_setting 'monoclinic'
loop_
_space_group_symop_operation_xyz
x,y,z
-x,y,1/2-z
-x,-y,-z
x,-y,1/2+z
1/2+x,1/2+y,z
1/2-x,1/2+y,1/2-z
1/2-x,1/2-y,-z
1/2+x,1/2-y,1/2+z
loop_
_atom_site_type_symbol
_atom_site_label
_atom_site_fract_x
_atom_site_fract_y
_atom_site_fract_z
Si Si1 0.287511 0.292249 0.714239
Si Si2 0.711630 0.850132 0.429496
Si Si3 0.648465 0.667293 0.884371
Si Si4 0.061097 0.738007 0.685831
Si Si5 0.500000 0.952771 0.750000
Si Si6 0.203903 0.956457 0.335054
Si Si7 0.411153 0.154665 0.353792
O O1 0.278393 0.213710 0.782105
O O2 0.234476 0.328820 0.687390
O O3 0.333785 0.295378 0.413363
O O4 0.306750 0.324889 0.956272
O O5 0.741795 0.915117 0.285087
O O6 0.649737 0.868130 0.536966
O O7 0.651422 0.587933 0.841762
O O8 0.592138 0.694335 0.070416
O O9 0.077118 0.679342 0.463369
O O10 0.000000 0.756641 0.750000
O O11 0.075036 0.713802 0.962412
O O12 0.552474 0.908274 0.646691
O O13 0.500000 0.000000 0.500000
O O14 0.202708 0.980534 0.642867
#
# Coordination Sequence:
#
# PCOD8141384 Si02
#       7
#     8   8   8   8   4   8   8
#     4  10  21  36  61  98 123 154 198 255 328 377
#     4  10  22  38  63  91 128 158 203 255 309 366
#     4  11  21  40  64  91 124 163 198 256 325 370
#     4  12  22  40  65  97 124 147 209 270 328 353
#     4  12  26  46  62  82 124 180 212 246 302 362
#     4  11  25  40  58  86 129 169 204 236 293 384
#     4  12  24  41  64  94 121 162 208 269 303 360
#
# _framework density 20.48068
#
# number of rings (size 3 to 8) (size 9 to 14) (size 15 to 20)
#    0.000    0.923    4.615    2.769    0.000   11.692 
#    0.000    0.000    0.000    0.923    0.000    0.000 
#    0.000    0.000    0.000    0.000    0.000    0.000 
#
# Total GULP energy -322414.826188 kJ/mol
# GULP energy per Si atom -12400.570238 kJ/mol
# Density = 2.043406 g / cm^3
# Si number density = 20.480680 Si / 1000 Ang^3
#
#
#
# Elastic Constant Matrix: (Units=GPa)
#
#
# Indices 1 2 3 4 5 6 
#
# 1 114.8628 42.7787 19.5632 0.0000 -30.6033 0.0000
# 2 42.7787 102.7610 20.8499 0.0000 -16.8956 0.0000
# 3 19.5632 20.8499 63.1992 0.0000 2.2488 0.0000
# 4 0.0000 0.0000 0.0000 41.8161 0.0000 -3.0525
# 5 -30.6033 -16.8956 2.2488 0.0000 38.7171 0.0000
# 6 0.0000 0.0000 0.0000 -3.0525 0.0000 35.0256
#
#
#
# Elastic Compliance Matrix: (Units=1/GPa)
#
#
# Indices 1 2 3 4 5 6 
#
# 1 0.012833 -0.003220 -0.003228 0.000000 0.008926 0.000000
# 2 -0.003220 0.012193 -0.003131 0.000000 0.002958 0.000000
# 3 -0.003228 -0.003131 0.018032 0.000000 -0.004965 0.000000
# 4 0.000000 0.000000 0.000000 0.024067 0.000000 0.002097
# 5 0.008926 0.002958 -0.004965 0.000000 0.034463 0.000000
# 6 0.000000 0.000000 0.000000 0.002097 0.000000 0.028733
#
#
# Mechanical properties :
#
#
# Convention : Reuss Voigt Hill
#
# Bulk Modulus (GPa) = 41.84007 49.68962 45.76485
# Shear Modulus (GPa) = 31.75673 36.28718 34.02195
#
# Velocity S-wave (km/s) = 3.94200 4.21381 4.08017
# Velocity P-wave (km/s) = 6.41814 6.92743 6.67764
#
# Compressibility (1/GPa) = 0.02390053
#
# Stress axis : x y z
#
# Youngs Moduli (GPa) = 77.92284 82.01192 55.45734
#
# Poissons Ratio (x) = 0.26406 0.17901
# Poissons Ratio (y) = 0.25090 0.17365
# Poissons Ratio (z) = 0.25153 0.25680
#
# Static dielectric constant tensor:
#      x y z
#    x 3.742860 0.000000 -0.000730 
#    y 0.000000 3.679740 0.000000 
#    z -0.000730 0.000000 3.980650 
# 
# 
# High freq. dielectric constant tensor:
#      x y z
#    x 1.789850 0.000000 0.006840 
#    y 0.000000 1.789900 0.000000 
#    z 0.006840 0.000000 1.823370 
# 
# From -- ./inp_files/17047.got.cif
#   From: 2010.06.25/outbox.cif.g09.slc.cpg/sg15_9_cif.got.tgz:17047.got - 2010.06.28 07:06:18.
