data_PCOD8141337
_publ_section_title
;
Structure prediction by ZEFSAII (Michael W. Deem and Ramdas Pophale) SiO2 
 PCOD8141337
Probable space group: C 2/C
;
_chemical_formula_sum "Si O2"
_cell_formula_units_Z 64
_cell_length_a 9.017952
_cell_length_b 24.955232
_cell_length_c 15.335942
_cell_angle_alpha 90.000000
_cell_angle_beta 83.139897
_cell_angle_gamma 90.000000
_cell_volume 3426.569819
_symmetry_space_group_name_H-M "C 2/C"
_symmetry_group_IT_number 15
_symmetry_cell_setting 'monoclinic'
loop_
_space_group_symop_operation_xyz
x,y,z
-x,y,1/2-z
-x,-y,-z
x,-y,1/2+z
1/2+x,1/2+y,z
1/2-x,1/2+y,1/2-z
1/2-x,1/2-y,-z
1/2+x,1/2-y,1/2+z
loop_
_atom_site_type_symbol
_atom_site_label
_atom_site_fract_x
_atom_site_fract_y
_atom_site_fract_z
Si Si1 0.676156 0.761723 0.749150
Si Si2 0.309359 0.602721 0.014958
Si Si3 0.650737 0.930697 0.686347
Si Si4 0.157104 0.107913 0.017912
Si Si5 0.661920 0.998983 0.030709
Si Si6 0.829422 0.212625 0.927976
Si Si7 0.667393 0.632400 0.213542
Si Si8 0.175960 0.215355 0.928954
O O1 0.500000 0.762837 0.750000
O O2 0.734250 0.727587 0.662640
O O3 0.732430 0.822415 0.747408
O O4 0.741185 0.731705 0.830240
O O5 0.198662 0.612438 0.106536
O O6 0.481349 0.595616 0.031398
O O7 0.259202 0.545759 0.976405
O O8 0.290160 0.650320 0.947325
O O9 0.500000 0.917600 0.750000
O O10 0.782213 0.925166 0.749329
O O11 0.647288 0.988321 0.636833
O O12 0.255690 0.056671 0.988454
O O13 0.199084 0.131394 0.109020
O O14 0.203615 0.152517 0.944054
O O15 0.500000 0.000000 0.000000
O O16 0.000807 0.225800 0.934210
O O17 0.750000 0.250000 0.000000
O O18 0.500000 0.645759 0.250000
O O19 0.250000 0.250000 0.000000
#
# Coordination Sequence:
#
# PCOD8141337 Si02
#       8
#     8   8   8   8   8   8   8   8
#     4  10  22  37  57  87 125 162 201 255 307 365
#     4   9  21  38  59  88 120 162 204 248 306 362
#     4  10  21  37  58  87 121 150 204 255 301 365
#     4  11  21  39  64  87 123 161 204 256 307 367
#     4  10  22  39  61  86 117 160 200 250 311 360
#     4  10  21  36  60  86 123 162 200 249 311 361
#     4  12  21  34  59  91 119 154 206 256 299 359
#     4  10  21  39  57  89 120 159 206 248 305 366
#
# _framework density 18.677571
#
# number of rings (size 3 to 8) (size 9 to 14) (size 15 to 20)
#    0.750    1.000    2.500    2.250    1.750    2.000 
#    0.000    2.500    0.000    3.000    0.000    0.000 
#    0.000    0.000    0.000    0.000    0.000    0.000 
#
# Total GULP energy -396421.064917 kJ/mol
# GULP energy per Si atom -12388.158279 kJ/mol
# Density = 1.863506 g / cm^3
# Si number density = 18.677571 Si / 1000 Ang^3
#
#
#
# Elastic Constant Matrix: (Units=GPa)
#
#
# Indices 1 2 3 4 5 6 
#
# 1 59.5880 54.1195 52.9099 0.0000 1.2424 0.0000
# 2 54.1195 122.2188 63.4967 0.0000 7.5488 0.0000
# 3 52.9099 63.4967 136.0727 0.0000 5.8643 0.0000
# 4 0.0000 0.0000 0.0000 30.8302 0.0000 7.7467
# 5 1.2424 7.5488 5.8643 0.0000 29.9265 0.0000
# 6 0.0000 0.0000 0.0000 7.7467 0.0000 25.9855
#
#
#
# Elastic Compliance Matrix: (Units=1/GPa)
#
#
# Indices 1 2 3 4 5 6 
#
# 1 0.033972 -0.010952 -0.008226 0.000000 0.002964 0.000000
# 2 -0.010952 0.014423 -0.002354 0.000000 -0.002722 0.000000
# 3 -0.008226 -0.002354 0.011705 0.000000 -0.001358 0.000000
# 4 0.000000 0.000000 0.000000 0.035062 0.000000 -0.010453
# 5 0.002964 -0.002722 -0.001358 0.000000 0.034245 0.000000
# 6 0.000000 0.000000 0.000000 -0.010453 0.000000 0.041599
#
#
# Mechanical properties :
#
#
# Convention : Reuss Voigt Hill
#
# Bulk Modulus (GPa) = 58.70747 73.21465 65.96106
# Shear Modulus (GPa) = 22.75314 27.17198 24.96256
#
# Velocity S-wave (km/s) = 3.49407 3.81831 3.65978
# Velocity P-wave (km/s) = 6.91219 7.66314 7.29733
#
# Compressibility (1/GPa) = 0.01703361
#
# Stress axis : x y z
#
# Youngs Moduli (GPa) = 29.43635 69.33329 85.43367
#
# Poissons Ratio (x) = 0.75934 0.70282
# Poissons Ratio (y) = 0.32239 0.20115
# Poissons Ratio (z) = 0.24216 0.16324
#
# Static dielectric constant tensor:
#      x y z
#    x 3.251560 0.000000 -0.101340 
#    y 0.000000 1.189880 0.000000 
#    z -0.101340 0.000000 3.525810 
# 
# 
# High freq. dielectric constant tensor:
#      x y z
#    x 1.727930 0.000000 0.003920 
#    y 0.000000 1.714880 0.000000 
#    z 0.003920 0.000000 1.725670 
# 
# From -- ./inp_files/137848.got.cif
#   From: 2010.06.25/outbox.cif.g09.slc.cpg/sg15_69_cif.got.tgz:137848.got - 2010.06.28 07:06:18.
