data_PCOD8141986
_publ_section_title
;
Structure prediction by ZEFSAII (Michael W. Deem and Ramdas Pophale) SiO2 
 PCOD8141986
Probable space group: C 2/C
;
_chemical_formula_sum "Si O2"
_cell_formula_units_Z 48
_cell_length_a 7.605927
_cell_length_b 26.349268
_cell_length_c 20.801154
_cell_angle_alpha 90.000000
_cell_angle_beta 34.939668
_cell_angle_gamma 90.000000
_cell_volume 2387.512210
_symmetry_space_group_name_H-M "C 2/C"
_symmetry_group_IT_number 15
_symmetry_cell_setting 'monoclinic'
loop_
_space_group_symop_operation_xyz
x,y,z
-x,y,1/2-z
-x,-y,-z
x,-y,1/2+z
1/2+x,1/2+y,z
1/2-x,1/2+y,1/2-z
1/2-x,1/2-y,-z
1/2+x,1/2-y,1/2+z
loop_
_atom_site_type_symbol
_atom_site_label
_atom_site_fract_x
_atom_site_fract_y
_atom_site_fract_z
Si Si1 0.884023 0.436828 0.466722
Si Si2 0.776795 0.417257 0.874849
Si Si3 0.369860 0.310923 0.531007
Si Si4 0.974261 0.671220 0.622505
Si Si5 0.900312 0.795891 0.377738
Si Si6 0.160653 0.544268 0.374808
O O1 0.538668 0.447058 0.545250
O O2 0.879728 0.427754 0.544725
O O3 0.004205 0.389896 0.387730
O O4 0.111962 0.483814 0.388690
O O5 0.740491 0.356724 0.890999
O O6 0.000000 0.431371 0.750000
O O7 0.905658 0.434090 0.904230
O O8 0.127078 0.265182 0.610855
O O9 0.384984 0.323792 0.450802
O O10 0.717502 0.299451 0.449303
O O11 0.893692 0.687431 0.574683
O O12 0.715973 0.687724 0.750233
O O13 0.500000 0.557356 0.250000
#
# Coordination Sequence:
#
# PCOD8141986 Si02
#       6
#     8   8   8   8   8   8
#     4  10  23  41  62  88 122 158 196 255 303 358
#     4  11  22  40  60  87 121 159 202 240 305 359
#     4  10  22  39  58  85 122 157 196 250 291 355
#     4  10  21  38  63  87 119 155 201 242 302 357
#     4  10  21  38  60  88 118 154 200 244 299 348
#     4  11  22  40  64  90 121 154 203 249 306 364
#
# _framework density 20.104610000000001
#
# number of rings (size 3 to 8) (size 9 to 14) (size 15 to 20)
#    0.000    1.667    1.667    2.500    4.667    0.000 
#    0.000    3.333    0.000    0.000    0.000    0.000 
#    0.000    0.000    0.000    0.000    0.000    0.000 
#
# Total GULP energy -297529.508358 kJ/mol
# GULP energy per Si atom -12397.062848 kJ/mol
# Density = 2.005885 g / cm^3
# Si number density = 20.104610 Si / 1000 Ang^3
#
#
#
# Elastic Constant Matrix: (Units=GPa)
#
#
# Indices 1 2 3 4 5 6 
#
# 1 144.2731 7.1672 44.0629 0.0003 -5.6012 0.0004
# 2 7.1672 58.1585 31.2450 -0.0005 1.0902 -0.0001
# 3 44.0629 31.2450 94.5604 0.0042 -0.9975 0.0014
# 4 0.0003 -0.0005 0.0042 11.3472 -0.0011 -5.3298
# 5 -5.6012 1.0902 -0.9975 -0.0011 10.8122 -0.0003
# 6 0.0004 -0.0001 0.0014 -5.3298 -0.0003 31.9911
#
#
#
# Elastic Compliance Matrix: (Units=1/GPa)
#
#
# Indices 1 2 3 4 5 6 
#
# 1 0.008309 0.001171 -0.004219 0.000002 0.003797 0.000000
# 2 0.001171 0.021152 -0.007559 0.000004 -0.002223 0.000001
# 3 -0.004219 -0.007559 0.015038 -0.000007 -0.000036 -0.000002
# 4 0.000002 0.000004 -0.000007 0.095610 0.000010 0.015929
# 5 0.003797 -0.002223 -0.000036 0.000010 0.094676 0.000003
# 6 0.000000 0.000001 -0.000002 0.015929 0.000003 0.033912
#
#
# Mechanical properties :
#
#
# Convention : Reuss Voigt Hill
#
# Bulk Modulus (GPa) = 42.94106 51.32692 47.13399
# Shear Modulus (GPa) = 16.79703 25.13124 20.96414
#
# Velocity S-wave (km/s) = 2.89361 3.53940 3.23267
# Velocity P-wave (km/s) = 5.70694 6.50296 6.11791
#
# Compressibility (1/GPa) = 0.02328773
#
# Stress axis : x y z
#
# Youngs Moduli (GPa) = 120.35148 47.27590 66.49721
#
# Poissons Ratio (x) = -0.05538 0.28054
# Poissons Ratio (y) = -0.14097 0.50262
# Poissons Ratio (z) = 0.50774 0.35734
#
# Static dielectric constant tensor:
#      x y z
#    x 3.996850 0.000000 -0.030910 
#    y 0.000000 3.526470 0.000000 
#    z -0.030910 0.000000 3.455250 
# 
# 
# High freq. dielectric constant tensor:
#      x y z
#    x 1.808890 0.000000 -0.001770 
#    y 0.000000 1.775200 0.000000 
#    z -0.001770 0.000000 1.780430 
# 
# From -- ./inp_files/266590.got.cif
#   From: 2010.06.25/outbox.cif.g09.slc.cpg/sg15_134_cif.got.tgz:266590.got - 2010.06.28 07:06:18.
