data_PCOD8141496
_publ_section_title
;
Structure prediction by ZEFSAII (Michael W. Deem and Ramdas Pophale) SiO2 
 PCOD8141496
Probable space group: C 2/C
;
_chemical_formula_sum "Si O2"
_cell_formula_units_Z 52
_cell_length_a 26.514198
_cell_length_b 9.519704
_cell_length_c 10.124556
_cell_angle_alpha 90.000000
_cell_angle_beta 83.871124
_cell_angle_gamma 90.000000
_cell_volume 2540.905378
_symmetry_space_group_name_H-M "C 2/C"
_symmetry_group_IT_number 15
_symmetry_cell_setting 'monoclinic'
loop_
_space_group_symop_operation_xyz
x,y,z
-x,y,1/2-z
-x,-y,-z
x,-y,1/2+z
1/2+x,1/2+y,z
1/2-x,1/2+y,1/2-z
1/2-x,1/2-y,-z
1/2+x,1/2-y,1/2+z
loop_
_atom_site_type_symbol
_atom_site_label
_atom_site_fract_x
_atom_site_fract_y
_atom_site_fract_z
Si Si1 0.130168 0.381491 0.544011
Si Si2 0.150458 0.301893 0.015701
Si Si3 0.790738 0.631401 0.253180
Si Si4 0.959077 0.208804 0.003678
Si Si5 0.939058 0.098888 0.497334
Si Si6 0.196512 0.313509 0.277732
Si Si7 0.500000 0.691419 0.250000
O O1 0.122516 0.548586 0.541355
O O2 0.163755 0.334641 0.658750
O O3 0.074255 0.312920 0.576269
O O4 0.153915 0.323321 0.401912
O O5 0.111743 0.187659 0.970224
O O6 0.172785 0.251815 0.149531
O O7 0.195539 0.316108 0.897282
O O8 0.779172 0.465840 0.256963
O O9 0.740430 0.710062 0.315941
O O10 0.928780 0.062267 0.039915
O O11 0.969552 0.281058 0.146280
O O12 0.014759 0.168584 0.927175
O O13 0.958222 0.097571 0.339288
#
# Coordination Sequence:
#
# PCOD8141496 Si02
#       7
#     8   8   8   8   8   8   4
#     4  10  21  37  56  82 113 143 180 224 273 321
#     4  10  21  37  56  82 113 143 180 224 273 321
#     4  10  22  37  55  84 111 141 181 229 273 318
#     4   9  19  34  54  79 106 143 183 223 265 317
#     4   9  19  34  54  79 106 143 183 223 265 317
#     4  10  21  38  58  78 111 147 180 226 267 328
#     4   8  16  34  52  72 106 140 180 218 264 308
#
# _framework density 20.465147000000002
#
# number of rings (size 3 to 8) (size 9 to 14) (size 15 to 20)
#    0.923    1.538    0.000    1.846    0.000    4.308 
#    0.000    0.000    0.000    0.000    0.000    0.000 
#    0.000    0.000    0.000    0.000    0.000    0.000 
#
# Total GULP energy -322142.081154 kJ/mol
# GULP energy per Si atom -12390.080044 kJ/mol
# Density = 2.041857 g / cm^3
# Si number density = 20.465147 Si / 1000 Ang^3
#
#
#
# Elastic Constant Matrix: (Units=GPa)
#
#
# Indices 1 2 3 4 5 6 
#
# 1 69.4133 39.7175 -2.1866 0.0000 20.2910 0.0000
# 2 39.7175 60.4884 -6.0325 0.0000 13.4786 0.0000
# 3 -2.1866 -6.0325 60.7310 0.0000 14.0636 0.0000
# 4 0.0000 0.0000 0.0000 14.7212 0.0000 2.5405
# 5 20.2910 13.4786 14.0636 0.0000 30.1463 0.0000
# 6 0.0000 0.0000 0.0000 2.5405 0.0000 36.0813
#
#
#
# Elastic Compliance Matrix: (Units=1/GPa)
#
#
# Indices 1 2 3 4 5 6 
#
# 1 0.026262 -0.014231 0.002412 0.000000 -0.012439 0.000000
# 2 -0.014231 0.027070 0.003095 0.000000 -0.003968 0.000000
# 3 0.002412 0.003095 0.019683 0.000000 -0.012190 0.000000
# 4 0.000000 0.000000 0.000000 0.068765 0.000000 -0.004842
# 5 -0.012439 -0.003968 -0.012190 0.000000 0.049005 0.000000
# 6 0.000000 0.000000 0.000000 -0.004842 0.000000 0.028056
#
#
# Mechanical properties :
#
#
# Convention : Reuss Voigt Hill
#
# Bulk Modulus (GPa) = 17.99630 28.18105 23.08867
# Shear Modulus (GPa) = 19.62248 26.79873 23.21061
#
# Velocity S-wave (km/s) = 3.09985 3.62260 3.37137
# Velocity P-wave (km/s) = 4.65025 5.59444 5.14406
#
# Compressibility (1/GPa) = 0.05556699
#
# Stress axis : x y z
#
# Youngs Moduli (GPa) = 38.07832 36.94191 50.80457
#
# Poissons Ratio (x) = 0.52574 -0.12256
# Poissons Ratio (y) = 0.54191 -0.15725
# Poissons Ratio (z) = -0.09186 -0.11435
#
# Static dielectric constant tensor:
#      x y z
#    x 3.476440 0.000000 0.197700 
#    y 0.000000 3.429820 0.000000 
#    z 0.197700 0.000000 3.621390 
# 
# 
# High freq. dielectric constant tensor:
#      x y z
#    x 1.790670 0.000000 0.014620 
#    y 0.000000 1.776850 0.000000 
#    z 0.014620 0.000000 1.794420 
# 
# From -- ./inp_files/121539.got.cif
#   From: 2010.06.25/outbox.cif.g09.slc.cpg/sg15_61_cif.got.tgz:121539.got - 2010.06.28 07:06:18.
