data_PCOD8141253
_publ_section_title
;
Structure prediction by ZEFSAII (Michael W. Deem and Ramdas Pophale) SiO2 
 PCOD8141253
Probable space group: C 2/C
;
_chemical_formula_sum "Si O2"
_cell_formula_units_Z 48
_cell_length_a 12.770050
_cell_length_b 12.859357
_cell_length_c 16.640058
_cell_angle_alpha 90.000000
_cell_angle_beta 67.991806
_cell_angle_gamma 90.000000
_cell_volume 2533.421479
_symmetry_space_group_name_H-M "C 2/C"
_symmetry_group_IT_number 15
_symmetry_cell_setting 'monoclinic'
loop_
_space_group_symop_operation_xyz
x,y,z
-x,y,1/2-z
-x,-y,-z
x,-y,1/2+z
1/2+x,1/2+y,z
1/2-x,1/2+y,1/2-z
1/2-x,1/2-y,-z
1/2+x,1/2-y,1/2+z
loop_
_atom_site_type_symbol
_atom_site_label
_atom_site_fract_x
_atom_site_fract_y
_atom_site_fract_z
Si Si1 0.619240 0.131045 0.672276
Si Si2 0.214709 0.133703 0.498199
Si Si3 0.116488 0.459188 0.000297
Si Si4 0.704052 0.636586 0.160190
Si Si5 0.967912 0.964762 0.345467
Si Si6 0.798380 0.039250 0.168205
O O1 0.500000 0.128280 0.750000
O O2 0.597291 0.106658 0.585847
O O3 0.675807 0.242946 0.662996
O O4 0.701913 0.047676 0.689259
O O5 0.250000 0.250000 0.500000
O O6 0.100647 0.116581 0.581423
O O7 0.198443 0.114868 0.408731
O O8 0.310307 0.060782 0.506140
O O9 0.178827 0.384005 0.919326
O O10 0.000000 0.500000 0.000000
O O11 0.601807 0.571122 0.150094
O O12 0.724177 0.607591 0.246841
O O13 0.000000 0.914062 0.250000
O O14 0.079942 0.985923 0.363653
#
# Coordination Sequence:
#
# PCOD8141253 Si02
#       6
#     8   8   8   8   8   8
#     4  11  22  37  58  85 115 151 190 232 283 339
#     4  10  22  37  56  82 113 147 182 226 286 340
#     4  10  22  39  58  85 119 148 187 239 287 339
#     4  10  21  38  60  83 110 151 193 230 279 340
#     4   9  19  37  57  80 108 142 188 233 271 330
#     4  10  21  36  56  83 112 143 185 234 276 328
#
# _framework density 18.946708000000001
#
# number of rings (size 3 to 8) (size 9 to 14) (size 15 to 20)
#    0.000    2.000    0.000    3.500    0.000    8.000 
#    0.000    3.333    0.000    0.000    0.000    0.000 
#    0.000    0.000    0.000    0.000    0.000    0.000 
#
# Total GULP energy -297670.487960 kJ/mol
# GULP energy per Si atom -12402.936998 kJ/mol
# Density = 1.890358 g / cm^3
# Si number density = 18.946708 Si / 1000 Ang^3
#
#
#
# Elastic Constant Matrix: (Units=GPa)
#
#
# Indices 1 2 3 4 5 6 
#
# 1 142.3567 60.2647 87.4387 0.0000 -1.3709 0.0000
# 2 60.2647 143.5340 96.6900 0.0000 1.4571 0.0000
# 3 87.4387 96.6900 173.7644 0.0000 -13.0418 0.0000
# 4 0.0000 0.0000 0.0000 14.0209 0.0000 3.7602
# 5 -1.3709 1.4571 -13.0418 0.0000 35.0140 0.0000
# 6 0.0000 0.0000 0.0000 3.7602 0.0000 17.0418
#
#
#
# Elastic Compliance Matrix: (Units=1/GPa)
#
#
# Indices 1 2 3 4 5 6 
#
# 1 0.010378 -0.001219 -0.004639 0.000000 -0.001271 0.000000
# 2 -0.001219 0.011572 -0.006034 0.000000 -0.002777 0.000000
# 3 -0.004639 -0.006034 0.011781 0.000000 0.004458 0.000000
# 4 0.000000 0.000000 0.000000 0.075808 0.000000 -0.016727
# 5 -0.001271 -0.002777 0.004458 0.000000 0.030286 0.000000
# 6 0.000000 0.000000 0.000000 -0.016727 0.000000 0.062370
#
#
# Mechanical properties :
#
#
# Convention : Reuss Voigt Hill
#
# Bulk Modulus (GPa) = 100.53766 105.38243 102.96005
# Shear Modulus (GPa) = 21.80591 27.56611 24.68601
#
# Velocity S-wave (km/s) = 3.39618 3.81849 3.61351
# Velocity P-wave (km/s) = 8.27994 8.67078 8.47761
#
# Compressibility (1/GPa) = 0.00994652
#
# Stress axis : x y z
#
# Youngs Moduli (GPa) = 96.35746 86.41715 84.87944
#
# Poissons Ratio (x) = 0.10537 0.39377
# Poissons Ratio (y) = 0.11749 0.51215
# Poissons Ratio (z) = 0.44702 0.52143
#
# Static dielectric constant tensor:
#      x y z
#    x 3.609160 0.000000 0.030460 
#    y 0.000000 3.285780 0.000000 
#    z 0.030460 0.000000 3.909560 
# 
# 
# High freq. dielectric constant tensor:
#      x y z
#    x 1.747010 0.000000 -0.002950 
#    y 0.000000 1.727680 0.000000 
#    z -0.002950 0.000000 1.759640 
# 
# From -- ./inp_files/196494.got.cif
#   From: 2010.06.25/outbox.cif.g09.slc.cpg/sg15_99_cif.got.tgz:196494.got - 2010.06.28 07:06:18.
