data_PCOD8141024
_publ_section_title
;
Structure prediction by ZEFSAII (Michael W. Deem and Ramdas Pophale) SiO2 
 PCOD8141024
Probable space group: C 2/C
;
_chemical_formula_sum "Si O2"
_cell_formula_units_Z 40
_cell_length_a 13.053667
_cell_length_b 15.158858
_cell_length_c 8.781866
_cell_angle_alpha 90.000000
_cell_angle_beta 81.819362
_cell_angle_gamma 90.000000
_cell_volume 1720.061455
_symmetry_space_group_name_H-M "C 2/C"
_symmetry_group_IT_number 15
_symmetry_cell_setting 'monoclinic'
loop_
_space_group_symop_operation_xyz
x,y,z
-x,y,1/2-z
-x,-y,-z
x,-y,1/2+z
1/2+x,1/2+y,z
1/2-x,1/2+y,1/2-z
1/2-x,1/2-y,-z
1/2+x,1/2-y,1/2+z
loop_
_atom_site_type_symbol
_atom_site_label
_atom_site_fract_x
_atom_site_fract_y
_atom_site_fract_z
Si Si1 0.500000 0.964855 0.250000
Si Si2 0.721508 0.385235 0.048733
Si Si3 0.583597 0.232105 0.013531
Si Si4 0.197227 0.933481 0.707142
Si Si5 0.908219 0.609524 0.061634
Si Si6 0.500000 0.335499 0.750000
O O1 0.430924 0.905142 0.377676
O O2 0.425559 0.022965 0.160382
O O3 0.640199 0.306010 0.105394
O O4 0.707599 0.462735 0.172157
O O5 0.838748 0.349548 0.032901
O O6 0.699225 0.424152 0.887712
O O7 0.479079 0.190451 0.109303
O O8 0.554335 0.273897 0.860133
O O9 0.286549 0.872618 0.610495
O O10 0.089278 0.898012 0.660584
#
# Coordination Sequence:
#
# PCOD8141024 Si02
#       6
#     4   8   8   8   8   4
#     4  10  21  34  59  96 126 156 206 262 311 372
#     4  10  23  44  66  93 130 170 212 264 318 381
#     4  10  22  40  62  91 132 165 205 267 320 363
#     4  11  23  42  67  93 126 171 219 257 315 391
#     4  11  20  36  62  92 124 163 209 258 312 372
#     4  10  25  44  61  94 134 168 212 268 321 378
#
# _framework density 23.254982999999999
#
# number of rings (size 3 to 8) (size 9 to 14) (size 15 to 20)
#    0.000    1.600    0.000    5.400    0.000    5.600 
#    0.000   15.000    0.000    0.000    0.000    0.000 
#    0.000    0.000    0.000    0.000    0.000    0.000 
#
# Total GULP energy -247975.288919 kJ/mol
# GULP energy per Si atom -12398.764446 kJ/mol
# Density = 2.320205 g / cm^3
# Si number density = 23.254983 Si / 1000 Ang^3
#
#
#
# Elastic Constant Matrix: (Units=GPa)
#
#
# Indices 1 2 3 4 5 6 
#
# 1 156.1648 61.4785 39.2844 0.0000 -18.5849 0.0000
# 2 61.4785 132.7196 34.3793 0.0000 -5.6549 0.0000
# 3 39.2844 34.3793 62.4339 0.0000 -8.6920 0.0000
# 4 0.0000 0.0000 0.0000 26.6005 0.0000 5.4434
# 5 -18.5849 -5.6549 -8.6920 0.0000 33.4771 0.0000
# 6 0.0000 0.0000 0.0000 5.4434 0.0000 23.5951
#
#
#
# Elastic Compliance Matrix: (Units=1/GPa)
#
#
# Indices 1 2 3 4 5 6 
#
# 1 0.008896 -0.003088 -0.003405 0.000000 0.003533 0.000000
# 2 -0.003088 0.009862 -0.003625 0.000000 -0.000990 0.000000
# 3 -0.003405 -0.003625 0.020550 0.000000 0.002833 0.000000
# 4 0.000000 0.000000 0.000000 0.039456 0.000000 -0.009102
# 5 0.003533 -0.000990 0.002833 0.000000 0.032401 0.000000
# 6 0.000000 0.000000 0.000000 -0.009102 0.000000 0.044482
#
#
# Mechanical properties :
#
#
# Convention : Reuss Voigt Hill
#
# Bulk Modulus (GPa) = 52.43534 69.06699 60.75117
# Shear Modulus (GPa) = 27.43610 31.14630 29.29120
#
# Velocity S-wave (km/s) = 3.43854 3.66367 3.55289
# Velocity P-wave (km/s) = 6.19368 6.90369 6.55830
#
# Compressibility (1/GPa) = 0.01907111
#
# Stress axis : x y z
#
# Youngs Moduli (GPa) = 112.40507 101.39774 48.66140
#
# Poissons Ratio (x) = 0.31315 0.16571
# Poissons Ratio (y) = 0.34715 0.17641
# Poissons Ratio (z) = 0.38277 0.36758
#
# Static dielectric constant tensor:
#      x y z
#    x 4.713250 0.000000 -0.045570 
#    y 0.000000 4.451540 0.000000 
#    z -0.045570 0.000000 3.938120 
# 
# 
# High freq. dielectric constant tensor:
#      x y z
#    x 1.933580 0.000000 0.007950 
#    y 0.000000 1.919940 0.000000 
#    z 0.007950 0.000000 1.898890 
# 
# From -- ./inp_files/29146.got.cif
#   From: 2010.06.25/outbox.cif.g09.slc.cpg/sg15_15_cif.got.tgz:29146.got - 2010.06.28 07:06:18.
