data_PCOD8141692
_publ_section_title
;
Structure prediction by ZEFSAII (Michael W. Deem and Ramdas Pophale) SiO2 
 PCOD8141692
Probable space group: C 2/C
;
_chemical_formula_sum "Si O2"
_cell_formula_units_Z 56
_cell_length_a 16.013582
_cell_length_b 10.503018
_cell_length_c 19.346700
_cell_angle_alpha 90.000000
_cell_angle_beta 132.825325
_cell_angle_gamma 90.000000
_cell_volume 2386.535261
_symmetry_space_group_name_H-M "C 2/C"
_symmetry_group_IT_number 15
_symmetry_cell_setting 'monoclinic'
loop_
_space_group_symop_operation_xyz
x,y,z
-x,y,1/2-z
-x,-y,-z
x,-y,1/2+z
1/2+x,1/2+y,z
1/2-x,1/2+y,1/2-z
1/2-x,1/2-y,-z
1/2+x,1/2-y,1/2+z
loop_
_atom_site_type_symbol
_atom_site_label
_atom_site_fract_x
_atom_site_fract_y
_atom_site_fract_z
Si Si1 0.900243 0.462643 0.569027
Si Si2 0.237166 0.898923 0.355708
Si Si3 0.273351 0.162135 0.579055
Si Si4 0.441661 0.628952 0.952495
Si Si5 0.327971 0.659681 0.229891
Si Si6 0.446964 0.820703 0.400909
Si Si7 0.886545 0.279159 0.799998
O O1 0.800721 0.399028 0.465838
O O2 0.840793 0.529890 0.601467
O O3 0.952922 0.581079 0.557416
O O4 0.000659 0.365278 0.647940
O O5 0.329963 0.896305 0.345910
O O6 0.160132 0.770177 0.301411
O O7 0.158254 0.022745 0.299106
O O8 0.250000 0.250000 0.500000
O O9 0.155223 0.124299 0.545311
O O10 0.338944 0.238927 0.674711
O O11 0.520859 0.752903 0.009169
O O12 0.500000 0.500000 0.000000
O O13 0.409011 0.645672 0.853888
O O14 0.432368 0.705521 0.337088
O O15 0.210334 0.652322 0.208059
#
# Coordination Sequence:
#
# PCOD8141692 Si02
#       7
#     8   8   8   8   8   8   8
#     4  12  21  41  69 102 146 183 224 294 365 406
#     4  11  20  37  67 101 138 189 236 288 336 426
#     4  11  22  40  67 104 134 174 229 284 347 417
#     4  11  22  41  65  98 138 179 231 284 337 409
#     4  10  21  37  62 105 137 173 235 289 332 420
#     4  11  21  35  68 100 135 186 231 286 349 408
#     4  10  22  38  65 104 135 184 237 282 344 413
#
# _framework density 23.464977999999999
#
# number of rings (size 3 to 8) (size 9 to 14) (size 15 to 20)
#    0.000    1.143    5.714    2.143    0.000    0.571 
#    0.000    0.714    0.000    0.000    0.000    0.000 
#    0.000    0.000    0.000    0.000    0.000    0.000 
#
# Total GULP energy -346873.543446 kJ/mol
# GULP energy per Si atom -12388.340837 kJ/mol
# Density = 2.341157 g / cm^3
# Si number density = 23.464978 Si / 1000 Ang^3
#
#
#
# Elastic Constant Matrix: (Units=GPa)
#
#
# Indices 1 2 3 4 5 6 
#
# 1 68.1546 40.6266 29.0536 0.0000 -4.0533 0.0000
# 2 40.6266 111.4430 41.4291 0.0000 13.3639 0.0000
# 3 29.0536 41.4291 104.2176 0.0000 10.1954 0.0000
# 4 0.0000 0.0000 0.0000 46.2657 0.0000 7.2103
# 5 -4.0533 13.3639 10.1954 0.0000 16.6063 0.0000
# 6 0.0000 0.0000 0.0000 7.2103 0.0000 33.7231
#
#
#
# Elastic Compliance Matrix: (Units=1/GPa)
#
#
# Indices 1 2 3 4 5 6 
#
# 1 0.022377 -0.008306 -0.004388 0.000000 0.014840 0.000000
# 2 -0.008306 0.014266 -0.002164 0.000000 -0.012179 0.000000
# 3 -0.004388 -0.002164 0.012355 0.000000 -0.006915 0.000000
# 4 0.000000 0.000000 0.000000 0.022359 0.000000 -0.004781
# 5 0.014840 -0.012179 -0.006915 0.000000 0.077887 0.000000
# 6 0.000000 0.000000 0.000000 -0.004781 0.000000 0.030675
#
#
# Mechanical properties :
#
#
# Convention : Reuss Voigt Hill
#
# Bulk Modulus (GPa) = 51.86162 56.22599 54.04380
# Shear Modulus (GPa) = 23.14138 30.83274 26.98706
#
# Velocity S-wave (km/s) = 3.14380 3.62883 3.39499
# Velocity P-wave (km/s) = 5.94371 6.44760 6.20078
#
# Compressibility (1/GPa) = 0.01928208
#
# Stress axis : x y z
#
# Youngs Moduli (GPa) = 44.68935 70.09645 80.93593
#
# Poissons Ratio (x) = 0.58220 0.35516
# Poissons Ratio (y) = 0.37117 0.17516
# Poissons Ratio (z) = 0.19611 0.15170
#
# Static dielectric constant tensor:
#      x y z
#    x 3.701820 0.000000 0.249400 
#    y 0.000000 3.940140 0.000000 
#    z 0.249400 0.000000 4.304700 
# 
# 
# High freq. dielectric constant tensor:
#      x y z
#    x 1.897840 0.000000 0.006470 
#    y 0.000000 1.930820 0.000000 
#    z 0.006470 0.000000 1.939210 
# 
# From -- ./inp_files/248423.got.cif
#   From: 2010.06.25/outbox.cif.g09.slc.cpg/sg15_125_cif.got.tgz:248423.got - 2010.06.28 07:06:18.
