data_PCOD8141854
_publ_section_title
;
Structure prediction by ZEFSAII (Michael W. Deem and Ramdas Pophale) SiO2 
 PCOD8141854
Probable space group: C 2/C
;
_chemical_formula_sum "Si O2"
_cell_formula_units_Z 64
_cell_length_a 16.496104
_cell_length_b 23.791911
_cell_length_c 16.021995
_cell_angle_alpha 90.000000
_cell_angle_beta 32.010411
_cell_angle_gamma 90.000000
_cell_volume 3333.214600
_symmetry_space_group_name_H-M "C 2/C"
_symmetry_group_IT_number 15
_symmetry_cell_setting 'monoclinic'
loop_
_space_group_symop_operation_xyz
x,y,z
-x,y,1/2-z
-x,-y,-z
x,-y,1/2+z
1/2+x,1/2+y,z
1/2-x,1/2+y,1/2-z
1/2-x,1/2-y,-z
1/2+x,1/2-y,1/2+z
loop_
_atom_site_type_symbol
_atom_site_label
_atom_site_fract_x
_atom_site_fract_y
_atom_site_fract_z
Si Si1 0.330107 0.038010 0.275967
Si Si2 0.745255 0.183542 0.580405
Si Si3 0.882779 0.926868 0.919524
Si Si4 0.040566 0.388408 0.980863
Si Si5 0.416853 0.206552 0.944012
Si Si6 0.628199 0.979168 0.032218
Si Si7 0.258532 0.445886 0.274606
Si Si8 0.460373 0.455305 0.379852
O O1 0.213116 0.063428 0.446291
O O2 0.481926 0.015721 0.189839
O O3 0.251847 0.984286 0.298672
O O4 0.367901 0.087662 0.177738
O O5 0.819057 0.122171 0.536350
O O6 0.591830 0.197806 0.763732
O O7 0.705317 0.182742 0.516572
O O8 0.877351 0.227908 0.489537
O O9 0.000000 0.899066 0.750000
O O10 0.979096 0.976772 0.879014
O O11 0.735456 0.961294 0.014518
O O12 0.096860 0.325344 0.954692
O O13 0.070672 0.422985 0.038452
O O14 0.857306 0.392941 0.126386
O O15 0.721316 0.015942 0.886461
O O16 0.429798 0.424920 0.147479
O O17 0.500000 0.438091 0.250000
#
# Coordination Sequence:
#
# PCOD8141854 Si02
#       8
#     8   8   8   8   8   8   8   8
#     4   9  20  31  53  72 100 143 195 232 258 338
#     4  10  23  34  53  73 105 138 199 233 279 310
#     4  11  21  31  51  75 111 151 187 226 275 321
#     4   9  18  34  55  66  99 139 196 234 276 320
#     4  10  21  38  51  74 101 146 187 251 271 312
#     4   9  16  33  46  71  96 137 191 226 262 319
#     4   9  17  34  46  72 101 138 189 232 264 330
#     4  11  21  33  47  76 116 145 181 227 276 329
#
# _framework density 19.200683999999999
#
# number of rings (size 3 to 8) (size 9 to 14) (size 15 to 20)
#    0.000    2.250    3.750    1.875    7.000    0.500 
#    0.000    0.000    0.000    0.000    0.000    0.000 
#    0.000    0.000    0.000   11.250    0.000    0.125 
#
# Total GULP energy -396470.976713 kJ/mol
# GULP energy per Si atom -12389.718022 kJ/mol
# Density = 1.915698 g / cm^3
# Si number density = 19.200684 Si / 1000 Ang^3
#
#
#
# Elastic Constant Matrix: (Units=GPa)
#
#
# Indices 1 2 3 4 5 6 
#
# 1 67.8362 26.6188 27.3869 0.0238 -12.9040 -0.0207
# 2 26.6188 71.6654 19.7304 0.0183 -4.5230 -0.0135
# 3 27.3869 19.7304 120.7418 0.0162 -7.5433 -0.0407
# 4 0.0238 0.0183 0.0162 18.4720 -0.0253 -5.0904
# 5 -12.9040 -4.5230 -7.5433 -0.0253 28.8932 0.0232
# 6 -0.0207 -0.0135 -0.0407 -5.0904 0.0232 28.5214
#
#
#
# Elastic Compliance Matrix: (Units=1/GPa)
#
#
# Indices 1 2 3 4 5 6 
#
# 1 0.019673 -0.006026 -0.003037 -0.000007 0.007050 0.000000
# 2 -0.006026 0.016539 -0.001364 -0.000008 -0.000459 0.000000
# 3 -0.003037 -0.001364 0.009247 0.000001 0.000844 0.000010
# 4 -0.000007 -0.000008 0.000001 0.056936 0.000037 0.010162
# 5 0.007050 -0.000459 0.000844 0.000037 0.037907 -0.000018
# 6 0.000000 0.000000 0.000010 0.010162 -0.000018 0.036875
#
#
# Mechanical properties :
#
#
# Convention : Reuss Voigt Hill
#
# Bulk Modulus (GPa) = 40.64483 45.30172 42.97328
# Shear Modulus (GPa) = 24.24429 27.61114 25.92771
#
# Velocity S-wave (km/s) = 3.55727 3.79625 3.67870
# Velocity P-wave (km/s) = 6.17144 6.54678 6.36188
#
# Compressibility (1/GPa) = 0.02460337
#
# Stress axis : x y z
#
# Youngs Moduli (GPa) = 50.83034 60.46409 108.14653
#
# Poissons Ratio (x) = 0.36437 0.32846
# Poissons Ratio (y) = 0.30631 0.14755
# Poissons Ratio (z) = 0.15438 0.08250
#
# Static dielectric constant tensor:
#      x y z
#    x 3.610280 -0.000070 -0.252410 
#    y -0.000070 3.181920 0.000200 
#    z -0.252410 0.000200 3.737000 
# 
# 
# High freq. dielectric constant tensor:
#      x y z
#    x 1.728550 0.000000 -0.015310 
#    y 0.000000 1.686600 0.000010 
#    z -0.015310 0.000010 1.766810 
# 
# From -- ./inp_files/212146.got.cif
#   From: 2010.06.25/outbox.cif.g09.slc.cpg/sg15_107_cif.got.tgz:212146.got - 2010.06.28 07:06:18.
