data_PCOD8141303
_publ_section_title
;
Structure prediction by ZEFSAII (Michael W. Deem and Ramdas Pophale) SiO2 
 PCOD8141303
Probable space group: C 2/C
;
_chemical_formula_sum "Si O2"
_cell_formula_units_Z 48
_cell_length_a 20.562314
_cell_length_b 14.063516
_cell_length_c 8.275999
_cell_angle_alpha 90.000000
_cell_angle_beta 109.107896
_cell_angle_gamma 90.000000
_cell_volume 2261.381982
_symmetry_space_group_name_H-M "C 2/C"
_symmetry_group_IT_number 15
_symmetry_cell_setting 'monoclinic'
loop_
_space_group_symop_operation_xyz
x,y,z
-x,y,1/2-z
-x,-y,-z
x,-y,1/2+z
1/2+x,1/2+y,z
1/2-x,1/2+y,1/2-z
1/2-x,1/2-y,-z
1/2+x,1/2-y,1/2+z
loop_
_atom_site_type_symbol
_atom_site_label
_atom_site_fract_x
_atom_site_fract_y
_atom_site_fract_z
Si Si1 0.388000 0.750935 0.470944
Si Si2 0.874242 0.720306 0.333662
Si Si3 0.234939 0.821777 0.847949
Si Si4 0.063929 0.937593 0.602347
Si Si5 0.995633 0.607236 0.937867
Si Si6 0.365981 0.585367 0.025671
O O1 0.370072 0.757817 0.642503
O O2 0.318608 0.727798 0.317408
O O3 0.441862 0.664582 0.488554
O O4 0.423192 0.847691 0.435970
O O5 0.807122 0.655062 0.319227
O O6 0.873308 0.818411 0.430527
O O7 0.942189 0.662766 0.429100
O O8 0.201355 0.913333 0.911620
O O9 0.250000 0.750000 0.000000
O O10 0.068685 0.923350 0.799100
O O11 0.132399 0.994089 0.590945
O O12 0.000000 0.000000 0.500000
O O13 0.000000 0.613665 0.750000
O O14 0.000000 0.500000 0.000000
#
# Coordination Sequence:
#
# PCOD8141303 Si02
#       6
#     8   8   8   8   8   8
#     4  11  23  41  66  95 127 166 210 264 323 383
#     4  11  22  42  65  92 126 168 215 265 319 383
#     4   9  20  40  64  90 124 167 210 260 317 377
#     4  11  21  35  56  90 127 165 205 254 317 387
#     4  12  25  44  66  93 125 165 215 268 320 379
#     4  10  21  36  58  88 125 165 206 253 312 379
#
# _framework density 21.225960000000001
#
# number of rings (size 3 to 8) (size 9 to 14) (size 15 to 20)
#    0.000    1.333    0.000    7.500    0.000    2.667 
#    0.000   15.000    0.000    0.000    0.000    0.000 
#    0.000    0.000    0.000    0.000    0.000    0.000 
#
# Total GULP energy -297490.884962 kJ/mol
# GULP energy per Si atom -12395.453540 kJ/mol
# Density = 2.117765 g / cm^3
# Si number density = 21.225960 Si / 1000 Ang^3
#
#
#
# Elastic Constant Matrix: (Units=GPa)
#
#
# Indices 1 2 3 4 5 6 
#
# 1 71.7273 12.8362 40.9137 0.0000 -3.0824 0.0000
# 2 12.8362 95.3340 22.4408 0.0000 -13.2043 0.0000
# 3 40.9137 22.4408 144.3287 0.0000 -17.2664 0.0000
# 4 0.0000 0.0000 0.0000 26.1526 0.0000 -6.6636
# 5 -3.0824 -13.2043 -17.2664 0.0000 36.8840 0.0000
# 6 0.0000 0.0000 0.0000 -6.6636 0.0000 38.1695
#
#
#
# Elastic Compliance Matrix: (Units=1/GPa)
#
#
# Indices 1 2 3 4 5 6 
#
# 1 0.016813 -0.001332 -0.004712 0.000000 -0.001277 0.000000
# 2 -0.001332 0.011384 -0.000973 0.000000 0.003509 0.000000
# 3 -0.004712 -0.000973 0.008821 0.000000 0.003387 0.000000
# 4 0.000000 0.000000 0.000000 0.040017 0.000000 0.006986
# 5 -0.001277 0.003509 0.003387 0.000000 0.029847 0.000000
# 6 0.000000 0.000000 0.000000 0.006986 0.000000 0.027419
#
#
# Mechanical properties :
#
#
# Convention : Reuss Voigt Hill
#
# Bulk Modulus (GPa) = 43.50667 51.53015 47.51841
# Shear Modulus (GPa) = 32.05256 35.92118 33.98687
#
# Velocity S-wave (km/s) = 3.89017 4.11825 4.00583
# Velocity P-wave (km/s) = 6.38117 6.85149 6.62051
#
# Compressibility (1/GPa) = 0.02298498
#
# Stress axis : x y z
#
# Youngs Moduli (GPa) = 59.47877 87.84515 113.36873
#
# Poissons Ratio (x) = 0.11697 0.53417
# Poissons Ratio (y) = 0.07920 0.11028
# Poissons Ratio (z) = 0.28025 0.08545
#
# Static dielectric constant tensor:
#      x y z
#    x 12.825580 0.000000 3.492580 
#    y 0.000000 4.068810 0.000000 
#    z 3.492580 0.000000 5.696850 
# 
# 
# High freq. dielectric constant tensor:
#      x y z
#    x 1.839190 0.000000 -0.012780 
#    y 0.000000 1.819360 0.000000 
#    z -0.012780 0.000000 1.855660 
# 
# From -- ./inp_files/55439.got.cif
#   From: 2010.06.25/outbox.cif.g09.slc.cpg/sg15_28_cif.got.tgz:55439.got - 2010.06.28 07:06:18.
