data_PCOD8142891
_publ_section_title
;
Structure prediction by ZEFSAII (Michael W. Deem and Ramdas Pophale) SiO2 
 PCOD8142891
Probable space group: C 2/C
;
_chemical_formula_sum "Si O2"
_cell_formula_units_Z 56
_cell_length_a 8.875627
_cell_length_b 27.412285
_cell_length_c 17.610267
_cell_angle_alpha 90.000000
_cell_angle_beta 40.484652
_cell_angle_gamma 90.000000
_cell_volume 2781.751872
_symmetry_space_group_name_H-M "C 2/C"
_symmetry_group_IT_number 15
_symmetry_cell_setting 'monoclinic'
loop_
_space_group_symop_operation_xyz
x,y,z
-x,y,1/2-z
-x,-y,-z
x,-y,1/2+z
1/2+x,1/2+y,z
1/2-x,1/2+y,1/2-z
1/2-x,1/2-y,-z
1/2+x,1/2-y,1/2+z
loop_
_atom_site_type_symbol
_atom_site_label
_atom_site_fract_x
_atom_site_fract_y
_atom_site_fract_z
Si Si1 0.224591 0.812669 0.857277
Si Si2 0.581631 0.603674 0.302747
Si Si3 0.143429 0.142447 0.543961
Si Si4 0.771981 0.701707 0.632924
Si Si5 0.367743 0.946018 0.468770
Si Si6 0.532293 0.944727 0.575172
Si Si7 0.382213 0.866683 0.217288
O O1 0.500000 0.817260 0.750000
O O2 0.129301 0.844310 0.823787
O O3 0.141681 0.756718 0.888084
O O4 0.108083 0.830847 0.978641
O O5 0.500000 0.617420 0.250000
O O6 0.394472 0.573297 0.422971
O O7 0.803900 0.568223 0.211476
O O8 0.301596 0.177402 0.537968
O O9 0.269844 0.092370 0.476895
O O10 0.894097 0.127936 0.672199
O O11 0.500000 0.698590 0.750000
O O12 0.929370 0.672370 0.632683
O O13 0.497730 0.939773 0.498510
O O14 0.504165 0.917511 0.350832
O O15 0.374193 0.001919 0.439573
O O16 0.500000 0.848441 0.250000
#
# Coordination Sequence:
#
# PCOD8142891 Si02
#       7
#     8   8   8   8   8   8   8
#     4  11  21  39  64  92 126 159 205 258 307 360
#     4  10  22  41  61  93 127 158 207 251 306 365
#     4  11  21  40  64  92 121 161 212 250 303 369
#     4   9  21  39  64  90 121 166 205 249 307 369
#     4  10  22  40  63  90 127 162 208 248 307 363
#     4  10  21  39  67  91 118 169 203 255 299 368
#     4  11  23  41  60  92 131 159 203 257 306 369
#
# _framework density 20.131197
#
# number of rings (size 3 to 8) (size 9 to 14) (size 15 to 20)
#    0.000    1.714    2.857    1.286    2.000    0.571 
#    2.571    4.286    0.000    0.000    0.000    0.000 
#    0.000    0.000    0.000    0.000    0.000    0.000 
#
# Total GULP energy -347176.173923 kJ/mol
# GULP energy per Si atom -12399.149069 kJ/mol
# Density = 2.008538 g / cm^3
# Si number density = 20.131197 Si / 1000 Ang^3
#
#
#
# Elastic Constant Matrix: (Units=GPa)
#
#
# Indices 1 2 3 4 5 6 
#
# 1 91.6415 64.6687 32.9106 0.0000 7.4542 0.0000
# 2 64.6687 170.4731 53.3171 0.0000 2.3294 0.0000
# 3 32.9106 53.3171 104.1088 0.0000 -0.4497 0.0000
# 4 0.0000 0.0000 0.0000 23.3498 0.0000 7.4281
# 5 7.4542 2.3294 -0.4497 0.0000 31.8903 0.0000
# 6 0.0000 0.0000 0.0000 7.4281 0.0000 11.9184
#
#
#
# Elastic Compliance Matrix: (Units=1/GPa)
#
#
# Indices 1 2 3 4 5 6 
#
# 1 0.015664 -0.005172 -0.002317 0.000000 -0.003316 0.000000
# 2 -0.005172 0.008703 -0.002820 0.000000 0.000533 0.000000
# 3 -0.002317 -0.002820 0.011786 0.000000 0.000914 0.000000
# 4 0.000000 0.000000 0.000000 0.053418 0.000000 -0.033292
# 5 -0.003316 0.000533 0.000914 0.000000 0.032107 0.000000
# 6 0.000000 0.000000 0.000000 -0.033292 0.000000 0.104653
#
#
# Mechanical properties :
#
#
# Convention : Reuss Voigt Hill
#
# Bulk Modulus (GPa) = 64.37253 74.22403 69.29828
# Shear Modulus (GPa) = 19.83142 27.78684 23.80913
#
# Velocity S-wave (km/s) = 3.14205 3.71925 3.44277
# Velocity P-wave (km/s) = 6.72378 7.44271 7.09236
#
# Compressibility (1/GPa) = 0.01553458
#
# Stress axis : x y z
#
# Youngs Moduli (GPa) = 63.84196 114.90871 84.84806
#
# Poissons Ratio (x) = 0.59430 0.19661
# Poissons Ratio (y) = 0.33019 0.23924
# Poissons Ratio (z) = 0.14793 0.32399
#
# Static dielectric constant tensor:
#      x y z
#    x 3.562130 0.000000 0.079100 
#    y 0.000000 3.835840 0.000000 
#    z 0.079100 0.000000 3.712390 
# 
# 
# High freq. dielectric constant tensor:
#      x y z
#    x 1.775770 0.000000 0.006370 
#    y 0.000000 1.790850 0.000000 
#    z 0.006370 0.000000 1.789840 
# 
# From -- ./inp_files/193816.got.cif
#   From: 2010.06.25/outbox.cif.g09.slc.cpg/sg15_97_cif.got.tgz:193816.got - 2010.06.28 07:06:18.
