data_PCOD8142451
_publ_section_title
;
Structure prediction by ZEFSAII (Michael W. Deem and Ramdas Pophale) SiO2 
 PCOD8142451
Probable space group: C 2/C
;
_chemical_formula_sum "Si O2"
_cell_formula_units_Z 56
_cell_length_a 14.445714
_cell_length_b 15.145631
_cell_length_c 21.769270
_cell_angle_alpha 90.000000
_cell_angle_beta 33.980145
_cell_angle_gamma 90.000000
_cell_volume 2662.003946
_symmetry_space_group_name_H-M "C 2/C"
_symmetry_group_IT_number 15
_symmetry_cell_setting 'monoclinic'
loop_
_space_group_symop_operation_xyz
x,y,z
-x,y,1/2-z
-x,-y,-z
x,-y,1/2+z
1/2+x,1/2+y,z
1/2-x,1/2+y,1/2-z
1/2-x,1/2-y,-z
1/2+x,1/2-y,1/2+z
loop_
_atom_site_type_symbol
_atom_site_label
_atom_site_fract_x
_atom_site_fract_y
_atom_site_fract_z
Si Si1 0.710586 0.491633 0.329559
Si Si2 0.780449 0.338536 0.519012
Si Si3 0.500000 0.279807 0.250000
Si Si4 0.769225 0.342910 0.019883
Si Si5 0.620870 0.168812 0.297983
Si Si6 0.332387 0.494762 0.006361
Si Si7 0.128958 0.684910 0.796682
Si Si8 0.500000 0.274209 0.750000
O O1 0.822047 0.570020 0.244080
O O2 0.744720 0.485171 0.383535
O O3 0.526936 0.514518 0.409400
O O4 0.754225 0.399790 0.272648
O O5 0.750000 0.250000 0.500000
O O6 0.736600 0.420088 0.500029
O O7 0.657643 0.337255 0.645759
O O8 0.977637 0.338305 0.427567
O O9 0.648534 0.345244 0.145759
O O10 0.564179 0.215494 0.267073
O O11 0.716716 0.413298 0.997470
O O12 0.750000 0.250000 0.000000
O O13 0.964426 0.346782 0.930185
O O14 0.766833 0.228644 0.244018
O O15 0.045465 0.706574 0.778219
#
# Coordination Sequence:
#
# PCOD8142451 Si02
#       8
#     8   8   4   8   8   8   8   4
#     4  11  21  37  62  91 122 158 205 257 301 354
#     4  10  21  39  59  85 120 159 202 247 301 361
#     4  10  22  40  62  86 126 168 198 250 310 356
#     4  10  21  39  59  85 120 159 202 247 301 361
#     4  11  23  39  63  93 124 159 205 252 303 366
#     4  11  23  38  62  91 120 162 209 250 301 366
#     4  11  23  39  63  93 124 159 205 252 303 366
#     4  10  22  40  62  86 126 168 198 250 310 356
#
# _framework density 21.036784000000001
#
# number of rings (size 3 to 8) (size 9 to 14) (size 15 to 20)
#    0.000    1.429    0.000    7.714    0.000    5.714 
#    0.000    1.429    0.000    5.143    0.000    0.000 
#    0.000    0.000    0.000    0.000    0.000    0.000 
#
# Total GULP energy -346986.832091 kJ/mol
# GULP energy per Si atom -12392.386860 kJ/mol
# Density = 2.098890 g / cm^3
# Si number density = 21.036784 Si / 1000 Ang^3
#
#
#
# Elastic Constant Matrix: (Units=GPa)
#
#
# Indices 1 2 3 4 5 6 
#
# 1 34.9293 -8.0317 25.0104 -0.0001 -10.7211 0.0000
# 2 -8.0317 73.7837 40.2943 -0.0009 2.2573 0.0000
# 3 25.0104 40.2943 178.1613 -0.0002 -3.3372 0.0008
# 4 -0.0001 -0.0009 -0.0002 63.4202 -0.0003 6.3194
# 5 -10.7211 2.2573 -3.3372 -0.0003 23.8844 -0.0004
# 6 0.0000 0.0000 0.0008 6.3194 -0.0004 45.3712
#
#
#
# Elastic Compliance Matrix: (Units=1/GPa)
#
#
# Indices 1 2 3 4 5 6 
#
# 1 0.040622 0.007830 -0.007164 0.000000 0.016493 0.000000
# 2 0.007830 0.017064 -0.004936 0.000000 0.001212 0.000000
# 3 -0.007164 -0.004936 0.007704 0.000000 -0.001673 0.000000
# 4 0.000000 0.000000 0.000000 0.015990 0.000000 -0.002227
# 5 0.016493 0.001212 -0.001673 0.000000 0.048923 0.000000
# 6 0.000000 0.000000 0.000000 -0.002227 0.000000 0.022351
#
#
# Mechanical properties :
#
#
# Convention : Reuss Voigt Hill
#
# Bulk Modulus (GPa) = 17.59050 44.60227 31.09638
# Shear Modulus (GPa) = 27.75567 41.84192 34.79879
#
# Velocity S-wave (km/s) = 3.63628 4.46465 4.07158
# Velocity P-wave (km/s) = 5.10000 6.91560 6.07600
#
# Compressibility (1/GPa) = 0.05684888
#
# Stress axis : x y z
#
# Youngs Moduli (GPa) = 24.61718 58.60347 129.80917
#
# Poissons Ratio (x) = -0.45886 0.93002
# Poissons Ratio (y) = -0.19275 0.64071
# Poissons Ratio (z) = 0.17637 0.28925
#
# Static dielectric constant tensor:
#      x y z
#    x 1.270090 -0.000020 4.318150 
#    y -0.000020 3.717130 0.000040 
#    z 4.318150 0.000040 -2.660250 
# 
# 
# High freq. dielectric constant tensor:
#      x y z
#    x 1.800370 0.000000 -0.015770 
#    y 0.000000 1.830660 0.000000 
#    z -0.015770 0.000000 1.852520 
# 
# From -- ./inp_files/274492.got.cif
#   From: 2010.06.25/outbox.cif.g09.slc.cpg/sg15_138_cif.got.tgz:274492.got - 2010.06.28 07:06:18.
