data_PCOD8142151
_publ_section_title
;
Structure prediction by ZEFSAII (Michael W. Deem and Ramdas Pophale) SiO2 
 PCOD8142151
Probable space group: C 2/C
;
_chemical_formula_sum "Si O2"
_cell_formula_units_Z 56
_cell_length_a 11.386351
_cell_length_b 24.663174
_cell_length_c 12.596572
_cell_angle_alpha 90.000000
_cell_angle_beta 137.516331
_cell_angle_gamma 90.000000
_cell_volume 2389.098884
_symmetry_space_group_name_H-M "C 2/C"
_symmetry_group_IT_number 15
_symmetry_cell_setting 'monoclinic'
loop_
_space_group_symop_operation_xyz
x,y,z
-x,y,1/2-z
-x,-y,-z
x,-y,1/2+z
1/2+x,1/2+y,z
1/2-x,1/2+y,1/2-z
1/2-x,1/2-y,-z
1/2+x,1/2-y,1/2+z
loop_
_atom_site_type_symbol
_atom_site_label
_atom_site_fract_x
_atom_site_fract_y
_atom_site_fract_z
Si Si1 0.318308 0.086205 0.685329
Si Si2 0.369705 0.300881 0.068612
Si Si3 0.947529 0.801081 0.885133
Si Si4 0.058147 0.923046 0.618491
Si Si5 0.848470 0.918970 0.061265
Si Si6 0.198050 0.513399 0.626539
Si Si7 0.185797 0.710451 0.828114
O O1 0.500000 0.068280 0.750000
O O2 0.273084 0.058274 0.765322
O O3 0.325777 0.149324 0.723186
O O4 0.150736 0.072806 0.498525
O O5 0.500000 0.298722 0.250000
O O6 0.266335 0.358369 0.002748
O O7 0.250000 0.250000 0.000000
O O8 0.476659 0.299098 0.031044
O O9 0.886369 0.861588 0.811592
O O10 0.801212 0.757409 0.754086
O O11 0.147499 0.786586 0.980265
O O12 0.094766 0.936959 0.518898
O O13 0.168798 0.963313 0.766288
O O14 0.713566 0.962658 0.017264
O O15 0.000000 0.921487 0.250000
O O16 0.000000 0.500000 0.500000
O O17 0.000000 0.726853 0.750000
#
# Coordination Sequence:
#
# PCOD8142151 Si02
#       7
#     8   8   8   8   8   8   8
#     4  10  23  42  68  96 129 172 221 273 334 394
#     4  10  21  38  62  95 126 165 211 260 325 390
#     4  10  21  38  66  92 130 172 209 265 327 388
#     4  10  23  46  66  93 135 177 217 275 337 391
#     4  10  22  42  69  94 127 173 220 269 335 396
#     4  12  27  41  67  97 130 175 226 279 330 397
#     4  10  21  39  64  95 130 170 211 264 322 394
#
# _framework density 23.439799000000001
#
# number of rings (size 3 to 8) (size 9 to 14) (size 15 to 20)
#    0.000    1.714    1.429    1.714    6.000    1.143 
#    5.143    0.714    0.000    0.000    0.000    0.000 
#    0.000    0.000    0.000    0.000    0.000    0.000 
#
# Total GULP energy -346878.298082 kJ/mol
# GULP energy per Si atom -12388.510646 kJ/mol
# Density = 2.338645 g / cm^3
# Si number density = 23.439799 Si / 1000 Ang^3
#
#
#
# Elastic Constant Matrix: (Units=GPa)
#
#
# Indices 1 2 3 4 5 6 
#
# 1 81.8036 50.1488 25.9510 0.0000 17.0712 0.0000
# 2 50.1488 141.0922 64.5782 0.0000 12.8253 0.0000
# 3 25.9510 64.5782 85.3841 0.0000 19.3980 0.0000
# 4 0.0000 0.0000 0.0000 42.2250 0.0000 3.2753
# 5 17.0712 12.8253 19.3980 0.0000 35.4930 0.0000
# 6 0.0000 0.0000 0.0000 3.2753 0.0000 32.6818
#
#
#
# Elastic Compliance Matrix: (Units=1/GPa)
#
#
# Indices 1 2 3 4 5 6 
#
# 1 0.016851 -0.005703 0.000645 0.000000 -0.006397 0.000000
# 2 -0.005703 0.012783 -0.008573 0.000000 0.002809 0.000000
# 3 0.000645 -0.008573 0.019828 0.000000 -0.008049 0.000000
# 4 0.000000 0.000000 0.000000 0.023868 0.000000 -0.002392
# 5 -0.006397 0.002809 -0.008049 0.000000 0.034635 0.000000
# 6 0.000000 0.000000 0.000000 -0.002392 0.000000 0.030838
#
#
# Mechanical properties :
#
#
# Convention : Reuss Voigt Hill
#
# Bulk Modulus (GPa) = 45.04465 65.51508 55.27987
# Shear Modulus (GPa) = 28.82406 33.25343 31.03875
#
# Velocity S-wave (km/s) = 3.51052 3.77061 3.64289
# Velocity P-wave (km/s) = 5.97416 6.85330 6.42878
#
# Compressibility (1/GPa) = 0.02220019
#
# Stress axis : x y z
#
# Youngs Moduli (GPa) = 59.34406 78.22735 50.43252
#
# Poissons Ratio (x) = 0.44615 -0.03254
# Poissons Ratio (y) = 0.33845 0.43237
# Poissons Ratio (z) = -0.03829 0.67066
#
# Static dielectric constant tensor:
#      x y z
#    x 4.536150 0.000000 0.241550 
#    y 0.000000 4.939930 0.000000 
#    z 0.241550 0.000000 3.953950 
# 
# 
# High freq. dielectric constant tensor:
#      x y z
#    x 1.924550 0.000000 0.001610 
#    y 0.000000 1.952040 0.000000 
#    z 0.001610 0.000000 1.910100 
# 
# From -- ./inp_files/148580.got.cif
#   From: 2010.06.25/outbox.cif.g09.slc.cpg/sg15_75_cif.got.tgz:148580.got - 2010.06.28 07:06:18.
