data_PCOD8142089
_publ_section_title
;
Structure prediction by ZEFSAII (Michael W. Deem and Ramdas Pophale) SiO2 
 PCOD8142089
Probable space group: C 2/C
;
_chemical_formula_sum "Si O2"
_cell_formula_units_Z 40
_cell_length_a 15.320327
_cell_length_b 9.411592
_cell_length_c 24.062362
_cell_angle_alpha 90.000000
_cell_angle_beta 148.103204
_cell_angle_gamma 90.000000
_cell_volume 1833.262602
_symmetry_space_group_name_H-M "C 2/C"
_symmetry_group_IT_number 15
_symmetry_cell_setting 'monoclinic'
loop_
_space_group_symop_operation_xyz
x,y,z
-x,y,1/2-z
-x,-y,-z
x,-y,1/2+z
1/2+x,1/2+y,z
1/2-x,1/2+y,1/2-z
1/2-x,1/2-y,-z
1/2+x,1/2-y,1/2+z
loop_
_atom_site_type_symbol
_atom_site_label
_atom_site_fract_x
_atom_site_fract_y
_atom_site_fract_z
Si Si1 0.160008 0.682429 0.652267
Si Si2 0.809865 0.307348 0.138598
Si Si3 0.809870 0.014335 0.637999
Si Si4 0.628316 0.072010 0.940020
Si Si5 0.214947 0.497355 0.779199
O O1 0.192788 0.621295 0.608641
O O2 0.270441 0.592022 0.755861
O O3 0.199879 0.846963 0.676264
O O4 0.966083 0.670420 0.564327
O O5 0.772949 0.335046 0.052985
O O6 0.719510 0.419197 0.130523
O O7 0.000000 0.337305 0.250000
O O8 0.774722 0.146631 0.139006
O O9 0.000000 0.058595 0.750000
O O10 0.759756 0.024330 0.545328
O O11 0.486137 0.977941 0.832472
#
# Coordination Sequence:
#
# PCOD8142089 Si02
#       5
#     8   8   8   8   8
#     4  10  21  38  62  85 120 153 197 241 297 343
#     4   9  18  36  60  86 118 154 191 239 294 348
#     4  11  22  37  63  88 118 158 201 239 285 354
#     4   9  21  38  65  83 122 156 195 236 301 345
#     4   9  20  37  63  85 120 152 193 243 298 345
#
# _framework density 21.819023999999999
#
# number of rings (size 3 to 8) (size 9 to 14) (size 15 to 20)
#    1.200    1.200    0.000    2.400    2.800    2.400 
#    0.000    5.000    0.000    0.000    0.000    0.000 
#    0.000    0.000    0.000    0.000    0.000    0.000 
#
# Total GULP energy -247767.901833 kJ/mol
# GULP energy per Si atom -12388.395092 kJ/mol
# Density = 2.176936 g / cm^3
# Si number density = 21.819024 Si / 1000 Ang^3
#
#
#
# Elastic Constant Matrix: (Units=GPa)
#
#
# Indices 1 2 3 4 5 6 
#
# 1 63.5684 27.3855 18.6127 0.0001 -10.4455 0.0000
# 2 27.3855 77.3530 -8.7806 0.0001 -9.4974 0.0000
# 3 18.6127 -8.7806 64.6876 0.0005 -9.9863 0.0002
# 4 0.0001 0.0001 0.0005 16.4862 0.0002 -15.9251
# 5 -10.4455 -9.4974 -9.9863 0.0002 35.3696 0.0001
# 6 0.0000 0.0000 0.0002 -15.9251 0.0001 34.4203
#
#
#
# Elastic Compliance Matrix: (Units=1/GPa)
#
#
# Indices 1 2 3 4 5 6 
#
# 1 0.021680 -0.008198 -0.007008 0.000000 0.002223 0.000000
# 2 -0.008198 0.016859 0.005199 -0.000001 0.003574 0.000000
# 3 -0.007008 0.005199 0.018901 -0.000001 0.004663 -0.000001
# 4 0.000000 -0.000001 -0.000001 0.109671 -0.000001 0.050741
# 5 0.002223 0.003574 0.004663 -0.000001 0.031205 -0.000001
# 6 0.000000 0.000000 -0.000001 0.050741 -0.000001 0.052529
#
#
# Mechanical properties :
#
#
# Convention : Reuss Voigt Hill
#
# Bulk Modulus (GPa) = 26.71909 31.11603 28.91756
# Shear Modulus (GPa) = 17.64704 28.48132 23.06418
#
# Velocity S-wave (km/s) = 2.84701 3.61687 3.25478
# Velocity P-wave (km/s) = 4.80413 5.63332 5.23517
#
# Compressibility (1/GPa) = 0.03742643
#
# Stress axis : x y z
#
# Youngs Moduli (GPa) = 46.12580 59.31538 52.90784
#
# Poissons Ratio (x) = 0.48626 0.37076
# Poissons Ratio (y) = 0.37814 -0.27507
# Poissons Ratio (z) = 0.32323 -0.30838
#
# Static dielectric constant tensor:
#      x y z
#    x 3.962820 0.000000 -0.326800 
#    y 0.000000 3.483690 0.000000 
#    z -0.326800 0.000000 4.148710 
# 
# 
# High freq. dielectric constant tensor:
#      x y z
#    x 1.842180 0.000000 -0.014800 
#    y 0.000000 1.831420 0.000000 
#    z -0.014800 0.000000 1.862900 
# 
# From -- ./inp_files/276431.got.cif
#   From: 2010.06.25/outbox.cif.g09.slc.cpg/sg15_139_cif.got.tgz:276431.got - 2010.06.28 07:06:18.
