data_PCOD8142406
_publ_section_title
;
Structure prediction by ZEFSAII (Michael W. Deem and Ramdas Pophale) SiO2 
 PCOD8142406
Probable space group: C 2/C
;
_chemical_formula_sum "Si O2"
_cell_formula_units_Z 52
_cell_length_a 5.400422
_cell_length_b 29.892515
_cell_length_c 16.401900
_cell_angle_alpha 90.000000
_cell_angle_beta 67.537944
_cell_angle_gamma 90.000000
_cell_volume 2446.913854
_symmetry_space_group_name_H-M "C 2/C"
_symmetry_group_IT_number 15
_symmetry_cell_setting 'monoclinic'
loop_
_space_group_symop_operation_xyz
x,y,z
-x,y,1/2-z
-x,-y,-z
x,-y,1/2+z
1/2+x,1/2+y,z
1/2-x,1/2+y,1/2-z
1/2-x,1/2-y,-z
1/2+x,1/2-y,1/2+z
loop_
_atom_site_type_symbol
_atom_site_label
_atom_site_fract_x
_atom_site_fract_y
_atom_site_fract_z
Si Si1 0.993459 0.969007 0.382675
Si Si2 0.309507 0.373892 0.695741
Si Si3 0.870883 0.060571 0.453267
Si Si4 0.500000 0.059216 0.750000
Si Si5 0.081870 0.397407 0.400913
Si Si6 0.462675 0.196224 0.534961
Si Si7 0.412878 0.295205 0.572879
O O1 0.046165 0.956520 0.469039
O O2 0.840564 0.927966 0.362130
O O3 0.249334 0.974647 0.290321
O O4 0.835699 0.016609 0.400310
O O5 0.500000 0.380753 0.750000
O O6 0.407255 0.406187 0.610983
O O7 0.326755 0.322277 0.664076
O O8 0.000000 0.386043 0.750000
O O9 0.592685 0.087484 0.498111
O O10 0.554951 0.092876 0.668039
O O11 0.149002 0.345005 0.398072
O O12 0.401373 0.242020 0.591219
O O13 0.303837 0.194076 0.469856
O O14 0.783290 0.190459 0.486688
#
# Coordination Sequence:
#
# PCOD8142406 Si02
#       7
#     8   8   8   4   8   8   8
#     4  10  22  41  64  87 130 164 220 272 322 391
#     4  12  26  41  64  96 139 173 217 275 327 386
#     4  10  23  40  64  93 119 176 220 263 327 391
#     4  10  24  38  56  96 126 164 210 266 334 370
#     4  11  21  40  65  92 124 167 213 276 312 400
#     4  10  21  38  75  89 127 163 222 260 326 387
#     4  10  21  43  62 101 120 172 213 269 318 394
#
# _framework density 21.251259000000001
#
# number of rings (size 3 to 8) (size 9 to 14) (size 15 to 20)
#    0.000    1.538    1.538    2.769    5.385    1.231 
#    1.385    1.538    0.000    0.000    0.000    0.000 
#    0.000    0.000    0.000    0.000    0.000    0.000 
#
# Total GULP energy -322196.820937 kJ/mol
# GULP energy per Si atom -12392.185421 kJ/mol
# Density = 2.120289 g / cm^3
# Si number density = 21.251259 Si / 1000 Ang^3
#
#
#
# Elastic Constant Matrix: (Units=GPa)
#
#
# Indices 1 2 3 4 5 6 
#
# 1 101.4014 24.5446 28.8735 0.0000 -19.5388 0.0000
# 2 24.5446 140.7078 50.4074 0.0000 -9.9146 0.0000
# 3 28.8735 50.4074 105.7052 0.0000 -27.5577 0.0000
# 4 0.0000 0.0000 0.0000 14.5131 0.0000 -9.3936
# 5 -19.5388 -9.9146 -27.5577 0.0000 24.8880 0.0000
# 6 0.0000 0.0000 0.0000 -9.3936 0.0000 17.8004
#
#
#
# Elastic Compliance Matrix: (Units=1/GPa)
#
#
# Indices 1 2 3 4 5 6 
#
# 1 0.011917 -0.001331 -0.000449 0.000000 0.008328 0.000000
# 2 -0.001331 0.008763 -0.004467 0.000000 -0.002500 0.000000
# 3 -0.000449 -0.004467 0.015685 0.000000 0.015235 0.000000
# 4 0.000000 0.000000 0.000000 0.104647 0.000000 0.055224
# 5 0.008328 -0.002500 0.015235 0.000000 0.062592 0.000000
# 6 0.000000 0.000000 0.000000 0.055224 0.000000 0.085321
#
#
# Mechanical properties :
#
#
# Convention : Reuss Voigt Hill
#
# Bulk Modulus (GPa) = 41.89339 61.71837 51.80588
# Shear Modulus (GPa) = 16.16158 27.70622 21.93390
#
# Velocity S-wave (km/s) = 2.76071 3.61466 3.21615
# Velocity P-wave (km/s) = 5.46975 6.82102 6.18241
#
# Compressibility (1/GPa) = 0.02387011
#
# Stress axis : x y z
#
# Youngs Moduli (GPa) = 83.91710 114.11284 63.75450
#
# Poissons Ratio (x) = 0.15188 0.02864
# Poissons Ratio (y) = 0.11169 0.28480
# Poissons Ratio (z) = 0.03770 0.50976
#
# Static dielectric constant tensor:
#      x y z
#    x 3.924150 0.000000 -0.021660 
#    y 0.000000 4.083150 0.000000 
#    z -0.021660 0.000000 3.945410 
# 
# 
# High freq. dielectric constant tensor:
#      x y z
#    x 1.834440 0.000000 -0.007920 
#    y 0.000000 1.843990 0.000000 
#    z -0.007920 0.000000 1.821140 
# 
# From -- ./inp_files/186040.got.cif
#   From: 2010.06.25/outbox.cif.g09.slc.cpg/sg15_94_cif.got.tgz:186040.got - 2010.06.28 07:06:18.
