data_PCOD8142986
_publ_section_title
;
Structure prediction by ZEFSAII (Michael W. Deem and Ramdas Pophale) SiO2 
 PCOD8142986
Probable space group: C 2/C
;
_chemical_formula_sum "Si O2"
_cell_formula_units_Z 64
_cell_length_a 13.772133
_cell_length_b 11.793017
_cell_length_c 26.641803
_cell_angle_alpha 90.000000
_cell_angle_beta 44.118856
_cell_angle_gamma 90.000000
_cell_volume 3012.256897
_symmetry_space_group_name_H-M "C 2/C"
_symmetry_group_IT_number 15
_symmetry_cell_setting 'monoclinic'
loop_
_space_group_symop_operation_xyz
x,y,z
-x,y,1/2-z
-x,-y,-z
x,-y,1/2+z
1/2+x,1/2+y,z
1/2-x,1/2+y,1/2-z
1/2-x,1/2-y,-z
1/2+x,1/2-y,1/2+z
loop_
_atom_site_type_symbol
_atom_site_label
_atom_site_fract_x
_atom_site_fract_y
_atom_site_fract_z
Si Si1 0.103313 0.724077 0.599253
Si Si2 0.455557 0.472471 0.097558
Si Si3 0.073588 0.373198 0.521504
Si Si4 0.037413 0.747324 0.343346
Si Si5 0.722390 0.223237 0.116264
Si Si6 0.816522 0.196530 0.188410
Si Si7 0.655890 0.125089 0.476726
Si Si8 0.703840 0.472886 0.440166
O O1 0.183600 0.835464 0.591740
O O2 0.106707 0.716645 0.536914
O O3 0.165711 0.609855 0.599660
O O4 0.939475 0.736496 0.672128
O O5 0.455778 0.372273 0.137004
O O6 0.365649 0.570298 0.156986
O O7 0.390697 0.422929 0.069908
O O8 0.611168 0.517437 0.025553
O O9 0.188864 0.289153 0.457897
O O10 0.142522 0.496894 0.500710
O O11 0.035305 0.339897 0.591811
O O12 0.934130 0.364840 0.540133
O O13 0.187424 0.696216 0.274166
O O14 0.940351 0.753926 0.329925
O O15 0.771748 0.259648 0.153470
O O16 0.738790 0.090883 0.100627
#
# Coordination Sequence:
#
# PCOD8142986 Si02
#       8
#     8   8   8   8   8   8   8   8
#     4  11  21  39  66  95 127 172 208 258 317 380
#     4  10  22  41  66  96 126 164 215 271 313 374
#     4  11  22  41  63 102 122 162 211 278 304 376
#     4  12  25  40  67  92 132 167 218 259 324 383
#     4  11  23  43  67  93 124 168 218 268 316 365
#     4  11  26  44  59  93 137 171 206 256 329 392
#     4  10  22  36  66  94 132 156 212 260 324 360
#     4  10  21  39  72  98 120 161 224 275 306 362
#
# _framework density 21.246528000000001
#
# number of rings (size 3 to 8) (size 9 to 14) (size 15 to 20)
#    0.000    1.250    2.500    3.750    5.250    2.000 
#    0.000    3.750    0.000    0.000    0.000    0.000 
#    0.000    0.000    0.000    0.000    0.000    0.000 
#
# Total GULP energy -396814.206193 kJ/mol
# GULP energy per Si atom -12400.443944 kJ/mol
# Density = 2.119817 g / cm^3
# Si number density = 21.246528 Si / 1000 Ang^3
#
#
#
# Elastic Constant Matrix: (Units=GPa)
#
#
# Indices 1 2 3 4 5 6 
#
# 1 110.6670 49.5964 24.1193 0.0000 -26.5917 0.0000
# 2 49.5964 110.4806 39.1940 0.0000 -9.1696 0.0000
# 3 24.1193 39.1940 85.8559 0.0000 -23.5378 0.0000
# 4 0.0000 0.0000 0.0000 8.4140 0.0000 0.3517
# 5 -26.5917 -9.1696 -23.5378 0.0000 31.8940 0.0000
# 6 0.0000 0.0000 0.0000 0.3517 0.0000 38.7961
#
#
#
# Elastic Compliance Matrix: (Units=1/GPa)
#
#
# Indices 1 2 3 4 5 6 
#
# 1 0.014074 -0.006060 0.001946 0.000000 0.011428 0.000000
# 2 -0.006060 0.013421 -0.005957 0.000000 -0.005590 0.000000
# 3 0.001946 -0.005957 0.017295 0.000000 0.012673 0.000000
# 4 0.000000 0.000000 0.000000 0.118895 0.000000 -0.001078
# 5 0.011428 -0.005590 0.012673 0.000000 0.048627 0.000000
# 6 0.000000 0.000000 0.000000 -0.001078 0.000000 0.025786
#
#
# Mechanical properties :
#
#
# Convention : Reuss Voigt Hill
#
# Bulk Modulus (GPa) = 40.57271 59.20253 49.88762
# Shear Modulus (GPa) = 18.76492 28.76039 23.76266
#
# Velocity S-wave (km/s) = 2.97509 3.68319 3.34791
# Velocity P-wave (km/s) = 5.56230 6.78328 6.20291
#
# Compressibility (1/GPa) = 0.02464711
#
# Stress axis : x y z
#
# Youngs Moduli (GPa) = 71.05464 74.51032 57.82142
#
# Poissons Ratio (x) = 0.45150 -0.11249
# Poissons Ratio (y) = 0.43056 0.34444
# Poissons Ratio (z) = -0.13824 0.44386
#
# Static dielectric constant tensor:
#      x y z
#    x 4.308100 0.000000 -0.161740 
#    y 0.000000 3.749670 0.000000 
#    z -0.161740 0.000000 3.523240 
# 
# 
# High freq. dielectric constant tensor:
#      x y z
#    x 1.858000 0.000000 -0.014700 
#    y 0.000000 1.835790 0.000000 
#    z -0.014700 0.000000 1.797930 
# 
# From -- ./inp_files/313593.got.cif
#   From: 2010.06.25/outbox.cif.g09.slc.cpg/sg15_157_cif.got.tgz:313593.got - 2010.06.28 07:06:18.
