data_PCOD8142732
_publ_section_title
;
Structure prediction by ZEFSAII (Michael W. Deem and Ramdas Pophale) SiO2 
 PCOD8142732
Probable space group: C 2/C
;
_chemical_formula_sum "Si O2"
_cell_formula_units_Z 40
_cell_length_a 10.160587
_cell_length_b 11.134373
_cell_length_c 23.656402
_cell_angle_alpha 90.000000
_cell_angle_beta 142.006505
_cell_angle_gamma 90.000000
_cell_volume 1647.449526
_symmetry_space_group_name_H-M "C 2/C"
_symmetry_group_IT_number 15
_symmetry_cell_setting 'monoclinic'
loop_
_space_group_symop_operation_xyz
x,y,z
-x,y,1/2-z
-x,-y,-z
x,-y,1/2+z
1/2+x,1/2+y,z
1/2-x,1/2+y,1/2-z
1/2-x,1/2-y,-z
1/2+x,1/2-y,1/2+z
loop_
_atom_site_type_symbol
_atom_site_label
_atom_site_fract_x
_atom_site_fract_y
_atom_site_fract_z
Si Si1 0.789447 0.355056 0.650481
Si Si2 0.263527 0.736061 0.191084
Si Si3 0.968414 0.034318 0.872193
Si Si4 0.095627 0.445388 0.930481
Si Si5 0.725767 0.860009 0.195339
O O1 0.583949 0.411696 0.612230
O O2 0.791455 0.383181 0.584947
O O3 0.792404 0.207599 0.659375
O O4 0.000000 0.413759 0.750000
O O5 0.500000 0.712974 0.250000
O O6 0.158869 0.862254 0.135362
O O7 0.279695 0.743274 0.264851
O O8 0.108103 0.630459 0.117104
O O9 0.890745 0.041142 0.779442
O O10 0.224729 0.050571 0.960049
O O11 0.007261 0.579223 0.888470
#
# Coordination Sequence:
#
# PCOD8142732 Si02
#       5
#     8   8   8   8   8
#     4  12  20  42  68 100 133 182 229 282 343 409
#     4  10  21  39  64  92 131 179 225 270 343 408
#     4  10  22  40  69 100 130 182 232 277 349 409
#     4  12  23  42  69 101 137 180 230 286 343 411
#     4  10  23  39  68  97 134 174 230 278 343 405
#
# _framework density 24.279955000000001
#
# number of rings (size 3 to 8) (size 9 to 14) (size 15 to 20)
#    1.200    0.000    4.000    3.000    0.000    1.600 
#    0.000    2.000    0.000   10.800    0.000    0.000 
#    0.000    0.000    0.000    0.000    0.000    0.000 
#
# Total GULP energy -247795.941421 kJ/mol
# GULP energy per Si atom -12389.797071 kJ/mol
# Density = 2.422469 g / cm^3
# Si number density = 24.279955 Si / 1000 Ang^3
#
#
#
# Elastic Constant Matrix: (Units=GPa)
#
#
# Indices 1 2 3 4 5 6 
#
# 1 20.1392 20.6899 32.7578 0.0000 8.7790 0.0000
# 2 20.6899 68.2037 39.3373 0.0000 8.7823 0.0000
# 3 32.7578 39.3373 163.5882 0.0000 30.1020 0.0000
# 4 0.0000 0.0000 0.0000 31.4796 0.0000 15.7158
# 5 8.7790 8.7823 30.1020 0.0000 34.8876 0.0000
# 6 0.0000 0.0000 0.0000 15.7158 0.0000 42.6299
#
#
#
# Elastic Compliance Matrix: (Units=1/GPa)
#
#
# Indices 1 2 3 4 5 6 
#
# 1 0.094464 -0.020399 -0.012579 0.000000 -0.007782 0.000000
# 2 -0.020399 0.021452 -0.001218 0.000000 0.000784 0.000000
# 3 -0.012579 -0.001218 0.009850 0.000000 -0.005027 0.000000
# 4 0.000000 0.000000 0.000000 0.038932 0.000000 -0.014352
# 5 -0.007782 0.000784 -0.005027 0.000000 0.034762 0.000000
# 6 0.000000 0.000000 0.000000 -0.014352 0.000000 0.028749
#
#
# Mechanical properties :
#
#
# Convention : Reuss Voigt Hill
#
# Bulk Modulus (GPa) = 17.42953 48.61122 33.02038
# Shear Modulus (GPa) = 15.83666 32.40917 24.12292
#
# Velocity S-wave (km/s) = 2.55669 3.65747 3.15545
# Velocity P-wave (km/s) = 3.98870 6.15636 5.18703
#
# Compressibility (1/GPa) = 0.05737388
#
# Stress axis : x y z
#
# Youngs Moduli (GPa) = 10.58604 46.61661 101.52787
#
# Poissons Ratio (x) = 0.95094 1.27709
# Poissons Ratio (y) = 0.21595 0.12364
# Poissons Ratio (z) = 0.13316 0.05677
#
# Static dielectric constant tensor:
#      x y z
#    x 3.920240 0.000000 0.037270 
#    y 0.000000 4.222030 0.000000 
#    z 0.037270 0.000000 4.215870 
# 
# 
# High freq. dielectric constant tensor:
#      x y z
#    x 1.930200 0.000000 0.010190 
#    y 0.000000 1.962320 0.000000 
#    z 0.010190 0.000000 1.957120 
# 
# From -- ./inp_files/310873.got.cif
#   From: 2010.06.25/outbox.cif.g09.slc.cpg/sg15_156_cif.got.tgz:310873.got - 2010.06.28 07:06:18.
