data_PCOD8142915
_publ_section_title
;
Structure prediction by ZEFSAII (Michael W. Deem and Ramdas Pophale) SiO2 
 PCOD8142915
Probable space group: C 2/C
;
_chemical_formula_sum "Si O2"
_cell_formula_units_Z 60
_cell_length_a 22.500908
_cell_length_b 8.659732
_cell_length_c 21.420582
_cell_angle_alpha 90.000000
_cell_angle_beta 137.859825
_cell_angle_gamma 90.000000
_cell_volume 2800.424023
_symmetry_space_group_name_H-M "C 2/C"
_symmetry_group_IT_number 15
_symmetry_cell_setting 'monoclinic'
loop_
_space_group_symop_operation_xyz
x,y,z
-x,y,1/2-z
-x,-y,-z
x,-y,1/2+z
1/2+x,1/2+y,z
1/2-x,1/2+y,1/2-z
1/2-x,1/2-y,-z
1/2+x,1/2-y,1/2+z
loop_
_atom_site_type_symbol
_atom_site_label
_atom_site_fract_x
_atom_site_fract_y
_atom_site_fract_z
Si Si1 0.925082 0.393915 0.888201
Si Si2 0.011921 0.306012 0.440832
Si Si3 0.679212 0.721188 0.249041
Si Si4 0.194584 0.400458 0.387897
Si Si5 0.852697 0.274927 0.702072
Si Si6 0.618168 0.664790 0.417262
Si Si7 0.000000 0.067554 0.750000
Si Si8 0.733457 0.911827 0.182656
O O1 0.002200 0.508584 0.923693
O O2 0.882126 0.313692 0.795582
O O3 0.860214 0.501532 0.881634
O O4 0.966135 0.269962 0.968861
O O5 0.921814 0.229610 0.348978
O O6 0.090472 0.237207 0.461344
O O7 0.704687 0.807124 0.332062
O O8 0.745363 0.794999 0.249814
O O9 0.690680 0.539366 0.260728
O O10 0.160067 0.572900 0.349112
O O11 0.286147 0.412868 0.497515
O O12 0.122709 0.306459 0.372121
O O13 0.757144 0.186680 0.637620
O O14 0.926670 0.171283 0.726851
O O15 0.548866 0.537953 0.339262
#
# Coordination Sequence:
#
# PCOD8142915 Si02
#       8
#     8   8   8   8   8   8   4   8
#     4  10  22  40  64 105 128 177 218 281 347 399
#     4  10  21  39  67  97 133 165 226 278 348 398
#     4  11  20  39  64  97 129 177 218 284 338 406
#     4  11  24  44  71  95 130 182 236 270 351 402
#     4  12  25  45  68 102 138 181 223 289 336 417
#     4  11  25  46  70  97 130 188 230 286 334 420
#     4  12  30  46  64 104 144 180 236 284 348 402
#     4  11  20  39  66  94 134 176 225 271 343 400
#
# _framework density 21.425326999999999
#
# number of rings (size 3 to 8) (size 9 to 14) (size 15 to 20)
#    0.000    1.067    4.000    3.200    1.867    1.600 
#    9.600    1.333    0.000    0.000    0.000    0.000 
#    0.000    0.000    0.000    0.000    0.000    0.000 
#
# Total GULP energy -371741.467756 kJ/mol
# GULP energy per Si atom -12391.382259 kJ/mol
# Density = 2.137656 g / cm^3
# Si number density = 21.425327 Si / 1000 Ang^3
#
#
#
# Elastic Constant Matrix: (Units=GPa)
#
#
# Indices 1 2 3 4 5 6 
#
# 1 90.0470 55.1470 25.7470 0.0000 -8.9293 0.0000
# 2 55.1470 115.0784 33.9480 0.0000 -11.2237 0.0000
# 3 25.7470 33.9480 86.2469 0.0000 1.1096 0.0000
# 4 0.0000 0.0000 0.0000 21.3996 0.0000 -3.7669
# 5 -8.9293 -11.2237 1.1096 0.0000 19.3251 0.0000
# 6 0.0000 0.0000 0.0000 -3.7669 0.0000 31.4588
#
#
#
# Elastic Compliance Matrix: (Units=1/GPa)
#
#
# Indices 1 2 3 4 5 6 
#
# 1 0.016259 -0.006770 -0.002237 0.000000 0.003709 0.000000
# 2 -0.006770 0.013381 -0.003308 0.000000 0.004833 0.000000
# 3 -0.002237 -0.003308 0.013613 0.000000 -0.003736 0.000000
# 4 0.000000 0.000000 0.000000 0.047736 0.000000 0.005716
# 5 0.003709 0.004833 -0.003736 0.000000 0.056482 0.000000
# 6 0.000000 0.000000 0.000000 0.005716 0.000000 0.032472
#
#
# Mechanical properties :
#
#
# Convention : Reuss Voigt Hill
#
# Bulk Modulus (GPa) = 53.69702 57.89516 55.79609
# Shear Modulus (GPa) = 23.72150 26.20539 24.96345
#
# Velocity S-wave (km/s) = 3.33103 3.50108 3.41711
# Velocity P-wave (km/s) = 6.31753 6.58968 6.45504
#
# Compressibility (1/GPa) = 0.01862301
#
# Stress axis : x y z
#
# Youngs Moduli (GPa) = 61.50580 74.73143 73.46140
#
# Poissons Ratio (x) = 0.50592 0.16431
# Poissons Ratio (y) = 0.41638 0.24303
# Poissons Ratio (z) = 0.13757 0.24723
#
# Static dielectric constant tensor:
#      x y z
#    x 4.071530 0.000000 -0.081950 
#    y 0.000000 4.009090 0.000000 
#    z -0.081950 0.000000 3.816820 
# 
# 
# High freq. dielectric constant tensor:
#      x y z
#    x 1.851320 0.000000 0.000350 
#    y 0.000000 1.843850 0.000000 
#    z 0.000350 0.000000 1.834340 
# 
# From -- ./inp_files/214303.got.cif
#   From: 2010.06.25/outbox.cif.g09.slc.cpg/sg15_108_cif.got.tgz:214303.got - 2010.06.28 07:06:18.
