data_PCOD8142863
_publ_section_title
;
Structure prediction by ZEFSAII (Michael W. Deem and Ramdas Pophale) SiO2 
 PCOD8142863
Probable space group: C 2/C
;
_chemical_formula_sum "Si O2"
_cell_formula_units_Z 52
_cell_length_a 13.766564
_cell_length_b 18.680841
_cell_length_c 14.801408
_cell_angle_alpha 90.000000
_cell_angle_beta 138.529295
_cell_angle_gamma 90.000000
_cell_volume 2520.800465
_symmetry_space_group_name_H-M "C 2/C"
_symmetry_group_IT_number 15
_symmetry_cell_setting 'monoclinic'
loop_
_space_group_symop_operation_xyz
x,y,z
-x,y,1/2-z
-x,-y,-z
x,-y,1/2+z
1/2+x,1/2+y,z
1/2-x,1/2+y,1/2-z
1/2-x,1/2-y,-z
1/2+x,1/2-y,1/2+z
loop_
_atom_site_type_symbol
_atom_site_label
_atom_site_fract_x
_atom_site_fract_y
_atom_site_fract_z
Si Si1 0.101280 0.666859 0.586584
Si Si2 0.000000 0.018522 0.750000
Si Si3 0.071032 0.946956 0.976483
Si Si4 0.428469 0.112844 0.297849
Si Si5 0.426995 0.652982 0.785011
Si Si6 0.105385 0.447156 0.239152
Si Si7 0.108214 0.174073 0.086695
O O1 0.273877 0.684874 0.707185
O O2 0.050988 0.607574 0.623813
O O3 0.048138 0.747190 0.572044
O O4 0.046168 0.642184 0.450721
O O5 0.090404 0.974555 0.887402
O O6 0.110208 0.070428 0.770682
O O7 0.966287 0.878370 0.892753
O O8 0.230561 0.924085 0.121486
O O9 0.000000 0.000000 0.000000
O O10 0.500000 0.122365 0.250000
O O11 0.282927 0.161034 0.206538
O O12 0.394834 0.029354 0.294490
O O13 0.500000 0.694530 0.750000
O O14 0.547891 0.652700 0.946674
O O15 0.000000 0.436207 0.250000
#
# Coordination Sequence:
#
# PCOD8142863 Si02
#       7
#     8   4   8   8   8   8   8
#     4  12  25  42  65  97 140 177 215 273 343 387
#     4  10  22  36  72  98 120 172 222 266 324 384
#     4  12  21  45  68  96 131 172 226 275 319 402
#     4  11  25  40  66 103 132 170 223 273 335 398
#     4  10  21  39  66  96 129 173 215 265 334 396
#     4  11  25  45  69  92 134 175 229 283 321 379
#     4  12  24  42  66  94 138 179 215 269 333 402
#
# _framework density 20.628367999999998
#
# number of rings (size 3 to 8) (size 9 to 14) (size 15 to 20)
#    0.462    0.308    4.615    2.308    4.308    4.923 
#    1.385    0.769    0.000    0.000    0.000    0.000 
#    0.000    0.000    0.000    0.000    0.000    0.000 
#
# Total GULP energy -322237.535771 kJ/mol
# GULP energy per Si atom -12393.751376 kJ/mol
# Density = 2.058142 g / cm^3
# Si number density = 20.628368 Si / 1000 Ang^3
#
#
#
# Elastic Constant Matrix: (Units=GPa)
#
#
# Indices 1 2 3 4 5 6 
#
# 1 67.4525 34.3982 31.9601 -0.0008 3.2910 -0.0002
# 2 34.3982 143.8778 32.5729 -0.0008 -15.6646 -0.0003
# 3 31.9601 32.5729 100.1517 -0.0012 -10.8365 -0.0006
# 4 -0.0008 -0.0008 -0.0012 18.0124 -0.0013 1.9424
# 5 3.2910 -15.6646 -10.8365 -0.0013 37.1814 -0.0002
# 6 -0.0002 -0.0003 -0.0006 1.9424 -0.0002 16.6846
#
#
#
# Elastic Compliance Matrix: (Units=1/GPa)
#
#
# Indices 1 2 3 4 5 6 
#
# 1 0.019746 -0.004017 -0.005542 0.000000 -0.005055 0.000000
# 2 -0.004017 0.008558 -0.001108 0.000000 0.003638 0.000000
# 3 -0.005542 -0.001108 0.012511 0.000001 0.003670 0.000000
# 4 0.000000 0.000000 0.000001 0.056223 0.000002 -0.006545
# 5 -0.005055 0.003638 0.003670 0.000002 0.029945 0.000000
# 6 0.000000 0.000000 0.000000 -0.006545 0.000000 0.060698
#
#
# Mechanical properties :
#
#
# Convention : Reuss Voigt Hill
#
# Bulk Modulus (GPa) = 51.33035 56.59385 53.96210
# Shear Modulus (GPa) = 23.20115 28.54573 25.87344
#
# Velocity S-wave (km/s) = 3.35732 3.72399 3.54540
# Velocity P-wave (km/s) = 6.32188 6.78125 6.55559
#
# Compressibility (1/GPa) = 0.01948165
#
# Stress axis : x y z
#
# Youngs Moduli (GPa) = 50.64308 116.85646 79.93104
#
# Poissons Ratio (x) = 0.46936 0.44297
# Poissons Ratio (y) = 0.20341 0.08855
# Poissons Ratio (z) = 0.28066 0.12946
#
# Static dielectric constant tensor:
#      x y z
#    x 3.854940 0.000000 0.062650 
#    y 0.000000 3.955140 0.000000 
#    z 0.062650 0.000000 3.785080 
# 
# 
# High freq. dielectric constant tensor:
#      x y z
#    x 1.789490 0.000000 0.000350 
#    y 0.000000 1.813230 0.000000 
#    z 0.000350 0.000000 1.813180 
# 
# From -- ./inp_files/155533.got.cif
#   From: 2010.06.25/outbox.cif.g09.slc.cpg/sg15_78_cif.got.tgz:155533.got - 2010.06.28 07:06:18.
