data_PCOD8142130
_publ_section_title
;
Structure prediction by ZEFSAII (Michael W. Deem and Ramdas Pophale) SiO2 
 PCOD8142130
Probable space group: C 2/C
;
_chemical_formula_sum "Si O2"
_cell_formula_units_Z 60
_cell_length_a 10.605913
_cell_length_b 9.107374
_cell_length_c 28.236645
_cell_angle_alpha 90.000000
_cell_angle_beta 95.805017
_cell_angle_gamma 90.000000
_cell_volume 2713.447798
_symmetry_space_group_name_H-M "C 2/C"
_symmetry_group_IT_number 15
_symmetry_cell_setting 'monoclinic'
loop_
_space_group_symop_operation_xyz
x,y,z
-x,y,1/2-z
-x,-y,-z
x,-y,1/2+z
1/2+x,1/2+y,z
1/2-x,1/2+y,1/2-z
1/2-x,1/2-y,-z
1/2+x,1/2-y,1/2+z
loop_
_atom_site_type_symbol
_atom_site_label
_atom_site_fract_x
_atom_site_fract_y
_atom_site_fract_z
Si Si1 0.422451 0.606976 0.819954
Si Si2 0.000000 0.672253 0.250000
Si Si3 0.016972 0.833098 0.944261
Si Si4 0.602887 0.637442 0.346189
Si Si5 0.554729 0.992806 0.431592
Si Si6 0.309491 0.544182 0.974887
Si Si7 0.638705 0.959637 0.327221
Si Si8 0.358680 0.784725 0.901160
O O1 0.407088 0.720813 0.775893
O O2 0.541951 0.496228 0.813342
O O3 0.288837 0.525409 0.823385
O O4 0.452008 0.702075 0.868080
O O5 0.076915 0.569751 0.288201
O O6 0.994157 0.660363 0.945154
O O7 0.017145 0.877389 0.889690
O O8 0.150524 0.877725 0.974570
O O9 0.905531 0.914134 0.967175
O O10 0.588864 0.791852 0.317658
O O11 0.750705 0.625026 0.367656
O O12 0.670379 0.028448 0.471971
O O13 0.602973 0.002459 0.379272
O O14 0.444511 0.110084 0.436292
O O15 0.293854 0.665401 0.932629
#
# Coordination Sequence:
#
# PCOD8142130 Si02
#       8
#     8   4   8   8   8   8   8   8
#     4  11  23  44  64  93 123 161 199 252 315 364
#     4  12  26  42  66  96 120 152 202 264 306 366
#     4  10  21  38  62  91 125 170 206 251 304 351
#     4  10  21  42  64  88 128 167 201 246 305 370
#     4  11  21  40  63  89 124 168 200 251 310 358
#     4  11  21  40  61  91 130 161 210 258 293 363
#     4  10  23  43  65  91 123 157 204 249 307 369
#     4  11  22  38  64  91 125 162 208 250 303 366
#
# _framework density 22.112088
#
# number of rings (size 3 to 8) (size 9 to 14) (size 15 to 20)
#    0.000    1.333    6.667    0.400    0.000    5.333 
#    4.800    1.333    0.000    0.000    0.000    0.000 
#    0.000    0.000    0.000    0.000    0.000    0.000 
#
# Total GULP energy -371819.132482 kJ/mol
# GULP energy per Si atom -12393.971083 kJ/mol
# Density = 2.206176 g / cm^3
# Si number density = 22.112088 Si / 1000 Ang^3
#
#
#
# Elastic Constant Matrix: (Units=GPa)
#
#
# Indices 1 2 3 4 5 6 
#
# 1 72.0143 41.3366 11.2062 0.0000 16.7423 0.0000
# 2 41.3366 77.0209 24.6743 0.0000 19.6600 0.0000
# 3 11.2062 24.6743 66.1204 0.0000 11.4893 0.0000
# 4 0.0000 0.0000 0.0000 32.5453 0.0000 11.8068
# 5 16.7423 19.6600 11.4893 0.0000 28.1879 0.0000
# 6 0.0000 0.0000 0.0000 11.8068 0.0000 30.2587
#
#
#
# Elastic Compliance Matrix: (Units=1/GPa)
#
#
# Indices 1 2 3 4 5 6 
#
# 1 0.020847 -0.010096 0.001251 0.000000 -0.005850 0.000000
# 2 -0.010096 0.021899 -0.005218 0.000000 -0.007150 0.000000
# 3 0.001251 -0.005218 0.017603 0.000000 -0.004278 0.000000
# 4 0.000000 0.000000 0.000000 0.035793 0.000000 -0.013966
# 5 -0.005850 -0.007150 -0.004278 0.000000 0.045682 0.000000
# 6 0.000000 0.000000 0.000000 -0.013966 0.000000 0.038498
#
#
# Mechanical properties :
#
#
# Convention : Reuss Voigt Hill
#
# Bulk Modulus (GPa) = 31.03525 41.06555 36.05040
# Shear Modulus (GPa) = 22.81151 27.39428 25.10290
#
# Velocity S-wave (km/s) = 3.21539 3.52359 3.37301
# Velocity P-wave (km/s) = 5.27739 5.93011 5.61324
#
# Compressibility (1/GPa) = 0.03222142
#
# Stress axis : x y z
#
# Youngs Moduli (GPa) = 47.96956 45.66506 56.80947
#
# Poissons Ratio (x) = 0.46101 -0.07106
# Poissons Ratio (y) = 0.48428 0.29646
# Poissons Ratio (z) = -0.06000 0.23830
#
# Static dielectric constant tensor:
#      x y z
#    x 3.797280 0.000000 0.044970 
#    y 0.000000 3.998010 0.000000 
#    z 0.044970 0.000000 4.054410 
# 
# 
# High freq. dielectric constant tensor:
#      x y z
#    x 1.863130 0.000000 -0.000680 
#    y 0.000000 1.870010 0.000000 
#    z -0.000680 0.000000 1.866340 
# 
# From -- ./inp_files/310340.got.cif
#   From: 2010.06.25/outbox.cif.g09.slc.cpg/sg15_156_cif.got.tgz:310340.got - 2010.06.28 07:06:18.
