data_PCOD8142164
_publ_section_title
;
Structure prediction by ZEFSAII (Michael W. Deem and Ramdas Pophale) SiO2 
 PCOD8142164
Probable space group: C 2/C
;
_chemical_formula_sum "Si O2"
_cell_formula_units_Z 36
_cell_length_a 31.565199
_cell_length_b 7.950813
_cell_length_c 18.298989
_cell_angle_alpha 90.000000
_cell_angle_beta 22.531894
_cell_angle_gamma 90.000000
_cell_volume 1759.827136
_symmetry_space_group_name_H-M "C 2/C"
_symmetry_group_IT_number 15
_symmetry_cell_setting 'monoclinic'
loop_
_space_group_symop_operation_xyz
x,y,z
-x,y,1/2-z
-x,-y,-z
x,-y,1/2+z
1/2+x,1/2+y,z
1/2-x,1/2+y,1/2-z
1/2-x,1/2-y,-z
1/2+x,1/2-y,1/2+z
loop_
_atom_site_type_symbol
_atom_site_label
_atom_site_fract_x
_atom_site_fract_y
_atom_site_fract_z
Si Si1 0.664710 0.929358 0.260239
Si Si2 0.946026 0.890169 0.523459
Si Si3 0.103911 0.069331 0.041586
Si Si4 0.045928 0.435199 0.820818
Si Si5 0.500000 0.107721 0.750000
O O1 0.651203 0.725869 0.286840
O O2 0.567672 0.014830 0.464104
O O3 0.650373 0.991726 0.199453
O O4 0.783354 0.989094 0.099554
O O5 0.039239 0.768034 0.338435
O O6 0.894034 0.011838 0.545504
O O7 0.000000 0.000000 0.500000
O O8 0.000000 0.985032 0.250000
O O9 0.091956 0.272631 0.065000
O O10 0.058324 0.489505 0.717028
#
# Coordination Sequence:
#
# PCOD8142164 Si02
#       5
#     8   8   8   8   4
#     4   9  21  40  63  82 117 159 196 233 294 350
#     4  10  21  38  63  86 116 147 205 237 283 346
#     4  10  24  36  59  90 121 149 196 244 292 338
#     4   9  21  38  64  81 116 156 197 231 295 345
#     4  10  22  38  58  86 126 146 194 240 298 346
#
# _framework density 20.456555999999999
#
# number of rings (size 3 to 8) (size 9 to 14) (size 15 to 20)
#    2.000    0.444    0.000    1.333    4.667    0.889 
#    0.000    1.111    0.000    0.000    0.000    0.000 
#    0.000    0.000    0.000    0.000    0.000    0.000 
#
# Total GULP energy -223005.756330 kJ/mol
# GULP energy per Si atom -12389.208685 kJ/mol
# Density = 2.041000 g / cm^3
# Si number density = 20.456556 Si / 1000 Ang^3
#
#
#
# Elastic Constant Matrix: (Units=GPa)
#
#
# Indices 1 2 3 4 5 6 
#
# 1 224.0466 81.0897 48.5975 0.0000 -28.3186 0.0000
# 2 81.0897 102.5498 17.9249 -0.0002 -1.9595 0.0000
# 3 48.5975 17.9249 65.9694 -0.0001 -31.8883 0.0000
# 4 0.0000 -0.0002 -0.0001 13.9597 0.0000 5.8750
# 5 -28.3186 -1.9595 -31.8883 0.0000 32.2477 0.0000
# 6 0.0000 0.0000 0.0000 5.8750 0.0000 47.0286
#
#
#
# Elastic Compliance Matrix: (Units=1/GPa)
#
#
# Indices 1 2 3 4 5 6 
#
# 1 0.007376 -0.005420 -0.001895 0.000000 0.004274 0.000000
# 2 -0.005420 0.014508 -0.003494 0.000000 -0.007333 0.000000
# 3 -0.001895 -0.003494 0.031794 0.000000 0.029563 0.000000
# 4 0.000000 0.000000 0.000000 0.075610 0.000000 -0.009445
# 5 0.004274 -0.007333 0.029563 0.000000 0.063552 0.000000
# 6 0.000000 0.000000 0.000000 -0.009445 0.000000 0.022444
#
#
# Mechanical properties :
#
#
# Convention : Reuss Voigt Hill
#
# Bulk Modulus (GPa) = 31.19109 76.42113 53.80611
# Shear Modulus (GPa) = 20.19486 34.97744 27.58615
#
# Velocity S-wave (km/s) = 3.14539 4.13951 3.67621
# Velocity P-wave (km/s) = 5.33591 7.76442 6.66176
#
# Compressibility (1/GPa) = 0.03206044
#
# Stress axis : x y z
#
# Youngs Moduli (GPa) = 135.57041 68.92976 31.45209
#
# Poissons Ratio (x) = 0.37358 0.05961
# Poissons Ratio (y) = 0.73475 0.10989
# Poissons Ratio (z) = 0.25693 0.24084
#
# Static dielectric constant tensor:
#      x y z
#    x 3.618260 0.000000 -0.051010 
#    y 0.000000 3.465730 0.000000 
#    z -0.051010 0.000000 3.215230 
# 
# 
# High freq. dielectric constant tensor:
#      x y z
#    x 1.811100 0.000000 -0.009510 
#    y 0.000000 1.785370 0.000000 
#    z -0.009510 0.000000 1.754410 
# 
# From -- ./inp_files/221586.got.cif
#   From: 2010.06.25/outbox.cif.g09.slc.cpg/sg15_111_cif.got.tgz:221586.got - 2010.06.28 07:06:18.
