data_PCOD8142390
_publ_section_title
;
Structure prediction by ZEFSAII (Michael W. Deem and Ramdas Pophale) SiO2 
 PCOD8142390
Probable space group: C 2/C
;
_chemical_formula_sum "Si O2"
_cell_formula_units_Z 56
_cell_length_a 12.052398
_cell_length_b 27.889421
_cell_length_c 9.186667
_cell_angle_alpha 90.000000
_cell_angle_beta 116.690030
_cell_angle_gamma 90.000000
_cell_volume 2758.931874
_symmetry_space_group_name_H-M "C 2/C"
_symmetry_group_IT_number 15
_symmetry_cell_setting 'monoclinic'
loop_
_space_group_symop_operation_xyz
x,y,z
-x,y,1/2-z
-x,-y,-z
x,-y,1/2+z
1/2+x,1/2+y,z
1/2-x,1/2+y,1/2-z
1/2-x,1/2-y,-z
1/2+x,1/2-y,1/2+z
loop_
_atom_site_type_symbol
_atom_site_label
_atom_site_fract_x
_atom_site_fract_y
_atom_site_fract_z
Si Si1 0.775348 0.087584 0.003378
Si Si2 0.852215 0.755072 0.691028
Si Si3 0.373381 0.896013 0.597285
Si Si4 0.944865 0.886397 0.367969
Si Si5 0.694274 0.153476 0.724391
Si Si6 0.167653 0.145712 0.182403
Si Si7 0.907354 0.503915 0.576007
O O1 0.680297 0.125859 0.872109
O O2 0.878724 0.074452 0.937933
O O3 0.705402 0.040288 0.016549
O O4 0.838968 0.111589 0.180374
O O5 0.750000 0.750000 0.500000
O O6 0.849185 0.707814 0.788025
O O7 0.804690 0.800000 0.755711
O O8 0.000000 0.763927 0.750000
O O9 0.500000 0.885178 0.750000
O O10 0.386451 0.873935 0.444146
O O11 0.269866 0.870873 0.630197
O O12 0.345388 0.952759 0.574777
O O13 0.161172 0.848259 0.241860
O O14 0.039400 0.856674 0.520859
O O15 0.000000 0.909331 0.250000
O O16 0.000000 0.524472 0.750000
O O17 0.000000 0.500000 0.500000
#
# Coordination Sequence:
#
# PCOD8142390 Si02
#       7
#     8   8   8   8   8   8   8
#     4  10  21  38  69  95 126 174 226 265 334 392
#     4  12  25  43  67 102 131 175 227 285 341 408
#     4  11  25  42  64 100 135 173 217 280 339 397
#     4  10  21  44  66  91 133 180 211 272 337 398
#     4  10  23  42  67  94 132 170 228 270 333 403
#     4  12  22  43  67  94 138 172 223 275 339 398
#     4  11  23  41  66  95 139 175 217 275 345 398
#
# _framework density 20.297709999999999
#
# number of rings (size 3 to 8) (size 9 to 14) (size 15 to 20)
#    0.857    0.286    2.857    4.714    2.000    2.286 
#    0.000    0.714    3.143    0.857    0.000    0.000 
#    0.000    0.000    0.000    0.000    0.000    0.000 
#
# Total GULP energy -346877.607038 kJ/mol
# GULP energy per Si atom -12388.485966 kJ/mol
# Density = 2.025151 g / cm^3
# Si number density = 20.297710 Si / 1000 Ang^3
#
#
#
# Elastic Constant Matrix: (Units=GPa)
#
#
# Indices 1 2 3 4 5 6 
#
# 1 74.5772 34.1237 12.4930 0.0000 -5.0322 0.0000
# 2 34.1237 97.9167 26.8420 0.0000 12.2756 0.0000
# 3 12.4930 26.8420 121.6491 0.0000 11.0998 0.0000
# 4 0.0000 0.0000 0.0000 41.8218 0.0000 21.0418
# 5 -5.0322 12.2756 11.0998 0.0000 39.2379 0.0000
# 6 0.0000 0.0000 0.0000 21.0418 0.0000 79.9381
#
#
#
# Elastic Compliance Matrix: (Units=1/GPa)
#
#
# Indices 1 2 3 4 5 6 
#
# 1 0.016622 -0.006123 -0.000745 0.000000 0.004258 0.000000
# 2 -0.006123 0.013432 -0.001930 0.000000 -0.004442 0.000000
# 3 -0.000745 -0.001930 0.008906 0.000000 -0.002011 0.000000
# 4 0.000000 0.000000 0.000000 0.027561 0.000000 -0.007255
# 5 0.004258 -0.004442 -0.002011 0.000000 0.027990 0.000000
# 6 0.000000 0.000000 0.000000 -0.007255 0.000000 0.014419
#
#
# Mechanical properties :
#
#
# Convention : Reuss Voigt Hill
#
# Bulk Modulus (GPa) = 46.80137 49.00672 47.90404
# Shear Modulus (GPa) = 37.41178 46.91184 42.16181
#
# Velocity S-wave (km/s) = 4.29785 4.81270 4.56254
# Velocity P-wave (km/s) = 6.90914 7.42153 7.16992
#
# Compressibility (1/GPa) = 0.02136690
#
# Stress axis : x y z
#
# Youngs Moduli (GPa) = 60.15970 74.44733 112.28177
#
# Poissons Ratio (x) = 0.45581 0.08361
# Poissons Ratio (y) = 0.36833 0.21668
# Poissons Ratio (z) = 0.04480 0.14367
#
# Static dielectric constant tensor:
#      x y z
#    x 3.633210 0.000000 -0.060070 
#    y 0.000000 4.815450 0.000000 
#    z -0.060070 0.000000 3.867210 
# 
# 
# High freq. dielectric constant tensor:
#      x y z
#    x 1.794630 0.000000 0.002640 
#    y 0.000000 1.772560 0.000000 
#    z 0.002640 0.000000 1.813340 
# 
# From -- ./inp_files/34342.got.cif
#   From: 2010.06.25/outbox.cif.g09.slc.cpg/sg15_18_cif.got.tgz:34342.got - 2010.06.28 07:06:18.
