data_PCOD8142106
_publ_section_title
;
Structure prediction by ZEFSAII (Michael W. Deem and Ramdas Pophale) SiO2 
 PCOD8142106
Probable space group: C 2/C
;
_chemical_formula_sum "Si O2"
_cell_formula_units_Z 56
_cell_length_a 32.514492
_cell_length_b 5.020121
_cell_length_c 16.331403
_cell_angle_alpha 90.000000
_cell_angle_beta 91.802895
_cell_angle_gamma 90.000000
_cell_volume 2664.401152
_symmetry_space_group_name_H-M "C 2/C"
_symmetry_group_IT_number 15
_symmetry_cell_setting 'monoclinic'
loop_
_space_group_symop_operation_xyz
x,y,z
-x,y,1/2-z
-x,-y,-z
x,-y,1/2+z
1/2+x,1/2+y,z
1/2-x,1/2+y,1/2-z
1/2-x,1/2-y,-z
1/2+x,1/2-y,1/2+z
loop_
_atom_site_type_symbol
_atom_site_label
_atom_site_fract_x
_atom_site_fract_y
_atom_site_fract_z
Si Si1 0.156911 0.967794 0.748515
Si Si2 0.497617 0.545159 0.156355
Si Si3 0.742853 0.565209 0.798713
Si Si4 0.529760 0.042333 0.077218
Si Si5 0.672891 0.967428 0.640523
Si Si6 0.613398 0.959042 0.994439
Si Si7 0.402685 0.456971 0.611780
O O1 0.195217 0.996684 0.815792
O O2 0.156708 0.682736 0.704886
O O3 0.159711 0.183433 0.676338
O O4 0.115594 0.002369 0.798760
O O5 0.500000 0.460748 0.250000
O O6 0.526161 0.344018 0.107425
O O7 0.451654 0.525086 0.119311
O O8 0.516143 0.840111 0.147793
O O9 0.746109 0.879062 0.779339
O O10 0.777267 0.490516 0.868781
O O11 0.576472 0.992179 0.056041
O O12 0.500000 0.000000 0.000000
O O13 0.654868 0.005314 0.549021
O O14 0.611026 0.168479 0.920566
O O15 0.613637 0.669582 0.954292
#
# Coordination Sequence:
#
# PCOD8142106 Si02
#       7
#     8   8   8   8   8   8   8
#     4  10  21  38  63  86 118 152 191 241 287 332
#     4  12  26  41  62  87 115 149 199 246 283 340
#     4   8  16  34  58  85 113 147 190 234 280 335
#     4  12  23  44  62  82 115 161 192 229 295 347
#     4  10  21  38  62  89 112 153 200 233 276 351
#     4  12  25  39  61  85 121 154 193 235 288 351
#     4  12  24  41  56  88 122 151 187 243 299 333
#
# _framework density 21.017856999999999
#
# number of rings (size 3 to 8) (size 9 to 14) (size 15 to 20)
#    0.000    1.143    2.857    3.429    4.000    0.000 
#    0.000    1.429    0.000    0.000    0.000    0.000 
#    0.000    0.000    0.000    0.000    0.000    0.000 
#
# Total GULP energy -347230.062044 kJ/mol
# GULP energy per Si atom -12401.073644 kJ/mol
# Density = 2.097002 g / cm^3
# Si number density = 21.017857 Si / 1000 Ang^3
#
#
#
# Elastic Constant Matrix: (Units=GPa)
#
#
# Indices 1 2 3 4 5 6 
#
# 1 31.5166 13.4969 8.2543 0.0000 9.5584 0.0000
# 2 13.4969 87.3946 7.7929 0.0000 -1.0732 0.0000
# 3 8.2543 7.7929 60.7801 0.0000 17.3054 0.0000
# 4 0.0000 0.0000 0.0000 28.8418 0.0000 -4.2491
# 5 9.5584 -1.0732 17.3054 0.0000 36.1779 0.0000
# 6 0.0000 0.0000 0.0000 -4.2491 0.0000 25.9968
#
#
#
# Elastic Compliance Matrix: (Units=1/GPa)
#
#
# Indices 1 2 3 4 5 6 
#
# 1 0.037441 -0.005743 -0.001717 0.000000 -0.009241 0.000000
# 2 -0.005743 0.012502 -0.001575 0.000000 0.002642 0.000000
# 3 -0.001717 -0.001575 0.019416 0.000000 -0.008881 0.000000
# 4 0.000000 0.000000 0.000000 0.035527 0.000000 0.005807
# 5 -0.009241 0.002642 -0.008881 0.000000 0.034409 0.000000
# 6 0.000000 0.000000 0.000000 0.005807 0.000000 0.039415
#
#
# Mechanical properties :
#
#
# Convention : Reuss Voigt Hill
#
# Bulk Modulus (GPa) = 19.49721 26.53105 23.01413
# Shear Modulus (GPa) = 23.37782 28.21313 25.79547
#
# Velocity S-wave (km/s) = 3.33871 3.66777 3.50710
# Velocity P-wave (km/s) = 4.91521 5.53057 5.23195
#
# Compressibility (1/GPa) = 0.05128938
#
# Stress axis : x y z
#
# Youngs Moduli (GPa) = 26.70871 79.98654 51.50268
#
# Poissons Ratio (x) = 0.45933 0.08845
# Poissons Ratio (y) = 0.15338 0.08113
# Poissons Ratio (z) = 0.04587 0.12599
#
# Static dielectric constant tensor:
#      x y z
#    x 4.307160 0.000000 0.059100 
#    y 0.000000 4.143860 0.000000 
#    z 0.059100 0.000000 3.485860 
# 
# 
# High freq. dielectric constant tensor:
#      x y z
#    x 1.830300 0.000000 0.015040 
#    y 0.000000 1.844570 0.000000 
#    z 0.015040 0.000000 1.792110 
# 
# From -- ./inp_files/180119.got.cif
#   From: 2010.06.25/outbox.cif.g09.slc.cpg/sg15_91_cif.got.tgz:180119.got - 2010.06.28 07:06:18.
