data_PCOD8142530
_publ_section_title
;
Structure prediction by ZEFSAII (Michael W. Deem and Ramdas Pophale) SiO2 
 PCOD8142530
Probable space group: C 2/C
;
_chemical_formula_sum "Si O2"
_cell_formula_units_Z 52
_cell_length_a 24.177729
_cell_length_b 8.656817
_cell_length_c 11.619869
_cell_angle_alpha 90.000000
_cell_angle_beta 97.853150
_cell_angle_gamma 90.000000
_cell_volume 2409.254794
_symmetry_space_group_name_H-M "C 2/C"
_symmetry_group_IT_number 15
_symmetry_cell_setting 'monoclinic'
loop_
_space_group_symop_operation_xyz
x,y,z
-x,y,1/2-z
-x,-y,-z
x,-y,1/2+z
1/2+x,1/2+y,z
1/2-x,1/2+y,1/2-z
1/2-x,1/2-y,-z
1/2+x,1/2-y,1/2+z
loop_
_atom_site_type_symbol
_atom_site_label
_atom_site_fract_x
_atom_site_fract_y
_atom_site_fract_z
Si Si1 0.180329 0.735906 0.071131
Si Si2 0.755832 0.003935 0.511224
Si Si3 0.500000 0.081705 0.750000
Si Si4 0.065098 0.136600 0.619203
Si Si5 0.291016 0.775018 0.673259
Si Si6 0.916665 0.321827 0.657213
Si Si7 0.457285 0.702110 0.439118
O O1 0.193879 0.566423 0.021853
O O2 0.115906 0.765193 0.079968
O O3 0.219661 0.743330 0.195061
O O4 0.200071 0.866795 0.988989
O O5 0.752696 0.106070 0.394834
O O6 0.781391 0.105451 0.620142
O O7 0.530878 0.183669 0.662743
O O8 0.451579 0.979556 0.678301
O O9 0.056259 0.193320 0.748306
O O10 0.014122 0.173207 0.522661
O O11 0.072345 0.951263 0.621140
O O12 0.352613 0.844048 0.671801
O O13 0.916036 0.271481 0.523303
#
# Coordination Sequence:
#
# PCOD8142530 Si02
#       7
#     8   8   4   8   8   8   8
#     4  10  21  39  61  91 118 157 203 252 300 362
#     4  10  21  39  61  88 122 158 197 252 304 359
#     4  12  26  38  62  92 126 172 204 260 312 364
#     4  10  23  40  65  87 123 168 209 257 312 367
#     4  10  22  38  63  88 122 158 200 246 308 364
#     4  11  23  42  62  92 127 163 206 261 308 371
#     4  11  24  41  62  88 129 162 214 256 308 378
#
# _framework density 21.583438000000001
#
# number of rings (size 3 to 8) (size 9 to 14) (size 15 to 20)
#    0.000    1.538    1.538    2.308    6.462    1.231 
#    0.000    1.538    0.000    0.000    0.000    0.000 
#    0.000    0.000    0.000    0.000    0.000    0.000 
#
# Total GULP energy -322318.582851 kJ/mol
# GULP energy per Si atom -12396.868571 kJ/mol
# Density = 2.153431 g / cm^3
# Si number density = 21.583438 Si / 1000 Ang^3
#
#
#
# Elastic Constant Matrix: (Units=GPa)
#
#
# Indices 1 2 3 4 5 6 
#
# 1 46.2502 -0.2390 -15.1896 0.0000 -8.7276 0.0000
# 2 -0.2390 78.7043 26.4189 0.0000 -5.4773 0.0000
# 3 -15.1896 26.4189 94.0435 0.0000 -13.5600 0.0000
# 4 0.0000 0.0000 0.0000 25.7788 0.0000 -4.3274
# 5 -8.7276 -5.4773 -13.5600 0.0000 31.6168 0.0000
# 6 0.0000 0.0000 0.0000 -4.3274 0.0000 20.2479
#
#
#
# Elastic Compliance Matrix: (Units=1/GPa)
#
#
# Indices 1 2 3 4 5 6 
#
# 1 0.025243 -0.001211 0.005747 0.000000 0.009223 0.000000
# 2 -0.001211 0.014105 -0.004108 0.000000 0.000348 0.000000
# 3 0.005747 -0.004108 0.013688 0.000000 0.006746 0.000000
# 4 0.000000 0.000000 0.000000 0.040235 0.000000 0.008599
# 5 0.009223 0.000348 0.006746 0.000000 0.037128 0.000000
# 6 0.000000 0.000000 0.000000 0.008599 0.000000 0.051226
#
#
# Mechanical properties :
#
#
# Convention : Reuss Voigt Hill
#
# Bulk Modulus (GPa) = 18.55488 26.77539 22.66514
# Shear Modulus (GPa) = 25.15940 29.39588 27.27764
#
# Velocity S-wave (km/s) = 3.41791 3.69448 3.55889
# Velocity P-wave (km/s) = 4.91850 5.53456 5.23560
#
# Compressibility (1/GPa) = 0.05389418
#
# Stress axis : x y z
#
# Youngs Moduli (GPa) = 39.61449 70.89576 73.05519
#
# Poissons Ratio (x) = 0.08583 -0.41986
# Poissons Ratio (y) = 0.04796 0.30010
# Poissons Ratio (z) = -0.22767 0.29123
#
# Static dielectric constant tensor:
#      x y z
#    x 3.707600 0.000000 -0.072200 
#    y 0.000000 4.059980 0.000000 
#    z -0.072200 0.000000 4.186700 
# 
# 
# High freq. dielectric constant tensor:
#      x y z
#    x 1.837880 0.000000 -0.005930 
#    y 0.000000 1.853730 0.000000 
#    z -0.005930 0.000000 1.855530 
# 
# From -- ./inp_files/121540.got.cif
#   From: 2010.06.25/outbox.cif.g09.slc.cpg/sg15_61_cif.got.tgz:121540.got - 2010.06.28 07:06:18.
