data_PCOD8142575
_publ_section_title
;
Structure prediction by ZEFSAII (Michael W. Deem and Ramdas Pophale) SiO2 
 PCOD8142575
Probable space group: C 2/C
;
_chemical_formula_sum "Si O2"
_cell_formula_units_Z 60
_cell_length_a 28.798614
_cell_length_b 8.488165
_cell_length_c 25.743524
_cell_angle_alpha 90.000000
_cell_angle_beta 151.818258
_cell_angle_gamma 90.000000
_cell_volume 2971.964832
_symmetry_space_group_name_H-M "C 2/C"
_symmetry_group_IT_number 15
_symmetry_cell_setting 'monoclinic'
loop_
_space_group_symop_operation_xyz
x,y,z
-x,y,1/2-z
-x,-y,-z
x,-y,1/2+z
1/2+x,1/2+y,z
1/2-x,1/2+y,1/2-z
1/2-x,1/2-y,-z
1/2+x,1/2-y,1/2+z
loop_
_atom_site_type_symbol
_atom_site_label
_atom_site_fract_x
_atom_site_fract_y
_atom_site_fract_z
Si Si1 0.321874 0.709064 0.423428
Si Si2 0.857094 0.539856 0.213326
Si Si3 0.017275 0.175696 0.672479
Si Si4 0.606835 0.020731 0.131944
Si Si5 0.307533 0.512974 0.197728
Si Si6 0.000000 0.972202 0.750000
Si Si7 0.176774 0.775254 0.880798
Si Si8 0.220286 0.205020 0.228478
O O1 0.256984 0.592055 0.395000
O O2 0.430237 0.735034 0.550620
O O3 0.328915 0.634962 0.372592
O O4 0.273161 0.880874 0.372266
O O5 0.918930 0.675362 0.244693
O O6 0.906772 0.524594 0.319310
O O7 0.862791 0.384373 0.184412
O O8 0.085539 0.059480 0.706571
O O9 0.967518 0.085540 0.671217
O O10 0.660612 0.179771 0.162463
O O11 0.687112 0.886386 0.198006
O O12 0.500000 0.000000 0.000000
O O13 0.273410 0.617949 0.114737
O O14 0.319838 0.621757 0.259968
O O15 0.912814 0.862866 0.681569
O O16 0.250000 0.750000 0.000000
#
# Coordination Sequence:
#
# PCOD8142575 Si02
#       8
#     8   8   8   8   8   4   8   8
#     4  10  21  39  62  89 122 168 202 246 318 378
#     4  10  22  38  62  92 124 157 211 257 306 388
#     4  10  22  42  62  86 122 163 211 259 315 375
#     4  11  23  42  63  96 133 171 208 259 320 379
#     4  10  22  40  60  89 126 157 205 264 304 376
#     4  10  24  42  60  88 122 156 214 262 308 374
#     4  11  23  42  62  90 122 157 203 264 317 362
#     4  11  21  41  61  94 133 163 212 256 306 389
#
# _framework density 20.188662999999998
#
# number of rings (size 3 to 8) (size 9 to 14) (size 15 to 20)
#    0.000    1.600    2.667    1.600    0.000    3.200 
#    4.800    4.000    0.000    0.000    0.000    0.000 
#    0.000    0.000    0.000    0.000    0.000    0.000 
#
# Total GULP energy -371873.427671 kJ/mol
# GULP energy per Si atom -12395.780922 kJ/mol
# Density = 2.014271 g / cm^3
# Si number density = 20.188663 Si / 1000 Ang^3
#
#
#
# Elastic Constant Matrix: (Units=GPa)
#
#
# Indices 1 2 3 4 5 6 
#
# 1 125.6123 60.2868 51.1767 0.0000 -14.4324 0.0000
# 2 60.2868 99.0116 47.2557 -0.0003 -6.6068 -0.0001
# 3 51.1767 47.2557 116.3643 0.0000 -4.0300 0.0000
# 4 0.0000 -0.0003 0.0000 23.4559 0.0000 -1.2797
# 5 -14.4324 -6.6068 -4.0300 0.0000 19.9294 0.0000
# 6 0.0000 -0.0001 0.0000 -1.2797 0.0000 38.4213
#
#
#
# Elastic Compliance Matrix: (Units=1/GPa)
#
#
# Indices 1 2 3 4 5 6 
#
# 1 0.012786 -0.005911 -0.002991 0.000000 0.006695 0.000000
# 2 -0.005911 0.015460 -0.003675 0.000000 0.000101 0.000000
# 3 -0.002991 -0.003675 0.011364 0.000000 -0.001086 0.000000
# 4 0.000000 0.000000 0.000000 0.042711 0.000000 0.001423
# 5 0.006695 0.000101 -0.001086 0.000000 0.054839 0.000000
# 6 0.000000 0.000000 0.000000 0.001423 0.000000 0.026075
#
#
# Mechanical properties :
#
#
# Convention : Reuss Voigt Hill
#
# Bulk Modulus (GPa) = 69.17713 73.15852 71.16783
# Shear Modulus (GPa) = 25.87912 28.51257 27.19584
#
# Velocity S-wave (km/s) = 3.58420 3.76214 3.67425
# Velocity P-wave (km/s) = 7.17414 7.42884 7.30260
#
# Compressibility (1/GPa) = 0.01445564
#
# Stress axis : x y z
#
# Youngs Moduli (GPa) = 78.21320 64.68456 87.99794
#
# Poissons Ratio (x) = 0.38234 0.26319
# Poissons Ratio (y) = 0.46230 0.32340
# Poissons Ratio (z) = 0.23392 0.23772
#
# Static dielectric constant tensor:
#      x y z
#    x 3.952750 0.000000 -0.130310 
#    y 0.000000 3.902340 0.000000 
#    z -0.130310 0.000000 3.496490 
# 
# 
# High freq. dielectric constant tensor:
#      x y z
#    x 1.803160 0.000000 -0.004310 
#    y 0.000000 1.795610 0.000000 
#    z -0.004310 0.000000 1.773060 
# 
# From -- ./inp_files/283361.got.cif
#   From: 2010.06.25/outbox.cif.g09.slc.cpg/sg15_142_cif.got.tgz:283361.got - 2010.06.28 07:06:18.
