data_PCOD8142450
_publ_section_title
;
Structure prediction by ZEFSAII (Michael W. Deem and Ramdas Pophale) SiO2 
 PCOD8142450
Probable space group: C 2/C
;
_chemical_formula_sum "Si O2"
_cell_formula_units_Z 48
_cell_length_a 10.503104
_cell_length_b 24.338827
_cell_length_c 12.506701
_cell_angle_alpha 90.000000
_cell_angle_beta 131.037250
_cell_angle_gamma 90.000000
_cell_volume 2411.539252
_symmetry_space_group_name_H-M "C 2/C"
_symmetry_group_IT_number 15
_symmetry_cell_setting 'monoclinic'
loop_
_space_group_symop_operation_xyz
x,y,z
-x,y,1/2-z
-x,-y,-z
x,-y,1/2+z
1/2+x,1/2+y,z
1/2-x,1/2+y,1/2-z
1/2-x,1/2-y,-z
1/2+x,1/2-y,1/2+z
loop_
_atom_site_type_symbol
_atom_site_label
_atom_site_fract_x
_atom_site_fract_y
_atom_site_fract_z
Si Si1 0.632461 0.869952 0.731284
Si Si2 0.913747 0.441567 0.462012
Si Si3 0.184443 0.672235 0.881903
Si Si4 0.695190 0.707654 0.330355
Si Si5 0.821105 0.044232 0.476545
Si Si6 0.303817 0.433333 0.358107
O O1 0.500000 0.849971 0.750000
O O2 0.542663 0.896576 0.578745
O O3 0.744344 0.819342 0.748286
O O4 0.755908 0.915293 0.848446
O O5 0.753338 0.442451 0.450303
O O6 0.845485 0.424386 0.309106
O O7 0.000000 0.500000 0.500000
O O8 0.225530 0.727006 0.835894
O O9 0.318477 0.624113 0.929838
O O10 0.000000 0.650241 0.750000
O O11 0.189938 0.685191 0.010479
O O12 0.500000 0.694770 0.250000
O O13 0.020719 0.050471 0.600412
O O14 0.759817 0.982728 0.414400
#
# Coordination Sequence:
#
# PCOD8142450 Si02
#       6
#     8   8   8   8   8   8
#     4  10  21  39  59  85 119 157 193 235 296 357
#     4  11  22  37  56  82 117 151 191 240 285 356
#     4  10  22  36  62  90 116 150 201 250 289 342
#     4  10  21  40  61  90 119 151 202 249 292 345
#     4  10  23  37  54  85 117 152 189 239 290 358
#     4  11  22  37  58  83 116 151 193 237 300 344
#
# _framework density 19.904301
#
# number of rings (size 3 to 8) (size 9 to 14) (size 15 to 20)
#    0.000    1.667    1.667    2.500    4.667    0.000 
#    0.000    1.667    0.000   13.000    0.000    0.000 
#    0.000    0.000    0.000    0.000    0.000    0.000 
#
# Total GULP energy -297606.994981 kJ/mol
# GULP energy per Si atom -12400.291458 kJ/mol
# Density = 1.985900 g / cm^3
# Si number density = 19.904301 Si / 1000 Ang^3
#
#
#
# Elastic Constant Matrix: (Units=GPa)
#
#
# Indices 1 2 3 4 5 6 
#
# 1 60.2086 50.2695 6.2163 0.0000 -3.6207 0.0000
# 2 50.2695 134.6367 22.6107 0.0000 -14.0547 0.0000
# 3 6.2163 22.6107 75.4342 0.0000 8.5379 0.0000
# 4 0.0000 0.0000 0.0000 24.9942 0.0000 -4.4224
# 5 -3.6207 -14.0547 8.5379 0.0000 17.5766 0.0000
# 6 0.0000 0.0000 0.0000 -4.4224 0.0000 32.8122
#
#
#
# Elastic Compliance Matrix: (Units=1/GPa)
#
#
# Indices 1 2 3 4 5 6 
#
# 1 0.024329 -0.009641 0.001259 0.000000 -0.003309 0.000000
# 2 -0.009641 0.012810 -0.004211 0.000000 0.010303 0.000000
# 3 0.001259 -0.004211 0.015626 0.000000 -0.010698 0.000000
# 4 0.000000 0.000000 0.000000 0.040987 0.000000 0.005524
# 5 -0.003309 0.010303 -0.010698 0.000000 0.069647 0.000000
# 6 0.000000 0.000000 0.000000 0.005524 0.000000 0.031221
#
#
# Mechanical properties :
#
#
# Convention : Reuss Voigt Hill
#
# Bulk Modulus (GPa) = 36.25864 47.60806 41.93335
# Shear Modulus (GPa) = 21.83427 27.82213 24.82820
#
# Velocity S-wave (km/s) = 3.31564 3.74277 3.53566
# Velocity P-wave (km/s) = 5.73707 6.53055 6.14663
#
# Compressibility (1/GPa) = 0.02757964
#
# Stress axis : x y z
#
# Youngs Moduli (GPa) = 41.10293 78.06601 63.99620
#
# Poissons Ratio (x) = 0.75261 -0.08059
# Poissons Ratio (y) = 0.39626 0.26950
# Poissons Ratio (z) = -0.05176 0.32875
#
# Static dielectric constant tensor:
#      x y z
#    x 3.338600 0.000000 0.181350 
#    y 0.000000 3.635710 0.000000 
#    z 0.181350 0.000000 3.477510 
# 
# 
# High freq. dielectric constant tensor:
#      x y z
#    x 1.770450 0.000000 0.006690 
#    y 0.000000 1.774750 0.000000 
#    z 0.006690 0.000000 1.783900 
# 
# From -- ./inp_files/31906.got.cif
#   From: 2010.06.25/outbox.cif.g09.slc.cpg/sg15_16_cif.got.tgz:31906.got - 2010.06.28 07:06:18.
