data_PCOD8142434
_publ_section_title
;
Structure prediction by ZEFSAII (Michael W. Deem and Ramdas Pophale) SiO2 
 PCOD8142434
Probable space group: C 2/C
;
_chemical_formula_sum "Si O2"
_cell_formula_units_Z 56
_cell_length_a 14.411456
_cell_length_b 22.989372
_cell_length_c 8.982329
_cell_angle_alpha 90.000000
_cell_angle_beta 72.132771
_cell_angle_gamma 90.000000
_cell_volume 2832.408950
_symmetry_space_group_name_H-M "C 2/C"
_symmetry_group_IT_number 15
_symmetry_cell_setting 'monoclinic'
loop_
_space_group_symop_operation_xyz
x,y,z
-x,y,1/2-z
-x,-y,-z
x,-y,1/2+z
1/2+x,1/2+y,z
1/2-x,1/2+y,1/2-z
1/2-x,1/2-y,-z
1/2+x,1/2-y,1/2+z
loop_
_atom_site_type_symbol
_atom_site_label
_atom_site_fract_x
_atom_site_fract_y
_atom_site_fract_z
Si Si1 0.399640 0.569654 0.236306
Si Si2 0.280854 0.125812 0.539173
Si Si3 0.924535 0.672066 0.978136
Si Si4 0.097510 0.949054 0.116694
Si Si5 0.121521 0.286576 0.319619
Si Si6 0.018847 0.438351 0.565700
Si Si7 0.236399 0.828188 0.742246
O O1 0.500000 0.596655 0.250000
O O2 0.372724 0.513484 0.347068
O O3 0.312727 0.614989 0.306488
O O4 0.414273 0.552844 0.055797
O O5 0.181421 0.094007 0.629378
O O6 0.290541 0.180188 0.644334
O O7 0.369794 0.080913 0.513818
O O8 0.277744 0.154720 0.380385
O O9 0.900654 0.676308 0.816426
O O10 0.020794 0.711320 0.966484
O O11 0.828518 0.696221 0.106607
O O12 0.944818 0.606274 0.021966
O O13 0.000000 0.929091 0.250000
O O14 0.151879 0.220174 0.283459
O O15 0.000000 0.441755 0.750000
O O16 0.000000 0.500000 0.500000
#
# Coordination Sequence:
#
# PCOD8142434 Si02
#       7
#     8   8   8   8   8   8   8
#     4  10  22  37  62  88 123 163 204 257 306 370
#     4  10  23  41  62  92 127 163 209 257 311 378
#     4  10  23  42  61  94 123 163 205 266 310 367
#     4  10  21  39  58  91 124 161 204 252 309 366
#     4  10  23  41  63  89 126 159 216 256 309 376
#     4  11  24  40  66  94 131 164 205 255 317 378
#     4  11  22  42  64  90 122 168 210 259 317 364
#
# _framework density 19.771156000000001
#
# number of rings (size 3 to 8) (size 9 to 14) (size 15 to 20)
#    0.000    1.714    1.429    2.571    8.000    2.286 
#    5.143    0.000    0.000    0.000    0.000    0.000 
#    0.000    0.000    0.000    0.000    0.000    0.000 
#
# Total GULP energy -347150.369299 kJ/mol
# GULP energy per Si atom -12398.227475 kJ/mol
# Density = 1.972616 g / cm^3
# Si number density = 19.771156 Si / 1000 Ang^3
#
#
#
# Elastic Constant Matrix: (Units=GPa)
#
#
# Indices 1 2 3 4 5 6 
#
# 1 124.9876 60.9527 53.6771 0.0000 -2.3517 0.0000
# 2 60.9527 94.7418 46.8046 0.0000 -9.3093 0.0000
# 3 53.6771 46.8046 74.1378 0.0000 -10.8820 0.0000
# 4 0.0000 0.0000 0.0000 15.4672 0.0000 -9.6088
# 5 -2.3517 -9.3093 -10.8820 0.0000 41.7940 0.0000
# 6 0.0000 0.0000 0.0000 -9.6088 0.0000 22.6143
#
#
#
# Elastic Compliance Matrix: (Units=1/GPa)
#
#
# Indices 1 2 3 4 5 6 
#
# 1 0.013546 -0.005706 -0.006529 0.000000 -0.002209 0.000000
# 2 -0.005706 0.017778 -0.006818 0.000000 0.001863 0.000000
# 3 -0.006529 -0.006818 0.023127 0.000000 0.004136 0.000000
# 4 0.000000 0.000000 0.000000 0.087839 0.000000 0.037323
# 5 -0.002209 0.001863 0.004136 0.000000 0.025294 0.000000
# 6 0.000000 0.000000 0.000000 0.037323 0.000000 0.060078
#
#
# Mechanical properties :
#
#
# Convention : Reuss Voigt Hill
#
# Bulk Modulus (GPa) = 61.18809 68.52622 64.85715
# Shear Modulus (GPa) = 18.43530 24.80394 21.61962
#
# Velocity S-wave (km/s) = 3.05689 3.54581 3.31039
# Velocity P-wave (km/s) = 6.59354 7.17625 6.89106
#
# Compressibility (1/GPa) = 0.01634305
#
# Stress axis : x y z
#
# Youngs Moduli (GPa) = 73.82165 56.24985 43.23882
#
# Poissons Ratio (x) = 0.32099 0.28232
# Poissons Ratio (y) = 0.42126 0.29482
# Poissons Ratio (z) = 0.48200 0.38353
#
# Static dielectric constant tensor:
#      x y z
#    x 3.918770 0.000000 -0.001690 
#    y 0.000000 3.479750 0.000000 
#    z -0.001690 0.000000 3.639570 
# 
# 
# High freq. dielectric constant tensor:
#      x y z
#    x 1.792000 0.000000 0.005470 
#    y 0.000000 1.763660 0.000000 
#    z 0.005470 0.000000 1.769650 
# 
# From -- ./inp_files/42095.got.cif
#   From: 2010.06.25/outbox.cif.g09.slc.cpg/sg15_22_cif.got.tgz:42095.got - 2010.06.28 07:06:18.
