data_PCOD8142029
_publ_section_title
;
Structure prediction by ZEFSAII (Michael W. Deem and Ramdas Pophale) SiO2 
 PCOD8142029
Probable space group: C 2/C
;
_chemical_formula_sum "Si O2"
_cell_formula_units_Z 52
_cell_length_a 14.154243
_cell_length_b 8.811758
_cell_length_c 30.438265
_cell_angle_alpha 90.000000
_cell_angle_beta 138.591028
_cell_angle_gamma 90.000000
_cell_volume 2511.033713
_symmetry_space_group_name_H-M "C 2/C"
_symmetry_group_IT_number 15
_symmetry_cell_setting 'monoclinic'
loop_
_space_group_symop_operation_xyz
x,y,z
-x,y,1/2-z
-x,-y,-z
x,-y,1/2+z
1/2+x,1/2+y,z
1/2-x,1/2+y,1/2-z
1/2-x,1/2-y,-z
1/2+x,1/2-y,1/2+z
loop_
_atom_site_type_symbol
_atom_site_label
_atom_site_fract_x
_atom_site_fract_y
_atom_site_fract_z
Si Si1 0.658766 0.804894 0.095236
Si Si2 0.909936 0.624895 0.338914
Si Si3 0.694584 0.642498 0.769033
Si Si4 0.210226 0.651896 0.113108
Si Si5 0.150078 0.186530 0.502791
Si Si6 0.739863 0.860152 0.955220
Si Si7 0.500000 0.436919 0.750000
O O1 0.771638 0.770394 0.173438
O O2 0.696491 0.716398 0.065138
O O3 0.662949 0.982072 0.083335
O O4 0.506919 0.750297 0.060846
O O5 0.831455 0.463263 0.306174
O O6 0.837625 0.740962 0.280234
O O7 0.889936 0.697665 0.380562
O O8 0.076183 0.595730 0.388243
O O9 0.555810 0.538573 0.728729
O O10 0.195561 0.765016 0.067651
O O11 0.373728 0.664708 0.186326
O O12 0.250000 0.250000 0.500000
O O13 0.160513 0.005729 0.502082
O O14 0.750000 0.750000 0.000000
#
# Coordination Sequence:
#
# PCOD8142029 Si02
#       7
#     8   8   8   8   8   8   4
#     4  10  22  41  61  86 121 158 199 248 301 357
#     4  10  22  40  62  88 120 155 197 245 297 358
#     4  10  21  38  61  87 116 155 195 241 295 351
#     4  10  21  39  61  87 120 157 199 250 297 352
#     4  12  24  39  62  89 118 158 205 250 297 358
#     4  12  25  40  60  88 123 160 198 246 304 364
#     4   8  18  36  58  84 116 154 192 238 300 350
#
# _framework density 20.708603
#
# number of rings (size 3 to 8) (size 9 to 14) (size 15 to 20)
#    0.000    1.846    0.000    6.462    0.000    7.385 
#    0.000    0.000    0.000    0.000    0.000    0.000 
#    0.000    0.000    0.000    0.000    0.000    0.000 
#
# Total GULP energy -322366.018678 kJ/mol
# GULP energy per Si atom -12398.693026 kJ/mol
# Density = 2.066147 g / cm^3
# Si number density = 20.708603 Si / 1000 Ang^3
#
#
#
# Elastic Constant Matrix: (Units=GPa)
#
#
# Indices 1 2 3 4 5 6 
#
# 1 99.9612 13.8500 12.1008 0.0000 -2.3562 0.0000
# 2 13.8500 84.7452 16.1476 0.0000 -11.6802 0.0000
# 3 12.1008 16.1476 55.8253 0.0000 -2.2293 0.0000
# 4 0.0000 0.0000 0.0000 29.6032 0.0000 -14.8633
# 5 -2.3562 -11.6802 -2.2293 0.0000 49.1803 0.0000
# 6 0.0000 0.0000 0.0000 -14.8633 0.0000 36.3622
#
#
#
# Elastic Compliance Matrix: (Units=1/GPa)
#
#
# Indices 1 2 3 4 5 6 
#
# 1 0.010417 -0.001333 -0.001869 0.000000 0.000098 0.000000
# 2 -0.001333 0.013058 -0.003373 0.000000 0.002885 0.000000
# 3 -0.001869 -0.003373 0.019293 0.000000 -0.000016 0.000000
# 4 0.000000 0.000000 0.000000 0.042503 0.000000 0.017374
# 5 0.000098 0.002885 -0.000016 0.000000 0.021022 0.000000
# 6 0.000000 0.000000 0.000000 0.017374 0.000000 0.034603
#
#
# Mechanical properties :
#
#
# Convention : Reuss Voigt Hill
#
# Bulk Modulus (GPa) = 33.76174 36.08094 34.92134
# Shear Modulus (GPa) = 30.50294 36.25801 33.38047
#
# Velocity S-wave (km/s) = 3.84208 4.18888 4.01922
# Velocity P-wave (km/s) = 6.00173 6.39191 6.19989
#
# Compressibility (1/GPa) = 0.02961933
#
# Stress axis : x y z
#
# Youngs Moduli (GPa) = 95.99622 76.58034 51.83208
#
# Poissons Ratio (x) = 0.10208 0.09685
# Poissons Ratio (y) = 0.12796 0.17483
# Poissons Ratio (z) = 0.17937 0.25830
#
# Static dielectric constant tensor:
#      x y z
#    x 3.969210 0.000000 0.008390 
#    y 0.000000 3.513290 0.000000 
#    z 0.008390 0.000000 3.759570 
# 
# 
# High freq. dielectric constant tensor:
#      x y z
#    x 1.830850 0.000000 0.003520 
#    y 0.000000 1.794990 0.000000 
#    z 0.003520 0.000000 1.818280 
# 
# From -- ./inp_files/313227.got.cif
#   From: 2010.06.25/outbox.cif.g09.slc.cpg/sg15_157_cif.got.tgz:313227.got - 2010.06.28 07:06:18.
