data_PCOD8142432
_publ_section_title
;
Structure prediction by ZEFSAII (Michael W. Deem and Ramdas Pophale) SiO2 
 PCOD8142432
Probable space group: C 2/C
;
_chemical_formula_sum "Si O2"
_cell_formula_units_Z 44
_cell_length_a 21.389012
_cell_length_b 18.618388
_cell_length_c 8.290410
_cell_angle_alpha 90.000000
_cell_angle_beta 137.130368
_cell_angle_gamma 90.000000
_cell_volume 2246.104893
_symmetry_space_group_name_H-M "C 2/C"
_symmetry_group_IT_number 15
_symmetry_cell_setting 'monoclinic'
loop_
_space_group_symop_operation_xyz
x,y,z
-x,y,1/2-z
-x,-y,-z
x,-y,1/2+z
1/2+x,1/2+y,z
1/2-x,1/2+y,1/2-z
1/2-x,1/2-y,-z
1/2+x,1/2-y,1/2+z
loop_
_atom_site_type_symbol
_atom_site_label
_atom_site_fract_x
_atom_site_fract_y
_atom_site_fract_z
Si Si1 0.509842 0.218140 0.097776
Si Si2 0.690962 0.832077 0.799314
Si Si3 0.607793 0.955158 0.437341
Si Si4 0.196781 0.820537 0.192624
Si Si5 0.141403 0.599850 0.659347
Si Si6 0.000000 0.197754 0.250000
O O1 0.500000 0.263111 0.250000
O O2 0.614065 0.190479 0.284973
O O3 0.446023 0.149943 0.000500
O O4 0.481604 0.256786 0.878558
O O5 0.665667 0.906212 0.668553
O O6 0.700975 0.767153 0.687832
O O7 0.782253 0.842093 0.081142
O O8 0.500000 0.935811 0.250000
O O9 0.649290 0.941021 0.341988
O O10 0.626021 0.039164 0.495910
O O11 0.265134 0.856254 0.194740
O O12 0.093002 0.847876 0.954922
#
# Coordination Sequence:
#
# PCOD8142432 Si02
#       6
#     8   8   8   8   8   4
#     4  11  20  36  60  90 126 166 198 256 319 387
#     4  10  21  39  58  89 126 165 204 257 314 372
#     4  12  24  37  62  95 134 165 196 257 331 395
#     4  10  22  40  60  86 125 168 211 266 302 368
#     4  12  23  37  60  92 131 168 206 246 324 393
#     4  10  24  42  60  88 126 164 228 270 306 350
#
# _framework density 19.589466999999999
#
# number of rings (size 3 to 8) (size 9 to 14) (size 15 to 20)
#    0.000    1.091    3.636    4.364    1.273    2.909 
#    0.000    0.000    0.000    4.364    0.000    0.000 
#    0.000    0.000    0.000    0.000    0.000    0.000 
#
# Total GULP energy -272673.308060 kJ/mol
# GULP energy per Si atom -12394.241275 kJ/mol
# Density = 1.954488 g / cm^3
# Si number density = 19.589467 Si / 1000 Ang^3
#
#
#
# Elastic Constant Matrix: (Units=GPa)
#
#
# Indices 1 2 3 4 5 6 
#
# 1 133.2433 54.1735 51.8607 0.0000 -8.6138 0.0000
# 2 54.1735 76.9017 31.9098 0.0000 12.6538 0.0000
# 3 51.8607 31.9098 134.6427 0.0000 11.4777 0.0000
# 4 0.0000 0.0000 0.0000 9.6074 0.0000 9.8718
# 5 -8.6138 12.6538 11.4777 0.0000 40.9760 0.0000
# 6 0.0000 0.0000 0.0000 9.8718 0.0000 15.9782
#
#
#
# Elastic Compliance Matrix: (Units=1/GPa)
#
#
# Indices 1 2 3 4 5 6 
#
# 1 0.012726 -0.008587 -0.003402 0.000000 0.006280 0.000000
# 2 -0.008587 0.020748 -0.000932 0.000000 -0.007951 0.000000
# 3 -0.003402 -0.000932 0.009215 0.000000 -0.003009 0.000000
# 4 0.000000 0.000000 0.000000 0.285040 0.000000 -0.176107
# 5 0.006280 -0.007951 -0.003009 0.000000 0.029023 0.000000
# 6 0.000000 0.000000 0.000000 -0.176107 0.000000 0.171390
#
#
# Mechanical properties :
#
#
# Convention : Reuss Voigt Hill
#
# Bulk Modulus (GPa) = 59.35742 68.96398 64.16070
# Shear Modulus (GPa) = 8.93498 27.10190 18.01844
#
# Velocity S-wave (km/s) = 2.13799 3.72357 3.03611
# Velocity P-wave (km/s) = 6.03831 7.33264 6.71673
#
# Compressibility (1/GPa) = 0.01684709
#
# Stress axis : x y z
#
# Youngs Moduli (GPa) = 78.57684 48.19846 108.52092
#
# Poissons Ratio (x) = 0.41387 0.36921
# Poissons Ratio (y) = 0.67472 0.10113
# Poissons Ratio (z) = 0.26733 0.04492
#
# Static dielectric constant tensor:
#      x y z
#    x 3.968800 0.000000 -0.238140 
#    y 0.000000 3.407550 0.000000 
#    z -0.238140 0.000000 3.865970 
# 
# 
# High freq. dielectric constant tensor:
#      x y z
#    x 1.764490 0.000000 -0.014000 
#    y 0.000000 1.726240 0.000000 
#    z -0.014000 0.000000 1.777920 
# 
# From -- ./inp_files/62830.got.cif
#   From: 2010.06.25/outbox.cif.g09.slc.cpg/sg15_32_cif.got.tgz:62830.got - 2010.06.28 07:06:18.
