data_PCOD8142496
_publ_section_title
;
Structure prediction by ZEFSAII (Michael W. Deem and Ramdas Pophale) SiO2 
 PCOD8142496
Probable space group: C 2/C
;
_chemical_formula_sum "Si O2"
_cell_formula_units_Z 56
_cell_length_a 11.797903
_cell_length_b 17.329258
_cell_length_c 16.349561
_cell_angle_alpha 90.000000
_cell_angle_beta 53.963447
_cell_angle_gamma 90.000000
_cell_volume 2703.006520
_symmetry_space_group_name_H-M "C 2/C"
_symmetry_group_IT_number 15
_symmetry_cell_setting 'monoclinic'
loop_
_space_group_symop_operation_xyz
x,y,z
-x,y,1/2-z
-x,-y,-z
x,-y,1/2+z
1/2+x,1/2+y,z
1/2-x,1/2+y,1/2-z
1/2-x,1/2-y,-z
1/2+x,1/2-y,1/2+z
loop_
_atom_site_type_symbol
_atom_site_label
_atom_site_fract_x
_atom_site_fract_y
_atom_site_fract_z
Si Si1 0.280557 0.658469 0.818785
Si Si2 0.499528 0.905285 0.630550
Si Si3 0.500000 0.034470 0.750000
Si Si4 0.500000 0.777731 0.750000
Si Si5 0.803506 0.936483 0.462374
Si Si6 0.059240 0.160041 0.918040
Si Si7 0.233155 0.603592 0.543611
Si Si8 0.969641 0.322270 0.491185
O O1 0.366706 0.724841 0.831045
O O2 0.306392 0.583230 0.864300
O O3 0.340547 0.649710 0.702551
O O4 0.115720 0.676517 0.879628
O O5 0.440460 0.982017 0.699964
O O6 0.444096 0.829837 0.700112
O O7 0.667761 0.902701 0.565237
O O8 0.454604 0.898945 0.554996
O O9 0.625211 0.085484 0.662552
O O10 0.930427 0.898198 0.459013
O O11 0.792601 0.029108 0.471021
O O12 0.131774 0.139747 0.972512
O O13 0.022807 0.249456 0.950353
O O14 0.161088 0.667814 0.514958
#
# Coordination Sequence:
#
# PCOD8142496 Si02
#       8
#     8   8   4   4   8   8   8   8
#     4  11  21  35  66  87 119 151 206 253 304 352
#     4   9  19  34  62  87 120 144 196 257 303 355
#     4   9  20  38  58  90 111 158 198 238 299 360
#     4  11  16  34  56  96 115 146 198 260 313 338
#     4  10  21  39  60  91 114 157 201 258 307 353
#     4  12  22  40  62  88 122 162 205 252 299 363
#     4  11  24  39  59  84 130 166 200 238 305 376
#     4  11  23  39  60  91 122 161 200 250 305 367
#
# _framework density 20.717670999999999
#
# number of rings (size 3 to 8) (size 9 to 14) (size 15 to 20)
#    0.000    1.429    2.857    2.571    0.000    8.571 
#    0.000    0.000    6.286    0.000    0.000    0.000 
#    0.000    0.000    0.000    0.000    0.000    0.000 
#
# Total GULP energy -346937.486813 kJ/mol
# GULP energy per Si atom -12390.624529 kJ/mol
# Density = 2.067052 g / cm^3
# Si number density = 20.717671 Si / 1000 Ang^3
#
#
#
# Elastic Constant Matrix: (Units=GPa)
#
#
# Indices 1 2 3 4 5 6 
#
# 1 106.8590 11.5856 13.9041 0.0000 -1.8772 0.0000
# 2 11.5856 48.9287 12.5842 0.0000 -4.1015 0.0000
# 3 13.9041 12.5842 80.8624 0.0001 8.2639 -0.0001
# 4 0.0000 0.0000 0.0001 20.7859 0.0000 1.1396
# 5 -1.8772 -4.1015 8.2639 0.0000 16.8388 0.0000
# 6 0.0000 0.0000 -0.0001 1.1396 0.0000 25.7045
#
#
#
# Elastic Compliance Matrix: (Units=1/GPa)
#
#
# Indices 1 2 3 4 5 6 
#
# 1 0.009779 -0.001800 -0.001546 0.000000 0.001410 0.000000
# 2 -0.001800 0.022477 -0.003924 0.000000 0.007200 0.000000
# 3 -0.001546 -0.003924 0.014064 0.000000 -0.008030 0.000000
# 4 0.000000 0.000000 0.000000 0.048227 0.000000 -0.002138
# 5 0.001410 0.007200 -0.008030 0.000000 0.065239 0.000000
# 6 0.000000 0.000000 0.000000 -0.002138 0.000000 0.038999
#
#
# Mechanical properties :
#
#
# Convention : Reuss Voigt Hill
#
# Bulk Modulus (GPa) = 31.46582 34.75534 33.11058
# Shear Modulus (GPa) = 22.32974 25.90425 24.11699
#
# Velocity S-wave (km/s) = 3.28657 3.53986 3.41556
# Velocity P-wave (km/s) = 5.44269 5.78961 5.61883
#
# Compressibility (1/GPa) = 0.03178052
#
# Stress axis : x y z
#
# Youngs Moduli (GPa) = 102.25845 44.49008 71.10439
#
# Poissons Ratio (x) = 0.08007 0.10989
# Poissons Ratio (y) = 0.18405 0.27904
# Poissons Ratio (z) = 0.15804 0.17459
#
# Static dielectric constant tensor:
#      x y z
#    x 3.662310 0.000000 0.053760 
#    y 0.000000 3.746420 0.000000 
#    z 0.053760 0.000000 3.788190 
# 
# 
# High freq. dielectric constant tensor:
#      x y z
#    x 1.804220 0.000000 0.010190 
#    y 0.000000 1.806640 0.000000 
#    z 0.010190 0.000000 1.810970 
# 
# From -- ./inp_files/145605.got.cif
#   From: 2010.06.25/outbox.cif.g09.slc.cpg/sg15_73_cif.got.tgz:145605.got - 2010.06.28 07:06:18.
