data_PCOD8142078
_publ_section_title
;
Structure prediction by ZEFSAII (Michael W. Deem and Ramdas Pophale) SiO2 
 PCOD8142078
Probable space group: C 2/C
;
_chemical_formula_sum "Si O2"
_cell_formula_units_Z 60
_cell_length_a 8.836056
_cell_length_b 22.605938
_cell_length_c 27.373962
_cell_angle_alpha 90.000000
_cell_angle_beta 146.970576
_cell_angle_gamma 90.000000
_cell_volume 2980.373269
_symmetry_space_group_name_H-M "C 2/C"
_symmetry_group_IT_number 15
_symmetry_cell_setting 'monoclinic'
loop_
_space_group_symop_operation_xyz
x,y,z
-x,y,1/2-z
-x,-y,-z
x,-y,1/2+z
1/2+x,1/2+y,z
1/2-x,1/2+y,1/2-z
1/2-x,1/2-y,-z
1/2+x,1/2-y,1/2+z
loop_
_atom_site_type_symbol
_atom_site_label
_atom_site_fract_x
_atom_site_fract_y
_atom_site_fract_z
Si Si1 0.192432 0.596120 0.257609
Si Si2 0.328593 0.019286 0.340305
Si Si3 0.993003 0.603140 0.581659
Si Si4 0.119144 0.206350 0.503964
Si Si5 0.036629 0.278190 0.681701
Si Si6 0.500000 0.682885 0.750000
Si Si7 0.166933 0.598727 0.068752
Si Si8 0.435923 0.770830 0.918604
O O1 0.084957 0.558591 0.182449
O O2 0.177659 0.665566 0.244015
O O3 0.512602 0.585394 0.356597
O O4 0.000000 0.575916 0.250000
O O5 0.430283 0.052840 0.416389
O O6 0.000000 0.007988 0.250000
O O7 0.489435 0.956829 0.382102
O O8 0.713910 0.638998 0.520012
O O9 0.004004 0.587935 0.527095
O O10 0.252381 0.643730 0.663610
O O11 0.250000 0.250000 0.500000
O O12 0.217346 0.226776 0.584813
O O13 0.789885 0.209739 0.410512
O O14 0.182955 0.267483 0.668609
O O15 0.108997 0.222624 0.734896
O O16 0.099404 0.663625 0.070152
O O17 0.750000 0.750000 0.000000
#
# Coordination Sequence:
#
# PCOD8142078 Si02
#       8
#     8   8   8   8   8   4   8   8
#     4  11  23  40  67  96 127 159 217 269 314 377
#     4  10  23  44  66  93 127 169 218 266 313 384
#     4  12  23  41  65  95 130 168 218 260 324 382
#     4  11  21  38  62  92 128 165 207 257 320 389
#     4  11  22  39  62  93 128 166 210 265 318 374
#     4  12  24  38  66  94 130 172 206 270 322 382
#     4  11  22  41  69  94 121 175 216 264 313 384
#     4  10  21  38  61  95 130 157 210 266 315 374
#
# _framework density 20.131706999999999
#
# number of rings (size 3 to 8) (size 9 to 14) (size 15 to 20)
#    0.000    1.067    5.333    2.000    1.867    0.000 
#    0.000    4.000    5.867    0.000    0.000    0.000 
#    0.000    0.000    0.000    0.000    0.000    0.000 
#
# Total GULP energy -372000.436340 kJ/mol
# GULP energy per Si atom -12400.014545 kJ/mol
# Density = 2.008589 g / cm^3
# Si number density = 20.131707 Si / 1000 Ang^3
#
#
#
# Elastic Constant Matrix: (Units=GPa)
#
#
# Indices 1 2 3 4 5 6 
#
# 1 120.8663 40.5780 36.3778 0.0081 -18.2059 0.0017
# 2 40.5780 127.5997 34.4620 0.0031 -12.6721 -0.0009
# 3 36.3778 34.4620 83.1109 0.0064 -17.9462 -0.0033
# 4 0.0081 0.0031 0.0064 28.3140 0.0060 9.4920
# 5 -18.2059 -12.6721 -17.9462 0.0060 31.3050 0.0023
# 6 0.0017 -0.0009 -0.0033 9.4920 0.0023 33.6772
#
#
#
# Elastic Compliance Matrix: (Units=1/GPa)
#
#
# Indices 1 2 3 4 5 6 
#
# 1 0.010405 -0.002179 -0.002893 -0.000003 0.003511 0.000000
# 2 -0.002179 0.009360 -0.002720 0.000000 0.000963 0.000000
# 3 -0.002893 -0.002720 0.015778 -0.000005 0.006262 0.000003
# 4 -0.000003 0.000000 -0.000005 0.039004 -0.000011 -0.010993
# 5 0.003511 0.000963 0.006262 -0.000011 0.037965 0.000001
# 6 0.000000 0.000000 0.000003 -0.010993 0.000001 0.032792
#
#
# Mechanical properties :
#
#
# Convention : Reuss Voigt Hill
#
# Bulk Modulus (GPa) = 50.09873 61.60139 55.85006
# Shear Modulus (GPa) = 29.84384 33.33652 31.59018
#
# Velocity S-wave (km/s) = 3.85441 4.07372 3.96558
# Velocity P-wave (km/s) = 6.68941 7.26584 6.98358
#
# Compressibility (1/GPa) = 0.01996058
#
# Stress axis : x y z
#
# Youngs Moduli (GPa) = 96.11224 106.83742 63.37935
#
# Poissons Ratio (x) = 0.23279 0.18333
# Poissons Ratio (y) = 0.20942 0.17236
# Poissons Ratio (z) = 0.27801 0.29055
#
# Static dielectric constant tensor:
#      x y z
#    x 4.127800 0.000020 -0.203830 
#    y 0.000020 3.724370 0.000090 
#    z -0.203830 0.000090 4.045700 
# 
# 
# High freq. dielectric constant tensor:
#      x y z
#    x 1.790420 0.000000 -0.015640 
#    y 0.000000 1.782540 0.000000 
#    z -0.015640 0.000000 1.788920 
# 
# From -- ./inp_files/290270.got.cif
#   From: 2010.06.25/outbox.cif.g09.slc.cpg/sg15_146_cif.got.tgz:290270.got - 2010.06.28 07:06:18.
