data_PCOD8142338
_publ_section_title
;
Structure prediction by ZEFSAII (Michael W. Deem and Ramdas Pophale) SiO2 
 PCOD8142338
Probable space group: C 2/C
;
_chemical_formula_sum "Si O2"
_cell_formula_units_Z 64
_cell_length_a 17.155171
_cell_length_b 19.873949
_cell_length_c 22.293387
_cell_angle_alpha 90.000000
_cell_angle_beta 156.517868
_cell_angle_gamma 90.000000
_cell_volume 3028.609935
_symmetry_space_group_name_H-M "C 2/C"
_symmetry_group_IT_number 15
_symmetry_cell_setting 'monoclinic'
loop_
_space_group_symop_operation_xyz
x,y,z
-x,y,1/2-z
-x,-y,-z
x,-y,1/2+z
1/2+x,1/2+y,z
1/2-x,1/2+y,1/2-z
1/2-x,1/2-y,-z
1/2+x,1/2-y,1/2+z
loop_
_atom_site_type_symbol
_atom_site_label
_atom_site_fract_x
_atom_site_fract_y
_atom_site_fract_z
Si Si1 0.482165 0.818172 0.571972
Si Si2 0.156223 0.602621 0.732349
Si Si3 0.309415 0.947904 0.757004
Si Si4 0.273560 0.294665 0.215510
Si Si5 0.090381 0.916870 0.973410
Si Si6 0.877121 0.154052 0.609160
Si Si7 0.845760 0.680891 0.587626
Si Si8 0.273146 0.052583 0.095207
O O1 0.511872 0.898648 0.599801
O O2 0.687959 0.778695 0.727672
O O3 0.421127 0.796192 0.461854
O O4 0.302407 0.802261 0.490443
O O5 0.116670 0.525161 0.683665
O O6 0.257131 0.644474 0.750592
O O7 0.957112 0.640167 0.613021
O O8 0.316143 0.599367 0.896680
O O9 0.226005 0.931423 0.631528
O O10 0.140803 0.927630 0.684751
O O11 0.467390 0.297766 0.312213
O O12 0.152159 0.859125 0.971021
O O13 0.172529 0.984793 0.003133
O O14 0.797016 0.108022 0.499967
O O15 0.000000 0.116853 0.750000
O O16 0.750000 0.750000 0.500000
O O17 0.000000 0.692402 0.750000
O O18 0.500000 0.039855 0.250000
#
# Coordination Sequence:
#
# PCOD8142338 Si02
#       8
#     8   8   8   8   8   8   8   8
#     4  11  26  40  64  94 130 170 215 265 325 391
#     4  10  22  42  67  95 129 163 219 277 323 381
#     4  11  22  40  65 101 126 166 221 268 325 390
#     4  11  25  42  64  90 129 174 211 268 324 387
#     4  10  21  38  66  97 125 165 218 266 322 387
#     4  10  22  41  59  92 132 168 211 254 321 381
#     4  10  23  42  65  92 129 169 216 271 321 386
#     4  11  19  36  69  95 124 166 211 263 321 375
#
# _framework density 21.131806999999998
#
# number of rings (size 3 to 8) (size 9 to 14) (size 15 to 20)
#    0.000    1.500    1.250    5.250    5.250    1.500 
#    0.000    0.625    0.000    0.000    0.000    0.000 
#    0.000    0.000    0.000    0.000    0.000    0.000 
#
# Total GULP energy -396568.895993 kJ/mol
# GULP energy per Si atom -12392.778000 kJ/mol
# Density = 2.108371 g / cm^3
# Si number density = 21.131807 Si / 1000 Ang^3
#
#
#
# Elastic Constant Matrix: (Units=GPa)
#
#
# Indices 1 2 3 4 5 6 
#
# 1 64.8503 33.3803 27.9432 0.0266 11.1289 -0.0056
# 2 33.3803 138.0886 55.7137 -0.0839 -6.5032 -0.0518
# 3 27.9432 55.7137 75.4493 -0.1705 8.2061 -0.0826
# 4 0.0266 -0.0839 -0.1705 43.6173 -0.0369 2.0405
# 5 11.1289 -6.5032 8.2061 -0.0369 34.5232 0.0022
# 6 -0.0056 -0.0518 -0.0826 2.0405 0.0022 30.9609
#
#
#
# Elastic Compliance Matrix: (Units=1/GPa)
#
#
# Indices 1 2 3 4 5 6 
#
# 1 0.020056 -0.003428 -0.004233 -0.000040 -0.006105 -0.000010
# 2 -0.003428 0.011425 -0.007721 -0.000002 0.005093 -0.000002
# 3 -0.004233 -0.007721 0.021078 0.000064 -0.005100 0.000039
# 4 -0.000040 -0.000002 0.000064 0.022998 0.000022 -0.001516
# 5 -0.006105 0.005093 -0.005100 0.000022 0.033106 -0.000010
# 6 -0.000010 -0.000002 0.000039 -0.001516 -0.000010 0.032399
#
#
# Mechanical properties :
#
#
# Convention : Reuss Voigt Hill
#
# Bulk Modulus (GPa) = 45.88042 56.94029 51.41036
# Shear Modulus (GPa) = 27.91884 32.57701 30.24793
#
# Velocity S-wave (km/s) = 3.63874 3.93059 3.78748
# Velocity P-wave (km/s) = 6.27795 6.89951 6.59605
#
# Compressibility (1/GPa) = 0.02179579
#
# Stress axis : x y z
#
# Youngs Moduli (GPa) = 49.86007 87.52436 47.44308
#
# Poissons Ratio (x) = 0.30003 0.20081
# Poissons Ratio (y) = 0.17092 0.36631
# Poissons Ratio (z) = 0.21104 0.67579
#
# Static dielectric constant tensor:
#      x y z
#    x 4.195290 -0.000460 0.066880 
#    y -0.000460 3.787300 -0.000010 
#    z 0.066880 -0.000010 3.290520 
# 
# 
# High freq. dielectric constant tensor:
#      x y z
#    x 1.831530 0.000000 0.015050 
#    y 0.000000 1.828270 -0.000030 
#    z 0.015050 -0.000030 1.817480 
# 
# From -- ./inp_files/278136.got.cif
#   From: 2010.06.25/outbox.cif.g09.slc.cpg/sg15_140_cif.got.tgz:278136.got - 2010.06.28 07:06:18.
