data_PCOD8142770
_publ_section_title
;
Structure prediction by ZEFSAII (Michael W. Deem and Ramdas Pophale) SiO2 
 PCOD8142770
Probable space group: C 2/C
;
_chemical_formula_sum "Si O2"
_cell_formula_units_Z 40
_cell_length_a 31.252284
_cell_length_b 8.254867
_cell_length_c 15.660406
_cell_angle_alpha 90.000000
_cell_angle_beta 28.829016
_cell_angle_gamma 90.000000
_cell_volume 1948.138011
_symmetry_space_group_name_H-M "C 2/C"
_symmetry_group_IT_number 15
_symmetry_cell_setting 'monoclinic'
loop_
_space_group_symop_operation_xyz
x,y,z
-x,y,1/2-z
-x,-y,-z
x,-y,1/2+z
1/2+x,1/2+y,z
1/2-x,1/2+y,1/2-z
1/2-x,1/2-y,-z
1/2+x,1/2-y,1/2+z
loop_
_atom_site_type_symbol
_atom_site_label
_atom_site_fract_x
_atom_site_fract_y
_atom_site_fract_z
Si Si1 0.519623 0.327116 0.506586
Si Si2 0.174676 0.148025 0.868800
Si Si3 0.360523 0.284729 0.517523
Si Si4 0.471249 0.828654 0.683689
Si Si5 0.076887 0.686365 0.678850
O O1 0.500000 0.500000 0.500000
O O2 0.607013 0.311668 0.411080
O O3 0.534696 0.192850 0.407070
O O4 0.433336 0.282971 0.714148
O O5 0.272935 0.176430 0.661746
O O6 0.163827 0.961574 0.909403
O O7 0.164244 0.260239 0.972886
O O8 0.426292 0.192451 0.468256
O O9 0.410042 0.303483 0.339403
O O10 0.429941 0.997507 0.787847
O O11 0.000000 0.745417 0.750000
#
# Coordination Sequence:
#
# PCOD8142770 Si02
#       5
#     8   8   8   8   8
#     4  11  22  39  66  94 127 165 209 261 317 370
#     4  11  24  41  66  93 128 166 214 259 314 373
#     4  11  23  40  66  91 128 168 210 259 312 381
#     4  11  22  42  66  92 127 165 213 257 320 374
#     4  10  21  39  65  90 121 167 206 254 313 378
#
# _framework density 20.532426999999998
#
# number of rings (size 3 to 8) (size 9 to 14) (size 15 to 20)
#    0.000    1.200    4.000    3.000    8.400    0.800 
#    0.000    1.000    0.000    0.000    0.000    0.000 
#    0.000    0.000    0.000    0.000    0.000    0.000 
#
# Total GULP energy -247933.164012 kJ/mol
# GULP energy per Si atom -12396.658201 kJ/mol
# Density = 2.048569 g / cm^3
# Si number density = 20.532427 Si / 1000 Ang^3
#
#
#
# Elastic Constant Matrix: (Units=GPa)
#
#
# Indices 1 2 3 4 5 6 
#
# 1 114.7292 39.7682 67.3114 0.0000 20.8146 0.0000
# 2 39.7682 99.1267 24.0211 -0.0001 2.8172 0.0000
# 3 67.3114 24.0211 113.2638 0.0000 -0.1162 0.0000
# 4 0.0000 -0.0001 0.0000 36.2902 0.0000 4.6746
# 5 20.8146 2.8172 -0.1162 0.0000 37.4794 0.0000
# 6 0.0000 0.0000 0.0000 4.6746 0.0000 32.3598
#
#
#
# Elastic Compliance Matrix: (Units=1/GPa)
#
#
# Indices 1 2 3 4 5 6 
#
# 1 0.017545 -0.004471 -0.009488 0.000000 -0.009437 0.000000
# 2 -0.004471 0.011799 0.000157 0.000000 0.001597 0.000000
# 3 -0.009488 0.000157 0.014440 0.000000 0.005302 0.000000
# 4 0.000000 0.000000 0.000000 0.028078 0.000000 -0.004056
# 5 -0.009437 0.001597 0.005302 0.000000 0.031819 0.000000
# 6 0.000000 0.000000 0.000000 -0.004056 0.000000 0.031488
#
#
# Mechanical properties :
#
#
# Convention : Reuss Voigt Hill
#
# Bulk Modulus (GPa) = 61.81347 65.48012 63.64680
# Shear Modulus (GPa) = 29.73244 34.29382 32.01313
#
# Velocity S-wave (km/s) = 3.80948 4.09128 3.95289
# Velocity P-wave (km/s) = 7.03706 7.36738 7.20412
#
# Compressibility (1/GPa) = 0.01617770
#
# Stress axis : x y z
#
# Youngs Moduli (GPa) = 56.99699 84.75599 69.25286
#
# Poissons Ratio (x) = 0.37897 0.65708
# Poissons Ratio (y) = 0.25485 -0.01085
# Poissons Ratio (z) = 0.54079 -0.01327
#
# Static dielectric constant tensor:
#      x y z
#    x 3.791230 0.000000 0.312030 
#    y 0.000000 3.729400 0.000000 
#    z 0.312030 0.000000 4.083840 
# 
# 
# High freq. dielectric constant tensor:
#      x y z
#    x 1.786180 0.000000 0.022250 
#    y 0.000000 1.814250 0.000000 
#    z 0.022250 0.000000 1.809040 
# 
# From -- ./inp_files/150612.got.cif
#   From: 2010.06.25/outbox.cif.g09.slc.cpg/sg15_76_cif.got.tgz:150612.got - 2010.06.28 07:06:18.
