data_PCOD8143750
_publ_section_title
;
Structure prediction by ZEFSAII (Michael W. Deem and Ramdas Pophale) SiO2 
 PCOD8143750
Probable space group: C 2/C
;
_chemical_formula_sum "Si O2"
_cell_formula_units_Z 60
_cell_length_a 8.196948
_cell_length_b 30.466174
_cell_length_c 12.132893
_cell_angle_alpha 90.000000
_cell_angle_beta 80.909155
_cell_angle_gamma 90.000000
_cell_volume 2991.884134
_symmetry_space_group_name_H-M "C 2/C"
_symmetry_group_IT_number 15
_symmetry_cell_setting 'monoclinic'
loop_
_space_group_symop_operation_xyz
x,y,z
-x,y,1/2-z
-x,-y,-z
x,-y,1/2+z
1/2+x,1/2+y,z
1/2-x,1/2+y,1/2-z
1/2-x,1/2-y,-z
1/2+x,1/2-y,1/2+z
loop_
_atom_site_type_symbol
_atom_site_label
_atom_site_fract_x
_atom_site_fract_y
_atom_site_fract_z
Si Si1 0.500000 0.601760 0.250000
Si Si2 0.398625 0.460975 0.371307
Si Si3 0.712844 0.874405 0.338492
Si Si4 0.691179 0.837431 0.735632
Si Si5 0.357326 0.449966 0.958147
Si Si6 0.823081 0.376376 0.407013
Si Si7 0.179995 0.294760 0.960323
Si Si8 0.199270 0.700135 0.998976
O O1 0.673227 0.627301 0.244194
O O2 0.518782 0.572960 0.139938
O O3 0.500000 0.466775 0.250000
O O4 0.284267 0.418083 0.386795
O O5 0.537635 0.459396 0.446766
O O6 0.289181 0.504847 0.409413
O O7 0.517592 0.874443 0.371865
O O8 0.764361 0.875021 0.204051
O O9 0.782957 0.830773 0.394919
O O10 0.500000 0.855545 0.750000
O O11 0.704083 0.798504 0.825661
O O12 0.744594 0.819802 0.612004
O O13 0.207583 0.419637 0.016311
O O14 0.740564 0.335890 0.483063
O O15 0.990581 0.298379 0.010087
O O16 0.250000 0.250000 0.000000
O O17 0.250000 0.750000 0.000000
#
# Coordination Sequence:
#
# PCOD8143750 Si02
#       8
#     4   8   8   8   8   8   8   8
#     4  12  22  40  70  90 126 174 204 258 334 366
#     4  11  22  40  63  91 128 158 205 263 307 373
#     4  10  22  41  64  87 122 164 201 256 320 360
#     4  10  23  41  60  90 126 163 212 264 312 385
#     4  11  23  39  64  94 121 160 211 253 312 382
#     4  10  21  41  64  89 121 162 209 255 305 387
#     4  10  22  38  60  87 122 160 207 261 314 374
#     4  10  23  40  58  89 123 156 210 262 309 375
#
# _framework density 20.054252999999999
#
# number of rings (size 3 to 8) (size 9 to 14) (size 15 to 20)
#    0.000    1.600    3.333    0.800    3.733    1.600 
#    0.000    0.000    2.933    0.000    0.000    0.000 
#    0.000    0.000    0.000    0.000    0.000    0.000 
#
# Total GULP energy -371723.662743 kJ/mol
# GULP energy per Si atom -12390.788758 kJ/mol
# Density = 2.000861 g / cm^3
# Si number density = 20.054253 Si / 1000 Ang^3
#
#
#
# Elastic Constant Matrix: (Units=GPa)
#
#
# Indices 1 2 3 4 5 6 
#
# 1 33.0521 29.5003 28.2643 0.0000 9.1766 0.0000
# 2 29.5003 164.6921 62.4000 0.0000 5.6691 0.0000
# 3 28.2643 62.4000 131.4667 0.0000 -0.2928 0.0000
# 4 0.0000 0.0000 0.0000 141.2337 0.0000 13.8144
# 5 9.1766 5.6691 -0.2928 0.0000 23.5389 0.0000
# 6 0.0000 0.0000 0.0000 13.8144 0.0000 29.7146
#
#
#
# Elastic Compliance Matrix: (Units=1/GPa)
#
#
# Indices 1 2 3 4 5 6 
#
# 1 0.045615 -0.004712 -0.007608 0.000000 -0.016743 0.000000
# 2 -0.004712 0.007969 -0.002770 0.000000 -0.000117 0.000000
# 3 -0.007608 -0.002770 0.010565 0.000000 0.003764 0.000000
# 4 0.000000 0.000000 0.000000 0.007418 0.000000 -0.003449
# 5 -0.016743 -0.000117 0.003764 0.000000 0.049085 0.000000
# 6 0.000000 0.000000 0.000000 -0.003449 0.000000 0.035257
#
#
# Mechanical properties :
#
#
# Convention : Reuss Voigt Hill
#
# Bulk Modulus (GPa) = 29.43720 63.28223 46.35971
# Shear Modulus (GPa) = 25.32779 52.83386 39.08083
#
# Velocity S-wave (km/s) = 3.55768 5.13835 4.41926
# Velocity P-wave (km/s) = 5.62021 8.17481 7.01478
#
# Compressibility (1/GPa) = 0.03397062
#
# Stress axis : x y z
#
# Youngs Moduli (GPa) = 21.92263 125.47894 94.65062
#
# Poissons Ratio (x) = 0.59125 0.72007
# Poissons Ratio (y) = 0.10330 0.26217
# Poissons Ratio (z) = 0.16678 0.34756
#
# Static dielectric constant tensor:
#      x y z
#    x 3.420300 0.000000 0.025130 
#    y 0.000000 3.943370 0.000000 
#    z 0.025130 0.000000 3.912780 
# 
# 
# High freq. dielectric constant tensor:
#      x y z
#    x 1.760720 0.000000 0.004840 
#    y 0.000000 1.787650 0.000000 
#    z 0.004840 0.000000 1.808250 
# 
# From -- ./inp_files/81351.got.cif
#   From: 2010.06.25/outbox.cif.g09.slc.cpg/sg15_41_cif.got.tgz:81351.got - 2010.06.28 07:06:18.
