data_PCOD8143894
_publ_section_title
;
Structure prediction by ZEFSAII (Michael W. Deem and Ramdas Pophale) SiO2 
 PCOD8143894
Probable space group: C 2/C
;
_chemical_formula_sum "Si O2"
_cell_formula_units_Z 64
_cell_length_a 14.595790
_cell_length_b 12.218425
_cell_length_c 29.149527
_cell_angle_alpha 90.000000
_cell_angle_beta 141.234891
_cell_angle_gamma 90.000000
_cell_volume 3254.904414
_symmetry_space_group_name_H-M "C 2/C"
_symmetry_group_IT_number 15
_symmetry_cell_setting 'monoclinic'
loop_
_space_group_symop_operation_xyz
x,y,z
-x,y,1/2-z
-x,-y,-z
x,-y,1/2+z
1/2+x,1/2+y,z
1/2-x,1/2+y,1/2-z
1/2-x,1/2-y,-z
1/2+x,1/2-y,1/2+z
loop_
_atom_site_type_symbol
_atom_site_label
_atom_site_fract_x
_atom_site_fract_y
_atom_site_fract_z
Si Si1 0.424443 0.068764 0.835294
Si Si2 0.090592 0.160742 0.831199
Si Si3 0.648149 0.262496 0.026421
Si Si4 0.090139 0.416316 0.830369
Si Si5 0.940574 0.191911 0.107632
Si Si6 0.098681 0.028904 0.673464
Si Si7 0.630005 0.541623 0.580667
Si Si8 0.915012 0.413666 0.437111
O O1 0.478496 0.193433 0.850783
O O2 0.263150 0.052499 0.752805
O O3 0.422533 0.041547 0.888235
O O4 0.533170 0.986123 0.851535
O O5 0.092050 0.288870 0.843386
O O6 0.249607 0.107384 0.887975
O O7 0.000000 0.136692 0.750000
O O8 0.013219 0.105724 0.843893
O O9 0.791522 0.184860 0.079237
O O10 0.685889 0.343474 0.082613
O O11 0.616077 0.326172 0.966409
O O12 0.500161 0.198462 0.978684
O O13 0.251549 0.447574 0.878593
O O14 0.000000 0.443829 0.750000
O O15 0.054789 0.097390 0.165827
O O16 0.082121 0.058632 0.614012
O O17 0.500000 0.500000 0.500000
O O18 0.000000 0.500000 0.500000
#
# Coordination Sequence:
#
# PCOD8143894 Si02
#       8
#     8   8   8   8   8   8   8   8
#     4  11  24  42  68  98 129 180 222 276 331 396
#     4  11  25  45  67  99 136 181 223 275 341 403
#     4  10  21  41  66  94 130 178 220 273 326 402
#     4  11  24  43  68  98 136 173 222 274 334 398
#     4  10  22  41  66  95 133 174 223 267 337 394
#     4  12  25  41  70  98 136 176 228 274 333 402
#     4  12  23  40  67 102 132 171 221 277 333 391
#     4  11  24  44  69  95 137 178 223 274 342 394
#
# _framework density 19.662635000000002
#
# number of rings (size 3 to 8) (size 9 to 14) (size 15 to 20)
#    0.000    1.000    5.000    1.500    3.500    2.000 
#    0.000    2.500    0.000    0.000    0.000    0.000 
#    0.000    0.000    0.000    0.000    0.000    0.000 
#
# Total GULP energy -396808.514875 kJ/mol
# GULP energy per Si atom -12400.266090 kJ/mol
# Density = 1.961788 g / cm^3
# Si number density = 19.662635 Si / 1000 Ang^3
#
#
#
# Elastic Constant Matrix: (Units=GPa)
#
#
# Indices 1 2 3 4 5 6 
#
# 1 153.7765 68.9315 63.2049 0.0000 -0.8044 0.0000
# 2 68.9315 108.7781 57.3033 0.0000 -10.7528 0.0000
# 3 63.2049 57.3033 126.4495 0.0000 5.1918 0.0000
# 4 0.0000 0.0000 0.0000 34.3101 0.0000 13.0761
# 5 -0.8044 -10.7528 5.1918 0.0000 38.1003 0.0000
# 6 0.0000 0.0000 0.0000 13.0761 0.0000 9.7660
#
#
#
# Elastic Compliance Matrix: (Units=1/GPa)
#
#
# Indices 1 2 3 4 5 6 
#
# 1 0.009772 -0.004883 -0.002638 0.000000 -0.000812 0.000000
# 2 -0.004883 0.015215 -0.004653 0.000000 0.004825 0.000000
# 3 -0.002638 -0.004653 0.011456 0.000000 -0.002930 0.000000
# 4 0.000000 0.000000 0.000000 0.059517 0.000000 -0.079689
# 5 -0.000812 0.004825 -0.002930 0.000000 0.027990 0.000000
# 6 0.000000 0.000000 0.000000 -0.079689 0.000000 0.209094
#
#
# Mechanical properties :
#
#
# Convention : Reuss Voigt Hill
#
# Bulk Modulus (GPa) = 82.67590 85.32039 83.99815
# Shear Modulus (GPa) = 13.83422 29.73958 21.78690
#
# Velocity S-wave (km/s) = 2.65538 3.89330 3.33233
# Velocity P-wave (km/s) = 7.17913 7.98102 7.59067
#
# Compressibility (1/GPa) = 0.01209542
#
# Stress axis : x y z
#
# Youngs Moduli (GPa) = 102.33516 65.72458 87.29267
#
# Poissons Ratio (x) = 0.32092 0.23030
# Poissons Ratio (y) = 0.49968 0.40613
# Poissons Ratio (z) = 0.26999 0.30578
#
# Static dielectric constant tensor:
#      x y z
#    x 3.576940 0.000000 0.317910 
#    y 0.000000 3.669930 0.000000 
#    z 0.317910 0.000000 3.309790 
# 
# 
# High freq. dielectric constant tensor:
#      x y z
#    x 1.783970 0.000000 0.011240 
#    y 0.000000 1.766590 0.000000 
#    z 0.011240 0.000000 1.772950 
# 
# From -- ./inp_files/296179.got.cif
#   From: 2010.06.25/outbox.cif.g09.slc.cpg/sg15_149_cif.got.tgz:296179.got - 2010.06.28 07:06:18.
