data_PCOD8143972
_publ_section_title
;
Structure prediction by ZEFSAII (Michael W. Deem and Ramdas Pophale) SiO2 
 PCOD8143972
Probable space group: C 2/C
;
_chemical_formula_sum "Si O2"
_cell_formula_units_Z 48
_cell_length_a 8.699861
_cell_length_b 18.432626
_cell_length_c 14.116020
_cell_angle_alpha 90.000000
_cell_angle_beta 77.144841
_cell_angle_gamma 90.000000
_cell_volume 2206.925773
_symmetry_space_group_name_H-M "C 2/C"
_symmetry_group_IT_number 15
_symmetry_cell_setting 'monoclinic'
loop_
_space_group_symop_operation_xyz
x,y,z
-x,y,1/2-z
-x,-y,-z
x,-y,1/2+z
1/2+x,1/2+y,z
1/2-x,1/2+y,1/2-z
1/2-x,1/2-y,-z
1/2+x,1/2-y,1/2+z
loop_
_atom_site_type_symbol
_atom_site_label
_atom_site_fract_x
_atom_site_fract_y
_atom_site_fract_z
Si Si1 0.275417 0.308855 0.604192
Si Si2 0.818398 0.101672 0.277913
Si Si3 0.671423 0.960957 0.269768
Si Si4 0.709032 0.349370 0.102364
Si Si5 0.420584 0.437813 0.075491
Si Si6 0.641014 0.686564 0.048978
O O1 0.251733 0.368657 0.687682
O O2 0.213901 0.344287 0.513801
O O3 0.183609 0.233967 0.640631
O O4 0.460000 0.288527 0.568656
O O5 0.805643 0.167984 0.352207
O O6 0.000000 0.074787 0.250000
O O7 0.707997 0.034182 0.324555
O O8 0.500000 0.960581 0.250000
O O9 0.682357 0.891062 0.336440
O O10 0.796630 0.968303 0.167094
O O11 0.546012 0.392679 0.119852
O O12 0.500000 0.500000 0.000000
O O13 0.328522 0.384361 0.018198
O O14 0.750000 0.750000 0.000000
#
# Coordination Sequence:
#
# PCOD8143972 Si02
#       6
#     8   8   8   8   8   8
#     4   9  21  41  68  95 128 176 225 275 344 408
#     4  10  21  44  68  88 133 179 222 269 342 417
#     4  12  26  41  65 104 134 178 232 291 337 402
#     4  10  21  41  68  93 129 173 223 280 337 414
#     4  11  23  45  69  94 135 186 234 268 355 426
#     4  10  22  38  65 101 130 174 219 285 341 410
#
# _framework density 21.749713
#
# number of rings (size 3 to 8) (size 9 to 14) (size 15 to 20)
#    0.000    1.667    0.000    5.500    4.667    0.667 
#   12.000    4.167    0.000    0.000    0.000    0.000 
#    0.000    0.000    0.000    0.000    0.000    0.000 
#
# Total GULP energy -297568.638936 kJ/mol
# GULP energy per Si atom -12398.693289 kJ/mol
# Density = 2.170021 g / cm^3
# Si number density = 21.749713 Si / 1000 Ang^3
#
#
#
# Elastic Constant Matrix: (Units=GPa)
#
#
# Indices 1 2 3 4 5 6 
#
# 1 96.3844 56.3579 45.9696 0.0000 8.7236 0.0000
# 2 56.3579 138.4897 51.4367 0.0000 3.8960 0.0000
# 3 45.9696 51.4367 93.5549 0.0000 12.8912 0.0000
# 4 0.0000 0.0000 0.0000 35.9345 0.0000 1.2520
# 5 8.7236 3.8960 12.8912 0.0000 31.2220 0.0000
# 6 0.0000 0.0000 0.0000 1.2520 0.0000 39.7871
#
#
#
# Elastic Compliance Matrix: (Units=1/GPa)
#
#
# Indices 1 2 3 4 5 6 
#
# 1 0.015465 -0.004412 -0.004935 0.000000 -0.001733 0.000000
# 2 -0.004412 0.010361 -0.003733 0.000000 0.001481 0.000000
# 3 -0.004935 -0.003733 0.015811 0.000000 -0.004684 0.000000
# 4 0.000000 0.000000 0.000000 0.027859 0.000000 -0.000877
# 5 -0.001733 0.001481 -0.004684 0.000000 0.034262 0.000000
# 6 0.000000 0.000000 0.000000 -0.000877 0.000000 0.025161
#
#
# Mechanical properties :
#
#
# Convention : Reuss Voigt Hill
#
# Bulk Modulus (GPa) = 64.60377 70.66193 67.63285
# Shear Modulus (GPa) = 31.20367 33.03305 32.11836
#
# Velocity S-wave (km/s) = 3.79181 3.90138 3.84699
# Velocity P-wave (km/s) = 6.99559 7.27005 7.13414
#
# Compressibility (1/GPa) = 0.01547897
#
# Stress axis : x y z
#
# Youngs Moduli (GPa) = 64.66096 96.51685 63.24652
#
# Poissons Ratio (x) = 0.42584 0.31209
# Poissons Ratio (y) = 0.28529 0.23607
# Poissons Ratio (z) = 0.31907 0.36026
#
# Static dielectric constant tensor:
#      x y z
#    x 3.819160 0.000000 0.311480 
#    y 0.000000 3.937980 0.000000 
#    z 0.311480 0.000000 3.980530 
# 
# 
# High freq. dielectric constant tensor:
#      x y z
#    x 1.836910 0.000000 0.028240 
#    y 0.000000 1.869980 0.000000 
#    z 0.028240 0.000000 1.851900 
# 
# From -- ./inp_files/135901.got.cif
#   From: 2010.06.25/outbox.cif.g09.slc.cpg/sg15_68_cif.got.tgz:135901.got - 2010.06.28 07:06:18.
