data_PCOD8143216
_publ_section_title
;
Structure prediction by ZEFSAII (Michael W. Deem and Ramdas Pophale) SiO2 
 PCOD8143216
Probable space group: C 2/C
;
_chemical_formula_sum "Si O2"
_cell_formula_units_Z 48
_cell_length_a 19.791521
_cell_length_b 5.155899
_cell_length_c 20.919772
_cell_angle_alpha 90.000000
_cell_angle_beta 83.667659
_cell_angle_gamma 90.000000
_cell_volume 2121.693817
_symmetry_space_group_name_H-M "C 2/C"
_symmetry_group_IT_number 15
_symmetry_cell_setting 'monoclinic'
loop_
_space_group_symop_operation_xyz
x,y,z
-x,y,1/2-z
-x,-y,-z
x,-y,1/2+z
1/2+x,1/2+y,z
1/2-x,1/2+y,1/2-z
1/2-x,1/2-y,-z
1/2+x,1/2-y,1/2+z
loop_
_atom_site_type_symbol
_atom_site_label
_atom_site_fract_x
_atom_site_fract_y
_atom_site_fract_z
Si Si1 0.102306 0.511174 0.655364
Si Si2 0.100427 0.995519 0.877735
Si Si3 0.021236 0.495345 0.924765
Si Si4 0.326178 0.196830 0.966741
Si Si5 0.175280 0.195721 0.479721
Si Si6 0.578521 0.525194 0.736082
O O1 0.168788 0.601868 0.607279
O O2 0.118693 0.251817 0.694028
O O3 0.043709 0.436992 0.612157
O O4 0.081560 0.745913 0.703234
O O5 0.045147 0.781826 0.902497
O O6 0.077250 0.277034 0.903887
O O7 0.114487 0.000135 0.800990
O O8 0.170528 0.908502 0.907315
O O9 0.000000 0.500000 0.000000
O O10 0.363049 0.474888 0.972808
O O11 0.362121 0.973299 0.007527
O O12 0.250000 0.250000 0.000000
O O13 0.250000 0.250000 0.500000
O O14 0.500000 0.612976 0.750000
#
# Coordination Sequence:
#
# PCOD8143216 Si02
#       6
#     8   8   8   8   8   8
#     4  12  22  39  62  91 131 176 213 262 330 395
#     4  12  23  38  59  90 129 171 211 263 322 395
#     4  12  23  35  58  92 130 164 213 262 325 399
#     4  10  22  41  66  92 121 163 218 278 333 375
#     4  10  21  40  64  89 120 163 214 275 336 370
#     4  12  23  40  59  89 137 181 212 253 321 416
#
# _framework density 22.623432999999999
#
# number of rings (size 3 to 8) (size 9 to 14) (size 15 to 20)
#    0.000    0.667    3.333    6.000    0.000    0.000 
#    0.000    0.000    0.000   16.000    0.000    0.000 
#    0.000    0.000    0.000    0.000    0.000    0.000 
#
# Total GULP energy -297342.559492 kJ/mol
# GULP energy per Si atom -12389.273312 kJ/mol
# Density = 2.257194 g / cm^3
# Si number density = 22.623433 Si / 1000 Ang^3
#
#
#
# Elastic Constant Matrix: (Units=GPa)
#
#
# Indices 1 2 3 4 5 6 
#
# 1 72.8599 17.4802 48.5569 0.0000 14.1777 0.0000
# 2 17.4802 184.5932 67.9229 0.0000 9.8813 0.0000
# 3 48.5569 67.9229 192.3013 0.0000 25.5320 0.0000
# 4 0.0000 0.0000 0.0000 49.3250 0.0000 2.4482
# 5 14.1777 9.8813 25.5320 0.0000 34.9232 0.0000
# 6 0.0000 0.0000 0.0000 2.4482 0.0000 21.0808
#
#
#
# Elastic Compliance Matrix: (Units=1/GPa)
#
#
# Indices 1 2 3 4 5 6 
#
# 1 0.017035 -0.000012 -0.003742 0.000000 -0.004176 0.000000
# 2 -0.000012 0.006227 -0.002174 0.000000 -0.000167 0.000000
# 3 -0.003742 -0.002174 0.007342 0.000000 -0.003233 0.000000
# 4 0.000000 0.000000 0.000000 0.020391 0.000000 -0.002368
# 5 -0.004176 -0.000167 -0.003233 0.000000 0.032741 0.000000
# 6 0.000000 0.000000 0.000000 -0.002368 0.000000 0.047712
#
#
# Mechanical properties :
#
#
# Convention : Reuss Voigt Hill
#
# Bulk Modulus (GPa) = 53.34417 79.74162 66.54290
# Shear Modulus (GPa) = 33.43243 42.11876 37.77559
#
# Velocity S-wave (km/s) = 3.84836 4.31946 4.09070
# Velocity P-wave (km/s) = 6.58611 7.75892 7.19645
#
# Compressibility (1/GPa) = 0.01874619
#
# Stress axis : x y z
#
# Youngs Moduli (GPa) = 58.70370 160.57818 136.19443
#
# Poissons Ratio (x) = 0.00201 0.50971
# Poissons Ratio (y) = 0.00073 0.29612
# Poissons Ratio (z) = 0.21970 0.34914
#
# Static dielectric constant tensor:
#      x y z
#    x 3.490330 0.000000 0.226740 
#    y 0.000000 0.781940 0.000000 
#    z 0.226740 0.000000 4.373010 
# 
# 
# High freq. dielectric constant tensor:
#      x y z
#    x 1.855020 0.000000 0.016290 
#    y 0.000000 1.936960 0.000000 
#    z 0.016290 0.000000 1.893760 
# 
# From -- ./inp_files/217470.got.cif
#   From: 2010.06.25/outbox.cif.g09.slc.cpg/sg15_109_cif.got.tgz:217470.got - 2010.06.28 07:06:18.
