data_PCOD8143005
_publ_section_title
;
Structure prediction by ZEFSAII (Michael W. Deem and Ramdas Pophale) SiO2 
 PCOD8143005
Probable space group: C 2/C
;
_chemical_formula_sum "Si O2"
_cell_formula_units_Z 40
_cell_length_a 9.654371
_cell_length_b 15.027970
_cell_length_c 16.505765
_cell_angle_alpha 90.000000
_cell_angle_beta 127.121729
_cell_angle_gamma 90.000000
_cell_volume 1909.465176
_symmetry_space_group_name_H-M "C 2/C"
_symmetry_group_IT_number 15
_symmetry_cell_setting 'monoclinic'
loop_
_space_group_symop_operation_xyz
x,y,z
-x,y,1/2-z
-x,-y,-z
x,-y,1/2+z
1/2+x,1/2+y,z
1/2-x,1/2+y,1/2-z
1/2-x,1/2-y,-z
1/2+x,1/2-y,1/2+z
loop_
_atom_site_type_symbol
_atom_site_label
_atom_site_fract_x
_atom_site_fract_y
_atom_site_fract_z
Si Si1 0.632676 0.463846 0.664766
Si Si2 0.293754 0.853408 0.175966
Si Si3 0.110709 0.569602 0.367756
Si Si4 0.746215 0.086429 0.008600
Si Si5 0.330564 0.836942 0.850855
O O1 0.698628 0.566205 0.689907
O O2 0.696363 0.416447 0.602153
O O3 0.426629 0.459246 0.597921
O O4 0.709302 0.412142 0.768639
O O5 0.500000 0.862910 0.250000
O O6 0.227541 0.850071 0.059651
O O7 0.239351 0.760121 0.197010
O O8 0.112066 0.491227 0.435005
O O9 0.000000 0.537940 0.250000
O O10 0.024879 0.655235 0.380579
O O11 0.664894 0.144770 0.051781
#
# Coordination Sequence:
#
# PCOD8143005 Si02
#       5
#     8   8   8   8   8
#     4  10  21  40  59  82 117 155 186 231 289 341
#     4  11  22  38  60  85 115 154 190 231 288 343
#     4   9  19  36  57  79 114 154 184 226 286 334
#     4  11  20  37  61  86 114 149 191 238 283 336
#     4  11  22  37  59  88 114 148 196 238 276 336
#
# _framework density 20.948274999999999
#
# number of rings (size 3 to 8) (size 9 to 14) (size 15 to 20)
#    0.000    1.600    0.000   10.200    0.000    0.000 
#    0.000   10.000    0.000    2.400    0.000    0.000 
#    0.000    0.000    0.000    0.000    0.000    0.000 
#
# Total GULP energy -247835.476216 kJ/mol
# GULP energy per Si atom -12391.773811 kJ/mol
# Density = 2.090060 g / cm^3
# Si number density = 20.948275 Si / 1000 Ang^3
#
#
#
# Elastic Constant Matrix: (Units=GPa)
#
#
# Indices 1 2 3 4 5 6 
#
# 1 80.4850 51.9540 12.4379 0.0000 6.7048 0.0000
# 2 51.9540 130.4711 33.0759 0.0000 -5.4686 0.0000
# 3 12.4379 33.0759 56.6633 0.0000 -8.4046 0.0000
# 4 0.0000 0.0000 0.0000 24.8821 0.0000 0.5432
# 5 6.7048 -5.4686 -8.4046 0.0000 30.6750 0.0000
# 6 0.0000 0.0000 0.0000 0.5432 0.0000 28.9957
#
#
#
# Elastic Compliance Matrix: (Units=1/GPa)
#
#
# Indices 1 2 3 4 5 6 
#
# 1 0.017492 -0.007059 -0.000493 0.000000 -0.005217 0.000000
# 2 -0.007059 0.011845 -0.005027 0.000000 0.002277 0.000000
# 3 -0.000493 -0.005027 0.021445 0.000000 0.005087 0.000000
# 4 0.000000 0.000000 0.000000 0.040206 0.000000 -0.000753
# 5 -0.005217 0.002277 0.005087 0.000000 0.035540 0.000000
# 6 0.000000 0.000000 0.000000 -0.000753 0.000000 0.034502
#
#
# Mechanical properties :
#
#
# Convention : Reuss Voigt Hill
#
# Bulk Modulus (GPa) = 39.02492 51.39500 45.20996
# Shear Modulus (GPa) = 25.67646 28.25397 26.96522
#
# Velocity S-wave (km/s) = 3.50481 3.67652 3.59169
# Velocity P-wave (km/s) = 5.92012 6.52762 6.23128
#
# Compressibility (1/GPa) = 0.02562465
#
# Stress axis : x y z
#
# Youngs Moduli (GPa) = 57.16833 84.42087 46.63015
#
# Poissons Ratio (x) = 0.59594 0.02298
# Poissons Ratio (y) = 0.40356 0.23442
# Poissons Ratio (z) = 0.02817 0.42440
#
# Static dielectric constant tensor:
#      x y z
#    x 4.012870 0.000000 0.055770 
#    y 0.000000 3.607680 0.000000 
#    z 0.055770 0.000000 3.892340 
# 
# 
# High freq. dielectric constant tensor:
#      x y z
#    x 1.817850 0.000000 0.000990 
#    y 0.000000 1.802650 0.000000 
#    z 0.000990 0.000000 1.821910 
# 
# From -- ./inp_files/190698.got.cif
#   From: 2010.06.25/outbox.cif.g09.slc.cpg/sg15_96_cif.got.tgz:190698.got - 2010.06.28 07:06:18.
