data_PCOD8143456
_publ_section_title
;
Structure prediction by ZEFSAII (Michael W. Deem and Ramdas Pophale) SiO2 
 PCOD8143456
Probable space group: C 2/C
;
_chemical_formula_sum "Si O2"
_cell_formula_units_Z 56
_cell_length_a 16.827261
_cell_length_b 21.812558
_cell_length_c 13.873829
_cell_angle_alpha 90.000000
_cell_angle_beta 146.360856
_cell_angle_gamma 90.000000
_cell_volume 2820.948376
_symmetry_space_group_name_H-M "C 2/C"
_symmetry_group_IT_number 15
_symmetry_cell_setting 'monoclinic'
loop_
_space_group_symop_operation_xyz
x,y,z
-x,y,1/2-z
-x,-y,-z
x,-y,1/2+z
1/2+x,1/2+y,z
1/2-x,1/2+y,1/2-z
1/2-x,1/2-y,-z
1/2+x,1/2-y,1/2+z
loop_
_atom_site_type_symbol
_atom_site_label
_atom_site_fract_x
_atom_site_fract_y
_atom_site_fract_z
Si Si1 0.078852 0.500733 0.728655
Si Si2 0.225876 0.178759 0.737560
Si Si3 0.506799 0.899087 0.504820
Si Si4 0.581357 0.485758 0.931147
Si Si5 0.486711 0.617518 0.622121
Si Si6 0.488467 0.353761 0.624216
Si Si7 0.225278 0.817966 0.719146
O O1 0.006307 0.558348 0.602268
O O2 0.000000 0.492899 0.750000
O O3 0.053438 0.438875 0.643487
O O4 0.247981 0.511271 0.913515
O O5 0.151433 0.181888 0.556709
O O6 0.269679 0.247470 0.807097
O O7 0.117411 0.153699 0.708003
O O8 0.357769 0.133164 0.875446
O O9 0.620474 0.845582 0.599454
O O10 0.500000 0.479316 0.750000
O O11 0.521099 0.546624 0.922519
O O12 0.536224 0.423451 0.940387
O O13 0.500000 0.620273 0.750000
O O14 0.339096 0.648427 0.439309
O O15 0.500000 0.346190 0.750000
O O16 0.630113 0.326585 0.718773
#
# Coordination Sequence:
#
# PCOD8143456 Si02
#       7
#     8   8   8   8   8   8   8
#     4  11  25  41  63  98 132 164 203 263 328 380
#     4  11  24  43  64  92 129 167 215 261 306 377
#     4  11  24  40  64  96 130 165 204 262 332 363
#     4  10  21  40  67  96 122 160 215 255 314 384
#     4  10  23  42  67  94 122 165 214 259 314 376
#     4  10  23  42  67  94 122 165 214 259 314 376
#     4  11  24  43  64  92 129 167 215 261 306 377
#
# _framework density 19.851479999999999
#
# number of rings (size 3 to 8) (size 9 to 14) (size 15 to 20)
#    0.000    1.429    2.857    1.714    8.000    4.571 
#    0.000    2.857    0.000    0.000    0.000    0.000 
#    0.000    0.000    0.000    0.000    0.000    0.000 
#
# Total GULP energy -347143.014900 kJ/mol
# GULP energy per Si atom -12397.964818 kJ/mol
# Density = 1.980630 g / cm^3
# Si number density = 19.851480 Si / 1000 Ang^3
#
#
#
# Elastic Constant Matrix: (Units=GPa)
#
#
# Indices 1 2 3 4 5 6 
#
# 1 76.2810 22.5445 31.7627 0.0000 8.7212 0.0000
# 2 22.5445 90.0000 -1.6721 0.0000 8.8184 0.0000
# 3 31.7627 -1.6721 94.5586 0.0000 5.6413 0.0000
# 4 0.0000 0.0000 0.0000 33.7929 0.0000 4.9936
# 5 8.7212 8.8184 5.6413 0.0000 35.7598 0.0000
# 6 0.0000 0.0000 0.0000 4.9936 0.0000 24.2075
#
#
#
# Elastic Compliance Matrix: (Units=1/GPa)
#
#
# Indices 1 2 3 4 5 6 
#
# 1 0.016926 -0.004127 -0.005626 0.000000 -0.002223 0.000000
# 2 -0.004127 0.012405 0.001744 0.000000 -0.002328 0.000000
# 3 -0.005626 0.001744 0.012558 0.000000 -0.001039 0.000000
# 4 0.000000 0.000000 0.000000 0.030522 0.000000 -0.006296
# 5 -0.002223 -0.002328 -0.001039 0.000000 0.029245 0.000000
# 6 0.000000 0.000000 0.000000 -0.006296 0.000000 0.042608
#
#
# Mechanical properties :
#
#
# Convention : Reuss Voigt Hill
#
# Bulk Modulus (GPa) = 38.65015 40.67887 39.66451
# Shear Modulus (GPa) = 29.60252 32.63232 31.11742
#
# Velocity S-wave (km/s) = 3.86579 4.05881 3.96348
# Velocity P-wave (km/s) = 6.27995 6.51930 6.40074
#
# Compressibility (1/GPa) = 0.02587312
#
# Stress axis : x y z
#
# Youngs Moduli (GPa) = 59.08187 80.61079 79.63029
#
# Poissons Ratio (x) = 0.33264 0.44798
# Poissons Ratio (y) = 0.24380 -0.13890
# Poissons Ratio (z) = 0.33238 -0.14062
#
# Static dielectric constant tensor:
#      x y z
#    x 3.301410 0.000000 0.017810 
#    y 0.000000 4.016070 0.000000 
#    z 0.017810 0.000000 3.880770 
# 
# 
# High freq. dielectric constant tensor:
#      x y z
#    x 1.760030 0.000000 0.002710 
#    y 0.000000 1.789060 0.000000 
#    z 0.002710 0.000000 1.794710 
# 
# From -- ./inp_files/50351.got.cif
#   From: 2010.06.25/outbox.cif.g09.slc.cpg/sg15_26_cif.got.tgz:50351.got - 2010.06.28 07:06:18.
