data_PCOD8143210
_publ_section_title
;
Structure prediction by ZEFSAII (Michael W. Deem and Ramdas Pophale) SiO2 
 PCOD8143210
Probable space group: C 2/C
;
_chemical_formula_sum "Si O2"
_cell_formula_units_Z 52
_cell_length_a 6.758138
_cell_length_b 18.688109
_cell_length_c 27.523026
_cell_angle_alpha 90.000000
_cell_angle_beta 128.640348
_cell_angle_gamma 90.000000
_cell_volume 2715.092528
_symmetry_space_group_name_H-M "C 2/C"
_symmetry_group_IT_number 15
_symmetry_cell_setting 'monoclinic'
loop_
_space_group_symop_operation_xyz
x,y,z
-x,y,1/2-z
-x,-y,-z
x,-y,1/2+z
1/2+x,1/2+y,z
1/2-x,1/2+y,1/2-z
1/2-x,1/2-y,-z
1/2+x,1/2-y,1/2+z
loop_
_atom_site_type_symbol
_atom_site_label
_atom_site_fract_x
_atom_site_fract_y
_atom_site_fract_z
Si Si1 0.694237 0.391542 0.075252
Si Si2 0.740919 0.735523 0.441239
Si Si3 0.000000 0.425127 0.750000
Si Si4 0.902177 0.991174 0.357928
Si Si5 0.143518 0.635819 0.455777
Si Si6 0.540231 0.988181 0.062972
Si Si7 0.792261 0.136731 0.375402
O O1 0.780947 0.309648 0.090977
O O2 0.747405 0.429244 0.135312
O O3 0.843578 0.431240 0.054649
O O4 0.392665 0.393560 0.020875
O O5 0.750000 0.750000 0.500000
O O6 0.499197 0.691161 0.385603
O O7 0.997971 0.693522 0.466304
O O8 0.756843 0.479340 0.713305
O O9 0.959231 0.372452 0.697329
O O10 0.929020 0.058577 0.399957
O O11 0.173777 0.961735 0.382287
O O12 0.217481 0.670670 0.415647
O O13 0.979967 0.566382 0.416007
O O14 0.500000 0.000000 0.000000
#
# Coordination Sequence:
#
# PCOD8143210 Si02
#       7
#     8   8   4   8   8   8   8
#     4  12  24  34  59  97 130 155 205 262 327 374
#     4  12  25  38  58  97 136 166 202 259 330 391
#     4   8  20  44  66  86 116 170 222 254 308 372
#     4  10  21  40  64  87 123 156 213 270 303 379
#     4  12  21  37  60  93 126 172 204 248 321 393
#     4  12  20  33  60  94 120 157 205 254 315 367
#     4  10  21  41  64  85 124 165 215 261 303 394
#
# _framework density 19.152203
#
# number of rings (size 3 to 8) (size 9 to 14) (size 15 to 20)
#    0.923    0.000    6.154    2.769    0.000    0.000 
#    0.000    6.923    6.769    0.000    0.000    0.000 
#    0.000    0.000    0.000    0.000    0.000    0.000 
#
# Total GULP energy -322110.435584 kJ/mol
# GULP energy per Si atom -12388.862907 kJ/mol
# Density = 1.910861 g / cm^3
# Si number density = 19.152203 Si / 1000 Ang^3
#
#
#
# Elastic Constant Matrix: (Units=GPa)
#
#
# Indices 1 2 3 4 5 6 
#
# 1 116.4692 53.3578 34.2016 0.0004 13.3278 0.0002
# 2 53.3578 128.7124 21.9522 0.0001 5.7051 0.0001
# 3 34.2016 21.9522 87.7338 0.0006 16.5422 0.0004
# 4 0.0004 0.0001 0.0006 24.8642 0.0004 0.7321
# 5 13.3278 5.7051 16.5422 0.0004 19.7409 0.0002
# 6 0.0002 0.0001 0.0004 0.7321 0.0002 44.8723
#
#
#
# Elastic Compliance Matrix: (Units=1/GPa)
#
#
# Indices 1 2 3 4 5 6 
#
# 1 0.011841 -0.004248 -0.002705 0.000000 -0.004500 0.000000
# 2 -0.004248 0.009649 -0.000918 0.000000 0.000849 0.000000
# 3 -0.002705 -0.000918 0.014594 0.000000 -0.010138 0.000000
# 4 0.000000 0.000000 0.000000 0.040238 -0.000001 -0.000657
# 5 -0.004500 0.000849 -0.010138 -0.000001 0.061944 0.000000
# 6 0.000000 0.000000 0.000000 -0.000657 0.000000 0.022296
#
#
# Mechanical properties :
#
#
# Convention : Reuss Voigt Hill
#
# Bulk Modulus (GPa) = 49.15932 61.32651 55.24291
# Shear Modulus (GPa) = 27.30963 32.78907 30.04935
#
# Velocity S-wave (km/s) = 3.78024 4.14215 3.96533
# Velocity P-wave (km/s) = 6.69157 7.41395 7.06200
#
# Compressibility (1/GPa) = 0.02034202
#
# Stress axis : x y z
#
# Youngs Moduli (GPa) = 84.44985 103.63442 68.52252
#
# Poissons Ratio (x) = 0.44025 0.18533
# Poissons Ratio (y) = 0.35875 0.06293
# Poissons Ratio (z) = 0.22841 0.09518
#
# Static dielectric constant tensor:
#      x y z
#    x 3.723830 0.000000 0.140950 
#    y 0.000000 3.610090 0.000000 
#    z 0.140950 0.000000 3.139220 
# 
# 
# High freq. dielectric constant tensor:
#      x y z
#    x 1.751670 0.000000 0.009650 
#    y 0.000000 1.745640 0.000000 
#    z 0.009650 0.000000 1.703200 
# 
# From -- ./inp_files/305963.got.cif
#   From: 2010.06.25/outbox.cif.g09.slc.cpg/sg15_153_cif.got.tgz:305963.got - 2010.06.28 07:06:18.
