data_PCOD8143962
_publ_section_title
;
Structure prediction by ZEFSAII (Michael W. Deem and Ramdas Pophale) SiO2 
 PCOD8143962
Probable space group: C 2/C
;
_chemical_formula_sum "Si O2"
_cell_formula_units_Z 56
_cell_length_a 28.071042
_cell_length_b 8.055648
_cell_length_c 16.739413
_cell_angle_alpha 90.000000
_cell_angle_beta 141.298049
_cell_angle_gamma 90.000000
_cell_volume 2366.825814
_symmetry_space_group_name_H-M "C 2/C"
_symmetry_group_IT_number 15
_symmetry_cell_setting 'monoclinic'
loop_
_space_group_symop_operation_xyz
x,y,z
-x,y,1/2-z
-x,-y,-z
x,-y,1/2+z
1/2+x,1/2+y,z
1/2-x,1/2+y,1/2-z
1/2-x,1/2-y,-z
1/2+x,1/2-y,1/2+z
loop_
_atom_site_type_symbol
_atom_site_label
_atom_site_fract_x
_atom_site_fract_y
_atom_site_fract_z
Si Si1 0.367645 0.467429 0.673728
Si Si2 0.049767 0.669677 0.486258
Si Si3 0.116392 0.339199 0.771499
Si Si4 0.472502 0.524281 0.055618
Si Si5 0.159640 0.162870 0.524982
Si Si6 0.824770 0.337040 0.219383
Si Si7 0.918181 0.476249 0.120775
O O1 0.351600 0.650116 0.692601
O O2 0.456336 0.416010 0.798979
O O3 0.348259 0.477434 0.554247
O O4 0.319255 0.322041 0.653530
O O5 0.097368 0.677471 0.629695
O O6 0.085683 0.534534 0.475617
O O7 0.959250 0.638999 0.383718
O O8 0.055895 0.846559 0.450128
O O9 0.175915 0.482513 0.824715
O O10 0.096464 0.371713 0.838083
O O11 0.500000 0.500000 0.000000
O O12 0.399420 0.643428 0.977637
O O13 0.247126 0.165638 0.671016
O O14 0.143724 0.331805 0.454871
O O15 0.000000 0.398759 0.250000
#
# Coordination Sequence:
#
# PCOD8143962 Si02
#       7
#     8   8   8   8   8   8   8
#     4  11  23  45  74 100 138 184 237 286 348 420
#     4  10  23  43  68 100 136 180 234 289 340 414
#     4  10  23  42  74 101 132 189 237 285 346 415
#     4  11  23  44  71  96 133 180 238 283 337 409
#     4  12  26  42  69 105 139 189 227 287 358 413
#     4  12  25  45  66 106 147 176 233 289 357 420
#     4  10  21  41  68 101 136 178 240 286 341 419
#
# _framework density 23.66038
#
# number of rings (size 3 to 8) (size 9 to 14) (size 15 to 20)
#    0.000    1.143    2.857    3.000    2.000    6.286 
#    2.571    0.000    0.000    0.000    0.000    0.000 
#    0.000    0.000    0.000    0.000    0.000    0.000 
#
# Total GULP energy -346956.101298 kJ/mol
# GULP energy per Si atom -12391.289332 kJ/mol
# Density = 2.360653 g / cm^3
# Si number density = 23.660380 Si / 1000 Ang^3
#
#
#
# Elastic Constant Matrix: (Units=GPa)
#
#
# Indices 1 2 3 4 5 6 
#
# 1 103.3744 39.6551 38.0389 0.0000 11.2880 0.0000
# 2 39.6551 127.8947 31.1553 0.0000 24.5021 0.0000
# 3 38.0389 31.1553 73.3380 0.0000 1.8623 0.0000
# 4 0.0000 0.0000 0.0000 17.3442 0.0000 -8.5775
# 5 11.2880 24.5021 1.8623 0.0000 27.6270 0.0000
# 6 0.0000 0.0000 0.0000 -8.5775 0.0000 5.0285
#
#
#
# Elastic Compliance Matrix: (Units=1/GPa)
#
#
# Indices 1 2 3 4 5 6 
#
# 1 0.012901 -0.002001 -0.005763 0.000000 -0.003108 0.000000
# 2 -0.002001 0.010918 -0.003381 0.000000 -0.008637 0.000001
# 3 -0.005763 -0.003381 0.017955 0.000000 0.004143 0.000000
# 4 0.000000 0.000000 0.000000 0.368597 0.000000 0.628743
# 5 -0.003108 -0.008637 0.004143 0.000000 0.044848 0.000000
# 6 0.000000 0.000001 0.000000 0.628743 0.000000 1.271357
#
#
# Mechanical properties :
#
#
# Convention : Reuss Voigt Hill
#
# Bulk Modulus (GPa) = 51.32008 58.03396 54.67702
# Shear Modulus (GPa) = 2.84842 23.05047 12.94944
#
# Velocity S-wave (km/s) = 1.09840 3.12464 2.34199
# Velocity P-wave (km/s) = 4.83177 6.13180 5.52019
#
# Compressibility (1/GPa) = 0.01948555
#
# Stress axis : x y z
#
# Youngs Moduli (GPa) = 77.51359 91.59491 55.69337
#
# Poissons Ratio (x) = 0.18327 0.32094
# Poissons Ratio (y) = 0.15509 0.18829
# Poissons Ratio (z) = 0.44667 0.30967
#
# Static dielectric constant tensor:
#      x y z
#    x 3.818450 0.000000 0.075340 
#    y 0.000000 4.415580 0.000000 
#    z 0.075340 0.000000 4.075700 
# 
# 
# High freq. dielectric constant tensor:
#      x y z
#    x 1.911210 0.000000 0.000990 
#    y 0.000000 1.949880 0.000000 
#    z 0.000990 0.000000 1.926560 
# 
# From -- ./inp_files/222087.got.cif
#   From: 2010.06.25/outbox.cif.g09.slc.cpg/sg15_112_cif.got.tgz:222087.got - 2010.06.28 07:06:18.
