data_PCOD8143048
_publ_section_title
;
Structure prediction by ZEFSAII (Michael W. Deem and Ramdas Pophale) SiO2 
 PCOD8143048
Probable space group: C 2/C
;
_chemical_formula_sum "Si O2"
_cell_formula_units_Z 44
_cell_length_a 20.945206
_cell_length_b 13.734544
_cell_length_c 11.479768
_cell_angle_alpha 90.000000
_cell_angle_beta 43.160881
_cell_angle_gamma 90.000000
_cell_volume 2259.016258
_symmetry_space_group_name_H-M "C 2/C"
_symmetry_group_IT_number 15
_symmetry_cell_setting 'monoclinic'
loop_
_space_group_symop_operation_xyz
x,y,z
-x,y,1/2-z
-x,-y,-z
x,-y,1/2+z
1/2+x,1/2+y,z
1/2-x,1/2+y,1/2-z
1/2-x,1/2-y,-z
1/2+x,1/2-y,1/2+z
loop_
_atom_site_type_symbol
_atom_site_label
_atom_site_fract_x
_atom_site_fract_y
_atom_site_fract_z
Si Si1 0.587580 0.248244 0.213365
Si Si2 0.538909 0.822005 0.424599
Si Si3 0.842534 0.408442 0.038424
Si Si4 0.500000 0.052733 0.750000
Si Si5 0.636264 0.561722 0.772599
Si Si6 0.971971 0.882986 0.657476
O O1 0.500000 0.276773 0.250000
O O2 0.552084 0.184808 0.371091
O O3 0.637316 0.347625 0.183362
O O4 0.660745 0.185423 0.041780
O O5 0.622684 0.876586 0.379805
O O6 0.513004 0.881438 0.345332
O O7 0.569560 0.712500 0.350189
O O8 0.739407 0.452596 0.188102
O O9 0.909778 0.486925 0.889849
O O10 0.607990 0.464938 0.739531
O O11 0.565428 0.578449 0.972122
O O12 0.000000 0.855202 0.750000
#
# Coordination Sequence:
#
# PCOD8143048 Si02
#       6
#     8   8   8   4   8   8
#     4   9  18  38  63  88 122 156 197 246 293 357
#     4  10  21  40  61  85 121 161 200 245 305 352
#     4  11  22  38  60  94 120 159 202 246 301 358
#     4  12  22  40  62  82 124 160 200 254 296 362
#     4  10  22  38  63  92 118 157 202 245 301 360
#     4  10  21  43  62  86 122 161 199 248 302 356
#
# _framework density 19.477506000000002
#
# number of rings (size 3 to 8) (size 9 to 14) (size 15 to 20)
#    0.000    1.818    3.636    1.636    0.000    2.909 
#    6.545    1.818    0.000    0.000    0.000    0.000 
#    0.000    0.000    0.000    0.000    0.000    0.000 
#
# Total GULP energy -272844.806153 kJ/mol
# GULP energy per Si atom -12402.036643 kJ/mol
# Density = 1.943317 g / cm^3
# Si number density = 19.477506 Si / 1000 Ang^3
#
#
#
# Elastic Constant Matrix: (Units=GPa)
#
#
# Indices 1 2 3 4 5 6 
#
# 1 90.3592 29.6353 41.2968 0.0000 6.4058 0.0000
# 2 29.6353 78.7484 23.4671 0.0000 -1.9233 0.0000
# 3 41.2968 23.4671 51.5530 0.0000 -4.5131 0.0000
# 4 0.0000 0.0000 0.0000 16.1466 0.0000 7.8026
# 5 6.4058 -1.9233 -4.5131 0.0000 44.4046 0.0000
# 6 0.0000 0.0000 0.0000 7.8026 0.0000 33.1729
#
#
#
# Elastic Compliance Matrix: (Units=1/GPa)
#
#
# Indices 1 2 3 4 5 6 
#
# 1 0.018769 -0.002980 -0.014052 0.000000 -0.004265 0.000000
# 2 -0.002980 0.015165 -0.004461 0.000000 0.000633 0.000000
# 3 -0.014052 -0.004461 0.033139 0.000000 0.005202 0.000000
# 4 0.000000 0.000000 0.000000 0.069875 0.000000 -0.016435
# 5 -0.004265 0.000633 0.005202 0.000000 0.023692 0.000000
# 6 0.000000 0.000000 0.000000 -0.016435 0.000000 0.034011
#
#
# Mechanical properties :
#
#
# Convention : Reuss Voigt Hill
#
# Bulk Modulus (GPa) = 41.51307 45.49544 43.50425
# Shear Modulus (GPa) = 20.35303 27.16223 23.75763
#
# Velocity S-wave (km/s) = 3.23608 3.73841 3.49628
# Velocity P-wave (km/s) = 5.94328 6.48405 6.21954
#
# Compressibility (1/GPa) = 0.02408880
#
# Stress axis : x y z
#
# Youngs Moduli (GPa) = 53.28047 65.94203 30.17548
#
# Poissons Ratio (x) = 0.19650 0.42401
# Poissons Ratio (y) = 0.15877 0.13460
# Poissons Ratio (z) = 0.74867 0.29414
#
# Static dielectric constant tensor:
#      x y z
#    x 3.534590 0.000000 0.186200 
#    y 0.000000 3.722190 0.000000 
#    z 0.186200 0.000000 3.438020 
# 
# 
# High freq. dielectric constant tensor:
#      x y z
#    x 1.758140 0.000000 0.015000 
#    y 0.000000 1.769860 0.000000 
#    z 0.015000 0.000000 1.744520 
# 
# From -- ./inp_files/104069.got.cif
#   From: 2010.06.25/outbox.cif.g09.slc.cpg/sg15_53_cif.got.tgz:104069.got - 2010.06.28 07:06:18.
