data_PCOD8143846
_publ_section_title
;
Structure prediction by ZEFSAII (Michael W. Deem and Ramdas Pophale) SiO2 
 PCOD8143846
Probable space group: C 2/C
;
_chemical_formula_sum "Si O2"
_cell_formula_units_Z 56
_cell_length_a 13.976590
_cell_length_b 11.782604
_cell_length_c 18.519462
_cell_angle_alpha 90.000000
_cell_angle_beta 54.138271
_cell_angle_gamma 90.000000
_cell_volume 2471.656189
_symmetry_space_group_name_H-M "C 2/C"
_symmetry_group_IT_number 15
_symmetry_cell_setting 'monoclinic'
loop_
_space_group_symop_operation_xyz
x,y,z
-x,y,1/2-z
-x,-y,-z
x,-y,1/2+z
1/2+x,1/2+y,z
1/2-x,1/2+y,1/2-z
1/2-x,1/2-y,-z
1/2+x,1/2-y,1/2+z
loop_
_atom_site_type_symbol
_atom_site_label
_atom_site_fract_x
_atom_site_fract_y
_atom_site_fract_z
Si Si1 0.847455 0.521163 0.928466
Si Si2 0.657978 0.393721 0.228169
Si Si3 0.637196 0.796061 0.189315
Si Si4 0.804046 0.364924 0.820973
Si Si5 0.441730 0.466792 0.601740
Si Si6 0.886911 0.549131 0.679134
Si Si7 0.859785 0.940437 0.878148
O O1 0.801793 0.623661 0.897398
O O2 0.838777 0.403573 0.887107
O O3 0.976539 0.551898 0.905035
O O4 0.758671 0.513905 0.033454
O O5 0.652835 0.262042 0.211712
O O6 0.605876 0.424151 0.331296
O O7 0.790728 0.450282 0.157853
O O8 0.588131 0.459796 0.195399
O O9 0.500000 0.825212 0.250000
O O10 0.669369 0.837861 0.255406
O O11 0.669152 0.666442 0.160731
O O12 0.663913 0.379064 0.867966
O O13 0.880300 0.440509 0.733340
O O14 0.500000 0.500000 0.500000
O O15 0.540917 0.404526 0.607020
#
# Coordination Sequence:
#
# PCOD8143846 Si02
#       7
#     8   8   8   8   8   8   8
#     4  10  21  41  65  97 132 175 223 276 339 402
#     4  11  26  42  68 100 136 177 225 280 345 404
#     4   9  19  37  64  91 127 173 223 273 329 388
#     4  10  22  45  68  93 135 179 225 268 342 409
#     4  11  24  47  69 100 136 182 233 280 342 408
#     4   9  22  41  66  92 130 179 220 274 338 398
#     4  12  24  40  67 105 136 171 228 288 336 403
#
# _framework density 22.656870999999999
#
# number of rings (size 3 to 8) (size 9 to 14) (size 15 to 20)
#    0.000    1.714    1.429    3.000    8.000    3.429 
#    2.571    0.000    0.000    0.000    0.000    0.000 
#    0.000    0.000    0.000    0.000    0.000    0.000 
#
# Total GULP energy -346952.445369 kJ/mol
# GULP energy per Si atom -12391.158763 kJ/mol
# Density = 2.260530 g / cm^3
# Si number density = 22.656871 Si / 1000 Ang^3
#
#
#
# Elastic Constant Matrix: (Units=GPa)
#
#
# Indices 1 2 3 4 5 6 
#
# 1 77.9577 -1.8132 32.6472 0.0000 -9.7399 0.0000
# 2 -1.8132 144.1109 53.2495 0.0000 9.6439 0.0000
# 3 32.6472 53.2495 109.7178 0.0000 -6.5924 0.0000
# 4 0.0000 0.0000 0.0000 24.3201 0.0000 -1.1005
# 5 -9.7399 9.6439 -6.5924 0.0000 32.0264 0.0000
# 6 0.0000 0.0000 0.0000 -1.1005 0.0000 15.0067
#
#
#
# Elastic Compliance Matrix: (Units=1/GPa)
#
#
# Indices 1 2 3 4 5 6 
#
# 1 0.015511 0.001989 -0.005400 0.000000 0.003007 0.000000
# 2 0.001989 0.009101 -0.005201 0.000000 -0.003206 0.000000
# 3 -0.005400 -0.005201 0.013407 0.000000 0.002684 0.000000
# 4 0.000000 0.000000 0.000000 0.041255 0.000000 0.003025
# 5 0.003007 -0.003206 0.002684 0.000000 0.033656 0.000000
# 6 0.000000 0.000000 0.000000 0.003025 0.000000 0.066859
#
#
# Mechanical properties :
#
#
# Convention : Reuss Voigt Hill
#
# Bulk Modulus (GPa) = 48.09129 55.55040 51.82085
# Shear Modulus (GPa) = 24.51647 30.78416 27.65032
#
# Velocity S-wave (km/s) = 3.29306 3.69007 3.49720
# Velocity P-wave (km/s) = 5.97754 6.53658 6.26330
#
# Compressibility (1/GPa) = 0.02079379
#
# Stress axis : x y z
#
# Youngs Moduli (GPa) = 64.47095 109.88273 74.58904
#
# Poissons Ratio (x) = -0.21860 0.40280
# Poissons Ratio (y) = -0.12826 0.38797
# Poissons Ratio (z) = 0.34816 0.57154
#
# Static dielectric constant tensor:
#      x y z
#    x 4.524900 0.000000 0.064250 
#    y 0.000000 3.767300 0.000000 
#    z 0.064250 0.000000 3.957170 
# 
# 
# High freq. dielectric constant tensor:
#      x y z
#    x 1.912610 0.000000 -0.007300 
#    y 0.000000 1.872730 0.000000 
#    z -0.007300 0.000000 1.884340 
# 
# From -- ./inp_files/204364.got.cif
#   From: 2010.06.25/outbox.cif.g09.slc.cpg/sg15_103_cif.got.tgz:204364.got - 2010.06.28 07:06:18.
