data_PCOD8143497
_publ_section_title
;
Structure prediction by ZEFSAII (Michael W. Deem and Ramdas Pophale) SiO2 
 PCOD8143497
Probable space group: C 2/C
;
_chemical_formula_sum "Si O2"
_cell_formula_units_Z 56
_cell_length_a 26.552624
_cell_length_b 10.849207
_cell_length_c 13.972521
_cell_angle_alpha 90.000000
_cell_angle_beta 141.908956
_cell_angle_gamma 90.000000
_cell_volume 2483.156182
_symmetry_space_group_name_H-M "C 2/C"
_symmetry_group_IT_number 15
_symmetry_cell_setting 'monoclinic'
loop_
_space_group_symop_operation_xyz
x,y,z
-x,y,1/2-z
-x,-y,-z
x,-y,1/2+z
1/2+x,1/2+y,z
1/2-x,1/2+y,1/2-z
1/2-x,1/2-y,-z
1/2+x,1/2-y,1/2+z
loop_
_atom_site_type_symbol
_atom_site_label
_atom_site_fract_x
_atom_site_fract_y
_atom_site_fract_z
Si Si1 0.090201 0.884466 0.900217
Si Si2 0.212871 0.778767 0.592058
Si Si3 0.500969 0.730027 0.966569
Si Si4 0.641155 0.571880 0.823882
Si Si5 0.075587 0.581850 0.434896
Si Si6 0.124476 0.317124 0.576330
Si Si7 0.638379 0.556576 0.136569
O O1 0.000000 0.837203 0.750000
O O2 0.128350 0.948149 0.865547
O O3 0.140796 0.761267 0.003822
O O4 0.086503 0.976066 0.985210
O O5 0.204472 0.844619 0.477011
O O6 0.149775 0.664042 0.501266
O O7 0.310355 0.764069 0.747440
O O8 0.201889 0.865849 0.669453
O O9 0.441894 0.648809 0.810980
O O10 0.533291 0.847796 0.958104
O O11 0.461908 0.778293 0.006125
O O12 0.577237 0.642942 0.105702
O O13 0.680509 0.530572 0.780519
O O14 0.120931 0.460936 0.544229
O O15 0.000000 0.551117 0.250000
#
# Coordination Sequence:
#
# PCOD8143497 Si02
#       7
#     8   8   8   8   8   8   8
#     4  11  21  36  67  98 128 166 219 279 338 389
#     4  10  26  43  69  97 137 181 223 283 345 396
#     4  11  21  41  68  97 127 180 225 276 335 411
#     4  11  20  39  69  96 125 170 228 272 334 395
#     4  11  24  46  67  95 141 188 224 271 347 422
#     4  12  26  42  66 100 138 176 229 286 339 406
#     4  10  21  40  68  97 133 163 226 288 330 392
#
# _framework density 22.551943999999999
#
# number of rings (size 3 to 8) (size 9 to 14) (size 15 to 20)
#    0.000    1.143    4.286    2.143    4.000    0.571 
#    2.571    0.714    0.000    0.000    0.000    0.000 
#    0.000    0.000    0.000    0.000    0.000    0.000 
#
# Total GULP energy -346943.097490 kJ/mol
# GULP energy per Si atom -12390.824910 kJ/mol
# Density = 2.250062 g / cm^3
# Si number density = 22.551944 Si / 1000 Ang^3
#
#
#
# Elastic Constant Matrix: (Units=GPa)
#
#
# Indices 1 2 3 4 5 6 
#
# 1 55.4727 13.5891 5.9260 0.0000 -10.5618 0.0000
# 2 13.5891 100.1663 9.1344 0.0000 -7.9941 0.0000
# 3 5.9260 9.1344 74.2901 0.0000 -12.2491 0.0000
# 4 0.0000 0.0000 0.0000 34.0241 0.0000 -6.5510
# 5 -10.5618 -7.9941 -12.2491 0.0000 29.7576 0.0000
# 6 0.0000 0.0000 0.0000 -6.5510 0.0000 27.0745
#
#
#
# Elastic Compliance Matrix: (Units=1/GPa)
#
#
# Indices 1 2 3 4 5 6 
#
# 1 0.019789 -0.002155 -0.000269 0.000000 0.006334 0.000000
# 2 -0.002155 0.010488 -0.000836 0.000000 0.001709 0.000000
# 3 -0.000269 -0.000836 0.014518 0.000000 0.005656 0.000000
# 4 0.000000 0.000000 0.000000 0.030827 0.000000 0.007459
# 5 0.006334 0.001709 0.005656 0.000000 0.038640 0.000000
# 6 0.000000 0.000000 0.000000 0.007459 0.000000 0.038740
#
#
# Mechanical properties :
#
#
# Convention : Reuss Voigt Hill
#
# Bulk Modulus (GPa) = 26.12636 31.91421 29.02028
# Shear Modulus (GPa) = 29.02237 31.58986 30.30611
#
# Velocity S-wave (km/s) = 3.59125 3.74673 3.66981
# Velocity P-wave (km/s) = 5.36714 5.73581 5.55453
#
# Compressibility (1/GPa) = 0.03827552
#
# Stress axis : x y z
#
# Youngs Moduli (GPa) = 50.53185 95.34416 68.88220
#
# Poissons Ratio (x) = 0.20544 0.01855
# Poissons Ratio (y) = 0.10888 0.05758
# Poissons Ratio (z) = 0.01361 0.07971
#
# Static dielectric constant tensor:
#      x y z
#    x 3.942870 0.000000 -0.154030 
#    y 0.000000 4.242610 0.000000 
#    z -0.154030 0.000000 4.041940 
# 
# 
# High freq. dielectric constant tensor:
#      x y z
#    x 1.881480 0.000000 -0.011170 
#    y 0.000000 1.900320 0.000000 
#    z -0.011170 0.000000 1.885780 
# 
# From -- ./inp_files/177638.got.cif
#   From: 2010.06.25/outbox.cif.g09.slc.cpg/sg15_89_cif.got.tgz:177638.got - 2010.06.28 07:06:18.
