data_PCOD8143890
_publ_section_title
;
Structure prediction by ZEFSAII (Michael W. Deem and Ramdas Pophale) SiO2 
 PCOD8143890
Probable space group: C 2/C
;
_chemical_formula_sum "Si O2"
_cell_formula_units_Z 44
_cell_length_a 9.116063
_cell_length_b 10.808675
_cell_length_c 22.938632
_cell_angle_alpha 90.000000
_cell_angle_beta 108.189240
_cell_angle_gamma 90.000000
_cell_volume 2147.261443
_symmetry_space_group_name_H-M "C 2/C"
_symmetry_group_IT_number 15
_symmetry_cell_setting 'monoclinic'
loop_
_space_group_symop_operation_xyz
x,y,z
-x,y,1/2-z
-x,-y,-z
x,-y,1/2+z
1/2+x,1/2+y,z
1/2-x,1/2+y,1/2-z
1/2-x,1/2-y,-z
1/2+x,1/2-y,1/2+z
loop_
_atom_site_type_symbol
_atom_site_label
_atom_site_fract_x
_atom_site_fract_y
_atom_site_fract_z
Si Si1 0.151051 0.632578 0.967969
Si Si2 0.372018 0.138787 0.012362
Si Si3 0.096425 0.367967 0.650250
Si Si4 0.179735 0.616206 0.719753
Si Si5 0.866841 0.692049 0.663529
Si Si6 0.500000 0.277661 0.250000
O O1 0.209068 0.497983 0.999759
O O2 0.165197 0.621830 0.900486
O O3 0.250000 0.750000 0.000000
O O4 0.974256 0.654582 0.966670
O O5 0.486028 0.144470 0.081437
O O6 0.250000 0.250000 0.000000
O O7 0.113950 0.506653 0.673024
O O8 0.265841 0.316163 0.655334
O O9 0.021511 0.299288 0.694825
O O10 0.182466 0.596448 0.790435
O O11 0.349529 0.641932 0.717660
O O12 0.050889 0.724941 0.692298
#
# Coordination Sequence:
#
# PCOD8143890 Si02
#       6
#     8   8   8   8   8   4
#     4  11  23  45  67  95 136 180 217 280 332 398
#     4  11  26  42  69  99 133 178 226 277 333 396
#     4  11  22  42  64  93 132 169 220 274 330 397
#     4  10  22  41  64  91 130 168 212 274 335 384
#     4  10  21  41  66  93 129 172 221 266 338 394
#     4  10  24  36  64  96 122 164 218 268 328 398
#
# _framework density 20.491218
#
# number of rings (size 3 to 8) (size 9 to 14) (size 15 to 20)
#    0.000    1.455    3.636    1.091    2.545    3.636 
#    0.000    1.818    0.000    0.000    0.000    0.000 
#    0.000    0.000    0.000    0.000    0.000    0.000 
#
# Total GULP energy -272579.370012 kJ/mol
# GULP energy per Si atom -12389.971364 kJ/mol
# Density = 2.044458 g / cm^3
# Si number density = 20.491218 Si / 1000 Ang^3
#
#
#
# Elastic Constant Matrix: (Units=GPa)
#
#
# Indices 1 2 3 4 5 6 
#
# 1 139.0491 66.5636 51.0488 0.0000 12.0175 0.0000
# 2 66.5636 126.0686 48.1834 0.0000 15.7386 0.0000
# 3 51.0488 48.1834 102.1441 0.0000 4.3577 0.0000
# 4 0.0000 0.0000 0.0000 31.9170 0.0000 7.9859
# 5 12.0175 15.7386 4.3577 0.0000 37.5675 0.0000
# 6 0.0000 0.0000 0.0000 7.9859 0.0000 32.1506
#
#
#
# Elastic Compliance Matrix: (Units=1/GPa)
#
#
# Indices 1 2 3 4 5 6 
#
# 1 0.010463 -0.004137 -0.003225 0.000000 -0.001240 0.000000
# 2 -0.004137 0.011806 -0.003363 0.000000 -0.003232 0.000000
# 3 -0.003225 -0.003363 0.012948 0.000000 0.000939 0.000000
# 4 0.000000 0.000000 0.000000 0.033408 0.000000 -0.008298
# 5 -0.001240 -0.003232 0.000939 0.000000 0.028261 0.000000
# 6 0.000000 0.000000 0.000000 -0.008298 0.000000 0.033165
#
#
# Mechanical properties :
#
#
# Convention : Reuss Voigt Hill
#
# Bulk Modulus (GPa) = 72.64057 77.65039 75.14548
# Shear Modulus (GPa) = 32.03289 33.75811 32.89550
#
# Velocity S-wave (km/s) = 3.95808 4.06327 4.01102
# Velocity P-wave (km/s) = 7.51100 7.74534 7.62907
#
# Compressibility (1/GPa) = 0.01376641
#
# Stress axis : x y z
#
# Youngs Moduli (GPa) = 95.57226 84.70525 77.23064
#
# Poissons Ratio (x) = 0.35045 0.24905
# Poissons Ratio (y) = 0.39541 0.25975
# Poissons Ratio (z) = 0.30819 0.28489
#
# Static dielectric constant tensor:
#      x y z
#    x 4.081280 0.000000 -0.140150 
#    y 0.000000 3.796680 0.000000 
#    z -0.140150 0.000000 3.927520 
# 
# 
# High freq. dielectric constant tensor:
#      x y z
#    x 1.811320 0.000000 -0.015970 
#    y 0.000000 1.781580 0.000000 
#    z -0.015970 0.000000 1.815160 
# 
# From -- ./inp_files/230193.got.cif
#   From: 2010.06.25/outbox.cif.g09.slc.cpg/sg15_116_cif.got.tgz:230193.got - 2010.06.28 07:06:18.
