data_PCOD8143785
_publ_section_title
;
Structure prediction by ZEFSAII (Michael W. Deem and Ramdas Pophale) SiO2 
 PCOD8143785
Probable space group: C 2/C
;
_chemical_formula_sum "Si O2"
_cell_formula_units_Z 60
_cell_length_a 8.519683
_cell_length_b 22.201916
_cell_length_c 15.595337
_cell_angle_alpha 90.000000
_cell_angle_beta 117.405748
_cell_angle_gamma 90.000000
_cell_volume 2618.838608
_symmetry_space_group_name_H-M "C 2/C"
_symmetry_group_IT_number 15
_symmetry_cell_setting 'monoclinic'
loop_
_space_group_symop_operation_xyz
x,y,z
-x,y,1/2-z
-x,-y,-z
x,-y,1/2+z
1/2+x,1/2+y,z
1/2-x,1/2+y,1/2-z
1/2-x,1/2-y,-z
1/2+x,1/2-y,1/2+z
loop_
_atom_site_type_symbol
_atom_site_label
_atom_site_fract_x
_atom_site_fract_y
_atom_site_fract_z
Si Si1 0.373663 0.224069 0.454438
Si Si2 0.102001 0.614056 0.490543
Si Si3 0.859930 0.018539 0.590052
Si Si4 0.676014 0.332381 0.749657
Si Si5 0.669801 0.566712 0.572287
Si Si6 0.000000 0.550282 0.750000
Si Si7 0.597285 0.670253 0.041857
Si Si8 0.175516 0.453891 0.680314
O O1 0.250000 0.250000 0.500000
O O2 0.472058 0.161415 0.506731
O O3 0.272638 0.213852 0.338831
O O4 0.522354 0.273421 0.469570
O O5 0.239903 0.577487 0.584532
O O6 0.216071 0.649331 0.448031
O O7 0.988062 0.560377 0.422293
O O8 0.060655 0.040264 0.626305
O O9 0.793858 0.986825 0.485554
O O10 0.845066 0.972477 0.664926
O O11 0.500000 0.354406 0.750000
O O12 0.631980 0.303934 0.646408
O O13 0.786186 0.392908 0.757503
O O14 0.863384 0.589344 0.656401
O O15 0.555459 0.618838 0.497293
O O16 0.868980 0.507957 0.769108
#
# Coordination Sequence:
#
# PCOD8143785 Si02
#       8
#     8   8   8   8   8   4   8   8
#     4  11  24  42  66 100 129 169 231 282 339 399
#     4  10  22  41  66  98 131 183 223 278 343 402
#     4  10  21  41  64  96 138 180 223 274 345 409
#     4  11  23  40  68 100 123 175 226 280 340 394
#     4  10  24  40  64  99 137 180 222 283 346 408
#     4  12  24  38  58 104 138 178 226 276 344 408
#     4  11  23  46  69  94 138 175 230 286 339 407
#     4  11  23  36  64  98 136 174 228 271 327 420
#
# _framework density 22.910920000000001
#
# number of rings (size 3 to 8) (size 9 to 14) (size 15 to 20)
#    0.000    1.333    2.667    2.400    7.467    1.600 
#    1.200    1.333    0.000    3.200    0.000    0.000 
#    0.000    0.000    0.000    0.000    0.000    0.000 
#
# Total GULP energy -371753.801864 kJ/mol
# GULP energy per Si atom -12391.793395 kJ/mol
# Density = 2.285877 g / cm^3
# Si number density = 22.910920 Si / 1000 Ang^3
#
#
#
# Elastic Constant Matrix: (Units=GPa)
#
#
# Indices 1 2 3 4 5 6 
#
# 1 80.0059 23.8209 47.8610 0.0000 7.3075 0.0000
# 2 23.8209 84.6507 40.9356 0.0000 4.0124 0.0000
# 3 47.8610 40.9356 107.6277 0.0000 11.3529 0.0000
# 4 0.0000 0.0000 0.0000 24.8844 0.0000 -0.7608
# 5 7.3075 4.0124 11.3529 0.0000 32.0414 0.0000
# 6 0.0000 0.0000 0.0000 -0.7608 0.0000 38.9800
#
#
#
# Elastic Compliance Matrix: (Units=1/GPa)
#
#
# Indices 1 2 3 4 5 6 
#
# 1 0.017213 -0.001405 -0.006985 0.000000 -0.001275 0.000000
# 2 -0.001405 0.014591 -0.004951 0.000000 0.000247 0.000000
# 3 -0.006985 -0.004951 0.014593 0.000000 -0.002957 0.000000
# 4 0.000000 0.000000 0.000000 0.040210 0.000000 0.000785
# 5 -0.001275 0.000247 -0.002957 0.000000 0.032517 0.000000
# 6 0.000000 0.000000 0.000000 0.000785 0.000000 0.025670
#
#
# Mechanical properties :
#
#
# Convention : Reuss Voigt Hill
#
# Bulk Modulus (GPa) = 50.72688 55.27990 53.00339
# Shear Modulus (GPa) = 28.08248 29.82561 28.95404
#
# Velocity S-wave (km/s) = 3.50483 3.61197 3.55881
# Velocity P-wave (km/s) = 6.21027 6.44792 6.33021
#
# Compressibility (1/GPa) = 0.01971341
#
# Stress axis : x y z
#
# Youngs Moduli (GPa) = 58.09669 68.53494 68.52795
#
# Poissons Ratio (x) = 0.09631 0.47869
# Poissons Ratio (y) = 0.08164 0.33927
# Poissons Ratio (z) = 0.40583 0.33931
#
# Static dielectric constant tensor:
#      x y z
#    x 4.352060 0.000000 0.148310 
#    y 0.000000 4.003990 0.000000 
#    z 0.148310 0.000000 3.975870 
# 
# 
# High freq. dielectric constant tensor:
#      x y z
#    x 1.924970 0.000000 0.013970 
#    y 0.000000 1.886870 0.000000 
#    z 0.013970 0.000000 1.884790 
# 
# From -- ./inp_files/137907.got.cif
#   From: 2010.06.25/outbox.cif.g09.slc.cpg/sg15_69_cif.got.tgz:137907.got - 2010.06.28 07:06:18.
