data_PCOD8143143
_publ_section_title
;
Structure prediction by ZEFSAII (Michael W. Deem and Ramdas Pophale) SiO2 
 PCOD8143143
Probable space group: C 2/C
;
_chemical_formula_sum "Si O2"
_cell_formula_units_Z 40
_cell_length_a 30.379546
_cell_length_b 6.380808
_cell_length_c 10.027235
_cell_angle_alpha 90.000000
_cell_angle_beta 71.003843
_cell_angle_gamma 90.000000
_cell_volume 1837.884621
_symmetry_space_group_name_H-M "C 2/C"
_symmetry_group_IT_number 15
_symmetry_cell_setting 'monoclinic'
loop_
_space_group_symop_operation_xyz
x,y,z
-x,y,1/2-z
-x,-y,-z
x,-y,1/2+z
1/2+x,1/2+y,z
1/2-x,1/2+y,1/2-z
1/2-x,1/2-y,-z
1/2+x,1/2-y,1/2+z
loop_
_atom_site_type_symbol
_atom_site_label
_atom_site_fract_x
_atom_site_fract_y
_atom_site_fract_z
Si Si1 0.048394 0.292689 0.745557
Si Si2 0.168606 0.366261 0.406727
Si Si3 0.799234 0.671427 0.903196
Si Si4 0.874805 0.986041 0.924226
Si Si5 0.077385 0.390431 0.995558
O O1 0.043479 0.376457 0.901449
O O2 0.053652 0.491064 0.642145
O O3 0.000000 0.179596 0.750000
O O4 0.092605 0.137149 0.697080
O O5 0.188623 0.468487 0.521373
O O6 0.205106 0.387583 0.248788
O O7 0.122680 0.484569 0.402271
O O8 0.157536 0.123913 0.446765
O O9 0.840235 0.844226 0.870495
O O10 0.750000 0.750000 0.000000
O O11 0.909357 0.844371 0.976056
#
# Coordination Sequence:
#
# PCOD8143143 Si02
#       5
#     8   8   8   8   8
#     4  11  23  39  63  95 128 167 214 260 310 376
#     4  10  22  42  62  90 124 162 209 257 317 374
#     4  11  25  41  65  93 125 164 210 263 317 378
#     4  10  22  40  66  89 126 166 210 264 316 368
#     4  10  21  40  63  88 125 166 206 259 314 368
#
# _framework density 21.764151999999999
#
# number of rings (size 3 to 8) (size 9 to 14) (size 15 to 20)
#    0.000    1.600    0.000    5.400    2.800    5.600 
#    0.000    0.000    0.000    0.000    0.000    0.000 
#    0.000    0.000    0.000    0.000    0.000    0.000 
#
# Total GULP energy -248026.372081 kJ/mol
# GULP energy per Si atom -12401.318604 kJ/mol
# Density = 2.171462 g / cm^3
# Si number density = 21.764152 Si / 1000 Ang^3
#
#
#
# Elastic Constant Matrix: (Units=GPa)
#
#
# Indices 1 2 3 4 5 6 
#
# 1 72.6567 20.9980 21.9851 0.0000 -2.0545 0.0000
# 2 20.9980 108.9769 44.9613 0.0000 8.2570 0.0000
# 3 21.9851 44.9613 126.8586 0.0000 14.5268 0.0000
# 4 0.0000 0.0000 0.0000 17.6413 0.0000 -4.1399
# 5 -2.0545 8.2570 14.5268 0.0000 31.7855 0.0000
# 6 0.0000 0.0000 0.0000 -4.1399 0.0000 20.0574
#
#
#
# Elastic Compliance Matrix: (Units=1/GPa)
#
#
# Indices 1 2 3 4 5 6 
#
# 1 0.015121 -0.002231 -0.002119 0.000000 0.002525 0.000000
# 2 -0.002231 0.011114 -0.003382 0.000000 -0.001485 0.000000
# 3 -0.002119 -0.003382 0.009881 0.000000 -0.003774 0.000000
# 4 0.000000 0.000000 0.000000 0.059571 0.000000 0.012296
# 5 0.002525 -0.001485 -0.003774 0.000000 0.033735 0.000000
# 6 0.000000 0.000000 0.000000 0.012296 0.000000 0.052395
#
#
# Mechanical properties :
#
#
# Convention : Reuss Voigt Hill
#
# Bulk Modulus (GPa) = 48.42222 53.82012 51.12117
# Shear Modulus (GPa) = 24.49011 28.60001 26.54506
#
# Velocity S-wave (km/s) = 3.35811 3.62897 3.49616
# Velocity P-wave (km/s) = 6.11006 6.50705 6.31168
#
# Compressibility (1/GPa) = 0.02065168
#
# Stress axis : x y z
#
# Youngs Moduli (GPa) = 66.13493 89.97582 101.20407
#
# Poissons Ratio (x) = 0.20069 0.21446
# Poissons Ratio (y) = 0.14752 0.34231
# Poissons Ratio (z) = 0.14015 0.30433
#
# Static dielectric constant tensor:
#      x y z
#    x 3.998480 0.000000 -0.026210 
#    y 0.000000 3.961950 0.000000 
#    z -0.026210 0.000000 3.821740 
# 
# 
# High freq. dielectric constant tensor:
#      x y z
#    x 1.849220 0.000000 0.002780 
#    y 0.000000 1.854380 0.000000 
#    z 0.002780 0.000000 1.861770 
# 
# From -- ./inp_files/124920.got.cif
#   From: 2010.06.25/outbox.cif.g09.slc.cpg/sg15_63_cif.got.tgz:124920.got - 2010.06.28 07:06:18.
