data_PCOD8143306
_publ_section_title
;
Structure prediction by ZEFSAII (Michael W. Deem and Ramdas Pophale) SiO2 
 PCOD8143306
Probable space group: C 2/C
;
_chemical_formula_sum "Si O2"
_cell_formula_units_Z 48
_cell_length_a 32.293458
_cell_length_b 7.694008
_cell_length_c 9.082057
_cell_angle_alpha 90.000000
_cell_angle_beta 87.966330
_cell_angle_gamma 90.000000
_cell_volume 2255.162184
_symmetry_space_group_name_H-M "C 2/C"
_symmetry_group_IT_number 15
_symmetry_cell_setting 'monoclinic'
loop_
_space_group_symop_operation_xyz
x,y,z
-x,y,1/2-z
-x,-y,-z
x,-y,1/2+z
1/2+x,1/2+y,z
1/2-x,1/2+y,1/2-z
1/2-x,1/2-y,-z
1/2+x,1/2-y,1/2+z
loop_
_atom_site_type_symbol
_atom_site_label
_atom_site_fract_x
_atom_site_fract_y
_atom_site_fract_z
Si Si1 0.955837 0.201687 0.685959
Si Si2 0.043086 0.860863 0.659565
Si Si3 0.902831 0.468533 0.272095
Si Si4 0.268731 0.112068 0.104535
Si Si5 0.653353 0.896939 0.475832
Si Si6 0.785867 0.190787 0.888249
O O1 0.961855 0.138631 0.516461
O O2 0.926191 0.369707 0.692440
O O3 0.000000 0.256587 0.750000
O O4 0.936266 0.042813 0.785947
O O5 0.067417 0.692962 0.709129
O O6 0.000000 0.853554 0.750000
O O7 0.885407 0.531451 0.429077
O O8 0.863380 0.395208 0.187231
O O9 0.289989 0.191878 0.244055
O O10 0.228061 0.001231 0.158835
O O11 0.250000 0.250000 0.000000
O O12 0.305134 0.012286 0.013745
O O13 0.669332 0.707310 0.533579
O O14 0.750000 0.250000 0.000000
#
# Coordination Sequence:
#
# PCOD8143306 Si02
#       6
#     8   8   8   8   8   8
#     4  11  25  44  71 102 136 183 235 275 334 412
#     4  11  25  44  71 101 136 185 230 280 333 410
#     4  12  25  45  69  98 144 177 222 283 352 397
#     4  11  23  43  67  93 126 174 225 270 338 399
#     4  11  24  44  63  98 135 170 222 278 337 408
#     4  10  21  40  65  90 124 169 218 273 319 402
#
# _framework density 21.284500999999999
#
# number of rings (size 3 to 8) (size 9 to 14) (size 15 to 20)
#    0.000    1.000    3.333    4.500    7.000    1.333 
#    6.000    0.000    0.000    0.000    0.000    0.000 
#    0.000    0.000    0.000    0.000    0.000    0.000 
#
# Total GULP energy -297420.528573 kJ/mol
# GULP energy per Si atom -12392.522024 kJ/mol
# Density = 2.123606 g / cm^3
# Si number density = 21.284501 Si / 1000 Ang^3
#
#
#
# Elastic Constant Matrix: (Units=GPa)
#
#
# Indices 1 2 3 4 5 6 
#
# 1 68.6334 45.3099 27.6830 0.0000 8.7362 0.0000
# 2 45.3099 107.5619 26.4498 0.0000 11.7221 0.0000
# 3 27.6830 26.4498 112.1659 0.0000 11.4873 0.0000
# 4 0.0000 0.0000 0.0000 32.3379 0.0000 1.3897
# 5 8.7362 11.7221 11.4873 0.0000 36.0261 0.0000
# 6 0.0000 0.0000 0.0000 1.3897 0.0000 26.3127
#
#
#
# Elastic Compliance Matrix: (Units=1/GPa)
#
#
# Indices 1 2 3 4 5 6 
#
# 1 0.021376 -0.008045 -0.003221 0.000000 -0.001539 0.000000
# 2 -0.008045 0.013129 -0.000902 0.000000 -0.002033 0.000000
# 3 -0.003221 -0.000902 0.010144 0.000000 -0.002160 0.000000
# 4 0.000000 0.000000 0.000000 0.030994 0.000000 -0.001637
# 5 -0.001539 -0.002033 -0.002160 0.000000 0.029481 0.000000
# 6 0.000000 0.000000 0.000000 -0.001637 0.000000 0.038091
#
#
# Mechanical properties :
#
#
# Convention : Reuss Voigt Hill
#
# Bulk Modulus (GPa) = 49.22840 54.13852 51.68346
# Shear Modulus (GPa) = 28.68233 31.52990 30.10612
#
# Velocity S-wave (km/s) = 3.67491 3.85301 3.76501
# Velocity P-wave (km/s) = 6.41760 6.72942 6.57536
#
# Compressibility (1/GPa) = 0.02031348
#
# Stress axis : x y z
#
# Youngs Moduli (GPa) = 46.78087 76.16558 98.57741
#
# Poissons Ratio (x) = 0.61274 0.31753
# Poissons Ratio (y) = 0.37634 0.08894
# Poissons Ratio (z) = 0.15069 0.06872
#
# Static dielectric constant tensor:
#      x y z
#    x 3.920860 0.000000 0.069160 
#    y 0.000000 4.371720 0.000000 
#    z 0.069160 0.000000 4.007430 
# 
# 
# High freq. dielectric constant tensor:
#      x y z
#    x 1.828370 0.000000 0.008470 
#    y 0.000000 1.834220 0.000000 
#    z 0.008470 0.000000 1.853200 
# 
# From -- ./inp_files/68605.got.cif
#   From: 2010.06.25/outbox.cif.g09.slc.cpg/sg15_35_cif.got.tgz:68605.got - 2010.06.28 07:06:18.
