data_PCOD8143446
_publ_section_title
;
Structure prediction by ZEFSAII (Michael W. Deem and Ramdas Pophale) SiO2 
 PCOD8143446
Probable space group: C 2/C
;
_chemical_formula_sum "Si O2"
_cell_formula_units_Z 48
_cell_length_a 10.572984
_cell_length_b 9.625443
_cell_length_c 24.109900
_cell_angle_alpha 90.000000
_cell_angle_beta 63.896647
_cell_angle_gamma 90.000000
_cell_volume 2203.387755
_symmetry_space_group_name_H-M "C 2/C"
_symmetry_group_IT_number 15
_symmetry_cell_setting 'monoclinic'
loop_
_space_group_symop_operation_xyz
x,y,z
-x,y,1/2-z
-x,-y,-z
x,-y,1/2+z
1/2+x,1/2+y,z
1/2-x,1/2+y,1/2-z
1/2-x,1/2-y,-z
1/2+x,1/2-y,1/2+z
loop_
_atom_site_type_symbol
_atom_site_label
_atom_site_fract_x
_atom_site_fract_y
_atom_site_fract_z
Si Si1 0.500000 0.720967 0.750000
Si Si2 0.816719 0.552159 0.238983
Si Si3 0.380949 0.113185 0.007901
Si Si4 0.266512 0.205627 0.144735
Si Si5 0.053205 0.053918 0.842295
Si Si6 0.086343 0.916057 0.529419
Si Si7 0.000000 0.685371 0.750000
O O1 0.634033 0.818246 0.733613
O O2 0.462260 0.634894 0.813072
O O3 0.831554 0.586671 0.171396
O O4 0.654099 0.543523 0.286608
O O5 0.900989 0.410221 0.230924
O O6 0.289060 0.157709 0.078389
O O7 0.257025 0.057638 0.990129
O O8 0.452028 0.252152 0.969112
O O9 0.500000 0.000000 0.000000
O O10 0.350975 0.348080 0.137562
O O11 0.099912 0.223498 0.190563
O O12 0.953783 0.965711 0.901179
O O13 0.000000 0.000000 0.500000
#
# Coordination Sequence:
#
# PCOD8143446 Si02
#       7
#     4   8   8   8   8   8   4
#     4   9  20  37  56  96 128 161 211 274 340 404
#     4   9  20  36  58  97 129 163 209 274 349 400
#     4  11  27  47  68 101 137 185 237 287 339 408
#     4  10  21  41  66  96 131 170 225 277 340 410
#     4  10  21  40  67  93 130 171 223 279 335 415
#     4  11  25  48  69  96 135 186 233 281 342 407
#     4   9  20  37  62  92 130 173 205 276 342 402
#
# _framework density 21.784635000000002
#
# number of rings (size 3 to 8) (size 9 to 14) (size 15 to 20)
#    0.000    2.000    1.667    0.000    4.667    4.667 
#    9.000    0.000    0.000    0.000    0.000    0.000 
#    0.000    0.000    0.000    0.000    0.000    0.000 
#
# Total GULP energy -297492.025438 kJ/mol
# GULP energy per Si atom -12395.501060 kJ/mol
# Density = 2.173505 g / cm^3
# Si number density = 21.784635 Si / 1000 Ang^3
#
#
#
# Elastic Constant Matrix: (Units=GPa)
#
#
# Indices 1 2 3 4 5 6 
#
# 1 109.7721 44.8930 15.9132 0.0000 -2.9203 0.0000
# 2 44.8930 85.6563 34.9267 0.0000 -5.0663 0.0000
# 3 15.9132 34.9267 90.2606 0.0000 -0.4806 0.0000
# 4 0.0000 0.0000 0.0000 35.1945 0.0000 1.8322
# 5 -2.9203 -5.0663 -0.4806 0.0000 30.9594 0.0000
# 6 0.0000 0.0000 0.0000 1.8322 0.0000 30.4504
#
#
#
# Elastic Compliance Matrix: (Units=1/GPa)
#
#
# Indices 1 2 3 4 5 6 
#
# 1 0.011605 -0.006226 0.000363 0.000000 0.000082 0.000000
# 2 -0.006226 0.017351 -0.005605 0.000000 0.002165 0.000000
# 3 0.000363 -0.005605 0.013180 0.000000 -0.000678 0.000000
# 4 0.000000 0.000000 0.000000 0.028503 0.000000 -0.001715
# 5 0.000082 0.002165 -0.000678 0.000000 0.032652 0.000000
# 6 0.000000 0.000000 0.000000 -0.001715 0.000000 0.032943
#
#
# Mechanical properties :
#
#
# Convention : Reuss Voigt Hill
#
# Bulk Modulus (GPa) = 52.07760 53.01718 52.54739
# Shear Modulus (GPa) = 30.19870 31.98460 31.09165
#
# Velocity S-wave (km/s) = 3.72726 3.83589 3.78197
# Velocity P-wave (km/s) = 6.51773 6.63389 6.57607
#
# Compressibility (1/GPa) = 0.01920211
#
# Stress axis : x y z
#
# Youngs Moduli (GPa) = 86.16666 57.63338 75.87156
#
# Poissons Ratio (x) = 0.35882 -0.02758
# Poissons Ratio (y) = 0.53646 0.42525
# Poissons Ratio (z) = -0.03132 0.32303
#
# Static dielectric constant tensor:
#      x y z
#    x 4.150060 0.000000 0.123000 
#    y 0.000000 4.057720 0.000000 
#    z 0.123000 0.000000 3.819240 
# 
# 
# High freq. dielectric constant tensor:
#      x y z
#    x 1.872110 0.000000 0.012770 
#    y 0.000000 1.861010 0.000000 
#    z 0.012770 0.000000 1.839070 
# 
# From -- ./inp_files/291072.got.cif
#   From: 2010.06.25/outbox.cif.g09.slc.cpg/sg15_146_cif.got.tgz:291072.got - 2010.06.28 07:06:18.
