data_PCOD8143888
_publ_section_title
;
Structure prediction by ZEFSAII (Michael W. Deem and Ramdas Pophale) SiO2 
 PCOD8143888
Probable space group: C 2/C
;
_chemical_formula_sum "Si O2"
_cell_formula_units_Z 48
_cell_length_a 6.358230
_cell_length_b 28.105766
_cell_length_c 14.378820
_cell_angle_alpha 90.000000
_cell_angle_beta 119.205491
_cell_angle_gamma 90.000000
_cell_volume 2242.885590
_symmetry_space_group_name_H-M "C 2/C"
_symmetry_group_IT_number 15
_symmetry_cell_setting 'monoclinic'
loop_
_space_group_symop_operation_xyz
x,y,z
-x,y,1/2-z
-x,-y,-z
x,-y,1/2+z
1/2+x,1/2+y,z
1/2-x,1/2+y,1/2-z
1/2-x,1/2-y,-z
1/2+x,1/2-y,1/2+z
loop_
_atom_site_type_symbol
_atom_site_label
_atom_site_fract_x
_atom_site_fract_y
_atom_site_fract_z
Si Si1 0.964113 0.683755 0.998188
Si Si2 0.720800 0.768910 0.854744
Si Si3 0.214909 0.907995 0.366830
Si Si4 0.386529 0.436851 0.950663
Si Si5 0.610655 0.978638 0.433333
Si Si6 0.997469 0.147705 0.147034
O O1 0.922701 0.730181 0.925289
O O2 0.803161 0.643205 0.918148
O O3 0.874603 0.699353 0.080193
O O4 0.233411 0.662637 0.054008
O O5 0.500000 0.745039 0.750000
O O6 0.849015 0.804430 0.811153
O O7 0.122663 0.933588 0.439854
O O8 0.417833 0.939478 0.355070
O O9 0.000000 0.900172 0.250000
O O10 0.187329 0.477829 0.879440
O O11 0.353483 0.387374 0.889520
O O12 0.651808 0.452438 0.979404
O O13 0.500000 0.000000 0.500000
O O14 0.000000 0.123976 0.250000
#
# Coordination Sequence:
#
# PCOD8143888 Si02
#       6
#     8   8   8   8   8   8
#     4  11  23  41  65  95 136 169 215 275 320 389
#     4  11  23  42  65  94 132 175 216 266 328 390
#     4  11  22  40  68  95 130 175 215 266 331 388
#     4  10  21  41  66  93 128 166 212 272 323 382
#     4   9  20  41  67  87 130 166 211 272 322 377
#     4  12  23  41  68  98 130 173 218 268 329 392
#
# _framework density 21.401001999999998
#
# number of rings (size 3 to 8) (size 9 to 14) (size 15 to 20)
#    0.000    1.333    5.000    1.000    0.000    0.667 
#    0.000    9.167    3.667    0.000    0.000    0.000 
#    0.000    0.000    0.000    0.000    0.000    0.000 
#
# Total GULP energy -297340.278611 kJ/mol
# GULP energy per Si atom -12389.178275 kJ/mol
# Density = 2.135229 g / cm^3
# Si number density = 21.401002 Si / 1000 Ang^3
#
#
#
# Elastic Constant Matrix: (Units=GPa)
#
#
# Indices 1 2 3 4 5 6 
#
# 1 86.7352 44.0644 34.9864 0.0000 10.8630 0.0000
# 2 44.0644 120.7165 47.3454 0.0000 9.0235 0.0000
# 3 34.9864 47.3454 114.6277 0.0000 12.5505 0.0000
# 4 0.0000 0.0000 0.0000 -8.2051 0.0000 -2.5861
# 5 10.8630 9.0235 12.5505 0.0000 29.9710 0.0000
# 6 0.0000 0.0000 0.0000 -2.5861 0.0000 42.0672
#
#
#
# Elastic Compliance Matrix: (Units=1/GPa)
#
#
# Indices 1 2 3 4 5 6 
#
# 1 0.015115 -0.004306 -0.002491 0.000000 -0.003139 0.000000
# 2 -0.004306 0.011162 -0.003248 0.000000 -0.000440 0.000000
# 3 -0.002491 -0.003248 0.011130 0.000000 -0.002780 0.000000
# 4 0.000000 0.000000 0.000000 -0.119558 0.000000 -0.007350
# 5 -0.003139 -0.000440 -0.002780 0.000000 0.035800 0.000000
# 6 0.000000 0.000000 0.000000 -0.007350 0.000000 0.023320
#
#
# Mechanical properties :
#
#
# Convention : Reuss Voigt Hill
#
# Bulk Modulus (GPa) = 57.74543 63.87465 60.81004
# Shear Modulus (GPa) = 1766.40605 25.81216 896.10910
#
# Velocity S-wave (km/s) = 28.76068 3.47669 20.48492
# Velocity P-wave (km/s) = 33.61463 6.78438 24.24841
#
# Compressibility (1/GPa) = 0.01731739
#
# Stress axis : x y z
#
# Youngs Moduli (GPa) = 66.16069 89.58715 89.84520
#
# Poissons Ratio (x) = 0.38572 0.22383
# Poissons Ratio (y) = 0.28486 0.29183
# Poissons Ratio (z) = 0.16482 0.29099
#
# Static dielectric constant tensor:
#      x y z
#    x 4.150200 0.000000 0.174440 
#    y 0.000000 4.232730 0.000000 
#    z 0.174440 0.000000 3.644070 
# 
# 
# High freq. dielectric constant tensor:
#      x y z
#    x 1.849200 0.000000 0.008540 
#    y 0.000000 1.856980 0.000000 
#    z 0.008540 0.000000 1.816000 
# 
# From -- ./inp_files/130030.got.cif
#   From: 2010.06.25/outbox.cif.g09.slc.cpg/sg15_66_cif.got.tgz:130030.got - 2010.06.28 07:06:18.
