data_PCOD8143715
_publ_section_title
;
Structure prediction by ZEFSAII (Michael W. Deem and Ramdas Pophale) SiO2 
 PCOD8143715
Probable space group: C 2/C
;
_chemical_formula_sum "Si O2"
_cell_formula_units_Z 48
_cell_length_a 27.990813
_cell_length_b 6.465227
_cell_length_c 21.258808
_cell_angle_alpha 90.000000
_cell_angle_beta 141.994010
_cell_angle_gamma 90.000000
_cell_volume 2368.853956
_symmetry_space_group_name_H-M "C 2/C"
_symmetry_group_IT_number 15
_symmetry_cell_setting 'monoclinic'
loop_
_space_group_symop_operation_xyz
x,y,z
-x,y,1/2-z
-x,-y,-z
x,-y,1/2+z
1/2+x,1/2+y,z
1/2-x,1/2+y,1/2-z
1/2-x,1/2-y,-z
1/2+x,1/2-y,1/2+z
loop_
_atom_site_type_symbol
_atom_site_label
_atom_site_fract_x
_atom_site_fract_y
_atom_site_fract_z
Si Si1 0.057775 0.305266 0.367324
Si Si2 0.041015 0.297755 0.015474
Si Si3 0.042253 0.952706 0.640040
Si Si4 0.295959 0.467390 0.495500
Si Si5 0.706571 0.588413 0.370202
Si Si6 0.155063 0.362750 0.031037
O O1 0.131637 0.184180 0.418554
O O2 0.085925 0.530361 0.419437
O O3 0.000000 0.339681 0.250000
O O4 0.020603 0.179063 0.386615
O O5 0.061328 0.150386 0.093777
O O6 0.124049 0.342813 0.069854
O O7 0.000000 0.500000 0.000000
O O8 0.988837 0.183152 0.907899
O O9 0.120304 0.966636 0.760650
O O10 0.276006 0.536353 0.546228
O O11 0.222346 0.335827 0.392643
O O12 0.319937 0.646050 0.473170
O O13 0.768267 0.502926 0.383786
#
# Coordination Sequence:
#
# PCOD8143715 Si02
#       6
#     8   8   8   8   8   8
#     4  11  21  37  66  93 125 164 215 262 326 382
#     4  11  24  43  65  89 126 168 221 262 309 385
#     4  11  23  42  64  90 123 172 213 265 314 380
#     4  10  21  41  63  93 132 162 201 266 329 391
#     4  10  23  40  64  94 130 165 206 262 331 387
#     4  11  23  41  62  94 127 168 207 265 322 386
#
# _framework density 20.262962000000002
#
# number of rings (size 3 to 8) (size 9 to 14) (size 15 to 20)
#    0.000    1.333    5.000    0.500    0.000    3.333 
#    6.000    0.000    0.000    0.000    0.000    0.000 
#    0.000    0.000    0.000    0.000    0.000    0.000 
#
# Total GULP energy -297565.520295 kJ/mol
# GULP energy per Si atom -12398.563346 kJ/mol
# Density = 2.021684 g / cm^3
# Si number density = 20.262962 Si / 1000 Ang^3
#
#
#
# Elastic Constant Matrix: (Units=GPa)
#
#
# Indices 1 2 3 4 5 6 
#
# 1 125.8510 30.4118 5.5198 -0.0003 -2.6470 -0.0007
# 2 30.4118 85.8937 15.1453 -0.0003 -3.7754 -0.0023
# 3 5.5198 15.1453 58.6831 -0.0004 5.7783 -0.0002
# 4 -0.0003 -0.0003 -0.0004 23.0609 -0.0001 2.5720
# 5 -2.6470 -3.7754 5.7783 -0.0001 27.3747 -0.0003
# 6 -0.0007 -0.0023 -0.0002 2.5720 -0.0003 48.0871
#
#
#
# Elastic Compliance Matrix: (Units=1/GPa)
#
#
# Indices 1 2 3 4 5 6 
#
# 1 0.008694 -0.003046 -0.000075 0.000000 0.000436 0.000000
# 2 -0.003046 0.013420 -0.003401 0.000000 0.002274 0.000001
# 3 -0.000075 -0.003401 0.018354 0.000000 -0.004350 0.000000
# 4 0.000000 0.000000 0.000000 0.043624 0.000000 -0.002333
# 5 0.000436 0.002274 -0.004350 0.000000 0.037804 0.000000
# 6 0.000000 0.000001 0.000000 -0.002333 0.000000 0.020920
#
#
# Mechanical properties :
#
#
# Convention : Reuss Voigt Hill
#
# Bulk Modulus (GPa) = 36.46273 41.39794 38.93034
# Shear Modulus (GPa) = 30.30264 34.32793 32.31528
#
# Velocity S-wave (km/s) = 3.87132 4.12044 3.99782
# Velocity P-wave (km/s) = 6.16577 6.56598 6.36902
#
# Compressibility (1/GPa) = 0.02742526
#
# Stress axis : x y z
#
# Youngs Moduli (GPa) = 115.01621 74.51319 54.48453
#
# Poissons Ratio (x) = 0.22697 0.00407
# Poissons Ratio (y) = 0.35034 0.18530
# Poissons Ratio (z) = 0.00859 0.25342
#
# Static dielectric constant tensor:
#      x y z
#    x 4.029500 0.000000 0.033100 
#    y 0.000000 3.759890 0.000000 
#    z 0.033100 0.000000 3.406780 
# 
# 
# High freq. dielectric constant tensor:
#      x y z
#    x 1.821150 0.000000 0.004350 
#    y 0.000000 1.791510 0.000000 
#    z 0.004350 0.000000 1.765710 
# 
# From -- ./inp_files/258525.got.cif
#   From: 2010.06.25/outbox.cif.g09.slc.cpg/sg15_130_cif.got.tgz:258525.got - 2010.06.28 07:06:18.
