data_PCOD8144416
_publ_section_title
;
Structure prediction by ZEFSAII (Michael W. Deem and Ramdas Pophale) SiO2 
 PCOD8144416
Probable space group: C 2/C
;
_chemical_formula_sum "Si O2"
_cell_formula_units_Z 48
_cell_length_a 24.441828
_cell_length_b 9.018172
_cell_length_c 14.987251
_cell_angle_alpha 90.000000
_cell_angle_beta 139.560933
_cell_angle_gamma 90.000000
_cell_volume 2142.778294
_symmetry_space_group_name_H-M "C 2/C"
_symmetry_group_IT_number 15
_symmetry_cell_setting 'monoclinic'
loop_
_space_group_symop_operation_xyz
x,y,z
-x,y,1/2-z
-x,-y,-z
x,-y,1/2+z
1/2+x,1/2+y,z
1/2-x,1/2+y,1/2-z
1/2-x,1/2-y,-z
1/2+x,1/2-y,1/2+z
loop_
_atom_site_type_symbol
_atom_site_label
_atom_site_fract_x
_atom_site_fract_y
_atom_site_fract_z
Si Si1 0.866148 0.189611 0.370656
Si Si2 0.674664 0.095882 0.984362
Si Si3 0.715126 0.995447 0.719871
Si Si4 0.527992 0.347999 0.191292
Si Si5 0.677483 0.152712 0.362266
Si Si6 0.631909 0.637093 0.319930
O O1 0.812577 0.038134 0.316744
O O2 0.806551 0.330840 0.319706
O O3 0.896440 0.214539 0.307207
O O4 0.948507 0.163499 0.529445
O O5 0.629660 0.247371 0.898839
O O6 0.635353 0.956888 0.882962
O O7 0.661438 0.087112 0.075026
O O8 0.772218 0.082149 0.073589
O O9 0.704202 0.936982 0.806855
O O10 0.500000 0.277404 0.250000
O O11 0.602770 0.258407 0.237221
O O12 0.564269 0.510968 0.257508
O O13 0.750000 0.250000 0.500000
#
# Coordination Sequence:
#
# PCOD8144416 Si02
#       6
#     8   8   8   8   8   8
#     4  11  25  45  68 103 138 186 236 289 356 418
#     4  10  21  42  70  99 131 182 236 277 350 413
#     4  11  24  43  74 100 137 189 239 288 350 428
#     4  12  26  43  67 102 140 181 234 292 352 417
#     4  12  23  44  71 100 141 184 232 292 349 413
#     4  10  22  44  65  96 140 176 229 294 336 419
#
# _framework density 22.400822999999999
#
# number of rings (size 3 to 8) (size 9 to 14) (size 15 to 20)
#    0.000    1.000    3.333    3.500    2.333    0.667 
#    3.000    0.833    0.000    0.000    0.000    0.000 
#    0.000    0.000    0.000    0.000    0.000    0.000 
#
# Total GULP energy -297394.984062 kJ/mol
# GULP energy per Si atom -12391.457669 kJ/mol
# Density = 2.234984 g / cm^3
# Si number density = 22.400823 Si / 1000 Ang^3
#
#
#
# Elastic Constant Matrix: (Units=GPa)
#
#
# Indices 1 2 3 4 5 6 
#
# 1 47.2908 14.7322 33.4420 0.0000 -9.3530 0.0000
# 2 14.7322 104.7245 47.0363 0.0000 14.5607 0.0000
# 3 33.4420 47.0363 149.4236 0.0000 -3.9686 0.0000
# 4 0.0000 0.0000 0.0000 40.2196 0.0000 -3.3922
# 5 -9.3530 14.5607 -3.9686 0.0000 46.3380 0.0000
# 6 0.0000 0.0000 0.0000 -3.3922 0.0000 28.0394
#
#
#
# Elastic Compliance Matrix: (Units=1/GPa)
#
#
# Indices 1 2 3 4 5 6 
#
# 1 0.026553 -0.002231 -0.005091 0.000000 0.005625 0.000000
# 2 -0.002231 0.012020 -0.003404 0.000000 -0.004519 0.000000
# 3 -0.005091 -0.003404 0.008925 0.000000 0.000807 0.000000
# 4 0.000000 0.000000 0.000000 0.025120 0.000000 0.003039
# 5 0.005625 -0.004519 0.000807 0.000000 0.024205 0.000000
# 6 0.000000 0.000000 0.000000 0.003039 0.000000 0.036032
#
#
# Mechanical properties :
#
#
# Convention : Reuss Voigt Hill
#
# Bulk Modulus (GPa) = 38.39442 54.65109 46.52276
# Shear Modulus (GPa) = 30.67677 36.66796 33.67237
#
# Velocity S-wave (km/s) = 3.70462 4.05025 3.88129
# Velocity P-wave (km/s) = 5.95616 6.80607 6.39525
#
# Compressibility (1/GPa) = 0.02604545
#
# Stress axis : x y z
#
# Youngs Moduli (GPa) = 37.65993 83.19406 112.04560
#
# Poissons Ratio (x) = 0.18559 0.57045
# Poissons Ratio (y) = 0.08401 0.38146
# Poissons Ratio (z) = 0.19174 0.28323
#
# Static dielectric constant tensor:
#      x y z
#    x 4.031010 0.000000 -0.381540 
#    y 0.000000 4.111130 0.000000 
#    z -0.381540 0.000000 4.295330 
# 
# 
# High freq. dielectric constant tensor:
#      x y z
#    x 1.863600 0.000000 -0.023720 
#    y 0.000000 1.885810 0.000000 
#    z -0.023720 0.000000 1.896700 
# 
# From -- ./inp_files/176997.got.cif
#   From: 2010.06.25/outbox.cif.g09.slc.cpg/sg15_89_cif.got.tgz:176997.got - 2010.06.28 07:06:18.
