data_PCOD8144147
_publ_section_title
;
Structure prediction by ZEFSAII (Michael W. Deem and Ramdas Pophale) SiO2 
 PCOD8144147
Probable space group: C 2/C
;
_chemical_formula_sum "Si O2"
_cell_formula_units_Z 64
_cell_length_a 15.614352
_cell_length_b 28.544862
_cell_length_c 11.498308
_cell_angle_alpha 90.000000
_cell_angle_beta 36.295899
_cell_angle_gamma 90.000000
_cell_volume 3033.715884
_symmetry_space_group_name_H-M "C 2/C"
_symmetry_group_IT_number 15
_symmetry_cell_setting 'monoclinic'
loop_
_space_group_symop_operation_xyz
x,y,z
-x,y,1/2-z
-x,-y,-z
x,-y,1/2+z
1/2+x,1/2+y,z
1/2-x,1/2+y,1/2-z
1/2-x,1/2-y,-z
1/2+x,1/2-y,1/2+z
loop_
_atom_site_type_symbol
_atom_site_label
_atom_site_fract_x
_atom_site_fract_y
_atom_site_fract_z
Si Si1 0.644336 0.267256 0.520290
Si Si2 0.176740 0.644237 0.742711
Si Si3 0.646565 0.830267 0.919381
Si Si4 0.276911 0.590024 0.834690
Si Si5 0.531522 0.975154 0.589502
Si Si6 0.211396 0.597416 0.160334
Si Si7 0.350220 0.386848 0.863898
Si Si8 0.061776 0.948185 0.931864
O O1 0.500000 0.278221 0.750000
O O2 0.750000 0.250000 0.500000
O O3 0.712906 0.312326 0.384560
O O4 0.634184 0.226214 0.432565
O O5 0.179338 0.627539 0.872435
O O6 0.243693 0.602306 0.589001
O O7 0.015279 0.652612 0.873223
O O8 0.695333 0.852716 0.743202
O O9 0.765984 0.847013 0.882234
O O10 0.437137 0.587923 0.606482
O O11 0.201132 0.538726 0.907252
O O12 0.288399 0.607855 0.954032
O O13 0.500000 0.002011 0.750000
O O14 0.443280 0.926546 0.689973
O O15 0.500000 0.000000 0.500000
O O16 0.304787 0.558628 0.127432
O O17 0.500000 0.365804 0.750000
O O18 0.381627 0.434366 0.758624
O O19 0.000000 0.000000 0.000000
#
# Coordination Sequence:
#
# PCOD8144147 Si02
#       8
#     8   8   8   8   8   8   8   8
#     4  12  23  37  63  98 135 164 207 272 341 401
#     4  12  23  41  65  97 131 167 214 261 339 395
#     4  11  23  42  65  95 131 168 212 264 332 399
#     4  11  23  42  65  89 127 176 216 262 328 388
#     4  10  21  42  63  94 127 167 219 275 328 389
#     4  10  23  43  66  87 127 177 219 261 325 391
#     4  11  22  38  63  96 127 164 211 269 324 400
#     4  11  24  42  63  92 129 168 221 273 330 381
#
# _framework density 21.096240999999999
#
# number of rings (size 3 to 8) (size 9 to 14) (size 15 to 20)
#    0.000    1.000    5.000    1.875    0.000    1.000 
#    9.000    0.625    0.000    0.000    0.000    0.000 
#    0.000    0.000    0.000    0.000    0.000    0.000 
#
# Total GULP energy -396487.856530 kJ/mol
# GULP energy per Si atom -12390.245517 kJ/mol
# Density = 2.104823 g / cm^3
# Si number density = 21.096241 Si / 1000 Ang^3
#
#
#
# Elastic Constant Matrix: (Units=GPa)
#
#
# Indices 1 2 3 4 5 6 
#
# 1 119.3350 34.2906 57.8816 0.0000 12.7380 0.0000
# 2 34.2906 97.0916 47.4550 0.0000 17.6367 0.0000
# 3 57.8816 47.4550 109.5901 -0.0001 3.5489 0.0001
# 4 0.0000 0.0000 -0.0001 35.5087 0.0001 0.0050
# 5 12.7380 17.6367 3.5489 0.0001 48.9502 0.0000
# 6 0.0000 0.0000 0.0001 0.0050 0.0000 26.7345
#
#
#
# Elastic Compliance Matrix: (Units=1/GPa)
#
#
# Indices 1 2 3 4 5 6 
#
# 1 0.011641 -0.000923 -0.005675 0.000000 -0.002286 0.000000
# 2 -0.000923 0.014111 -0.005479 0.000000 -0.004447 0.000000
# 3 -0.005675 -0.005479 0.014417 0.000000 0.002406 0.000000
# 4 0.000000 0.000000 0.000000 0.028162 0.000000 -0.000005
# 5 -0.002286 -0.004447 0.002406 0.000000 0.022451 0.000000
# 6 0.000000 0.000000 0.000000 -0.000005 0.000000 0.037405
#
#
# Mechanical properties :
#
#
# Convention : Reuss Voigt Hill
#
# Bulk Modulus (GPa) = 62.43771 67.25236 64.84504
# Shear Modulus (GPa) = 31.70967 34.66463 33.18715
#
# Velocity S-wave (km/s) = 3.88118 4.05800 3.97057
# Velocity P-wave (km/s) = 7.05306 7.34197 7.19896
#
# Compressibility (1/GPa) = 0.01601596
#
# Stress axis : x y z
#
# Youngs Moduli (GPa) = 85.89998 70.86556 69.36242
#
# Poissons Ratio (x) = 0.06538 0.39364
# Poissons Ratio (y) = 0.07925 0.38005
# Poissons Ratio (z) = 0.48749 0.38829
#
# Static dielectric constant tensor:
#      x y z
#    x 3.954350 0.000000 0.022190 
#    y 0.000000 3.495430 0.000000 
#    z 0.022190 0.000000 4.145230 
# 
# 
# High freq. dielectric constant tensor:
#      x y z
#    x 1.837880 0.000000 -0.014730 
#    y 0.000000 1.795840 0.000000 
#    z -0.014730 0.000000 1.842820 
# 
# From -- ./inp_files/101323.got.cif
#   From: 2010.06.25/outbox.cif.g09.slc.cpg/sg15_51_cif.got.tgz:101323.got - 2010.06.28 07:06:18.
