data_PCOD8144177
_publ_section_title
;
Structure prediction by ZEFSAII (Michael W. Deem and Ramdas Pophale) SiO2 
 PCOD8144177
Probable space group: C 2/C
;
_chemical_formula_sum "Si O2"
_cell_formula_units_Z 40
_cell_length_a 10.201391
_cell_length_b 10.652219
_cell_length_c 15.572864
_cell_angle_alpha 90.000000
_cell_angle_beta 117.674925
_cell_angle_gamma 90.000000
_cell_volume 1498.663380
_symmetry_space_group_name_H-M "C 2/C"
_symmetry_group_IT_number 15
_symmetry_cell_setting 'monoclinic'
loop_
_space_group_symop_operation_xyz
x,y,z
-x,y,1/2-z
-x,-y,-z
x,-y,1/2+z
1/2+x,1/2+y,z
1/2-x,1/2+y,1/2-z
1/2-x,1/2-y,-z
1/2+x,1/2-y,1/2+z
loop_
_atom_site_type_symbol
_atom_site_label
_atom_site_fract_x
_atom_site_fract_y
_atom_site_fract_z
Si Si1 0.967510 0.708493 0.996270
Si Si2 0.310378 0.432969 0.014082
Si Si3 0.336429 0.218115 0.780971
Si Si4 0.712723 0.672448 0.405251
Si Si5 0.173882 0.459478 0.792422
O O1 0.949525 0.842515 0.038701
O O2 0.970326 0.727231 0.891885
O O3 0.821208 0.631158 0.972795
O O4 0.117059 0.643506 0.076708
O O5 0.248342 0.487321 0.906447
O O6 0.371130 0.545367 0.092320
O O7 0.382927 0.258119 0.697445
O O8 0.213426 0.319735 0.772258
O O9 0.276941 0.073680 0.756977
O O10 0.750000 0.750000 0.500000
O O11 0.000000 0.466963 0.750000
#
# Coordination Sequence:
#
# PCOD8144177 Si02
#       5
#     8   8   8   8   8
#     4  10  23  41  67  91 127 167 212 267 320 383
#     4  10  21  42  64  92 124 166 214 265 323 379
#     4  11  24  42  67 100 126 171 223 263 322 394
#     4  12  23  39  64  92 129 165 210 261 322 377
#     4  11  22  42  68  94 133 170 216 269 324 383
#
# _framework density 26.690449999999998
#
# number of rings (size 3 to 8) (size 9 to 14) (size 15 to 20)
#    0.000    1.200    2.000    4.200    0.000    0.800 
#    0.000    1.000    4.400    0.000    0.000    0.000 
#    0.000    0.000    0.000    0.000    0.000    0.000 
#
# Total GULP energy -247885.052924 kJ/mol
# GULP energy per Si atom -12394.252646 kJ/mol
# Density = 2.662970 g / cm^3
# Si number density = 26.690450 Si / 1000 Ang^3
#
#
#
# Elastic Constant Matrix: (Units=GPa)
#
#
# Indices 1 2 3 4 5 6 
#
# 1 51.9534 30.7893 31.6676 0.0000 -5.6631 0.0000
# 2 30.7893 165.9802 28.1845 0.0000 -3.9098 0.0000
# 3 31.6676 28.1845 118.8941 0.0000 -6.2704 0.0000
# 4 0.0000 0.0000 0.0000 38.2372 0.0000 -21.6228
# 5 -5.6631 -3.9098 -6.2704 0.0000 33.0071 0.0000
# 6 0.0000 0.0000 0.0000 -21.6228 0.0000 25.5898
#
#
#
# Elastic Compliance Matrix: (Units=1/GPa)
#
#
# Indices 1 2 3 4 5 6 
#
# 1 0.025182 -0.003638 -0.005697 0.000000 0.002807 0.000000
# 2 -0.003638 0.006810 -0.000642 0.000000 0.000061 0.000000
# 3 -0.005697 -0.000642 0.010126 0.000000 0.000870 0.000000
# 4 0.000000 0.000000 0.000000 0.050084 0.000000 0.042320
# 5 0.002807 0.000061 0.000870 0.000000 0.030951 0.000000
# 6 0.000000 0.000000 0.000000 0.042320 0.000000 0.074837
#
#
# Mechanical properties :
#
#
# Convention : Reuss Voigt Hill
#
# Bulk Modulus (GPa) = 45.11637 57.56783 51.34210
# Shear Modulus (GPa) = 22.18935 35.77925 28.98430
#
# Velocity S-wave (km/s) = 2.88646 3.66529 3.29894
# Velocity P-wave (km/s) = 5.29614 6.28713 5.81279
#
# Compressibility (1/GPa) = 0.02216490
#
# Stress axis : x y z
#
# Youngs Moduli (GPa) = 39.71017 146.84042 98.75197
#
# Poissons Ratio (x) = 0.53418 0.56259
# Poissons Ratio (y) = 0.14446 0.06342
# Poissons Ratio (z) = 0.22623 0.09431
#
# Static dielectric constant tensor:
#      x y z
#    x 5.925140 0.000000 -0.072500 
#    y 0.000000 5.286560 0.000000 
#    z -0.072500 0.000000 5.275610 
# 
# 
# High freq. dielectric constant tensor:
#      x y z
#    x 2.070210 0.000000 -0.014150 
#    y 0.000000 2.079030 0.000000 
#    z -0.014150 0.000000 2.084410 
# 
# From -- ./inp_files/142128.got.cif
#   From: 2010.06.25/outbox.cif.g09.slc.cpg/sg15_72_cif.got.tgz:142128.got - 2010.06.28 07:06:18.
