data_PCOD8144753
_publ_section_title
;
Structure prediction by ZEFSAII (Michael W. Deem and Ramdas Pophale) SiO2 
 PCOD8144753
Probable space group: C 2/C
;
_chemical_formula_sum "Si O2"
_cell_formula_units_Z 48
_cell_length_a 25.573016
_cell_length_b 14.626304
_cell_length_c 9.444311
_cell_angle_alpha 90.000000
_cell_angle_beta 141.797494
_cell_angle_gamma 90.000000
_cell_volume 2184.672492
_symmetry_space_group_name_H-M "C 2/C"
_symmetry_group_IT_number 15
_symmetry_cell_setting 'monoclinic'
loop_
_space_group_symop_operation_xyz
x,y,z
-x,y,1/2-z
-x,-y,-z
x,-y,1/2+z
1/2+x,1/2+y,z
1/2-x,1/2+y,1/2-z
1/2-x,1/2-y,-z
1/2+x,1/2-y,1/2+z
loop_
_atom_site_type_symbol
_atom_site_label
_atom_site_fract_x
_atom_site_fract_y
_atom_site_fract_z
Si Si1 0.678369 0.016441 0.572392
Si Si2 0.105130 0.833160 0.843640
Si Si3 0.563017 0.821658 0.758901
Si Si4 0.585285 0.646646 0.623505
Si Si5 0.206638 0.009697 0.434122
Si Si6 0.447146 0.139735 0.773353
O O1 0.641973 0.119387 0.484965
O O2 0.762839 0.999675 0.661465
O O3 0.603809 0.949662 0.370824
O O4 0.708377 0.991942 0.794112
O O5 0.174155 0.888860 0.901263
O O6 0.111278 0.726776 0.809588
O O7 0.013741 0.873999 0.606776
O O8 0.126059 0.839927 0.055027
O O9 0.500000 0.790185 0.750000
O O10 0.600123 0.734235 0.755433
O O11 0.509504 0.883863 0.535388
O O12 0.631623 0.562865 0.801376
O O13 0.500000 0.174345 0.750000
#
# Coordination Sequence:
#
# PCOD8144753 Si02
#       6
#     8   8   8   8   8   8
#     4  12  26  39  64  99 136 169 209 264 332 390
#     4  10  21  44  69  94 122 170 226 268 311 383
#     4  11  23  43  67  97 127 167 225 270 309 380
#     4  10  22  44  69  92 126 171 222 266 318 377
#     4  12  25  41  62  99 136 170 206 265 333 387
#     4  11  21  43  70  90 124 176 220 267 318 371
#
# _framework density 21.971254999999999
#
# number of rings (size 3 to 8) (size 9 to 14) (size 15 to 20)
#    0.000    1.000    5.000    3.500    0.000    5.333 
#    3.000    0.000    0.000    0.000    0.000    0.000 
#    0.000    0.000    0.000    0.000    0.000    0.000 
#
# Total GULP energy -297641.924093 kJ/mol
# GULP energy per Si atom -12401.746837 kJ/mol
# Density = 2.192125 g / cm^3
# Si number density = 21.971255 Si / 1000 Ang^3
#
#
#
# Elastic Constant Matrix: (Units=GPa)
#
#
# Indices 1 2 3 4 5 6 
#
# 1 75.0614 26.3798 -4.2058 0.0000 0.1659 0.0000
# 2 26.3798 106.2555 25.5972 0.0000 7.1929 0.0000
# 3 -4.2058 25.5972 95.1962 0.0000 -7.7581 0.0000
# 4 0.0000 0.0000 0.0000 30.7594 0.0000 -2.4006
# 5 0.1659 7.1929 -7.7581 0.0000 21.7341 0.0000
# 6 0.0000 0.0000 0.0000 -2.4006 0.0000 18.8439
#
#
#
# Elastic Compliance Matrix: (Units=1/GPa)
#
#
# Indices 1 2 3 4 5 6 
#
# 1 0.014951 -0.004328 0.001990 0.000000 0.002029 0.000000
# 2 -0.004328 0.011747 -0.003774 0.000000 -0.005202 0.000000
# 3 0.001990 -0.003774 0.012059 0.000000 0.005538 0.000000
# 4 0.000000 0.000000 0.000000 0.032837 0.000000 0.004183
# 5 0.002029 -0.005202 0.005538 0.000000 0.049694 0.000000
# 6 0.000000 0.000000 0.000000 0.004183 0.000000 0.053600
#
#
# Mechanical properties :
#
#
# Convention : Reuss Voigt Hill
#
# Bulk Modulus (GPa) = 37.69134 41.33952 39.51543
# Shear Modulus (GPa) = 25.51592 29.51695 27.51643
#
# Velocity S-wave (km/s) = 3.41153 3.66927 3.54274
# Velocity P-wave (km/s) = 5.71928 6.06692 5.89566
#
# Compressibility (1/GPa) = 0.02653129
#
# Stress axis : x y z
#
# Youngs Moduli (GPa) = 66.88684 85.12705 82.92834
#
# Poissons Ratio (x) = 0.36847 -0.16500
# Poissons Ratio (y) = 0.28951 0.31296
# Poissons Ratio (z) = -0.13309 0.32126
#
# Static dielectric constant tensor:
#      x y z
#    x 3.828610 0.000000 -0.139670 
#    y 0.000000 3.800310 0.000000 
#    z -0.139670 0.000000 4.017940 
# 
# 
# High freq. dielectric constant tensor:
#      x y z
#    x 1.853090 0.000000 -0.007920 
#    y 0.000000 1.861950 0.000000 
#    z -0.007920 0.000000 1.872820 
# 
# From -- ./inp_files/66502.got.cif
#   From: 2010.06.25/outbox.cif.g09.slc.cpg/sg15_34_cif.got.tgz:66502.got - 2010.06.28 07:06:18.
