data_PCOD8144921
_publ_section_title
;
Structure prediction by ZEFSAII (Michael W. Deem and Ramdas Pophale) SiO2 
 PCOD8144921
Probable space group: C 2/C
;
_chemical_formula_sum "Si O2"
_cell_formula_units_Z 48
_cell_length_a 16.716035
_cell_length_b 18.643185
_cell_length_c 14.980998
_cell_angle_alpha 90.000000
_cell_angle_beta 33.756233
_cell_angle_gamma 90.000000
_cell_volume 2594.202030
_symmetry_space_group_name_H-M "C 2/C"
_symmetry_group_IT_number 15
_symmetry_cell_setting 'monoclinic'
loop_
_space_group_symop_operation_xyz
x,y,z
-x,y,1/2-z
-x,-y,-z
x,-y,1/2+z
1/2+x,1/2+y,z
1/2-x,1/2+y,1/2-z
1/2-x,1/2-y,-z
1/2+x,1/2-y,1/2+z
loop_
_atom_site_type_symbol
_atom_site_label
_atom_site_fract_x
_atom_site_fract_y
_atom_site_fract_z
Si Si1 0.733888 0.180176 0.348680
Si Si2 0.049730 0.184616 0.998438
Si Si3 0.712841 0.372026 0.516981
Si Si4 0.080454 0.949518 0.355029
Si Si5 0.121932 0.521448 0.454399
Si Si6 0.500000 0.941775 0.250000
Si Si7 0.500000 0.492976 0.750000
O O1 0.621360 0.238500 0.417307
O O2 0.769535 0.187912 0.421606
O O3 0.664826 0.103235 0.395353
O O4 0.878796 0.192632 0.159299
O O5 0.107007 0.152550 0.038038
O O6 0.084534 0.132290 0.884086
O O7 0.642626 0.443397 0.626490
O O8 0.870874 0.391245 0.332315
O O9 0.244811 0.970196 0.187476
O O10 0.992977 0.956444 0.343477
O O11 0.000000 0.000000 0.500000
O O12 0.000000 0.500000 0.500000
O O13 0.060408 0.510973 0.612146
#
# Coordination Sequence:
#
# PCOD8144921 Si02
#       7
#     8   8   8   8   8   4   4
#     4  11  24  39  57  94 126 165 201 251 319 382
#     4  12  24  38  61  89 127 166 203 251 323 380
#     4  11  19  38  58  88 128 161 197 252 316 385
#     4  12  22  41  66  89 122 171 212 261 305 370
#     4  11  23  40  62  92 125 160 207 259 314 366
#     4  10  22  34  55  95 124 154 194 252 312 362
#     4  12  20  40  67  89 124 160 224 260 304 372
#
# _framework density 18.502799
#
# number of rings (size 3 to 8) (size 9 to 14) (size 15 to 20)
#    0.000    0.667    8.333    1.500    7.000    0.000 
#    0.000    0.000    0.000    2.000    0.000    0.000 
#    0.000    0.000    0.000    0.000    0.000    0.000 
#
# Total GULP energy -297622.312991 kJ/mol
# GULP energy per Si atom -12400.929708 kJ/mol
# Density = 1.846069 g / cm^3
# Si number density = 18.502799 Si / 1000 Ang^3
#
#
#
# Elastic Constant Matrix: (Units=GPa)
#
#
# Indices 1 2 3 4 5 6 
#
# 1 89.1180 43.8820 45.5390 0.0037 3.3094 -0.0023
# 2 43.8820 96.4353 50.3634 0.0000 2.8666 0.0000
# 3 45.5390 50.3634 150.5984 0.0046 -9.4582 -0.0031
# 4 0.0037 0.0000 0.0046 27.6144 -0.0030 -0.4230
# 5 3.3094 2.8666 -9.4582 -0.0030 30.5377 0.0017
# 6 -0.0023 0.0000 -0.0031 -0.4230 0.0017 39.5436
#
#
#
# Elastic Compliance Matrix: (Units=1/GPa)
#
#
# Indices 1 2 3 4 5 6 
#
# 1 0.015506 -0.005423 -0.003007 -0.000002 -0.002103 0.000001
# 2 -0.005423 0.014655 -0.003376 0.000001 -0.001834 0.000000
# 3 -0.003007 -0.003376 0.008892 -0.000001 0.003397 0.000000
# 4 -0.000002 0.000001 -0.000001 0.036219 0.000003 0.000387
# 5 -0.002103 -0.001834 0.003397 0.000003 0.034199 -0.000001
# 6 0.000001 0.000000 0.000000 0.000387 -0.000001 0.025293
#
#
# Mechanical properties :
#
#
# Convention : Reuss Voigt Hill
#
# Bulk Modulus (GPa) = 64.76639 68.41339 66.58989
# Shear Modulus (GPa) = 30.57671 32.63031 31.60351
#
# Velocity S-wave (km/s) = 4.06956 4.20400 4.13733
# Velocity P-wave (km/s) = 7.56051 7.78587 7.67402
#
# Compressibility (1/GPa) = 0.01544011
#
# Stress axis : x y z
#
# Youngs Moduli (GPa) = 64.49052 68.23588 112.46005
#
# Poissons Ratio (x) = 0.37003 0.33822
# Poissons Ratio (y) = 0.34972 0.37970
# Poissons Ratio (z) = 0.19395 0.23039
#
# Static dielectric constant tensor:
#      x y z
#    x 3.426370 0.000000 -0.081990 
#    y 0.000000 3.316640 0.000000 
#    z -0.081990 0.000000 3.646420 
# 
# 
# High freq. dielectric constant tensor:
#      x y z
#    x 1.712190 0.000000 -0.018190 
#    y 0.000000 1.692740 0.000000 
#    z -0.018190 0.000000 1.735390 
# 
# From -- ./inp_files/48393.got.cif
#   From: 2010.06.25/outbox.cif.g09.slc.cpg/sg15_25_cif.got.tgz:48393.got - 2010.06.28 07:06:18.
