data_PCOD8144796
_publ_section_title
;
Structure prediction by ZEFSAII (Michael W. Deem and Ramdas Pophale) SiO2 
 PCOD8144796
Probable space group: C 2/C
;
_chemical_formula_sum "Si O2"
_cell_formula_units_Z 40
_cell_length_a 23.065929
_cell_length_b 5.528596
_cell_length_c 13.591178
_cell_angle_alpha 90.000000
_cell_angle_beta 109.340582
_cell_angle_gamma 90.000000
_cell_volume 1635.367915
_symmetry_space_group_name_H-M "C 2/C"
_symmetry_group_IT_number 15
_symmetry_cell_setting 'monoclinic'
loop_
_space_group_symop_operation_xyz
x,y,z
-x,y,1/2-z
-x,-y,-z
x,-y,1/2+z
1/2+x,1/2+y,z
1/2-x,1/2+y,1/2-z
1/2-x,1/2-y,-z
1/2+x,1/2-y,1/2+z
loop_
_atom_site_type_symbol
_atom_site_label
_atom_site_fract_x
_atom_site_fract_y
_atom_site_fract_z
Si Si1 0.746117 0.896336 0.187288
Si Si2 0.141373 0.009081 0.370591
Si Si3 0.863139 0.641494 0.466139
Si Si4 0.953959 0.728183 0.052418
Si Si5 0.574228 0.464618 0.142487
O O1 0.758168 0.149306 0.252887
O O2 0.799047 0.867224 0.135264
O O3 0.681446 0.924867 0.093246
O O4 0.162455 0.237728 0.448083
O O5 0.100953 0.835188 0.414196
O O6 0.099843 0.092787 0.254561
O O7 0.933475 0.551270 0.527542
O O8 0.868454 0.832337 0.379400
O O9 0.020323 0.769233 0.139735
O O10 0.955710 0.834064 0.943097
#
# Coordination Sequence:
#
# PCOD8144796 Si02
#       5
#     8   8   8   8   8
#     4  12  27  47  75 105 146 195 239 300 364 432
#     4  11  24  42  67 103 140 185 237 299 359 432
#     4  11  24  42  70 103 137 190 237 298 359 436
#     4  10  23  40  71  98 138 182 237 297 360 434
#     4  10  21  45  64 101 140 182 233 297 363 430
#
# _framework density 24.459329
#
# number of rings (size 3 to 8) (size 9 to 14) (size 15 to 20)
#    0.000    1.200    2.000    3.000    5.600    2.400 
#    0.000    8.000    0.000    0.000    0.000    0.000 
#    0.000    0.000    0.000    0.000    0.000    0.000 
#
# Total GULP energy -247927.304478 kJ/mol
# GULP energy per Si atom -12396.365224 kJ/mol
# Density = 2.440366 g / cm^3
# Si number density = 24.459329 Si / 1000 Ang^3
#
#
#
# Elastic Constant Matrix: (Units=GPa)
#
#
# Indices 1 2 3 4 5 6 
#
# 1 102.8164 13.6209 31.8187 0.0000 -5.0841 0.0000
# 2 13.6209 70.3224 23.6232 0.0000 -16.0607 0.0000
# 3 31.8187 23.6232 113.5097 0.0000 -7.3678 0.0000
# 4 0.0000 0.0000 0.0000 32.8983 0.0000 8.2445
# 5 -5.0841 -16.0607 -7.3678 0.0000 34.0263 0.0000
# 6 0.0000 0.0000 0.0000 8.2445 0.0000 35.2287
#
#
#
# Elastic Compliance Matrix: (Units=1/GPa)
#
#
# Indices 1 2 3 4 5 6 
#
# 1 0.010744 -0.001034 -0.002763 0.000000 0.000519 0.000000
# 2 -0.001034 0.017016 -0.002779 0.000000 0.007275 0.000000
# 3 -0.002763 -0.002779 0.010194 0.000000 0.000483 0.000000
# 4 0.000000 0.000000 0.000000 0.032291 0.000000 -0.007557
# 5 0.000519 0.007275 0.000483 0.000000 0.033005 0.000000
# 6 0.000000 0.000000 0.000000 -0.007557 0.000000 0.030154
#
#
# Mechanical properties :
#
#
# Convention : Reuss Voigt Hill
#
# Bulk Modulus (GPa) = 40.32084 47.19712 43.75898
# Shear Modulus (GPa) = 32.29499 34.93637 33.61568
#
# Velocity S-wave (km/s) = 3.63761 3.78345 3.71124
# Velocity P-wave (km/s) = 5.84496 6.19871 6.02443
#
# Compressibility (1/GPa) = 0.02480107
#
# Stress axis : x y z
#
# Youngs Moduli (GPa) = 93.07741 58.76924 98.09734
#
# Poissons Ratio (x) = 0.06079 0.27101
# Poissons Ratio (y) = 0.09628 0.27262
# Poissons Ratio (z) = 0.25714 0.16332
#
# Static dielectric constant tensor:
#      x y z
#    x 4.603910 0.000000 0.024220 
#    y 0.000000 4.160600 0.000000 
#    z 0.024220 0.000000 4.436590 
# 
# 
# High freq. dielectric constant tensor:
#      x y z
#    x 1.989160 0.000000 0.001650 
#    y 0.000000 1.950170 0.000000 
#    z 0.001650 0.000000 1.974430 
# 
# From -- ./inp_files/170751.got.cif
#   From: 2010.06.25/outbox.cif.g09.slc.cpg/sg15_86_cif.got.tgz:170751.got - 2010.06.28 07:06:18.
