data_PCOD8144723
_publ_section_title
;
Structure prediction by ZEFSAII (Michael W. Deem and Ramdas Pophale) SiO2 
 PCOD8144723
Probable space group: C 2/C
;
_chemical_formula_sum "Si O2"
_cell_formula_units_Z 56
_cell_length_a 10.629159
_cell_length_b 9.040300
_cell_length_c 29.677810
_cell_angle_alpha 90.000000
_cell_angle_beta 112.090166
_cell_angle_gamma 90.000000
_cell_volume 2642.425190
_symmetry_space_group_name_H-M "C 2/C"
_symmetry_group_IT_number 15
_symmetry_cell_setting 'monoclinic'
loop_
_space_group_symop_operation_xyz
x,y,z
-x,y,1/2-z
-x,-y,-z
x,-y,1/2+z
1/2+x,1/2+y,z
1/2-x,1/2+y,1/2-z
1/2-x,1/2-y,-z
1/2+x,1/2-y,1/2+z
loop_
_atom_site_type_symbol
_atom_site_label
_atom_site_fract_x
_atom_site_fract_y
_atom_site_fract_z
Si Si1 0.562406 0.076982 0.589173
Si Si2 0.635878 0.064020 0.241632
Si Si3 0.734709 0.817355 0.190537
Si Si4 0.549541 0.760118 0.843561
Si Si5 0.087593 0.759422 0.087172
Si Si6 0.626593 0.281809 0.516156
Si Si7 0.285692 0.989974 0.088456
O O1 0.606938 0.169520 0.639573
O O2 0.614126 0.151583 0.550856
O O3 0.624655 0.912245 0.599381
O O4 0.398875 0.063990 0.567762
O O5 0.500000 0.010060 0.250000
O O6 0.743855 0.150373 0.287889
O O7 0.588224 0.181313 0.197586
O O8 0.715692 0.928237 0.229848
O O9 0.870561 0.853165 0.178804
O O10 0.509631 0.682936 0.885294
O O11 0.649323 0.898701 0.866757
O O12 0.227965 0.848710 0.107173
O O13 0.012846 0.789564 0.029913
O O14 0.750000 0.250000 0.500000
O O15 0.658821 0.435212 0.545536
#
# Coordination Sequence:
#
# PCOD8144723 Si02
#       7
#     8   8   8   8   8   8   8
#     4  11  23  44  64  94 135 170 211 265 324 380
#     4  10  23  42  67  91 126 163 213 266 327 383
#     4  11  21  45  67  94 125 169 211 268 327 386
#     4  10  21  44  67  89 133 166 209 267 324 375
#     4  11  23  41  68  98 132 174 217 261 320 380
#     4  12  22  43  67  95 136 178 212 263 319 378
#     4  11  23  41  64  94 130 172 216 264 312 378
#
# _framework density 21.192651999999999
#
# number of rings (size 3 to 8) (size 9 to 14) (size 15 to 20)
#    0.000    1.143    7.143    0.857    0.000    2.857 
#    5.143    6.429    0.000    0.000    0.000    0.000 
#    0.000    0.000    0.000    0.000    0.000    0.000 
#
# Total GULP energy -347112.224046 kJ/mol
# GULP energy per Si atom -12396.865145 kJ/mol
# Density = 2.114442 g / cm^3
# Si number density = 21.192652 Si / 1000 Ang^3
#
#
#
# Elastic Constant Matrix: (Units=GPa)
#
#
# Indices 1 2 3 4 5 6 
#
# 1 103.7704 79.1172 33.2546 0.0000 -20.2045 0.0000
# 2 79.1172 83.8364 30.7717 0.0000 -21.5957 0.0000
# 3 33.2546 30.7717 96.7855 0.0000 -16.1341 0.0000
# 4 0.0000 0.0000 0.0000 27.0746 0.0000 0.6444
# 5 -20.2045 -21.5957 -16.1341 0.0000 36.1905 0.0000
# 6 0.0000 0.0000 0.0000 0.6444 0.0000 47.1655
#
#
#
# Elastic Compliance Matrix: (Units=1/GPa)
#
#
# Indices 1 2 3 4 5 6 
#
# 1 0.034617 -0.032191 -0.001771 0.000000 -0.000673 0.000000
# 2 -0.032191 0.045097 -0.001931 0.000000 0.008078 0.000000
# 3 -0.001771 -0.001931 0.012097 0.000000 0.003252 0.000000
# 4 0.000000 0.000000 0.000000 0.036947 0.000000 -0.000505
# 5 -0.000673 0.008078 0.003252 0.000000 0.033526 0.000000
# 6 0.000000 0.000000 0.000000 -0.000505 0.000000 0.021209
#
#
# Mechanical properties :
#
#
# Convention : Reuss Voigt Hill
#
# Bulk Modulus (GPa) = 49.94202 63.40880 56.67541
# Shear Modulus (GPa) = 19.08737 31.50270 25.29504
#
# Velocity S-wave (km/s) = 3.00436 3.85969 3.45856
# Velocity P-wave (km/s) = 5.97091 7.06032 6.53834
#
# Compressibility (1/GPa) = 0.02002322
#
# Stress axis : x y z
#
# Youngs Moduli (GPa) = 28.88767 22.17451 82.66736
#
# Poissons Ratio (x) = 0.71383 0.14644
# Poissons Ratio (y) = 0.92994 0.15960
# Poissons Ratio (z) = 0.05117 0.04281
#
# Static dielectric constant tensor:
#      x y z
#    x 3.827390 0.000000 -0.108480 
#    y 0.000000 3.688090 0.000000 
#    z -0.108480 0.000000 4.182930 
# 
# 
# High freq. dielectric constant tensor:
#      x y z
#    x 1.825860 0.000000 -0.011780 
#    y 0.000000 1.804310 0.000000 
#    z -0.011780 0.000000 1.846510 
# 
# From -- ./inp_files/310037.got.cif
#   From: 2010.06.25/outbox.cif.g09.slc.cpg/sg15_156_cif.got.tgz:310037.got - 2010.06.28 07:06:18.
