data_PCOD8144090
_publ_section_title
;
Structure prediction by ZEFSAII (Michael W. Deem and Ramdas Pophale) SiO2 
 PCOD8144090
Probable space group: C 2/C
;
_chemical_formula_sum "Si O2"
_cell_formula_units_Z 56
_cell_length_a 11.159266
_cell_length_b 8.739472
_cell_length_c 28.904229
_cell_angle_alpha 90.000000
_cell_angle_beta 67.145184
_cell_angle_gamma 90.000000
_cell_volume 2597.608981
_symmetry_space_group_name_H-M "C 2/C"
_symmetry_group_IT_number 15
_symmetry_cell_setting 'monoclinic'
loop_
_space_group_symop_operation_xyz
x,y,z
-x,y,1/2-z
-x,-y,-z
x,-y,1/2+z
1/2+x,1/2+y,z
1/2-x,1/2+y,1/2-z
1/2-x,1/2-y,-z
1/2+x,1/2-y,1/2+z
loop_
_atom_site_type_symbol
_atom_site_label
_atom_site_fract_x
_atom_site_fract_y
_atom_site_fract_z
Si Si1 0.259311 0.956738 0.569833
Si Si2 0.128084 0.257391 0.601608
Si Si3 0.918062 0.658017 0.199171
Si Si4 0.500000 0.097573 0.750000
Si Si5 0.310511 0.534556 0.021826
Si Si6 0.333634 0.345716 0.824336
Si Si7 0.039749 0.215364 0.953591
Si Si8 0.500000 0.407247 0.250000
O O1 0.180635 0.847087 0.617626
O O2 0.407291 0.889679 0.546334
O O3 0.241553 0.130018 0.592993
O O4 0.203686 0.955102 0.526211
O O5 0.178482 0.389898 0.559591
O O6 0.066855 0.327939 0.657114
O O7 0.005240 0.185336 0.592373
O O8 0.809737 0.650473 0.176152
O O9 0.908592 0.504836 0.230968
O O10 0.899359 0.804073 0.235415
O O11 0.408396 0.195533 0.797097
O O12 0.344700 0.403152 0.053178
O O13 0.418372 0.671012 0.005147
O O14 0.415331 0.493363 0.797676
#
# Coordination Sequence:
#
# PCOD8144090 Si02
#       8
#     8   8   8   4   8   8   8   4
#     4  11  21  39  64  90 122 164 203 248 301 360
#     4  11  23  39  62  92 124 160 204 250 301 364
#     4  11  22  42  63  90 121 158 199 253 312 362
#     4  10  26  42  64  90 118 156 204 258 304 370
#     4  10  24  40  60  91 127 166 203 248 298 358
#     4  11  22  42  64  91 118 157 204 252 310 363
#     4  10  21  42  60  85 127 161 200 248 295 348
#     4  10  22  42  66  84 122 156 198 258 310 366
#
# _framework density 21.558288000000001
#
# number of rings (size 3 to 8) (size 9 to 14) (size 15 to 20)
#    0.000    1.429    2.857    3.000    2.000    2.286 
#    0.000    2.857    0.000    0.000    0.000    0.000 
#    0.000    0.000    0.000    0.000    0.000    0.000 
#
# Total GULP energy -346993.721726 kJ/mol
# GULP energy per Si atom -12392.632919 kJ/mol
# Density = 2.150922 g / cm^3
# Si number density = 21.558288 Si / 1000 Ang^3
#
#
#
# Elastic Constant Matrix: (Units=GPa)
#
#
# Indices 1 2 3 4 5 6 
#
# 1 71.6704 39.4079 19.0636 0.0000 1.0849 0.0000
# 2 39.4079 103.6741 38.5370 0.0000 -0.9073 0.0000
# 3 19.0636 38.5370 88.9027 0.0000 -2.7249 0.0000
# 4 0.0000 0.0000 0.0000 32.3782 0.0000 -6.4890
# 5 1.0849 -0.9073 -2.7249 0.0000 24.2820 0.0000
# 6 0.0000 0.0000 0.0000 -6.4890 0.0000 36.7233
#
#
#
# Elastic Compliance Matrix: (Units=1/GPa)
#
#
# Indices 1 2 3 4 5 6 
#
# 1 0.017753 -0.006354 -0.001088 0.000000 -0.001153 0.000000
# 2 -0.006354 0.013773 -0.004599 0.000000 0.000282 0.000000
# 3 -0.001088 -0.004599 0.013518 0.000000 0.001394 0.000000
# 4 0.000000 0.000000 0.000000 0.032019 0.000000 0.005658
# 5 -0.001153 0.000282 0.001394 0.000000 0.041401 0.000000
# 6 0.000000 0.000000 0.000000 0.005658 0.000000 0.028230
#
#
# Mechanical properties :
#
#
# Convention : Reuss Voigt Hill
#
# Bulk Modulus (GPa) = 47.70508 50.91826 49.31167
# Shear Modulus (GPa) = 28.12725 29.82594 28.97660
#
# Velocity S-wave (km/s) = 3.61599 3.72358 3.67018
# Velocity P-wave (km/s) = 6.29367 6.49283 6.39403
#
# Compressibility (1/GPa) = 0.02096213
#
# Stress axis : x y z
#
# Youngs Moduli (GPa) = 56.32755 72.60683 73.97641
#
# Poissons Ratio (x) = 0.46134 0.08048
# Poissons Ratio (y) = 0.35790 0.34022
# Poissons Ratio (z) = 0.06128 0.33392
#
# Static dielectric constant tensor:
#      x y z
#    x 3.697000 0.000000 -0.066560 
#    y 0.000000 3.986970 0.000000 
#    z -0.066560 0.000000 3.866590 
# 
# 
# High freq. dielectric constant tensor:
#      x y z
#    x 1.826810 0.000000 -0.002910 
#    y 0.000000 1.847020 0.000000 
#    z -0.002910 0.000000 1.854640 
# 
# From -- ./inp_files/291553.got.cif
#   From: 2010.06.25/outbox.cif.g09.slc.cpg/sg15_146_cif.got.tgz:291553.got - 2010.06.28 07:06:18.
