data_PCOD8144523
_publ_section_title
;
Structure prediction by ZEFSAII (Michael W. Deem and Ramdas Pophale) SiO2 
 PCOD8144523
Probable space group: C 2/C
;
_chemical_formula_sum "Si O2"
_cell_formula_units_Z 64
_cell_length_a 14.176098
_cell_length_b 15.113384
_cell_length_c 16.580578
_cell_angle_alpha 90.000000
_cell_angle_beta 52.382620
_cell_angle_gamma 90.000000
_cell_volume 2813.847684
_symmetry_space_group_name_H-M "C 2/C"
_symmetry_group_IT_number 15
_symmetry_cell_setting 'monoclinic'
loop_
_space_group_symop_operation_xyz
x,y,z
-x,y,1/2-z
-x,-y,-z
x,-y,1/2+z
1/2+x,1/2+y,z
1/2-x,1/2+y,1/2-z
1/2-x,1/2-y,-z
1/2+x,1/2-y,1/2+z
loop_
_atom_site_type_symbol
_atom_site_label
_atom_site_fract_x
_atom_site_fract_y
_atom_site_fract_z
Si Si1 0.761382 0.323882 0.853142
Si Si2 0.902407 0.625489 0.132996
Si Si3 0.469464 0.402558 0.482154
Si Si4 0.620236 0.693977 0.143268
Si Si5 0.234504 0.521402 0.413038
Si Si6 0.139286 0.775783 0.451880
Si Si7 0.124926 0.851701 0.142441
Si Si8 0.408999 0.967156 0.863843
O O1 0.814075 0.316760 0.735809
O O2 0.798222 0.239331 0.889851
O O3 0.810452 0.414264 0.866409
O O4 0.620352 0.343671 0.915338
O O5 0.846486 0.536361 0.124244
O O6 0.928390 0.687532 0.042828
O O7 0.021137 0.604871 0.119345
O O8 0.500000 0.500000 0.500000
O O9 0.598885 0.355899 0.414685
O O10 0.404447 0.392153 0.430032
O O11 0.500000 0.716829 0.250000
O O12 0.662206 0.594216 0.138167
O O13 0.718336 0.764385 0.122891
O O14 0.592170 0.704420 0.064753
O O15 0.292120 0.426947 0.362894
O O16 0.158301 0.530747 0.537034
O O17 0.000000 0.835154 0.250000
O O18 0.500000 0.012804 0.750000
#
# Coordination Sequence:
#
# PCOD8144523 Si02
#       8
#     8   8   8   8   8   8   8   8
#     4  11  24  44  70  97 141 193 230 298 369 418
#     4  10  23  43  67  99 137 184 236 292 352 420
#     4  12  26  42  71 104 144 179 238 303 351 429
#     4  10  23  46  68  94 139 186 224 294 361 418
#     4  11  23  40  70 103 140 181 241 293 356 424
#     4  10  23  41  69  96 132 177 237 274 354 436
#     4  12  25  43  70 104 144 190 244 295 358 439
#     4  10  21  43  66  92 139 186 231 291 357 415
#
# _framework density 22.744655999999999
#
# number of rings (size 3 to 8) (size 9 to 14) (size 15 to 20)
#    0.000    1.250    1.250    4.500    7.000    0.000 
#    0.000    5.625    0.000    0.000    0.000    0.000 
#    0.000    0.000    0.000    0.000    0.000    0.000 
#
# Total GULP energy -396477.682074 kJ/mol
# GULP energy per Si atom -12389.927565 kJ/mol
# Density = 2.269289 g / cm^3
# Si number density = 22.744656 Si / 1000 Ang^3
#
#
#
# Elastic Constant Matrix: (Units=GPa)
#
#
# Indices 1 2 3 4 5 6 
#
# 1 84.5093 38.2312 19.3443 0.0000 -2.8283 0.0000
# 2 38.2312 99.2975 20.1271 0.0000 -10.4535 0.0000
# 3 19.3443 20.1271 82.0878 0.0000 -19.5595 0.0000
# 4 0.0000 0.0000 0.0000 23.7433 0.0000 0.1655
# 5 -2.8283 -10.4535 -19.5595 0.0000 34.6993 0.0000
# 6 0.0000 0.0000 0.0000 0.1655 0.0000 50.4426
#
#
#
# Elastic Compliance Matrix: (Units=1/GPa)
#
#
# Indices 1 2 3 4 5 6 
#
# 1 0.014797 -0.005364 -0.002621 0.000000 -0.001888 0.000000
# 2 -0.005364 0.012663 -0.001197 0.000000 0.002703 0.000000
# 3 -0.002621 -0.001197 0.014967 0.000000 0.007862 0.000000
# 4 0.000000 0.000000 0.000000 0.042118 0.000000 -0.000138
# 5 -0.001888 0.002703 0.007862 0.000000 0.033911 0.000000
# 6 0.000000 0.000000 0.000000 -0.000138 0.000000 0.019825
#
#
# Mechanical properties :
#
#
# Convention : Reuss Voigt Hill
#
# Bulk Modulus (GPa) = 41.55982 46.81111 44.18546
# Shear Modulus (GPa) = 30.36444 34.32319 32.34382
#
# Velocity S-wave (km/s) = 3.65775 3.88888 3.77509
# Velocity P-wave (km/s) = 6.01256 6.38674 6.20247
#
# Compressibility (1/GPa) = 0.02406170
#
# Stress axis : x y z
#
# Youngs Moduli (GPa) = 67.58288 78.96875 66.81533
#
# Poissons Ratio (x) = 0.42361 0.17515
# Poissons Ratio (y) = 0.36254 0.07996
# Poissons Ratio (z) = 0.17716 0.09450
#
# Static dielectric constant tensor:
#      x y z
#    x 4.382960 0.000000 -0.054940 
#    y 0.000000 3.962940 0.000000 
#    z -0.054940 0.000000 4.601880 
# 
# 
# High freq. dielectric constant tensor:
#      x y z
#    x 1.917300 0.000000 0.002440 
#    y 0.000000 1.881750 0.000000 
#    z 0.002440 0.000000 1.893820 
# 
# From -- ./inp_files/205719.got.cif
#   From: 2010.06.25/outbox.cif.g09.slc.cpg/sg15_103_cif.got.tgz:205719.got - 2010.06.28 07:06:18.
