data_PCOD8144398
_publ_section_title
;
Structure prediction by ZEFSAII (Michael W. Deem and Ramdas Pophale) SiO2 
 PCOD8144398
Probable space group: C 2/C
;
_chemical_formula_sum "Si O2"
_cell_formula_units_Z 48
_cell_length_a 9.209366
_cell_length_b 16.331140
_cell_length_c 16.847814
_cell_angle_alpha 90.000000
_cell_angle_beta 112.373954
_cell_angle_gamma 90.000000
_cell_volume 2343.147642
_symmetry_space_group_name_H-M "C 2/C"
_symmetry_group_IT_number 15
_symmetry_cell_setting 'monoclinic'
loop_
_space_group_symop_operation_xyz
x,y,z
-x,y,1/2-z
-x,-y,-z
x,-y,1/2+z
1/2+x,1/2+y,z
1/2-x,1/2+y,1/2-z
1/2-x,1/2-y,-z
1/2+x,1/2-y,1/2+z
loop_
_atom_site_type_symbol
_atom_site_label
_atom_site_fract_x
_atom_site_fract_y
_atom_site_fract_z
Si Si1 0.000000 0.392639 0.250000
Si Si2 0.300917 0.697123 0.851939
Si Si3 0.338714 0.873664 0.637917
Si Si4 0.995117 0.903128 0.981859
Si Si5 0.135959 0.537492 0.192427
Si Si6 0.634475 0.362436 0.841016
Si Si7 0.500000 0.269670 0.250000
O O1 0.126499 0.338851 0.321954
O O2 0.095385 0.443948 0.203369
O O3 0.272468 0.793003 0.867036
O O4 0.380563 0.680698 0.782013
O O5 0.409727 0.649783 0.935870
O O6 0.308646 0.918849 0.714950
O O7 0.479871 0.920866 0.622911
O O8 0.391289 0.781396 0.666744
O O9 0.185879 0.875184 0.551109
O O10 0.061542 0.876962 0.910956
O O11 0.000000 0.000000 0.000000
O O12 0.281035 0.550751 0.162963
O O13 0.500000 0.338924 0.750000
#
# Coordination Sequence:
#
# PCOD8144398 Si02
#       7
#     4   8   8   8   8   8   4
#     4  10  23  40  64  97 134 170 214 276 325 392
#     4  12  24  42  65 101 133 167 228 273 325 385
#     4   9  17  39  65  87 125 164 219 256 318 380
#     4  12  26  41  62 101 139 166 217 285 329 380
#     4   9  18  39  67  87 120 180 217 249 322 399
#     4  12  22  43  71  93 128 181 225 259 329 399
#     4  10  21  42  70  93 122 180 224 260 317 408
#
# _framework density 20.485265999999999
#
# number of rings (size 3 to 8) (size 9 to 14) (size 15 to 20)
#    0.000    1.667    5.833    2.500    0.000    2.000 
#    0.000    3.333    0.000    0.000    0.000    0.000 
#    0.000    0.000    0.000    0.000    0.000    0.000 
#
# Total GULP energy -297417.957879 kJ/mol
# GULP energy per Si atom -12392.414912 kJ/mol
# Density = 2.043864 g / cm^3
# Si number density = 20.485266 Si / 1000 Ang^3
#
#
#
# Elastic Constant Matrix: (Units=GPa)
#
#
# Indices 1 2 3 4 5 6 
#
# 1 79.6523 28.2645 39.2861 0.0000 9.8145 0.0000
# 2 28.2645 77.2920 33.2093 0.0000 4.5844 0.0000
# 3 39.2861 33.2093 101.0203 0.0000 28.4295 0.0000
# 4 0.0000 0.0000 0.0000 11.4475 0.0000 10.1820
# 5 9.8145 4.5844 28.4295 0.0000 44.4731 0.0000
# 6 0.0000 0.0000 0.0000 10.1820 0.0000 20.1064
#
#
#
# Elastic Compliance Matrix: (Units=1/GPa)
#
#
# Indices 1 2 3 4 5 6 
#
# 1 0.016441 -0.003797 -0.005163 0.000000 0.000064 0.000000
# 2 -0.003797 0.016086 -0.004366 0.000000 0.001971 0.000000
# 3 -0.005163 -0.004366 0.015724 0.000000 -0.008462 0.000000
# 4 0.000000 0.000000 0.000000 0.158949 0.000000 -0.080493
# 5 0.000064 0.001971 -0.008462 0.000000 0.027677 0.000000
# 6 0.000000 0.000000 0.000000 -0.080493 0.000000 0.090497
#
#
# Mechanical properties :
#
#
# Convention : Reuss Voigt Hill
#
# Bulk Modulus (GPa) = 46.30312 51.05383 48.67848
# Shear Modulus (GPa) = 13.91881 25.68573 19.80227
#
# Velocity S-wave (km/s) = 2.60946 3.54484 3.11249
# Velocity P-wave (km/s) = 5.63305 6.45994 6.06061
#
# Compressibility (1/GPa) = 0.02159681
#
# Stress axis : x y z
#
# Youngs Moduli (GPa) = 60.82399 62.16770 63.59900
#
# Poissons Ratio (x) = 0.23608 0.32838
# Poissons Ratio (y) = 0.23098 0.27766
# Poissons Ratio (z) = 0.31405 0.27141
#
# Static dielectric constant tensor:
#      x y z
#    x 3.966270 0.000000 0.208590 
#    y 0.000000 3.654360 0.000000 
#    z 0.208590 0.000000 3.527430 
# 
# 
# High freq. dielectric constant tensor:
#      x y z
#    x 1.814260 0.000000 0.020850 
#    y 0.000000 1.792370 0.000000 
#    z 0.020850 0.000000 1.775090 
# 
# From -- ./inp_files/232335.got.cif
#   From: 2010.06.25/outbox.cif.g09.slc.cpg/sg15_117_cif.got.tgz:232335.got - 2010.06.28 07:06:18.
