data_PCOD8144232
_publ_section_title
;
Structure prediction by ZEFSAII (Michael W. Deem and Ramdas Pophale) SiO2 
 PCOD8144232
Probable space group: C 2/C
;
_chemical_formula_sum "Si O2"
_cell_formula_units_Z 44
_cell_length_a 18.771178
_cell_length_b 16.712649
_cell_length_c 7.957650
_cell_angle_alpha 90.000000
_cell_angle_beta 128.647937
_cell_angle_gamma 90.000000
_cell_volume 1949.717549
_symmetry_space_group_name_H-M "C 2/C"
_symmetry_group_IT_number 15
_symmetry_cell_setting 'monoclinic'
loop_
_space_group_symop_operation_xyz
x,y,z
-x,y,1/2-z
-x,-y,-z
x,-y,1/2+z
1/2+x,1/2+y,z
1/2-x,1/2+y,1/2-z
1/2-x,1/2-y,-z
1/2+x,1/2-y,1/2+z
loop_
_atom_site_type_symbol
_atom_site_label
_atom_site_fract_x
_atom_site_fract_y
_atom_site_fract_z
Si Si1 0.324414 0.079614 0.837503
Si Si2 0.000000 0.362385 0.750000
Si Si3 0.315701 0.450127 0.867292
Si Si4 0.557733 0.768518 0.504862
Si Si5 0.641231 0.393422 0.216178
Si Si6 0.712302 0.170792 0.026135
O O1 0.244063 0.130897 0.810603
O O2 0.349394 0.122774 0.699227
O O3 0.285015 0.990012 0.742944
O O4 0.414107 0.079443 0.087201
O O5 0.014739 0.307410 0.607645
O O6 0.383894 0.520151 0.903831
O O7 0.299960 0.383976 0.699940
O O8 0.360874 0.404304 0.087491
O O9 0.500000 0.778422 0.250000
O O10 0.569697 0.674011 0.558112
O O11 0.654723 0.810248 0.609023
O O12 0.750000 0.250000 0.000000
#
# Coordination Sequence:
#
# PCOD8144232 Si02
#       6
#     8   4   8   8   8   8
#     4  10  21  42  65  99 135 170 227 276 338 411
#     4  12  26  44  66 106 144 182 224 278 352 420
#     4  10  21  42  68 102 127 178 232 284 340 412
#     4  12  27  43  67 101 141 181 228 285 344 407
#     4  10  22  43  69  96 131 178 230 280 342 407
#     4  12  22  42  73  99 136 177 233 289 339 401
#
# _framework density 22.567371000000001
#
# number of rings (size 3 to 8) (size 9 to 14) (size 15 to 20)
#    1.091    0.000    5.455    1.091    2.545    1.455 
#    1.636    3.636    0.000    0.000    0.000    0.000 
#    0.000    0.000    0.000    0.000    0.000    0.000 
#
# Total GULP energy -272644.360358 kJ/mol
# GULP energy per Si atom -12392.925471 kJ/mol
# Density = 2.251601 g / cm^3
# Si number density = 22.567371 Si / 1000 Ang^3
#
#
#
# Elastic Constant Matrix: (Units=GPa)
#
#
# Indices 1 2 3 4 5 6 
#
# 1 49.3759 4.9498 9.2568 0.0000 -15.0089 0.0000
# 2 4.9498 94.4578 14.3996 0.0000 -13.2810 0.0000
# 3 9.2568 14.3996 98.0480 0.0000 -25.5498 0.0000
# 4 0.0000 0.0000 0.0000 47.1201 0.0000 -1.2686
# 5 -15.0089 -13.2810 -25.5498 0.0000 29.6556 0.0000
# 6 0.0000 0.0000 0.0000 -1.2686 0.0000 20.4284
#
#
#
# Elastic Compliance Matrix: (Units=1/GPa)
#
#
# Indices 1 2 3 4 5 6 
#
# 1 0.024055 0.000443 0.001145 0.000000 0.013359 0.000000
# 2 0.000443 0.011321 -0.000419 0.000000 0.004933 0.000000
# 3 0.001145 -0.000419 0.013223 0.000000 0.011785 0.000000
# 4 0.000000 0.000000 0.000000 0.021258 0.000000 0.001320
# 5 0.013359 0.004933 0.011785 0.000000 0.052844 0.000000
# 6 0.000000 0.000000 0.000000 0.001320 0.000000 0.049033
#
#
# Mechanical properties :
#
#
# Convention : Reuss Voigt Hill
#
# Bulk Modulus (GPa) = 19.63174 33.23267 26.43220
# Shear Modulus (GPa) = 26.82768 33.65920 30.24344
#
# Velocity S-wave (km/s) = 3.45161 3.86618 3.66476
# Velocity P-wave (km/s) = 4.96013 5.88963 5.44475
#
# Compressibility (1/GPa) = 0.05093792
#
# Stress axis : x y z
#
# Youngs Moduli (GPa) = 41.57222 88.33123 75.62363
#
# Poissons Ratio (x) = -0.03916 -0.08660
# Poissons Ratio (y) = -0.01843 0.03168
# Poissons Ratio (z) = -0.04760 0.03700
#
# Static dielectric constant tensor:
#      x y z
#    x 3.940310 0.000000 -0.170720 
#    y 0.000000 4.001090 0.000000 
#    z -0.170720 0.000000 3.922070 
# 
# 
# High freq. dielectric constant tensor:
#      x y z
#    x 1.864390 0.000000 -0.022900 
#    y 0.000000 1.889230 0.000000 
#    z -0.022900 0.000000 1.889550 
# 
# From -- ./inp_files/55911.got.cif
#   From: 2010.06.25/outbox.cif.g09.slc.cpg/sg15_28_cif.got.tgz:55911.got - 2010.06.28 07:06:18.
