data_PCOD8144544
_publ_section_title
;
Structure prediction by ZEFSAII (Michael W. Deem and Ramdas Pophale) SiO2 
 PCOD8144544
Probable space group: C 2/C
;
_chemical_formula_sum "Si O2"
_cell_formula_units_Z 64
_cell_length_a 27.496210
_cell_length_b 11.471635
_cell_length_c 9.595114
_cell_angle_alpha 90.000000
_cell_angle_beta 87.879497
_cell_angle_gamma 90.000000
_cell_volume 3024.480550
_symmetry_space_group_name_H-M "C 2/C"
_symmetry_group_IT_number 15
_symmetry_cell_setting 'monoclinic'
loop_
_space_group_symop_operation_xyz
x,y,z
-x,y,1/2-z
-x,-y,-z
x,-y,1/2+z
1/2+x,1/2+y,z
1/2-x,1/2+y,1/2-z
1/2-x,1/2-y,-z
1/2+x,1/2-y,1/2+z
loop_
_atom_site_type_symbol
_atom_site_label
_atom_site_fract_x
_atom_site_fract_y
_atom_site_fract_z
Si Si1 0.626037 0.134583 0.514077
Si Si2 0.898923 0.005277 0.011546
Si Si3 0.954677 0.789410 0.075193
Si Si4 0.276439 0.265449 0.353716
Si Si5 0.832971 0.004759 0.780241
Si Si6 0.359799 0.911008 0.808055
Si Si7 0.711536 0.276416 0.621051
Si Si8 0.435073 0.734069 0.892324
O O1 0.573007 0.194807 0.518336
O O2 0.632512 0.082693 0.358793
O O3 0.661316 0.239004 0.556116
O O4 0.636396 0.040541 0.632216
O O5 0.945873 0.921874 0.025523
O O6 0.852086 0.990286 0.119144
O O7 0.880656 0.970558 0.860940
O O8 0.915894 0.139331 0.005196
O O9 0.932538 0.803517 0.231888
O O10 0.009490 0.742394 0.068433
O O11 0.250000 0.250000 0.500000
O O12 0.314634 0.370607 0.337587
O O13 0.306730 0.146199 0.329985
O O14 0.233006 0.293652 0.250110
O O15 0.791706 0.908511 0.818343
O O16 0.400792 0.847110 0.898814
O O17 0.750000 0.250000 0.500000
#
# Coordination Sequence:
#
# PCOD8144544 Si02
#       8
#     8   8   8   8   8   8   8   8
#     4  11  25  44  68  93 135 171 223 276 327 394
#     4  12  20  42  68  99 137 167 215 270 334 390
#     4  10  21  43  67 100 132 175 217 270 338 397
#     4  12  27  43  65  98 135 175 226 273 325 388
#     4  12  25  42  67  97 135 173 215 276 326 385
#     4  11  25  46  65  96 130 175 221 277 330 389
#     4  12  26  42  67  94 132 179 219 268 331 388
#     4  10  22  41  70  97 134 174 218 270 335 403
#
# _framework density 21.16066
#
# number of rings (size 3 to 8) (size 9 to 14) (size 15 to 20)
#    0.000    0.750    5.000    2.625    5.250    0.500 
#    0.000    0.000    0.000    0.000    0.000    0.000 
#    0.000    0.000    0.000    0.000    0.000    0.000 
#
# Total GULP energy -396451.867985 kJ/mol
# GULP energy per Si atom -12389.120875 kJ/mol
# Density = 2.111250 g / cm^3
# Si number density = 21.160660 Si / 1000 Ang^3
#
#
#
# Elastic Constant Matrix: (Units=GPa)
#
#
# Indices 1 2 3 4 5 6 
#
# 1 91.2826 15.8864 27.6265 0.0000 16.2978 0.0000
# 2 15.8864 87.4916 24.3863 0.0000 4.0032 0.0000
# 3 27.6265 24.3863 94.4477 0.0000 9.5994 0.0000
# 4 0.0000 0.0000 0.0000 36.3936 0.0000 4.0174
# 5 16.2978 4.0032 9.5994 0.0000 39.4624 0.0000
# 6 0.0000 0.0000 0.0000 4.0174 0.0000 34.7765
#
#
#
# Elastic Compliance Matrix: (Units=1/GPa)
#
#
# Indices 1 2 3 4 5 6 
#
# 1 0.012880 -0.001305 -0.002977 0.000000 -0.004463 0.000000
# 2 -0.001305 0.012457 -0.002831 0.000000 -0.000036 0.000000
# 3 -0.002977 -0.002831 0.012341 0.000000 -0.001485 0.000000
# 4 0.000000 0.000000 0.000000 0.027832 0.000000 -0.003215
# 5 -0.004463 -0.000036 -0.001485 0.000000 0.027549 0.000000
# 6 0.000000 0.000000 0.000000 -0.003215 0.000000 0.029126
#
#
# Mechanical properties :
#
#
# Convention : Reuss Voigt Hill
#
# Bulk Modulus (GPa) = 42.64012 45.44671 44.04341
# Shear Modulus (GPa) = 34.66729 35.81469 35.24099
#
# Velocity S-wave (km/s) = 4.05197 4.11848 4.08536
# Velocity P-wave (km/s) = 6.48735 6.64375 6.56602
#
# Compressibility (1/GPa) = 0.02345209
#
# Stress axis : x y z
#
# Youngs Moduli (GPa) = 77.64082 80.27388 81.03324
#
# Poissons Ratio (x) = 0.10473 0.24123
# Poissons Ratio (y) = 0.10130 0.22942
# Poissons Ratio (z) = 0.23113 0.22727
#
# Static dielectric constant tensor:
#      x y z
#    x 3.944000 0.000000 0.174930 
#    y 0.000000 3.746990 0.000000 
#    z 0.174930 0.000000 3.817460 
# 
# 
# High freq. dielectric constant tensor:
#      x y z
#    x 1.834580 0.000000 0.017910 
#    y 0.000000 1.824060 0.000000 
#    z 0.017910 0.000000 1.832600 
# 
# From -- ./inp_files/69392.got.cif
#   From: 2010.06.25/outbox.cif.g09.slc.cpg/sg15_35_cif.got.tgz:69392.got - 2010.06.28 07:06:18.
