data_PCOD8144859
_publ_section_title
;
Structure prediction by ZEFSAII (Michael W. Deem and Ramdas Pophale) SiO2 
 PCOD8144859
Probable space group: C 2/C
;
_chemical_formula_sum "Si O2"
_cell_formula_units_Z 36
_cell_length_a 15.368673
_cell_length_b 7.590159
_cell_length_c 18.554556
_cell_angle_alpha 90.000000
_cell_angle_beta 130.088794
_cell_angle_gamma 90.000000
_cell_volume 1655.869603
_symmetry_space_group_name_H-M "C 2/C"
_symmetry_group_IT_number 15
_symmetry_cell_setting 'monoclinic'
loop_
_space_group_symop_operation_xyz
x,y,z
-x,y,1/2-z
-x,-y,-z
x,-y,1/2+z
1/2+x,1/2+y,z
1/2-x,1/2+y,1/2-z
1/2-x,1/2-y,-z
1/2+x,1/2-y,1/2+z
loop_
_atom_site_type_symbol
_atom_site_label
_atom_site_fract_x
_atom_site_fract_y
_atom_site_fract_z
Si Si1 0.446475 0.447869 0.045014
Si Si2 0.094327 0.171206 0.748625
Si Si3 0.844208 0.371635 0.423517
Si Si4 0.049920 0.668889 0.926128
Si Si5 0.500000 0.994048 0.250000
O O1 0.550527 0.361150 0.144780
O O2 0.399072 0.631948 0.051279
O O3 0.500000 0.500000 0.000000
O O4 0.350485 0.297801 0.980972
O O5 0.218879 0.093400 0.826167
O O6 0.099215 0.379932 0.770022
O O7 0.000000 0.077285 0.750000
O O8 0.869237 0.544393 0.483893
O O9 0.926064 0.342158 0.398347
O O10 0.046936 0.620347 0.840594
#
# Coordination Sequence:
#
# PCOD8144859 Si02
#       5
#     8   8   8   8   4
#     4  10  22  43  64  96 131 169 220 268 327 390
#     4  10  23  42  68  91 137 175 215 269 340 377
#     4  10  21  46  65  93 134 176 216 278 319 400
#     4  10  22  40  69  95 130 169 229 263 335 389
#     4  10  22  40  68  96 134 172 218 272 334 388
#
# _framework density 21.740842000000001
#
# number of rings (size 3 to 8) (size 9 to 14) (size 15 to 20)
#    0.667    1.333    2.222    0.000    1.556    7.111 
#    4.000    2.222    0.000    0.000    0.000    0.000 
#    0.000    0.000    0.000    0.000    0.000    0.000 
#
# Total GULP energy -222994.961900 kJ/mol
# GULP energy per Si atom -12388.608994 kJ/mol
# Density = 2.169136 g / cm^3
# Si number density = 21.740842 Si / 1000 Ang^3
#
#
#
# Elastic Constant Matrix: (Units=GPa)
#
#
# Indices 1 2 3 4 5 6 
#
# 1 53.3795 18.5817 44.4791 0.0000 -2.5754 0.0000
# 2 18.5817 127.9159 38.2411 0.0000 -15.1963 0.0000
# 3 44.4791 38.2411 146.4973 0.0000 -14.4243 0.0000
# 4 0.0000 0.0000 0.0000 31.4109 0.0000 -20.3918
# 5 -2.5754 -15.1963 -14.4243 0.0000 40.9255 0.0000
# 6 0.0000 0.0000 0.0000 -20.3918 0.0000 21.0883
#
#
#
# Elastic Compliance Matrix: (Units=1/GPa)
#
#
# Indices 1 2 3 4 5 6 
#
# 1 0.025444 -0.001663 -0.007453 0.000000 -0.001643 0.000000
# 2 -0.001663 0.008833 -0.001542 0.000000 0.002632 0.000000
# 3 -0.007453 -0.001542 0.009726 0.000000 0.002387 0.000000
# 4 0.000000 0.000000 0.000000 0.085524 0.000000 0.082699
# 5 -0.001643 0.002632 0.002387 0.000000 0.026150 0.000000
# 6 0.000000 0.000000 0.000000 0.082699 0.000000 0.127387
#
#
# Mechanical properties :
#
#
# Convention : Reuss Voigt Hill
#
# Bulk Modulus (GPa) = 44.07713 58.93295 51.50504
# Shear Modulus (GPa) = 16.02866 33.78431 24.90649
#
# Velocity S-wave (km/s) = 2.71820 3.94630 3.38836
# Velocity P-wave (km/s) = 5.49267 6.92317 6.24899
#
# Compressibility (1/GPa) = 0.02268750
#
# Stress axis : x y z
#
# Youngs Moduli (GPa) = 39.30269 113.21494 102.81481
#
# Poissons Ratio (x) = 0.18830 0.76625
# Poissons Ratio (y) = 0.06537 0.15849
# Poissons Ratio (z) = 0.29291 0.17453
#
# Static dielectric constant tensor:
#      x y z
#    x 3.537610 0.000000 -0.369180 
#    y 0.000000 5.643410 0.000000 
#    z -0.369180 0.000000 3.873360 
# 
# 
# High freq. dielectric constant tensor:
#      x y z
#    x 1.823230 0.000000 -0.024430 
#    y 0.000000 1.864800 0.000000 
#    z -0.024430 0.000000 1.859310 
# 
# From -- ./inp_files/209381.got.cif
#   From: 2010.06.25/outbox.cif.g09.slc.cpg/sg15_105_cif.got.tgz:209381.got - 2010.06.28 07:06:18.
