data_PCOD8144134
_publ_section_title
;
Structure prediction by ZEFSAII (Michael W. Deem and Ramdas Pophale) SiO2 
 PCOD8144134
Probable space group: C 2/C
;
_chemical_formula_sum "Si O2"
_cell_formula_units_Z 48
_cell_length_a 31.659353
_cell_length_b 14.448658
_cell_length_c 14.981425
_cell_angle_alpha 90.000000
_cell_angle_beta 161.323371
_cell_angle_gamma 90.000000
_cell_volume 2194.522662
_symmetry_space_group_name_H-M "C 2/C"
_symmetry_group_IT_number 15
_symmetry_cell_setting 'monoclinic'
loop_
_space_group_symop_operation_xyz
x,y,z
-x,y,1/2-z
-x,-y,-z
x,-y,1/2+z
1/2+x,1/2+y,z
1/2-x,1/2+y,1/2-z
1/2-x,1/2-y,-z
1/2+x,1/2-y,1/2+z
loop_
_atom_site_type_symbol
_atom_site_label
_atom_site_fract_x
_atom_site_fract_y
_atom_site_fract_z
Si Si1 0.539162 0.213917 0.730553
Si Si2 0.654778 0.718354 0.143663
Si Si3 0.000000 0.372743 0.750000
Si Si4 0.457491 0.010833 0.516587
Si Si5 0.995006 0.156521 0.492105
Si Si6 0.348145 0.496112 0.110811
Si Si7 0.000000 0.059689 0.750000
O O1 0.500000 0.248391 0.750000
O O2 0.491332 0.110691 0.620948
O O3 0.465867 0.280965 0.513824
O O4 0.694598 0.221101 0.025779
O O5 0.562806 0.723816 0.047350
O O6 0.625029 0.806765 0.021369
O O7 0.622289 0.623501 0.026590
O O8 0.032774 0.436179 0.729358
O O9 0.500000 0.000000 0.500000
O O10 0.302418 0.994793 0.218178
O O11 0.125433 0.102566 0.787598
O O12 0.882669 0.080641 0.245084
O O13 0.443549 0.504714 0.215448
#
# Coordination Sequence:
#
# PCOD8144134 Si02
#       7
#     8   8   4   8   8   8   4
#     4  12  24  38  60  97 131 163 214 271 326 375
#     4  10  21  42  63  88 125 172 222 255 317 395
#     4  11  24  44  67  94 122 182 219 254 330 385
#     4  12  25  42  65  96 133 169 213 274 326 385
#     4  10  22  41  65  90 126 175 215 265 319 383
#     4  10  22  42  64  97 128 169 224 259 326 388
#     4   9  20  36  67  86 122 168 215 276 310 381
#
# _framework density 21.872637999999998
#
# number of rings (size 3 to 8) (size 9 to 14) (size 15 to 20)
#    0.000    1.333    0.833    4.500    1.167    2.000 
#    0.000    0.000    0.000    0.000    0.000    0.000 
#    0.000    0.000    0.000    0.000    0.000    0.000 
#
# Total GULP energy -297714.104436 kJ/mol
# GULP energy per Si atom -12404.754352 kJ/mol
# Density = 2.182286 g / cm^3
# Si number density = 21.872638 Si / 1000 Ang^3
#
#
#
# Elastic Constant Matrix: (Units=GPa)
#
#
# Indices 1 2 3 4 5 6 
#
# 1 134.4182 38.7754 22.2691 0.0000 -13.2504 0.0000
# 2 38.7754 79.2987 27.8946 0.0000 -1.8118 0.0000
# 3 22.2691 27.8946 71.8596 0.0000 -5.6292 0.0000
# 4 0.0000 0.0000 0.0000 21.2161 0.0000 -11.3877
# 5 -13.2504 -1.8118 -5.6292 0.0000 26.5804 0.0000
# 6 0.0000 0.0000 0.0000 -11.3877 0.0000 43.6442
#
#
#
# Elastic Compliance Matrix: (Units=1/GPa)
#
#
# Indices 1 2 3 4 5 6 
#
# 1 0.009170 -0.004058 -0.000946 0.000000 0.004095 0.000000
# 2 -0.004058 0.016402 -0.005268 0.000000 -0.002020 0.000000
# 3 -0.000946 -0.005268 0.016462 0.000000 0.002656 0.000000
# 4 0.000000 0.000000 0.000000 0.054810 0.000000 0.014301
# 5 0.004095 -0.002020 0.002656 0.000000 0.040088 0.000000
# 6 0.000000 0.000000 0.000000 0.014301 0.000000 0.026644
#
#
# Mechanical properties :
#
#
# Convention : Reuss Voigt Hill
#
# Bulk Modulus (GPa) = 46.53057 51.49497 49.01277
# Shear Modulus (GPa) = 26.13946 31.39731 28.76838
#
# Velocity S-wave (km/s) = 3.46074 3.79286 3.63060
# Velocity P-wave (km/s) = 6.10643 6.54028 6.32708
#
# Compressibility (1/GPa) = 0.02149125
#
# Stress axis : x y z
#
# Youngs Moduli (GPa) = 109.04704 60.96998 60.74604
#
# Poissons Ratio (x) = 0.24740 0.05746
# Poissons Ratio (y) = 0.44249 0.31998
# Poissons Ratio (z) = 0.10315 0.32116
#
# Static dielectric constant tensor:
#      x y z
#    x 4.183070 0.000000 -0.415040 
#    y 0.000000 4.027030 0.000000 
#    z -0.415040 0.000000 3.847760 
# 
# 
# High freq. dielectric constant tensor:
#      x y z
#    x 1.866970 0.000000 -0.026250 
#    y 0.000000 1.867960 0.000000 
#    z -0.026250 0.000000 1.847750 
# 
# From -- ./inp_files/182561.got.cif
#   From: 2010.06.25/outbox.cif.g09.slc.cpg/sg15_92_cif.got.tgz:182561.got - 2010.06.28 07:06:18.
