data_PCOD8144883
_publ_section_title
;
Structure prediction by ZEFSAII (Michael W. Deem and Ramdas Pophale) SiO2 
 PCOD8144883
Probable space group: C 2/C
;
_chemical_formula_sum "Si O2"
_cell_formula_units_Z 56
_cell_length_a 29.302274
_cell_length_b 11.976734
_cell_length_c 8.781144
_cell_angle_alpha 90.000000
_cell_angle_beta 54.952423
_cell_angle_gamma 90.000000
_cell_volume 2522.914951
_symmetry_space_group_name_H-M "C 2/C"
_symmetry_group_IT_number 15
_symmetry_cell_setting 'monoclinic'
loop_
_space_group_symop_operation_xyz
x,y,z
-x,y,1/2-z
-x,-y,-z
x,-y,1/2+z
1/2+x,1/2+y,z
1/2-x,1/2+y,1/2-z
1/2-x,1/2-y,-z
1/2+x,1/2-y,1/2+z
loop_
_atom_site_type_symbol
_atom_site_label
_atom_site_fract_x
_atom_site_fract_y
_atom_site_fract_z
Si Si1 0.500000 0.211475 0.750000
Si Si2 0.894094 0.405109 0.315648
Si Si3 0.681674 0.653121 0.396459
Si Si4 0.500000 0.748320 0.750000
Si Si5 0.786894 0.258012 0.579078
Si Si6 0.895654 0.365630 0.958704
Si Si7 0.530257 0.614739 0.419447
Si Si8 0.346669 0.441758 0.876244
O O1 0.553653 0.134787 0.681421
O O2 0.509114 0.297405 0.592992
O O3 0.840919 0.331068 0.449790
O O4 0.908963 0.398196 0.108765
O O5 0.875726 0.528711 0.399862
O O6 0.747406 0.687684 0.284503
O O7 0.650315 0.770235 0.464996
O O8 0.664044 0.572450 0.569460
O O9 0.669400 0.584468 0.266397
O O10 0.547143 0.826728 0.734222
O O11 0.538053 0.670652 0.568823
O O12 0.750000 0.250000 0.500000
O O13 0.809420 0.131905 0.565913
O O14 0.500000 0.500000 0.500000
O O15 0.588801 0.593126 0.223659
#
# Coordination Sequence:
#
# PCOD8144883 Si02
#       8
#     4   8   8   4   8   8   8   8
#     4  12  24  46  66 104 150 189 239 296 368 424
#     4  12  26  46  72 101 144 193 236 299 359 424
#     4  11  24  45  74 101 140 181 235 295 354 429
#     4  12  22  46  68  98 142 187 243 290 354 432
#     4  10  21  46  75  96 142 189 233 291 363 417
#     4  12  26  47  68 105 141 187 245 295 362 426
#     4  12  25  40  70 103 147 189 234 297 361 432
#     4  11  23  47  70 103 143 182 229 297 359 413
#
# _framework density 22.196546999999999
#
# number of rings (size 3 to 8) (size 9 to 14) (size 15 to 20)
#    0.000    0.571    7.143    1.714    6.000    1.143 
#    2.571    0.714    0.000    0.000    0.000    0.000 
#    0.000    0.000    0.000    0.000    0.000    0.000 
#
# Total GULP energy -347024.152501 kJ/mol
# GULP energy per Si atom -12393.719732 kJ/mol
# Density = 2.214603 g / cm^3
# Si number density = 22.196547 Si / 1000 Ang^3
#
#
#
# Elastic Constant Matrix: (Units=GPa)
#
#
# Indices 1 2 3 4 5 6 
#
# 1 95.0990 52.6062 36.4526 0.0000 -27.7238 0.0000
# 2 52.6062 163.8286 55.7085 0.0000 -1.8016 0.0000
# 3 36.4526 55.7085 86.0850 0.0000 -22.3673 0.0000
# 4 0.0000 0.0000 0.0000 52.4001 0.0000 0.2782
# 5 -27.7238 -1.8016 -22.3673 0.0000 30.7533 0.0000
# 6 0.0000 0.0000 0.0000 0.2782 0.0000 19.9097
#
#
#
# Elastic Compliance Matrix: (Units=1/GPa)
#
#
# Indices 1 2 3 4 5 6 
#
# 1 0.018442 -0.005820 0.000232 0.000000 0.016453 0.000000
# 2 -0.005820 0.010078 -0.006494 0.000000 -0.009380 0.000000
# 3 0.000232 -0.006494 0.019329 0.000000 0.013887 0.000000
# 4 0.000000 0.000000 0.000000 0.019085 0.000000 -0.000267
# 5 0.016453 -0.009380 0.013887 0.000000 0.056900 0.000000
# 6 0.000000 0.000000 0.000000 -0.000267 0.000000 0.050230
#
#
# Mechanical properties :
#
#
# Convention : Reuss Voigt Hill
#
# Bulk Modulus (GPa) = 42.22147 70.50526 56.36336
# Shear Modulus (GPa) = 24.25709 33.96231 29.10970
#
# Velocity S-wave (km/s) = 3.30939 3.91586 3.62533
# Velocity P-wave (km/s) = 5.80221 7.23037 6.55530
#
# Compressibility (1/GPa) = 0.02368463
#
# Stress axis : x y z
#
# Youngs Moduli (GPa) = 54.22281 99.22630 51.73499
#
# Poissons Ratio (x) = 0.57748 -0.01199
# Poissons Ratio (y) = 0.31557 0.33599
# Poissons Ratio (z) = -0.01257 0.64442
#
# Static dielectric constant tensor:
#      x y z
#    x 4.008360 0.000000 -0.260700 
#    y 0.000000 4.076360 0.000000 
#    z -0.260700 0.000000 4.151290 
# 
# 
# High freq. dielectric constant tensor:
#      x y z
#    x 1.866130 0.000000 -0.021910 
#    y 0.000000 1.895450 0.000000 
#    z -0.021910 0.000000 1.862950 
# 
# From -- ./inp_files/69318.got.cif
#   From: 2010.06.25/outbox.cif.g09.slc.cpg/sg15_35_cif.got.tgz:69318.got - 2010.06.28 07:06:18.
