data_PCOD8144876
_publ_section_title
;
Structure prediction by ZEFSAII (Michael W. Deem and Ramdas Pophale) SiO2 
 PCOD8144876
Probable space group: C 2/C
;
_chemical_formula_sum "Si O2"
_cell_formula_units_Z 44
_cell_length_a 17.020604
_cell_length_b 8.936401
_cell_length_c 14.912513
_cell_angle_alpha 90.000000
_cell_angle_beta 121.034137
_cell_angle_gamma 90.000000
_cell_volume 1943.562301
_symmetry_space_group_name_H-M "C 2/C"
_symmetry_group_IT_number 15
_symmetry_cell_setting 'monoclinic'
loop_
_space_group_symop_operation_xyz
x,y,z
-x,y,1/2-z
-x,-y,-z
x,-y,1/2+z
1/2+x,1/2+y,z
1/2-x,1/2+y,1/2-z
1/2-x,1/2-y,-z
1/2+x,1/2-y,1/2+z
loop_
_atom_site_type_symbol
_atom_site_label
_atom_site_fract_x
_atom_site_fract_y
_atom_site_fract_z
Si Si1 0.416821 0.090865 0.568023
Si Si2 0.475311 0.184083 0.415852
Si Si3 0.098362 0.928019 0.533439
Si Si4 0.000000 0.819821 0.750000
Si Si5 0.266644 0.580257 0.536818
Si Si6 0.128291 0.046789 0.727434
O O1 0.410720 0.157743 0.463958
O O2 0.434536 0.218540 0.650495
O O3 0.499875 0.969571 0.620240
O O4 0.320189 0.019644 0.537577
O O5 0.574142 0.252102 0.507548
O O6 0.423847 0.294985 0.317065
O O7 0.146772 0.983514 0.470045
O O8 0.165356 0.974826 0.655304
O O9 0.000000 0.000000 0.500000
O O10 0.941752 0.923405 0.779980
O O11 0.250000 0.750000 0.500000
O O12 0.288615 0.571931 0.655462
#
# Coordination Sequence:
#
# PCOD8144876 Si02
#       6
#     8   8   8   4   8   8
#     4  11  26  45  71 113 146 182 255 308 355 427
#     4  10  22  48  75  98 148 200 235 297 366 454
#     4  10  21  46  73  99 141 193 237 286 365 441
#     4  12  26  44  78 106 136 206 242 298 364 460
#     4  12  27  46  73 113 147 184 243 312 359 426
#     4  11  25  45  75 102 142 201 240 285 384 439
#
# _framework density 22.638843000000001
#
# number of rings (size 3 to 8) (size 9 to 14) (size 15 to 20)
#    0.000    1.091    3.636    2.182    5.091    2.182 
#    6.545    0.000    0.000    0.000    0.000    0.000 
#    0.000    0.000    0.000    0.000    0.000    0.000 
#
# Total GULP energy -272732.660867 kJ/mol
# GULP energy per Si atom -12396.939130 kJ/mol
# Density = 2.258732 g / cm^3
# Si number density = 22.638843 Si / 1000 Ang^3
#
#
#
# Elastic Constant Matrix: (Units=GPa)
#
#
# Indices 1 2 3 4 5 6 
#
# 1 99.7120 28.1061 18.9267 0.0000 -9.2414 0.0000
# 2 28.1061 111.6375 38.9344 0.0000 2.4100 0.0000
# 3 18.9267 38.9344 100.3672 0.0000 -1.7719 0.0000
# 4 0.0000 0.0000 0.0000 48.3147 0.0000 -3.6100
# 5 -9.2414 2.4100 -1.7719 0.0000 32.8453 0.0000
# 6 0.0000 0.0000 0.0000 -3.6100 0.0000 34.5245
#
#
#
# Elastic Compliance Matrix: (Units=1/GPa)
#
#
# Indices 1 2 3 4 5 6 
#
# 1 0.011252 -0.002526 -0.001084 0.000000 0.003293 0.000000
# 2 -0.002526 0.010958 -0.003805 0.000000 -0.001720 0.000000
# 3 -0.001084 -0.003805 0.011654 0.000000 0.000603 0.000000
# 4 0.000000 0.000000 0.000000 0.020861 0.000000 0.002181
# 5 0.003293 -0.001720 0.000603 0.000000 0.031531 0.000000
# 6 0.000000 0.000000 0.000000 0.002181 0.000000 0.029193
#
#
# Mechanical properties :
#
#
# Convention : Reuss Voigt Hill
#
# Bulk Modulus (GPa) = 52.53515 53.73900 53.13708
# Shear Modulus (GPa) = 36.59736 38.18687 37.39211
#
# Velocity S-wave (km/s) = 4.02503 4.11150 4.06850
# Velocity P-wave (km/s) = 6.69756 6.80649 6.75224
#
# Compressibility (1/GPa) = 0.01903487
#
# Stress axis : x y z
#
# Youngs Moduli (GPa) = 88.87508 91.26155 85.80481
#
# Poissons Ratio (x) = 0.23051 0.09300
# Poissons Ratio (y) = 0.22448 0.32646
# Poissons Ratio (z) = 0.09633 0.34722
#
# Static dielectric constant tensor:
#      x y z
#    x 3.975980 0.000000 -0.322380 
#    y 0.000000 4.425120 0.000000 
#    z -0.322380 0.000000 4.344070 
# 
# 
# High freq. dielectric constant tensor:
#      x y z
#    x 1.877640 0.000000 -0.019940 
#    y 0.000000 1.909570 0.000000 
#    z -0.019940 0.000000 1.891900 
# 
# From -- ./inp_files/159437.got.cif
#   From: 2010.06.25/outbox.cif.g09.slc.cpg/sg15_80_cif.got.tgz:159437.got - 2010.06.28 07:06:18.
