data_PCOD8144299
_publ_section_title
;
Structure prediction by ZEFSAII (Michael W. Deem and Ramdas Pophale) SiO2 
 PCOD8144299
Probable space group: C 2/C
;
_chemical_formula_sum "Si O2"
_cell_formula_units_Z 44
_cell_length_a 25.242638
_cell_length_b 11.700561
_cell_length_c 12.313050
_cell_angle_alpha 90.000000
_cell_angle_beta 143.349511
_cell_angle_gamma 90.000000
_cell_volume 2170.860870
_symmetry_space_group_name_H-M "C 2/C"
_symmetry_group_IT_number 15
_symmetry_cell_setting 'monoclinic'
loop_
_space_group_symop_operation_xyz
x,y,z
-x,y,1/2-z
-x,-y,-z
x,-y,1/2+z
1/2+x,1/2+y,z
1/2-x,1/2+y,1/2-z
1/2-x,1/2-y,-z
1/2+x,1/2-y,1/2+z
loop_
_atom_site_type_symbol
_atom_site_label
_atom_site_fract_x
_atom_site_fract_y
_atom_site_fract_z
Si Si1 0.778895 0.653683 0.462690
Si Si2 0.237985 0.425134 0.955946
Si Si3 0.328084 0.536868 0.391677
Si Si4 0.409809 0.702763 0.038157
Si Si5 0.000000 0.841908 0.250000
Si Si6 0.392819 0.724896 0.768246
O O1 0.750000 0.750000 0.500000
O O2 0.806985 0.540781 0.574215
O O3 0.695556 0.607890 0.255109
O O4 0.860086 0.697447 0.522703
O O5 0.248749 0.436852 0.844515
O O6 0.170045 0.326483 0.872833
O O7 0.334758 0.393186 0.167355
O O8 0.339602 0.400057 0.404226
O O9 0.421361 0.577354 0.587028
O O10 0.500000 0.669103 0.250000
O O11 0.434344 0.743622 0.956353
O O12 0.971907 0.769666 0.309888
#
# Coordination Sequence:
#
# PCOD8144299 Si02
#       6
#     8   8   8   8   4   8
#     4  12  25  41  69 103 136 177 224 279 341 408
#     4  10  21  42  67  93 130 184 226 267 334 409
#     4  11  22  41  67  99 133 175 226 279 330 399
#     4  12  25  42  68 104 136 174 222 286 340 391
#     4  10  24  38  66  98 130 176 230 280 330 394
#     4  10  22  42  66  94 133 179 226 274 336 400
#
# _framework density 20.268457999999999
#
# number of rings (size 3 to 8) (size 9 to 14) (size 15 to 20)
#    0.000    1.091    6.364    0.000    2.545    0.727 
#    1.636    0.909    0.000    0.000    0.000    0.000 
#    0.000    0.000    0.000    0.000    0.000    0.000 
#
# Total GULP energy -272654.145754 kJ/mol
# GULP energy per Si atom -12393.370262 kJ/mol
# Density = 2.022233 g / cm^3
# Si number density = 20.268458 Si / 1000 Ang^3
#
#
#
# Elastic Constant Matrix: (Units=GPa)
#
#
# Indices 1 2 3 4 5 6 
#
# 1 159.1122 56.6002 32.3109 0.0000 -15.3224 0.0000
# 2 56.6002 116.4828 25.4396 0.0000 -4.6637 0.0000
# 3 32.3109 25.4396 76.7016 0.0000 -20.0488 0.0000
# 4 0.0000 0.0000 0.0000 24.2218 0.0000 -2.7263
# 5 -15.3224 -4.6637 -20.0488 0.0000 28.6771 0.0000
# 6 0.0000 0.0000 0.0000 -2.7263 0.0000 38.6528
#
#
#
# Elastic Compliance Matrix: (Units=1/GPa)
#
#
# Indices 1 2 3 4 5 6 
#
# 1 0.008099 -0.003489 -0.001556 0.000000 0.002672 0.000000
# 2 -0.003489 0.010772 -0.002609 0.000000 -0.001936 0.000000
# 3 -0.001556 -0.002609 0.017412 0.000000 0.010917 0.000000
# 4 0.000000 0.000000 0.000000 0.041616 0.000000 0.002935
# 5 0.002672 -0.001936 0.010917 0.000000 0.043616 0.000000
# 6 0.000000 0.000000 0.000000 0.002935 0.000000 0.026078
#
#
# Mechanical properties :
#
#
# Convention : Reuss Voigt Hill
#
# Bulk Modulus (GPa) = 47.67535 64.55532 56.11533
# Shear Modulus (GPa) = 29.42998 34.17341 31.80170
#
# Velocity S-wave (km/s) = 3.81466 4.11060 3.96539
# Velocity P-wave (km/s) = 6.55554 7.37893 6.97939
#
# Compressibility (1/GPa) = 0.02097520
#
# Stress axis : x y z
#
# Youngs Moduli (GPa) = 123.46866 92.82909 57.43073
#
# Poissons Ratio (x) = 0.32385 0.08938
# Poissons Ratio (y) = 0.43073 0.14986
# Poissons Ratio (z) = 0.19216 0.24223
#
# Static dielectric constant tensor:
#      x y z
#    x 4.025690 0.000000 -0.285770 
#    y 0.000000 3.697810 0.000000 
#    z -0.285770 0.000000 3.535180 
# 
# 
# High freq. dielectric constant tensor:
#      x y z
#    x 1.801360 0.000000 -0.021530 
#    y 0.000000 1.787070 0.000000 
#    z -0.021530 0.000000 1.778150 
# 
# From -- ./inp_files/95059.got.cif
#   From: 2010.06.25/outbox.cif.g09.slc.cpg/sg15_48_cif.got.tgz:95059.got - 2010.06.28 07:06:18.
