data_PCOD8144119
_publ_section_title
;
Structure prediction by ZEFSAII (Michael W. Deem and Ramdas Pophale) SiO2 
 PCOD8144119
Probable space group: C 2/C
;
_chemical_formula_sum "Si O2"
_cell_formula_units_Z 40
_cell_length_a 9.402649
_cell_length_b 27.102237
_cell_length_c 15.842964
_cell_angle_alpha 90.000000
_cell_angle_beta 150.993017
_cell_angle_gamma 90.000000
_cell_volume 1957.755724
_symmetry_space_group_name_H-M "C 2/C"
_symmetry_group_IT_number 15
_symmetry_cell_setting 'monoclinic'
loop_
_space_group_symop_operation_xyz
x,y,z
-x,y,1/2-z
-x,-y,-z
x,-y,1/2+z
1/2+x,1/2+y,z
1/2-x,1/2+y,1/2-z
1/2-x,1/2-y,-z
1/2+x,1/2-y,1/2+z
loop_
_atom_site_type_symbol
_atom_site_label
_atom_site_fract_x
_atom_site_fract_y
_atom_site_fract_z
Si Si1 0.791147 0.284485 0.365276
Si Si2 0.644661 0.604546 0.406904
Si Si3 0.134700 0.211535 0.239881
Si Si4 0.151791 0.947599 0.078500
Si Si5 0.180301 0.891787 0.260780
O O1 0.500000 0.258394 0.250000
O O2 0.928160 0.244853 0.373314
O O3 0.671876 0.332359 0.252784
O O4 0.020845 0.298741 0.559295
O O5 0.500000 0.579563 0.250000
O O6 0.558443 0.662011 0.369686
O O7 0.529948 0.580228 0.433033
O O8 0.981790 0.593598 0.562315
O O9 0.000000 0.240637 0.250000
O O10 0.500000 0.953122 0.250000
O O11 0.049219 0.916458 0.107732
O O12 0.000000 0.000000 0.000000
O O13 0.000000 0.910684 0.250000
#
# Coordination Sequence:
#
# PCOD8144119 Si02
#       5
#     8   8   8   8   8
#     4  11  23  39  59  90 127 163 208 249 305 357
#     4  10  21  42  62  90 126 161 205 253 307 369
#     4  11  22  38  60  90 122 166 207 245 301 364
#     4  10  24  44  67  94 121 160 208 257 317 371
#     4  10  22  41  64  88 127 163 203 256 309 364
#
# _framework density 20.431557999999999
#
# number of rings (size 3 to 8) (size 9 to 14) (size 15 to 20)
#    0.000    1.600    4.000    1.200    2.800    3.200 
#    0.000    4.000    0.000    0.000    0.000    0.000 
#    0.000    0.000    0.000    0.000    0.000    0.000 
#
# Total GULP energy -247826.439181 kJ/mol
# GULP energy per Si atom -12391.321959 kJ/mol
# Density = 2.038506 g / cm^3
# Si number density = 20.431558 Si / 1000 Ang^3
#
#
#
# Elastic Constant Matrix: (Units=GPa)
#
#
# Indices 1 2 3 4 5 6 
#
# 1 153.6813 49.0514 43.0902 0.0000 -21.9964 0.0000
# 2 49.0514 77.9928 26.8143 0.0000 -24.5625 0.0000
# 3 43.0902 26.8143 77.0851 0.0001 -20.0403 0.0000
# 4 0.0000 0.0000 0.0001 32.0943 0.0000 0.0015
# 5 -21.9964 -24.5625 -20.0403 0.0000 41.9414 0.0000
# 6 0.0000 0.0000 0.0000 0.0015 0.0000 30.0198
#
#
#
# Elastic Compliance Matrix: (Units=1/GPa)
#
#
# Indices 1 2 3 4 5 6 
#
# 1 0.008884 -0.004261 -0.003336 0.000000 0.000570 0.000000
# 2 -0.004261 0.018644 -0.002108 0.000000 0.007677 0.000000
# 3 -0.003336 -0.002108 0.016893 0.000000 0.005088 0.000000
# 4 0.000000 0.000000 0.000000 0.031158 0.000000 -0.000002
# 5 0.000570 0.007677 0.005088 0.000000 0.031069 0.000000
# 6 0.000000 0.000000 0.000000 -0.000002 0.000000 0.033311
#
#
# Mechanical properties :
#
#
# Convention : Reuss Voigt Hill
#
# Bulk Modulus (GPa) = 39.98030 60.74124 50.36077
# Shear Modulus (GPa) = 29.81425 33.46465 31.63945
#
# Velocity S-wave (km/s) = 3.82412 4.05148 3.93944
# Velocity P-wave (km/s) = 6.25372 7.18885 6.73753
#
# Compressibility (1/GPa) = 0.02501232
#
# Stress axis : x y z
#
# Youngs Moduli (GPa) = 112.56431 53.63721 59.19519
#
# Poissons Ratio (x) = 0.22854 0.19746
# Poissons Ratio (y) = 0.47963 0.12477
# Poissons Ratio (z) = 0.37548 0.11305
#
# Static dielectric constant tensor:
#      x y z
#    x 4.319030 0.000000 -0.153600 
#    y 0.000000 3.408060 0.000000 
#    z -0.153600 0.000000 3.907250 
# 
# 
# High freq. dielectric constant tensor:
#      x y z
#    x 1.812540 0.000000 0.003350 
#    y 0.000000 1.772360 0.000000 
#    z 0.003350 0.000000 1.804390 
# 
# From -- ./inp_files/25338.got.cif
#   From: 2010.06.25/outbox.cif.g09.slc.cpg/sg15_13_cif.got.tgz:25338.got - 2010.06.28 07:06:18.
