data_PCOD8144829
_publ_section_title
;
Structure prediction by ZEFSAII (Michael W. Deem and Ramdas Pophale) SiO2 
 PCOD8144829
Probable space group: C 2/C
;
_chemical_formula_sum "Si O2"
_cell_formula_units_Z 48
_cell_length_a 9.456038
_cell_length_b 27.164289
_cell_length_c 17.418007
_cell_angle_alpha 90.000000
_cell_angle_beta 148.132184
_cell_angle_gamma 90.000000
_cell_volume 2362.153733
_symmetry_space_group_name_H-M "C 2/C"
_symmetry_group_IT_number 15
_symmetry_cell_setting 'monoclinic'
loop_
_space_group_symop_operation_xyz
x,y,z
-x,y,1/2-z
-x,-y,-z
x,-y,1/2+z
1/2+x,1/2+y,z
1/2-x,1/2+y,1/2-z
1/2-x,1/2-y,-z
1/2+x,1/2-y,1/2+z
loop_
_atom_site_type_symbol
_atom_site_label
_atom_site_fract_x
_atom_site_fract_y
_atom_site_fract_z
Si Si1 0.553653 0.803882 0.686148
Si Si2 0.996029 0.806975 0.158938
Si Si3 0.829519 0.440461 0.075185
Si Si4 0.619373 0.391819 0.725041
Si Si5 0.346236 0.399147 0.346025
Si Si6 0.903806 0.445498 0.620478
O O1 0.500000 0.816745 0.750000
O O2 0.302933 0.810734 0.513547
O O3 0.634073 0.746634 0.716048
O O4 0.795811 0.840517 0.775758
O O5 0.000000 0.823715 0.250000
O O6 0.180653 0.842514 0.192509
O O7 0.742444 0.408493 0.108314
O O8 0.808463 0.498454 0.079291
O O9 0.139253 0.429472 0.196625
O O10 0.632071 0.422553 0.920193
O O11 0.500000 0.375123 0.750000
O O12 0.864576 0.431130 0.833570
O O13 0.651186 0.414861 0.475030
O O14 0.000000 0.429394 0.750000
#
# Coordination Sequence:
#
# PCOD8144829 Si02
#       6
#     8   8   8   8   8   8
#     4  10  21  45  70  94 127 182 230 265 335 423
#     4  10  22  39  71  99 128 171 226 281 337 403
#     4  11  24  39  64  99 132 168 232 271 330 399
#     4  12  26  41  63  98 137 174 221 283 337 390
#     4  11  21  38  66  99 127 167 221 280 324 398
#     4  12  21  43  71  91 127 187 229 270 327 414
#
# _framework density 20.320439
#
# number of rings (size 3 to 8) (size 9 to 14) (size 15 to 20)
#    0.000    1.000    5.000    3.000    2.333    0.667 
#    3.000    2.500    0.000    0.000    0.000    0.000 
#    0.000    0.000    0.000    0.000    0.000    0.000 
#
# Total GULP energy -297336.869253 kJ/mol
# GULP energy per Si atom -12389.036219 kJ/mol
# Density = 2.027419 g / cm^3
# Si number density = 20.320439 Si / 1000 Ang^3
#
#
#
# Elastic Constant Matrix: (Units=GPa)
#
#
# Indices 1 2 3 4 5 6 
#
# 1 118.0626 61.0439 34.2111 0.0000 -0.8175 0.0000
# 2 61.0439 144.7704 24.3318 0.0001 -3.2760 -0.0001
# 3 34.2111 24.3318 127.7626 0.0036 5.1463 0.0025
# 4 0.0000 0.0001 0.0036 16.8497 0.0004 -6.9454
# 5 -0.8175 -3.2760 5.1463 0.0004 19.4591 0.0001
# 6 0.0000 -0.0001 0.0025 -6.9454 0.0001 23.1744
#
#
#
# Elastic Compliance Matrix: (Units=1/GPa)
#
#
# Indices 1 2 3 4 5 6 
#
# 1 0.011407 -0.004429 -0.002224 0.000001 0.000322 0.000000
# 2 -0.004429 0.008904 -0.000569 0.000000 0.001463 0.000000
# 3 -0.002224 -0.000569 0.008630 -0.000002 -0.002472 -0.000002
# 4 0.000001 0.000000 -0.000002 0.067714 -0.000001 0.020294
# 5 0.000322 0.001463 -0.002472 -0.000001 0.052303 0.000000
# 6 0.000000 0.000000 -0.000002 0.020294 0.000000 0.049233
#
#
# Mechanical properties :
#
#
# Convention : Reuss Voigt Hill
#
# Bulk Modulus (GPa) = 68.97507 69.97437 69.47472
# Shear Modulus (GPa) = 22.99211 29.96387 26.47799
#
# Velocity S-wave (km/s) = 3.36739 3.84418 3.61366
# Velocity P-wave (km/s) = 7.00974 7.36300 7.18854
#
# Compressibility (1/GPa) = 0.01449799
#
# Stress axis : x y z
#
# Youngs Moduli (GPa) = 87.66904 112.31448 115.86974
#
# Poissons Ratio (x) = 0.49740 0.25768
# Poissons Ratio (y) = 0.38825 0.06590
# Poissons Ratio (z) = 0.19497 0.06388
#
# Static dielectric constant tensor:
#      x y z
#    x 3.497870 0.000000 0.008470 
#    y 0.000000 3.923980 0.000000 
#    z 0.008470 0.000000 4.751690 
# 
# 
# High freq. dielectric constant tensor:
#      x y z
#    x 1.768790 0.000000 -0.003130 
#    y 0.000000 1.809640 0.000000 
#    z -0.003130 0.000000 1.805880 
# 
# From -- ./inp_files/80535.got.cif
#   From: 2010.06.25/outbox.cif.g09.slc.cpg/sg15_41_cif.got.tgz:80535.got - 2010.06.28 07:06:18.
