data_PCOD8144810
_publ_section_title
;
Structure prediction by ZEFSAII (Michael W. Deem and Ramdas Pophale) SiO2 
 PCOD8144810
Probable space group: C 2/C
;
_chemical_formula_sum "Si O2"
_cell_formula_units_Z 56
_cell_length_a 11.821068
_cell_length_b 26.414287
_cell_length_c 9.410436
_cell_angle_alpha 90.000000
_cell_angle_beta 60.527866
_cell_angle_gamma 90.000000
_cell_volume 2558.123835
_symmetry_space_group_name_H-M "C 2/C"
_symmetry_group_IT_number 15
_symmetry_cell_setting 'monoclinic'
loop_
_space_group_symop_operation_xyz
x,y,z
-x,y,1/2-z
-x,-y,-z
x,-y,1/2+z
1/2+x,1/2+y,z
1/2-x,1/2+y,1/2-z
1/2-x,1/2-y,-z
1/2+x,1/2-y,1/2+z
loop_
_atom_site_type_symbol
_atom_site_label
_atom_site_fract_x
_atom_site_fract_y
_atom_site_fract_z
Si Si1 0.649721 0.041474 0.395828
Si Si2 0.391022 0.273465 0.936463
Si Si3 0.906363 0.398276 0.013572
Si Si4 0.931600 0.699694 0.153521
Si Si5 0.544678 0.385088 0.567438
Si Si6 0.231830 0.124457 0.354804
Si Si7 0.222674 0.553013 0.667340
O O1 0.500022 0.051791 0.438035
O O2 0.737799 0.088865 0.297877
O O3 0.651108 0.038160 0.566142
O O4 0.714620 0.992835 0.283878
O O5 0.500000 0.262475 0.750000
O O6 0.372512 0.333387 0.969937
O O7 0.250000 0.250000 0.000000
O O8 0.442065 0.247184 0.046053
O O9 0.843370 0.399685 0.209242
O O10 0.798690 0.398169 0.955536
O O11 0.992814 0.348527 0.955133
O O12 0.785321 0.680693 0.282929
O O13 0.000000 0.720776 0.250000
O O14 0.500000 0.402874 0.750000
O O15 0.423707 0.373869 0.535776
O O16 0.628674 0.430886 0.451317
#
# Coordination Sequence:
#
# PCOD8144810 Si02
#       7
#     8   8   8   8   8   8   8
#     4  11  23  41  69  96 132 173 224 280 338 406
#     4  11  25  42  72 102 140 185 240 287 346 413
#     4  10  23  40  68 101 136 172 220 280 343 405
#     4   9  20  41  68 100 136 177 219 283 341 402
#     4  11  24  46  66  96 139 184 227 283 340 406
#     4  10  21  45  67  94 141 178 219 276 343 401
#     4  12  25  42  69  99 135 176 228 277 344 409
#
# _framework density 21.891043
#
# number of rings (size 3 to 8) (size 9 to 14) (size 15 to 20)
#    0.000    1.429    1.429    4.714    4.000    2.286 
#    2.571    2.143    0.000    0.000    0.000    0.000 
#    0.000    0.000    0.000    0.000    0.000    0.000 
#
# Total GULP energy -347131.648526 kJ/mol
# GULP energy per Si atom -12397.558876 kJ/mol
# Density = 2.184122 g / cm^3
# Si number density = 21.891043 Si / 1000 Ang^3
#
#
#
# Elastic Constant Matrix: (Units=GPa)
#
#
# Indices 1 2 3 4 5 6 
#
# 1 115.8666 29.1627 47.4501 0.0000 -11.9335 0.0000
# 2 29.1627 57.2262 58.2695 0.0000 1.4965 0.0000
# 3 47.4501 58.2695 136.1644 0.0000 8.8744 0.0000
# 4 0.0000 0.0000 0.0000 34.5174 0.0000 1.7497
# 5 -11.9335 1.4965 8.8744 0.0000 40.5128 0.0000
# 6 0.0000 0.0000 0.0000 1.7497 0.0000 12.2887
#
#
#
# Elastic Compliance Matrix: (Units=1/GPa)
#
#
# Indices 1 2 3 4 5 6 
#
# 1 0.010906 -0.002710 -0.002898 0.000000 0.003947 0.000000
# 2 -0.002710 0.031770 -0.012704 0.000000 0.000811 0.000000
# 3 -0.002898 -0.012704 0.014016 0.000000 -0.003454 0.000000
# 4 0.000000 0.000000 0.000000 0.029182 0.000000 -0.004155
# 5 0.003947 0.000811 -0.003454 0.000000 0.026573 0.000000
# 6 0.000000 0.000000 0.000000 -0.004155 0.000000 0.081967
#
#
# Mechanical properties :
#
#
# Convention : Reuss Voigt Hill
#
# Bulk Modulus (GPa) = 49.83202 64.33575 57.08389
# Shear Modulus (GPa) = 21.03256 29.08877 25.06066
#
# Velocity S-wave (km/s) = 3.10301 3.64922 3.38715
# Velocity P-wave (km/s) = 5.97087 6.87085 6.43661
#
# Compressibility (1/GPa) = 0.02006742
#
# Stress axis : x y z
#
# Youngs Moduli (GPa) = 91.69165 31.47628 71.34940
#
# Poissons Ratio (x) = 0.08531 0.20677
# Poissons Ratio (y) = 0.24850 0.90641
# Poissons Ratio (z) = 0.26572 0.39987
#
# Static dielectric constant tensor:
#      x y z
#    x 4.022110 0.000000 -0.032670 
#    y 0.000000 3.892810 0.000000 
#    z -0.032670 0.000000 4.165470 
# 
# 
# High freq. dielectric constant tensor:
#      x y z
#    x 1.865290 0.000000 0.001160 
#    y 0.000000 1.852750 0.000000 
#    z 0.001160 0.000000 1.862910 
# 
# From -- ./inp_files/35541.got.cif
#   From: 2010.06.25/outbox.cif.g09.slc.cpg/sg15_18_cif.got.tgz:35541.got - 2010.06.28 07:06:18.
