data_PCOD8144793
_publ_section_title
;
Structure prediction by ZEFSAII (Michael W. Deem and Ramdas Pophale) SiO2 
 PCOD8144793
Probable space group: C 2/C
;
_chemical_formula_sum "Si O2"
_cell_formula_units_Z 60
_cell_length_a 13.957198
_cell_length_b 12.249623
_cell_length_c 18.105876
_cell_angle_alpha 90.000000
_cell_angle_beta 100.867202
_cell_angle_gamma 90.000000
_cell_volume 3040.055638
_symmetry_space_group_name_H-M "C 2/C"
_symmetry_group_IT_number 15
_symmetry_cell_setting 'monoclinic'
loop_
_space_group_symop_operation_xyz
x,y,z
-x,y,1/2-z
-x,-y,-z
x,-y,1/2+z
1/2+x,1/2+y,z
1/2-x,1/2+y,1/2-z
1/2-x,1/2-y,-z
1/2+x,1/2-y,1/2+z
loop_
_atom_site_type_symbol
_atom_site_label
_atom_site_fract_x
_atom_site_fract_y
_atom_site_fract_z
Si Si1 0.215037 0.038093 0.955290
Si Si2 0.894275 0.024247 0.297523
Si Si3 0.000000 0.827266 0.250000
Si Si4 0.604168 0.241604 0.403766
Si Si5 0.090245 0.123386 0.351762
Si Si6 0.719468 0.035690 0.379661
Si Si7 0.953465 0.364654 0.162090
Si Si8 0.566256 0.901338 0.034435
O O1 0.146353 0.141301 0.930925
O O2 0.322403 0.063871 0.942627
O O3 0.176595 0.931888 0.908945
O O4 0.217013 0.001183 0.040659
O O5 0.888594 0.110974 0.231473
O O6 0.790109 0.023548 0.320877
O O7 0.986402 0.066292 0.360289
O O8 0.911637 0.903938 0.265595
O O9 0.030382 0.752344 0.323847
O O10 0.689549 0.161331 0.388572
O O11 0.552790 0.193772 0.470358
O O12 0.098866 0.251824 0.365851
O O13 0.623043 0.963092 0.355985
O O14 0.000000 0.366142 0.250000
O O15 0.038063 0.369591 0.113229
O O16 0.500000 0.000000 0.000000
#
# Coordination Sequence:
#
# PCOD8144793 Si02
#       8
#     8   8   4   8   8   8   8   8
#     4  11  23  44  67  96 129 172 225 264 326 393
#     4  10  21  45  60  96 133 166 223 267 324 381
#     4  10  22  44  66 100 128 172 228 268 322 382
#     4  11  23  43  69  97 132 173 227 268 323 397
#     4  10  23  43  66  91 130 171 212 270 326 386
#     4  11  26  39  63 100 128 172 220 267 330 395
#     4  12  26  44  65  97 134 175 220 266 336 398
#     4  11  24  46  65  96 137 173 210 273 333 388
#
# _framework density 19.736481000000001
#
# number of rings (size 3 to 8) (size 9 to 14) (size 15 to 20)
#    0.000    1.333    6.667    1.600    6.533    3.200 
#    2.400    0.000    0.000    0.000    0.000    0.000 
#    0.000    0.000    0.000    0.000    0.000    0.000 
#
# Total GULP energy -371901.288243 kJ/mol
# GULP energy per Si atom -12396.709608 kJ/mol
# Density = 1.969156 g / cm^3
# Si number density = 19.736481 Si / 1000 Ang^3
#
#
#
# Elastic Constant Matrix: (Units=GPa)
#
#
# Indices 1 2 3 4 5 6 
#
# 1 68.5837 15.0564 35.8379 0.0000 -17.1038 0.0000
# 2 15.0564 77.6074 37.9133 0.0000 4.5077 0.0000
# 3 35.8379 37.9133 109.7352 0.0000 -0.9122 0.0000
# 4 0.0000 0.0000 0.0000 31.3688 0.0000 3.0208
# 5 -17.1038 4.5077 -0.9122 0.0000 42.6041 0.0000
# 6 0.0000 0.0000 0.0000 3.0208 0.0000 18.9669
#
#
#
# Elastic Compliance Matrix: (Units=1/GPa)
#
#
# Indices 1 2 3 4 5 6 
#
# 1 0.020031 -0.001433 -0.005980 0.000000 0.008065 0.000000
# 2 -0.001433 0.015737 -0.004988 0.000000 -0.002347 0.000000
# 3 -0.005980 -0.004988 0.012776 0.000000 -0.001599 0.000000
# 4 0.000000 0.000000 0.000000 0.032375 0.000000 -0.005156
# 5 0.008065 -0.002347 -0.001599 0.000000 0.026924 0.000000
# 6 0.000000 0.000000 0.000000 -0.005156 0.000000 0.053545
#
#
# Mechanical properties :
#
#
# Convention : Reuss Voigt Hill
#
# Bulk Modulus (GPa) = 42.12110 48.17129 45.14620
# Shear Modulus (GPa) = 25.75925 29.72920 27.74423
#
# Velocity S-wave (km/s) = 3.61662 3.88533 3.75338
# Velocity P-wave (km/s) = 6.23121 6.67742 6.45817
#
# Compressibility (1/GPa) = 0.02374107
#
# Stress axis : x y z
#
# Youngs Moduli (GPa) = 49.92145 63.54545 78.27235
#
# Poissons Ratio (x) = 0.09109 0.46804
# Poissons Ratio (y) = 0.07156 0.39045
# Poissons Ratio (z) = 0.29851 0.31699
#
# Static dielectric constant tensor:
#      x y z
#    x 3.362290 0.000000 -0.060170 
#    y 0.000000 3.611570 0.000000 
#    z -0.060170 0.000000 3.924080 
# 
# 
# High freq. dielectric constant tensor:
#      x y z
#    x 1.759810 0.000000 0.000540 
#    y 0.000000 1.774470 0.000000 
#    z 0.000540 0.000000 1.780410 
# 
# From -- ./inp_files/204067.got.cif
#   From: 2010.06.25/outbox.cif.g09.slc.cpg/sg15_103_cif.got.tgz:204067.got - 2010.06.28 07:06:18.
