data_PCOD8144578
_publ_section_title
;
Structure prediction by ZEFSAII (Michael W. Deem and Ramdas Pophale) SiO2 
 PCOD8144578
Probable space group: C 2/C
;
_chemical_formula_sum "Si O2"
_cell_formula_units_Z 36
_cell_length_a 11.393084
_cell_length_b 13.387284
_cell_length_c 13.499565
_cell_angle_alpha 90.000000
_cell_angle_beta 48.496190
_cell_angle_gamma 90.000000
_cell_volume 1541.999173
_symmetry_space_group_name_H-M "C 2/C"
_symmetry_group_IT_number 15
_symmetry_cell_setting 'monoclinic'
loop_
_space_group_symop_operation_xyz
x,y,z
-x,y,1/2-z
-x,-y,-z
x,-y,1/2+z
1/2+x,1/2+y,z
1/2-x,1/2+y,1/2-z
1/2-x,1/2-y,-z
1/2+x,1/2-y,1/2+z
loop_
_atom_site_type_symbol
_atom_site_label
_atom_site_fract_x
_atom_site_fract_y
_atom_site_fract_z
Si Si1 0.107008 0.347334 0.776697
Si Si2 0.219676 0.555878 0.772497
Si Si3 0.083242 0.735391 0.943718
Si Si4 0.401839 0.419471 0.991676
Si Si5 0.500000 0.482812 0.250000
O O1 0.175859 0.438798 0.803176
O O2 0.242549 0.281749 0.649227
O O3 0.000000 0.393317 0.750000
O O4 0.997292 0.275682 0.904257
O O5 0.084170 0.626771 0.891053
O O6 0.241302 0.587305 0.644404
O O7 0.378116 0.577968 0.749159
O O8 0.979278 0.811124 0.938606
O O9 0.500000 0.500000 0.000000
O O10 0.385196 0.454348 0.887490
#
# Coordination Sequence:
#
# PCOD8144578 Si02
#       5
#     8   8   8   8   4
#     4  12  27  44  70 103 142 179 232 291 343 407
#     4  11  25  45  68 104 141 177 236 282 344 410
#     4  12  24  46  70 106 134 183 233 285 346 407
#     4  10  21  43  68 100 138 179 224 280 339 411
#     4  10  22  42  76  96 140 190 218 286 346 412
#
# _framework density 23.346315000000001
#
# number of rings (size 3 to 8) (size 9 to 14) (size 15 to 20)
#    0.000    0.889    6.667    1.333    4.667    0.000 
#    2.000    2.222    0.000    0.000    0.000    0.000 
#    0.000    0.000    0.000    0.000    0.000    0.000 
#
# Total GULP energy -223046.837933 kJ/mol
# GULP energy per Si atom -12391.490996 kJ/mol
# Density = 2.329318 g / cm^3
# Si number density = 23.346315 Si / 1000 Ang^3
#
#
#
# Elastic Constant Matrix: (Units=GPa)
#
#
# Indices 1 2 3 4 5 6 
#
# 1 36.5284 22.5149 30.1304 0.0000 8.7603 0.0000
# 2 22.5149 118.8131 30.3128 0.0000 -10.6181 0.0000
# 3 30.1304 30.3128 155.3574 0.0000 -1.1359 0.0000
# 4 0.0000 0.0000 0.0000 50.3676 0.0000 -7.1833
# 5 8.7603 -10.6181 -1.1359 0.0000 33.0940 0.0000
# 6 0.0000 0.0000 0.0000 -7.1833 0.0000 13.1075
#
#
#
# Elastic Compliance Matrix: (Units=1/GPa)
#
#
# Indices 1 2 3 4 5 6 
#
# 1 0.040333 -0.007158 -0.006522 0.000000 -0.013197 0.000000
# 2 -0.007158 0.010392 -0.000601 0.000000 0.005208 0.000000
# 3 -0.006522 -0.000601 0.007832 0.000000 0.001802 0.000000
# 4 0.000000 0.000000 0.000000 0.021537 0.000000 0.011803
# 5 -0.013197 0.005208 0.001802 0.000000 0.035443 0.000000
# 6 0.000000 0.000000 0.000000 0.011803 0.000000 0.082761
#
#
# Mechanical properties :
#
#
# Convention : Reuss Voigt Hill
#
# Bulk Modulus (GPa) = 33.34051 52.95723 43.14887
# Shear Modulus (GPa) = 21.10956 34.49655 27.80305
#
# Velocity S-wave (km/s) = 3.01024 3.84813 3.45468
# Velocity P-wave (km/s) = 5.13750 6.51742 5.86816
#
# Compressibility (1/GPa) = 0.02999354
#
# Stress axis : x y z
#
# Youngs Moduli (GPa) = 24.79372 96.22819 127.67889
#
# Poissons Ratio (x) = 0.68885 0.83272
# Poissons Ratio (y) = 0.17748 0.07676
# Poissons Ratio (z) = 0.16170 0.05786
#
# Static dielectric constant tensor:
#      x y z
#    x 3.724990 0.000000 0.151860 
#    y 0.000000 4.099800 0.000000 
#    z 0.151860 0.000000 5.035660 
# 
# 
# High freq. dielectric constant tensor:
#      x y z
#    x 1.874130 0.000000 0.005220 
#    y 0.000000 1.925070 0.000000 
#    z 0.005220 0.000000 1.950810 
# 
# From -- ./inp_files/142757.got.cif
#   From: 2010.06.25/outbox.cif.g09.slc.cpg/sg15_72_cif.got.tgz:142757.got - 2010.06.28 07:06:18.
