data_PCOD8144081
_publ_section_title
;
Structure prediction by ZEFSAII (Michael W. Deem and Ramdas Pophale) SiO2 
 PCOD8144081
Probable space group: C 2/C
;
_chemical_formula_sum "Si O2"
_cell_formula_units_Z 36
_cell_length_a 10.194307
_cell_length_b 27.502645
_cell_length_c 14.591448
_cell_angle_alpha 90.000000
_cell_angle_beta 27.263233
_cell_angle_gamma 90.000000
_cell_volume 1874.006804
_symmetry_space_group_name_H-M "C 2/C"
_symmetry_group_IT_number 15
_symmetry_cell_setting 'monoclinic'
loop_
_space_group_symop_operation_xyz
x,y,z
-x,y,1/2-z
-x,-y,-z
x,-y,1/2+z
1/2+x,1/2+y,z
1/2-x,1/2+y,1/2-z
1/2-x,1/2-y,-z
1/2+x,1/2-y,1/2+z
loop_
_atom_site_type_symbol
_atom_site_label
_atom_site_fract_x
_atom_site_fract_y
_atom_site_fract_z
Si Si1 0.279825 0.063160 0.312705
Si Si2 0.694538 0.113104 0.395794
Si Si3 0.357377 0.952098 0.244402
Si Si4 0.500000 0.782543 0.750000
Si Si5 0.685561 0.189114 0.946848
O O1 0.500000 0.085052 0.250000
O O2 0.265584 0.096226 0.232602
O O3 0.973418 0.062658 0.552510
O O4 0.386292 0.009900 0.215728
O O5 0.524646 0.072259 0.556941
O O6 0.514355 0.163422 0.504767
O O7 0.000000 0.124347 0.250000
O O8 0.500000 0.934026 0.250000
O O9 0.451160 0.817122 0.867181
O O10 0.777251 0.747165 0.596109
O O11 0.000000 0.163720 0.750000
#
# Coordination Sequence:
#
# PCOD8144081 Si02
#       5
#     8   8   8   4   8
#     4  10  23  38  61  82 113 165 208 239 285 345
#     4  12  24  37  57  93 124 150 194 249 297 346
#     4  10  21  42  56  80 124 164 196 243 295 336
#     4   8  18  42  64  84 116 144 194 244 286 356
#     4   9  20  38  64  86 111 151 191 238 295 348
#
# _framework density 19.210177000000002
#
# number of rings (size 3 to 8) (size 9 to 14) (size 15 to 20)
#    0.667    1.333    2.222    0.667    4.667    0.000 
#    0.000    1.111    0.000    0.000    0.000    0.000 
#    0.000    0.000    0.000    0.000    0.000    0.000 
#
# Total GULP energy -223146.763059 kJ/mol
# GULP energy per Si atom -12397.042392 kJ/mol
# Density = 1.916645 g / cm^3
# Si number density = 19.210177 Si / 1000 Ang^3
#
#
#
# Elastic Constant Matrix: (Units=GPa)
#
#
# Indices 1 2 3 4 5 6 
#
# 1 122.4461 36.0742 55.8490 0.0000 -21.7915 0.0000
# 2 36.0742 52.0979 26.3598 0.0000 -9.1760 0.0001
# 3 55.8490 26.3598 104.7787 0.0000 -12.8245 0.0003
# 4 0.0000 0.0000 0.0000 5.3476 0.0000 -5.2158
# 5 -21.7915 -9.1760 -12.8245 0.0000 40.3781 0.0001
# 6 0.0000 0.0001 0.0003 -5.2158 0.0001 21.5603
#
#
#
# Elastic Compliance Matrix: (Units=1/GPa)
#
#
# Indices 1 2 3 4 5 6 
#
# 1 0.012792 -0.005665 -0.004896 0.000000 0.004061 0.000000
# 2 -0.005665 0.024953 -0.003057 0.000000 0.001642 0.000000
# 3 -0.004896 -0.003057 0.013020 0.000000 0.000798 0.000000
# 4 0.000000 0.000000 0.000000 0.244747 0.000000 0.059208
# 5 0.004061 0.001642 0.000798 0.000000 0.027584 0.000000
# 6 0.000000 0.000000 0.000000 0.059208 0.000000 0.060705
#
#
# Mechanical properties :
#
#
# Convention : Reuss Voigt Hill
#
# Bulk Modulus (GPa) = 42.50012 57.32097 49.91055
# Shear Modulus (GPa) = 11.93657 24.19318 18.06487
#
# Velocity S-wave (km/s) = 2.49543 3.55264 3.06989
# Velocity P-wave (km/s) = 5.52039 6.83608 6.21316
#
# Compressibility (1/GPa) = 0.02352935
#
# Stress axis : x y z
#
# Youngs Moduli (GPa) = 78.17592 40.07495 76.80255
#
# Poissons Ratio (x) = 0.22702 0.37602
# Poissons Ratio (y) = 0.44286 0.23480
# Poissons Ratio (z) = 0.38275 0.12251
#
# Static dielectric constant tensor:
#      x y z
#    x 3.511920 0.000000 -0.057580 
#    y 0.000000 3.278290 0.000000 
#    z -0.057580 0.000000 3.588820 
# 
# 
# High freq. dielectric constant tensor:
#      x y z
#    x 1.737110 0.000000 0.006850 
#    y 0.000000 1.730990 0.000000 
#    z 0.006850 0.000000 1.756710 
# 
# From -- ./inp_files/138861.got.cif
#   From: 2010.06.25/outbox.cif.g09.slc.cpg/sg15_70_cif.got.tgz:138861.got - 2010.06.28 07:06:18.
