data_PCOD8145048
_publ_section_title
;
Structure prediction by ZEFSAII (Michael W. Deem and Ramdas Pophale) SiO2 
 PCOD8145048
Probable space group: C 2/C
;
_chemical_formula_sum "Si O2"
_cell_formula_units_Z 52
_cell_length_a 20.580788
_cell_length_b 8.049035
_cell_length_c 29.475451
_cell_angle_alpha 90.000000
_cell_angle_beta 150.020781
_cell_angle_gamma 90.000000
_cell_volume 2439.851174
_symmetry_space_group_name_H-M "C 2/C"
_symmetry_group_IT_number 15
_symmetry_cell_setting 'monoclinic'
loop_
_space_group_symop_operation_xyz
x,y,z
-x,y,1/2-z
-x,-y,-z
x,-y,1/2+z
1/2+x,1/2+y,z
1/2-x,1/2+y,1/2-z
1/2-x,1/2-y,-z
1/2+x,1/2-y,1/2+z
loop_
_atom_site_type_symbol
_atom_site_label
_atom_site_fract_x
_atom_site_fract_y
_atom_site_fract_z
Si Si1 0.138477 0.901988 0.899287
Si Si2 0.220020 0.451218 0.429885
Si Si3 0.614346 0.649420 0.036216
Si Si4 0.644447 0.357854 0.735671
Si Si5 0.000000 0.358956 0.750000
Si Si6 0.815159 0.906058 0.159115
Si Si7 0.335952 0.552026 0.846611
O O1 0.213151 0.746898 0.922715
O O2 0.008658 0.839213 0.846323
O O3 0.111663 0.022932 0.841223
O O4 0.233356 0.999523 0.991274
O O5 0.330664 0.504590 0.462192
O O6 0.081126 0.530090 0.334259
O O7 0.673387 0.831258 0.061278
O O8 0.656457 0.597508 0.112571
O O9 0.462038 0.665682 0.933144
O O10 0.705139 0.462807 0.813546
O O11 0.666509 0.462752 0.703488
O O12 0.711379 0.175559 0.774794
O O13 0.905886 0.252194 0.726242
#
# Coordination Sequence:
#
# PCOD8145048 Si02
#       7
#     8   8   8   8   4   8   8
#     4  11  23  42  65  99 129 167 203 275 324 383
#     4  10  23  41  66  97 129 165 210 261 336 369
#     4  10  23  45  64  93 126 174 212 271 313 385
#     4  12  24  44  63  95 126 174 216 267 305 394
#     4  10  22  36  66  98 124 166 200 260 330 386
#     4  11  23  40  67  97 131 161 215 269 329 368
#     4  11  25  44  66  87 133 173 224 256 316 375
#
# _framework density 21.312775999999999
#
# number of rings (size 3 to 8) (size 9 to 14) (size 15 to 20)
#    0.000    1.231    3.077    1.846    6.462    4.308 
#    5.538    0.000    0.000    0.000    0.000    0.000 
#    0.000    0.000    0.000    0.000    0.000    0.000 
#
# Total GULP energy -322298.463860 kJ/mol
# GULP energy per Si atom -12396.094764 kJ/mol
# Density = 2.126427 g / cm^3
# Si number density = 21.312776 Si / 1000 Ang^3
#
#
#
# Elastic Constant Matrix: (Units=GPa)
#
#
# Indices 1 2 3 4 5 6 
#
# 1 101.8069 38.0451 42.7908 -0.0002 -14.8236 0.0000
# 2 38.0451 41.1749 39.2545 -0.0004 -7.7363 -0.0002
# 3 42.7908 39.2545 123.0749 -0.0002 -10.3268 -0.0002
# 4 -0.0002 -0.0004 -0.0002 32.1829 0.0001 4.3020
# 5 -14.8236 -7.7363 -10.3268 0.0001 33.3490 -0.0002
# 6 0.0000 -0.0002 -0.0002 4.3020 -0.0002 33.8239
#
#
#
# Elastic Compliance Matrix: (Units=1/GPa)
#
#
# Indices 1 2 3 4 5 6 
#
# 1 0.015525 -0.012654 -0.001056 0.000000 0.003638 0.000000
# 2 -0.012654 0.045969 -0.010102 0.000000 0.001911 0.000000
# 3 -0.001056 -0.010102 0.011784 0.000000 0.000836 0.000000
# 4 0.000000 0.000000 0.000000 0.031610 0.000000 -0.004020
# 5 0.003638 0.001911 0.000836 0.000000 0.032305 0.000000
# 6 0.000000 0.000000 0.000000 -0.004020 0.000000 0.030076
#
#
# Mechanical properties :
#
#
# Convention : Reuss Voigt Hill
#
# Bulk Modulus (GPa) = 38.98096 56.24860 47.61478
# Shear Modulus (GPa) = 22.37681 29.60224 25.98953
#
# Velocity S-wave (km/s) = 3.24377 3.73090 3.49583
# Velocity P-wave (km/s) = 5.68850 6.70885 6.21964
#
# Compressibility (1/GPa) = 0.02565355
#
# Stress axis : x y z
#
# Youngs Moduli (GPa) = 64.41138 21.75399 84.85730
#
# Poissons Ratio (x) = 0.27528 0.08965
# Poissons Ratio (y) = 0.81508 0.85719
# Poissons Ratio (z) = 0.06805 0.21975
#
# Static dielectric constant tensor:
#      x y z
#    x 3.857310 0.000000 -0.010800 
#    y 0.000000 3.714920 0.000000 
#    z -0.010800 0.000000 4.035370 
# 
# 
# High freq. dielectric constant tensor:
#      x y z
#    x 1.836490 0.000000 0.000810 
#    y 0.000000 1.831050 0.000000 
#    z 0.000810 0.000000 1.847420 
# 
# From -- ./inp_files/298429.got.cif
#   From: 2010.06.25/outbox.cif.g09.slc.cpg/sg15_150_cif.got.tgz:298429.got - 2010.06.28 07:06:18.
