data_PCOD8145793
_publ_section_title
;
Structure prediction by ZEFSAII (Michael W. Deem and Ramdas Pophale) SiO2 
 PCOD8145793
Probable space group: C 2/C
;
_chemical_formula_sum "Si O2"
_cell_formula_units_Z 56
_cell_length_a 15.004941
_cell_length_b 20.704527
_cell_length_c 9.229338
_cell_angle_alpha 90.000000
_cell_angle_beta 66.438503
_cell_angle_gamma 90.000000
_cell_volume 2628.239646
_symmetry_space_group_name_H-M "C 2/C"
_symmetry_group_IT_number 15
_symmetry_cell_setting 'monoclinic'
loop_
_space_group_symop_operation_xyz
x,y,z
-x,y,1/2-z
-x,-y,-z
x,-y,1/2+z
1/2+x,1/2+y,z
1/2-x,1/2+y,1/2-z
1/2-x,1/2-y,-z
1/2+x,1/2-y,1/2+z
loop_
_atom_site_type_symbol
_atom_site_label
_atom_site_fract_x
_atom_site_fract_y
_atom_site_fract_z
Si Si1 0.273901 0.874341 0.342562
Si Si2 0.405930 0.928782 0.486366
Si Si3 0.007580 0.239697 0.906741
Si Si4 0.412349 0.653253 0.395865
Si Si5 0.676247 0.738249 0.294807
Si Si6 0.152800 0.349125 0.731268
Si Si7 0.384644 0.073777 0.525799
O O1 0.367588 0.882194 0.384827
O O2 0.175592 0.893854 0.495319
O O3 0.263195 0.799946 0.299302
O O4 0.290111 0.918736 0.190598
O O5 0.344766 0.913309 0.671605
O O6 0.520010 0.916450 0.437065
O O7 0.385774 0.002917 0.453921
O O8 0.073336 0.303183 0.857477
O O9 0.000000 0.210037 0.750000
O O10 0.048024 0.184166 0.982985
O O11 0.902447 0.261453 0.035967
O O12 0.500000 0.616893 0.250000
O O13 0.372462 0.708323 0.315641
O O14 0.743940 0.686757 0.334345
O O15 0.120331 0.371135 0.593320
#
# Coordination Sequence:
#
# PCOD8145793 Si02
#       7
#     8   8   8   8   8   8   8
#     4  12  21  39  66  89 122 170 212 259 311 386
#     4  11  23  43  62  91 131 171 218 249 309 377
#     4  11  23  36  58  91 132 163 195 257 324 379
#     4  10  22  40  58  87 122 163 208 253 312 377
#     4  11  23  38  61  95 125 167 211 254 320 388
#     4  12  22  40  62  93 133 166 207 260 317 379
#     4  11  26  39  62  96 129 172 208 263 309 374
#
# _framework density 21.307037000000001
#
# number of rings (size 3 to 8) (size 9 to 14) (size 15 to 20)
#    0.000    0.857    2.857    5.571    2.000    5.714 
#    0.000    0.000    0.000    0.857    0.000    0.000 
#    0.000    0.000    0.000    0.000    0.000    0.000 
#
# Total GULP energy -347130.673495 kJ/mol
# GULP energy per Si atom -12397.524053 kJ/mol
# Density = 2.125854 g / cm^3
# Si number density = 21.307037 Si / 1000 Ang^3
#
#
#
# Elastic Constant Matrix: (Units=GPa)
#
#
# Indices 1 2 3 4 5 6 
#
# 1 83.3513 32.8191 39.7641 0.0000 -7.4775 0.0000
# 2 32.8191 55.6644 24.4340 0.0000 0.9077 0.0000
# 3 39.7641 24.4340 137.4893 0.0000 -17.3665 0.0000
# 4 0.0000 0.0000 0.0000 25.3402 0.0000 -1.3194
# 5 -7.4775 0.9077 -17.3665 0.0000 42.3723 0.0000
# 6 0.0000 0.0000 0.0000 -1.3194 0.0000 30.3335
#
#
#
# Elastic Compliance Matrix: (Units=1/GPa)
#
#
# Indices 1 2 3 4 5 6 
#
# 1 0.017114 -0.008737 -0.003155 0.000000 0.001914 0.000000
# 2 -0.008737 0.024097 -0.002126 0.000000 -0.002929 0.000000
# 3 -0.003155 -0.002126 0.008963 0.000000 0.003162 0.000000
# 4 0.000000 0.000000 0.000000 0.039553 0.000000 0.001720
# 5 0.001914 -0.002929 0.003162 0.000000 0.025297 0.000000
# 6 0.000000 0.000000 0.000000 0.001720 0.000000 0.033042
#
#
# Mechanical properties :
#
#
# Convention : Reuss Voigt Hill
#
# Bulk Modulus (GPa) = 45.16918 52.28216 48.72567
# Shear Modulus (GPa) = 27.25089 31.57504 29.41297
#
# Velocity S-wave (km/s) = 3.58014 3.85373 3.71945
# Velocity P-wave (km/s) = 6.19153 6.66276 6.43146
#
# Compressibility (1/GPa) = 0.02213899
#
# Stress axis : x y z
#
# Youngs Moduli (GPa) = 58.43005 41.49957 111.56926
#
# Poissons Ratio (x) = 0.36257 0.35204
# Poissons Ratio (y) = 0.51048 0.23715
# Poissons Ratio (z) = 0.18437 0.08821
#
# Static dielectric constant tensor:
#      x y z
#    x 3.943570 0.000000 -0.142850 
#    y 0.000000 3.484720 0.000000 
#    z -0.142850 0.000000 4.220820 
# 
# 
# High freq. dielectric constant tensor:
#      x y z
#    x 1.830550 0.000000 0.002730 
#    y 0.000000 1.795440 0.000000 
#    z 0.002730 0.000000 1.860970 
# 
# From -- ./inp_files/42124.got.cif
#   From: 2010.06.25/outbox.cif.g09.slc.cpg/sg15_22_cif.got.tgz:42124.got - 2010.06.28 07:06:18.
