data_PCOD8145350
_publ_section_title
;
Structure prediction by ZEFSAII (Michael W. Deem and Ramdas Pophale) SiO2 
 PCOD8145350
Probable space group: C 2/C
;
_chemical_formula_sum "Si O2"
_cell_formula_units_Z 60
_cell_length_a 18.454770
_cell_length_b 7.677888
_cell_length_c 20.926680
_cell_angle_alpha 90.000000
_cell_angle_beta 107.114594
_cell_angle_gamma 90.000000
_cell_volume 2833.874077
_symmetry_space_group_name_H-M "C 2/C"
_symmetry_group_IT_number 15
_symmetry_cell_setting 'monoclinic'
loop_
_space_group_symop_operation_xyz
x,y,z
-x,y,1/2-z
-x,-y,-z
x,-y,1/2+z
1/2+x,1/2+y,z
1/2-x,1/2+y,1/2-z
1/2-x,1/2-y,-z
1/2+x,1/2-y,1/2+z
loop_
_atom_site_type_symbol
_atom_site_label
_atom_site_fract_x
_atom_site_fract_y
_atom_site_fract_z
Si Si1 0.064550 0.863492 0.145215
Si Si2 0.849237 0.367053 0.751033
Si Si3 0.749340 0.934402 0.183670
Si Si4 0.828981 0.873687 0.900610
Si Si5 0.638211 0.363942 0.865680
Si Si6 0.341360 0.019062 0.116009
Si Si7 0.500000 0.552654 0.250000
Si Si8 0.091712 0.171220 0.946488
O O1 0.095651 0.672089 0.174743
O O2 0.999818 0.829076 0.075792
O O3 0.129525 0.991290 0.135847
O O4 0.026459 0.934681 0.198914
O O5 0.822473 0.178203 0.719991
O O6 0.779935 0.482617 0.758241
O O7 0.882796 0.458546 0.696303
O O8 0.683276 0.814370 0.135955
O O9 0.780929 0.085781 0.145372
O O10 0.747988 0.946748 0.900771
O O11 0.882251 0.843220 0.974554
O O12 0.571440 0.337749 0.795442
O O13 0.621382 0.507370 0.914430
O O14 0.647027 0.179049 0.903803
O O15 0.377149 0.148588 0.074096
#
# Coordination Sequence:
#
# PCOD8145350 Si02
#       8
#     8   8   8   8   8   8   4   8
#     4  11  22  42  66  94 125 181 206 270 336 387
#     4  11  20  37  62  95 130 155 211 266 329 383
#     4  11  21  37  63  97 129 166 211 277 322 391
#     4  11  24  43  66  91 132 176 221 267 321 384
#     4  11  22  40  65  95 128 172 214 266 330 392
#     4  11  24  40  69  99 124 174 215 273 331 387
#     4  10  22  38  64  90 136 156 210 260 342 386
#     4  11  24  47  62  90 135 175 219 269 315 394
#
# _framework density 21.172429000000001
#
# number of rings (size 3 to 8) (size 9 to 14) (size 15 to 20)
#    0.000    1.067    4.000    4.800    1.867    1.600 
#    4.800    0.667    0.000    0.000    0.000    0.000 
#    0.000    0.000    0.000    0.000    0.000    0.000 
#
# Total GULP energy -371908.971680 kJ/mol
# GULP energy per Si atom -12396.965723 kJ/mol
# Density = 2.112424 g / cm^3
# Si number density = 21.172429 Si / 1000 Ang^3
#
#
#
# Elastic Constant Matrix: (Units=GPa)
#
#
# Indices 1 2 3 4 5 6 
#
# 1 68.9821 7.8383 9.5907 0.0000 14.2697 0.0000
# 2 7.8383 101.6961 4.9088 0.0000 5.1172 0.0000
# 3 9.5907 4.9088 74.7097 0.0000 18.1201 0.0000
# 4 0.0000 0.0000 0.0000 17.1751 0.0000 5.4296
# 5 14.2697 5.1172 18.1201 0.0000 32.4749 0.0000
# 6 0.0000 0.0000 0.0000 5.4296 0.0000 -7.8814
#
#
#
# Elastic Compliance Matrix: (Units=1/GPa)
#
#
# Indices 1 2 3 4 5 6 
#
# 1 0.016034 -0.000881 -0.000376 0.000000 -0.006697 0.000000
# 2 -0.000881 0.009967 -0.000295 0.000000 -0.001019 0.000000
# 3 -0.000376 -0.000295 0.015499 0.000000 -0.008436 0.000000
# 4 0.000000 0.000000 0.000000 0.047811 0.000000 0.032938
# 5 -0.006697 -0.001019 -0.008436 0.000000 0.038603 0.000000
# 6 0.000000 0.000000 0.000000 0.032938 0.000000 -0.104190
#
#
# Mechanical properties :
#
#
# Convention : Reuss Voigt Hill
#
# Bulk Modulus (GPa) = 26.04399 32.22926 29.13663
# Shear Modulus (GPa) = 126.17802 23.22375 74.70088
#
# Velocity S-wave (km/s) = 7.72818 3.31552 5.94632
# Velocity P-wave (km/s) = 9.58961 5.46921 7.80618
#
# Compressibility (1/GPa) = 0.03839658
#
# Stress axis : x y z
#
# Youngs Moduli (GPa) = 62.36667 100.33511 64.52068
#
# Poissons Ratio (x) = 0.08837 0.02428
# Poissons Ratio (y) = 0.05493 0.01901
# Poissons Ratio (z) = 0.02346 0.02956
#
# Static dielectric constant tensor:
#      x y z
#    x 3.951410 0.000000 0.267250 
#    y 0.000000 3.873180 0.000000 
#    z 0.267250 0.000000 3.914890 
# 
# 
# High freq. dielectric constant tensor:
#      x y z
#    x 1.828230 0.000000 0.005340 
#    y 0.000000 1.828620 0.000000 
#    z 0.005340 0.000000 1.825040 
# 
# From -- ./inp_files/247490.got.cif
#   From: 2010.06.25/outbox.cif.g09.slc.cpg/sg15_124_cif.got.tgz:247490.got - 2010.06.28 07:06:18.
