data_PCOD8145234
_publ_section_title
;
Structure prediction by ZEFSAII (Michael W. Deem and Ramdas Pophale) SiO2 
 PCOD8145234
Probable space group: C 2/C
;
_chemical_formula_sum "Si O2"
_cell_formula_units_Z 56
_cell_length_a 18.308646
_cell_length_b 25.784538
_cell_length_c 9.066838
_cell_angle_alpha 90.000000
_cell_angle_beta 139.629822
_cell_angle_gamma 90.000000
_cell_volume 2772.432944
_symmetry_space_group_name_H-M "C 2/C"
_symmetry_group_IT_number 15
_symmetry_cell_setting 'monoclinic'
loop_
_space_group_symop_operation_xyz
x,y,z
-x,y,1/2-z
-x,-y,-z
x,-y,1/2+z
1/2+x,1/2+y,z
1/2-x,1/2+y,1/2-z
1/2-x,1/2-y,-z
1/2+x,1/2-y,1/2+z
loop_
_atom_site_type_symbol
_atom_site_label
_atom_site_fract_x
_atom_site_fract_y
_atom_site_fract_z
Si Si1 0.204037 0.193109 0.894539
Si Si2 0.897981 0.351873 0.498875
Si Si3 0.281017 0.348041 0.761552
Si Si4 0.974701 0.180929 0.371136
Si Si5 0.105097 0.465556 0.105714
Si Si6 0.396173 0.206669 0.688016
Si Si7 0.135006 0.443749 0.460879
O O1 0.284363 0.159437 0.913116
O O2 0.085698 0.197007 0.630056
O O3 0.250000 0.250000 0.000000
O O4 0.186843 0.163989 0.021882
O O5 0.924861 0.413094 0.527126
O O6 0.890713 0.327286 0.326747
O O7 0.000000 0.326693 0.750000
O O8 0.397005 0.357552 0.848709
O O9 0.215428 0.300628 0.582591
O O10 0.200238 0.397613 0.639620
O O11 0.000000 0.155114 0.250000
O O12 0.904124 0.233118 0.235642
O O13 0.179371 0.449385 0.361399
O O14 0.171586 0.503164 0.097719
O O15 0.000000 0.500000 0.000000
O O16 0.500000 0.186318 0.750000
O O17 0.000000 0.433228 0.250000
#
# Coordination Sequence:
#
# PCOD8145234 Si02
#       7
#     8   8   8   8   8   8   8
#     4  12  26  41  62  95 132 172 219 267 319 383
#     4  12  23  37  63  94 129 168 211 262 328 387
#     4  12  23  40  66  90 126 172 215 262 320 380
#     4  11  24  43  62  89 127 170 219 262 311 378
#     4  10  22  38  59  94 134 160 206 261 331 387
#     4  11  22  39  62  91 128 167 212 259 319 378
#     4  10  22  38  64  95 131 161 207 259 331 384
#
# _framework density 20.198865999999999
#
# number of rings (size 3 to 8) (size 9 to 14) (size 15 to 20)
#    0.000    0.857    1.429    7.714    8.000    0.000 
#    0.000    0.000    0.000    0.857    0.000    0.000 
#    0.000    0.000    0.000    0.000    0.000    0.000 
#
# Total GULP energy -347138.470040 kJ/mol
# GULP energy per Si atom -12397.802501 kJ/mol
# Density = 2.015289 g / cm^3
# Si number density = 20.198866 Si / 1000 Ang^3
#
#
#
# Elastic Constant Matrix: (Units=GPa)
#
#
# Indices 1 2 3 4 5 6 
#
# 1 140.0794 25.5219 29.5707 0.0000 -17.9479 0.0000
# 2 25.5219 59.9127 -7.6162 0.0000 -9.8945 0.0000
# 3 29.5707 -7.6162 80.2055 0.0000 -20.1912 0.0000
# 4 0.0000 0.0000 0.0000 17.5062 0.0000 -3.8696
# 5 -17.9479 -9.8945 -20.1912 0.0000 38.4824 0.0000
# 6 0.0000 0.0000 0.0000 -3.8696 0.0000 23.3707
#
#
#
# Elastic Compliance Matrix: (Units=1/GPa)
#
#
# Indices 1 2 3 4 5 6 
#
# 1 0.008706 -0.003896 -0.003237 0.000000 0.001360 0.000000
# 2 -0.003896 0.019921 0.004793 0.000000 0.005820 0.000000
# 3 -0.003237 0.004793 0.016185 0.000000 0.008214 0.000000
# 4 0.000000 0.000000 0.000000 0.059293 0.000000 0.009818
# 5 0.001360 0.005820 0.008214 0.000000 0.032427 0.000000
# 6 0.000000 0.000000 0.000000 0.009818 0.000000 0.044414
#
#
# Mechanical properties :
#
#
# Convention : Reuss Voigt Hill
#
# Bulk Modulus (GPa) = 24.91780 41.68337 33.30058
# Shear Modulus (GPa) = 25.12528 31.38659 28.25594
#
# Velocity S-wave (km/s) = 3.53072 3.94620 3.74423
# Velocity P-wave (km/s) = 5.38371 6.43775 5.93418
#
# Compressibility (1/GPa) = 0.04013196
#
# Stress axis : x y z
#
# Youngs Moduli (GPa) = 114.85966 50.19848 61.78712
#
# Poissons Ratio (x) = 0.19556 0.20003
# Poissons Ratio (y) = 0.44745 -0.29615
# Poissons Ratio (z) = 0.37184 -0.24061
#
# Static dielectric constant tensor:
#      x y z
#    x 4.057750 0.000000 -0.368420 
#    y 0.000000 3.642630 0.000000 
#    z -0.368420 0.000000 3.859930 
# 
# 
# High freq. dielectric constant tensor:
#      x y z
#    x 1.797740 0.000000 -0.029370 
#    y 0.000000 1.772780 0.000000 
#    z -0.029370 0.000000 1.789110 
# 
# From -- ./inp_files/52355.got.cif
#   From: 2010.06.25/outbox.cif.g09.slc.cpg/sg15_27_cif.got.tgz:52355.got - 2010.06.28 07:06:18.
