data_PCOD8145790
_publ_section_title
;
Structure prediction by ZEFSAII (Michael W. Deem and Ramdas Pophale) SiO2 
 PCOD8145790
Probable space group: C 2/C
;
_chemical_formula_sum "Si O2"
_cell_formula_units_Z 40
_cell_length_a 26.023994
_cell_length_b 6.502008
_cell_length_c 10.325073
_cell_angle_alpha 90.000000
_cell_angle_beta 101.256879
_cell_angle_gamma 90.000000
_cell_volume 1713.476470
_symmetry_space_group_name_H-M "C 2/C"
_symmetry_group_IT_number 15
_symmetry_cell_setting 'monoclinic'
loop_
_space_group_symop_operation_xyz
x,y,z
-x,y,1/2-z
-x,-y,-z
x,-y,1/2+z
1/2+x,1/2+y,z
1/2-x,1/2+y,1/2-z
1/2-x,1/2-y,-z
1/2+x,1/2-y,1/2+z
loop_
_atom_site_type_symbol
_atom_site_label
_atom_site_fract_x
_atom_site_fract_y
_atom_site_fract_z
Si Si1 0.793802 0.302022 0.123922
Si Si2 0.799823 0.330291 0.784432
Si Si3 0.626343 0.538861 0.230296
Si Si4 0.612892 0.927938 0.057332
Si Si5 0.438585 0.171797 0.234931
O O1 0.807690 0.541504 0.154812
O O2 0.761772 0.219600 0.235171
O O3 0.847547 0.172447 0.139406
O O4 0.750000 0.250000 0.000000
O O5 0.830551 0.119902 0.795915
O O6 0.828226 0.466110 0.915836
O O7 0.612872 0.691434 0.105362
O O8 0.576294 0.414443 0.260064
O O9 0.578201 0.056972 0.142262
O O10 0.588703 0.934921 0.902487
O O11 0.500000 0.153327 0.250000
#
# Coordination Sequence:
#
# PCOD8145790 Si02
#       5
#     8   8   8   8   8
#     4  11  23  36  63  91 132 178 213 266 323 394
#     4  10  22  40  57  94 133 171 220 264 327 394
#     4  10  24  41  61  99 133 175 222 272 327 401
#     4  10  25  43  69  97 136 174 223 281 337 407
#     4  11  25  46  72  99 131 175 227 285 345 403
#
# _framework density 23.344352000000001
#
# number of rings (size 3 to 8) (size 9 to 14) (size 15 to 20)
#    0.000    1.600    2.000    0.600   11.200    4.000 
#    0.000    0.000    0.000    0.000    0.000    0.000 
#    0.000    0.000    0.000    0.000    0.000    0.000 
#
# Total GULP energy -247768.148550 kJ/mol
# GULP energy per Si atom -12388.407428 kJ/mol
# Density = 2.329122 g / cm^3
# Si number density = 23.344352 Si / 1000 Ang^3
#
#
#
# Elastic Constant Matrix: (Units=GPa)
#
#
# Indices 1 2 3 4 5 6 
#
# 1 69.8622 13.4267 -20.3738 0.0000 15.3609 0.0000
# 2 13.4267 111.1341 -5.2232 0.0000 3.0820 0.0000
# 3 -20.3738 -5.2232 55.7498 0.0000 15.2111 0.0000
# 4 0.0000 0.0000 0.0000 -12.0380 0.0000 23.4076
# 5 15.3609 3.0820 15.2111 0.0000 25.7985 0.0000
# 6 0.0000 0.0000 0.0000 23.4076 0.0000 21.8008
#
#
#
# Elastic Compliance Matrix: (Units=1/GPa)
#
#
# Indices 1 2 3 4 5 6 
#
# 1 0.023962 -0.001564 0.014839 0.000000 -0.022830 0.000000
# 2 -0.001564 0.009217 0.000403 0.000000 -0.000407 0.000000
# 3 0.014839 0.000403 0.030772 0.000000 -0.027027 0.000000
# 4 0.000000 0.000000 0.000000 -0.026903 0.000000 0.028886
# 5 -0.022830 -0.000407 -0.027027 0.000000 0.068339 0.000000
# 6 0.000000 0.000000 0.000000 0.028886 0.000000 0.014855
#
#
# Mechanical properties :
#
#
# Convention : Reuss Voigt Hill
#
# Bulk Modulus (GPa) = 10.95202 23.60061 17.27632
# Shear Modulus (GPa) = 40.54378 23.70669 32.12524
#
# Velocity S-wave (km/s) = 4.17198 3.19018 3.71367
# Velocity P-wave (km/s) = 5.28289 4.86841 5.07988
#
# Compressibility (1/GPa) = 0.09130732
#
# Stress axis : x y z
#
# Youngs Moduli (GPa) = 41.73315 108.49071 32.49663
#
# Poissons Ratio (x) = 0.16972 -0.48223
# Poissons Ratio (y) = 0.06529 -0.01310
# Poissons Ratio (z) = -0.61929 -0.04372
#
# Static dielectric constant tensor:
#      x y z
#    x 6.014290 0.000000 -0.362030 
#    y 0.000000 5.187960 0.000000 
#    z -0.362030 0.000000 4.254230 
# 
# 
# High freq. dielectric constant tensor:
#      x y z
#    x 1.917320 0.000000 0.002630 
#    y 0.000000 1.941410 0.000000 
#    z 0.002630 0.000000 1.917960 
# 
# From -- ./inp_files/120740.got.cif
#   From: 2010.06.25/outbox.cif.g09.slc.cpg/sg15_61_cif.got.tgz:120740.got - 2010.06.28 07:06:18.
