data_PCOD8145404
_publ_section_title
;
Structure prediction by ZEFSAII (Michael W. Deem and Ramdas Pophale) SiO2 
 PCOD8145404
Probable space group: C 2/C
;
_chemical_formula_sum "Si O2"
_cell_formula_units_Z 28
_cell_length_a 20.057805
_cell_length_b 8.860191
_cell_length_c 13.655558
_cell_angle_alpha 90.000000
_cell_angle_beta 35.394627
_cell_angle_gamma 90.000000
_cell_volume 1405.620362
_symmetry_space_group_name_H-M "C 2/C"
_symmetry_group_IT_number 15
_symmetry_cell_setting 'monoclinic'
loop_
_space_group_symop_operation_xyz
x,y,z
-x,y,1/2-z
-x,-y,-z
x,-y,1/2+z
1/2+x,1/2+y,z
1/2-x,1/2+y,1/2-z
1/2-x,1/2-y,-z
1/2+x,1/2-y,1/2+z
loop_
_atom_site_type_symbol
_atom_site_label
_atom_site_fract_x
_atom_site_fract_y
_atom_site_fract_z
Si Si1 0.106675 0.554079 0.436222
Si Si2 0.000000 0.681735 0.750000
Si Si3 0.535669 0.469608 0.807226
Si Si4 0.832839 0.884354 0.188065
O O1 0.075613 0.577431 0.588115
O O2 0.156882 0.705167 0.328248
O O3 0.203122 0.425603 0.314579
O O4 0.000000 0.500000 0.500000
O O5 0.074474 0.796836 0.731031
O O6 0.500000 0.557958 0.750000
O O7 0.639760 0.555997 0.735132
O O8 0.421583 0.466243 0.009874
#
# Coordination Sequence:
#
# PCOD8145404 Si02
#       4
#     8   4   8   8
#     4  11  25  42  65  95 128 166 214 259 315 378
#     4   8  20  42  64  88 128 170 204 250 324 380
#     4   8  18  39  65  88 120 172 208 247 310 377
#     4  10  22  38  66  91 126 165 211 260 310 369
#
# _framework density 19.920029
#
# number of rings (size 3 to 8) (size 9 to 14) (size 15 to 20)
#    0.857    1.714    0.000    0.000   12.000    3.429 
#    2.571    2.857    0.000    0.000    0.000    0.000 
#    0.000    0.000    0.000    0.000    0.000    0.000 
#
# Total GULP energy -173477.697091 kJ/mol
# GULP energy per Si atom -12391.264078 kJ/mol
# Density = 1.987469 g / cm^3
# Si number density = 19.920029 Si / 1000 Ang^3
#
#
#
# Elastic Constant Matrix: (Units=GPa)
#
#
# Indices 1 2 3 4 5 6 
#
# 1 141.7145 52.8243 66.0680 0.0000 -11.6235 0.0000
# 2 52.8243 110.4617 54.8962 0.0001 -13.1926 -0.0001
# 3 66.0680 54.8962 84.6584 0.0000 -12.6168 0.0000
# 4 0.0000 0.0001 0.0000 36.1876 0.0000 -3.0995
# 5 -11.6235 -13.1926 -12.6168 0.0000 40.9487 0.0000
# 6 0.0000 -0.0001 0.0000 -3.0995 0.0000 29.0434
#
#
#
# Elastic Compliance Matrix: (Units=1/GPa)
#
#
# Indices 1 2 3 4 5 6 
#
# 1 0.011262 -0.001480 -0.007781 0.000000 0.000322 0.000000
# 2 -0.001480 0.013668 -0.007456 0.000000 0.001686 0.000000
# 3 -0.007781 -0.007456 0.023093 0.000000 0.002504 0.000000
# 4 0.000000 0.000000 0.000000 0.027889 0.000000 0.002976
# 5 0.000322 0.001686 0.002504 0.000000 0.025827 0.000000
# 6 0.000000 0.000000 0.000000 0.002976 0.000000 0.034749
#
#
# Mechanical properties :
#
#
# Convention : Reuss Voigt Hill
#
# Bulk Modulus (GPa) = 68.55270 76.04573 72.29921
# Shear Modulus (GPa) = 28.60650 32.10571 30.35611
#
# Velocity S-wave (km/s) = 3.79366 4.01899 3.90795
# Velocity P-wave (km/s) = 7.32651 7.73271 7.53235
#
# Compressibility (1/GPa) = 0.01458732
#
# Stress axis : x y z
#
# Youngs Moduli (GPa) = 88.79174 73.16546 43.30332
#
# Poissons Ratio (x) = 0.10830 0.33696
# Poissons Ratio (y) = 0.13143 0.32288
# Poissons Ratio (z) = 0.69091 0.54554
#
# Static dielectric constant tensor:
#      x y z
#    x 3.801490 0.000000 0.271270 
#    y 0.000000 3.443960 0.000000 
#    z 0.271270 0.000000 3.446100 
# 
# 
# High freq. dielectric constant tensor:
#      x y z
#    x 1.780440 0.000000 0.015360 
#    y 0.000000 1.761170 0.000000 
#    z 0.015360 0.000000 1.762750 
# 
# From -- ./inp_files/93144.got.cif
#   From: 2010.06.25/outbox.cif.g09.slc.cpg/sg15_47_cif.got.tgz:93144.got - 2010.06.28 07:06:18.
