data_PCOD8145122
_publ_section_title
;
Structure prediction by ZEFSAII (Michael W. Deem and Ramdas Pophale) SiO2 
 PCOD8145122
Probable space group: C 2/C
;
_chemical_formula_sum "Si O2"
_cell_formula_units_Z 64
_cell_length_a 15.283020
_cell_length_b 22.778924
_cell_length_c 9.381282
_cell_angle_alpha 90.000000
_cell_angle_beta 97.517980
_cell_angle_gamma 90.000000
_cell_volume 3237.838480
_symmetry_space_group_name_H-M "C 2/C"
_symmetry_group_IT_number 15
_symmetry_cell_setting 'monoclinic'
loop_
_space_group_symop_operation_xyz
x,y,z
-x,y,1/2-z
-x,-y,-z
x,-y,1/2+z
1/2+x,1/2+y,z
1/2-x,1/2+y,1/2-z
1/2-x,1/2-y,-z
1/2+x,1/2-y,1/2+z
loop_
_atom_site_type_symbol
_atom_site_label
_atom_site_fract_x
_atom_site_fract_y
_atom_site_fract_z
Si Si1 0.794661 0.902494 0.786053
Si Si2 0.330262 0.957589 0.958330
Si Si3 0.976644 0.054799 0.401359
Si Si4 0.074297 0.710871 0.881542
Si Si5 0.485620 0.879892 0.911838
Si Si6 0.678930 0.094260 0.517598
Si Si7 0.271933 0.134991 0.671404
Si Si8 0.112448 0.157740 0.444970
O O1 0.745709 0.949083 0.675076
O O2 0.872552 0.933009 0.892581
O O3 0.834353 0.852212 0.691830
O O4 0.725431 0.877438 0.887398
O O5 0.425971 0.938770 0.915673
O O6 0.325636 0.024550 0.003371
O O7 0.312808 0.919795 0.095684
O O8 0.000000 0.033653 0.250000
O O9 0.032693 0.112519 0.451496
O O10 0.000000 0.000000 0.500000
O O11 0.167998 0.692944 0.833437
O O12 0.070784 0.778309 0.926234
O O13 0.000000 0.696212 0.750000
O O14 0.063434 0.674462 0.025083
O O15 0.500000 0.865952 0.750000
O O16 0.578677 0.885153 0.011301
O O17 0.733984 0.115825 0.665544
O O18 0.175098 0.151660 0.595242
#
# Coordination Sequence:
#
# PCOD8145122 Si02
#       8
#     8   8   8   8   8   8   8   8
#     4  10  22  38  60  94 121 165 203 258 318 369
#     4  10  22  37  62  86 137 173 202 245 320 383
#     4  10  23  39  61  89 120 159 206 254 312 377
#     4  11  21  43  69  87 121 169 219 259 303 377
#     4  11  23  41  59  95 130 171 209 255 312 371
#     4  12  22  38  61  96 132 160 209 259 312 376
#     4  10  23  38  62  99 119 164 216 257 301 378
#     4  10  23  45  65  85 123 170 209 256 325 371
#
# _framework density 19.766273000000002
#
# number of rings (size 3 to 8) (size 9 to 14) (size 15 to 20)
#    0.000    1.500    2.500    2.625    7.000    0.000 
#    0.000    3.750    0.000    0.000    0.000    0.000 
#    0.000    0.000    0.000    0.000    0.000    0.000 
#
# Total GULP energy -396862.501818 kJ/mol
# GULP energy per Si atom -12401.953182 kJ/mol
# Density = 1.972128 g / cm^3
# Si number density = 19.766273 Si / 1000 Ang^3
#
#
#
# Elastic Constant Matrix: (Units=GPa)
#
#
# Indices 1 2 3 4 5 6 
#
# 1 102.4648 18.1514 19.9745 0.0000 13.8066 0.0000
# 2 18.1514 93.5763 22.3243 0.0000 1.2134 0.0000
# 3 19.9745 22.3243 86.2439 0.0000 10.9797 0.0000
# 4 0.0000 0.0000 0.0000 19.0218 0.0000 7.3709
# 5 13.8066 1.2134 10.9797 0.0000 36.3273 0.0000
# 6 0.0000 0.0000 0.0000 7.3709 0.0000 23.3303
#
#
#
# Elastic Compliance Matrix: (Units=1/GPa)
#
#
# Indices 1 2 3 4 5 6 
#
# 1 0.010855 -0.001671 -0.001626 0.000000 -0.003578 0.000000
# 2 -0.001671 0.011657 -0.002768 0.000000 0.001082 0.000000
# 3 -0.001626 -0.002768 0.013102 0.000000 -0.003250 0.000000
# 4 0.000000 0.000000 0.000000 0.059905 0.000000 -0.018926
# 5 -0.003578 0.001082 -0.003250 0.000000 0.029833 0.000000
# 6 0.000000 0.000000 0.000000 -0.018926 0.000000 0.048842
#
#
# Mechanical properties :
#
#
# Convention : Reuss Voigt Hill
#
# Bulk Modulus (GPa) = 42.58413 44.79838 43.69125
# Shear Modulus (GPa) = 25.75301 30.52488 28.13894
#
# Velocity S-wave (km/s) = 3.61345 3.93401 3.77713
# Velocity P-wave (km/s) = 6.24500 6.58396 6.41672
#
# Compressibility (1/GPa) = 0.02348293
#
# Stress axis : x y z
#
# Youngs Moduli (GPa) = 92.12699 85.78536 76.32530
#
# Poissons Ratio (x) = 0.14337 0.12409
# Poissons Ratio (y) = 0.15397 0.21128
# Poissons Ratio (z) = 0.14978 0.23747
#
# Static dielectric constant tensor:
#      x y z
#    x 3.876240 0.000000 0.076360 
#    y 0.000000 3.342540 0.000000 
#    z 0.076360 0.000000 3.493690 
# 
# 
# High freq. dielectric constant tensor:
#      x y z
#    x 1.782690 0.000000 0.013360 
#    y 0.000000 1.752410 0.000000 
#    z 0.013360 0.000000 1.775450 
# 
# From -- ./inp_files/42629.got.cif
#   From: 2010.06.25/outbox.cif.g09.slc.cpg/sg15_22_cif.got.tgz:42629.got - 2010.06.28 07:06:18.
