data_PCOD8145116
_publ_section_title
;
Structure prediction by ZEFSAII (Michael W. Deem and Ramdas Pophale) SiO2 
 PCOD8145116
Probable space group: C 2/C
;
_chemical_formula_sum "Si O2"
_cell_formula_units_Z 60
_cell_length_a 9.151891
_cell_length_b 20.377250
_cell_length_c 24.335191
_cell_angle_alpha 90.000000
_cell_angle_beta 139.236311
_cell_angle_gamma 90.000000
_cell_volume 2963.227069
_symmetry_space_group_name_H-M "C 2/C"
_symmetry_group_IT_number 15
_symmetry_cell_setting 'monoclinic'
loop_
_space_group_symop_operation_xyz
x,y,z
-x,y,1/2-z
-x,-y,-z
x,-y,1/2+z
1/2+x,1/2+y,z
1/2-x,1/2+y,1/2-z
1/2-x,1/2-y,-z
1/2+x,1/2-y,1/2+z
loop_
_atom_site_type_symbol
_atom_site_label
_atom_site_fract_x
_atom_site_fract_y
_atom_site_fract_z
Si Si1 0.000000 0.583419 0.750000
Si Si2 0.659905 0.906082 0.558827
Si Si3 0.470933 0.638884 0.858576
Si Si4 0.217186 0.550402 0.616135
Si Si5 0.552012 0.011810 0.171647
Si Si6 0.892618 0.124267 0.278589
Si Si7 0.478700 0.780493 0.809643
Si Si8 0.823746 0.622698 0.052831
O O1 0.210106 0.629212 0.796345
O O2 0.936513 0.534854 0.682627
O O3 0.491897 0.901335 0.459358
O O4 0.545272 0.869113 0.578009
O O5 0.903449 0.873214 0.618998
O O6 0.705269 0.982633 0.580570
O O7 0.554328 0.585433 0.837858
O O8 0.511545 0.708609 0.842606
O O9 0.601169 0.632691 0.953756
O O10 0.203869 0.535839 0.676742
O O11 0.715922 0.067115 0.244198
O O12 0.344928 0.047784 0.081456
O O13 0.769083 0.193943 0.245562
O O14 0.000000 0.108208 0.250000
O O15 0.500000 0.782319 0.750000
O O16 0.664893 0.825890 0.893314
#
# Coordination Sequence:
#
# PCOD8145116 Si02
#       8
#     4   8   8   8   8   8   8   8
#     4  12  28  36  58  96 136 158 196 256 316 380
#     4   9  16  33  64  95 110 153 200 248 296 372
#     4  11  25  42  62  86 128 173 197 255 315 370
#     4   9  18  36  61  87 122 154 200 237 310 377
#     4  10  22  37  61  96 121 157 204 251 309 376
#     4  11  19  37  65  89 118 159 202 259 294 354
#     4  11  25  41  63  92 120 163 217 260 301 361
#     4   9  20  42  67  87 118 164 212 252 308 365
#
# _framework density 20.248194999999999
#
# number of rings (size 3 to 8) (size 9 to 14) (size 15 to 20)
#    0.000    1.867    4.000    2.000    6.533    0.533 
#    2.400    0.000    0.000    2.400    0.000    0.000 
#    0.000    0.000    0.000    0.000    0.000    0.000 
#
# Total GULP energy -371780.542381 kJ/mol
# GULP energy per Si atom -12392.684746 kJ/mol
# Density = 2.020211 g / cm^3
# Si number density = 20.248195 Si / 1000 Ang^3
#
#
#
# Elastic Constant Matrix: (Units=GPa)
#
#
# Indices 1 2 3 4 5 6 
#
# 1 64.9366 47.0065 27.6525 -0.0002 -9.2530 -0.0003
# 2 47.0065 75.5848 37.4633 0.0000 -7.9098 -0.0001
# 3 27.6525 37.4633 104.0549 -0.0002 2.2731 -0.0002
# 4 -0.0002 0.0000 -0.0002 25.0426 0.0000 -0.8317
# 5 -9.2530 -7.9098 2.2731 0.0000 29.8292 -0.0002
# 6 -0.0003 -0.0001 -0.0002 -0.8317 -0.0002 29.0520
#
#
#
# Elastic Compliance Matrix: (Units=1/GPa)
#
#
# Indices 1 2 3 4 5 6 
#
# 1 0.028798 -0.016524 -0.001806 0.000000 0.004689 0.000000
# 2 -0.016524 0.026277 -0.005118 0.000000 0.002232 0.000000
# 3 -0.001806 -0.005118 0.011995 0.000000 -0.002832 0.000000
# 4 0.000000 0.000000 0.000000 0.039970 0.000000 0.001144
# 5 0.004689 0.002232 -0.002832 0.000000 0.035786 0.000000
# 6 0.000000 0.000000 0.000000 0.001144 0.000000 0.034454
#
#
# Mechanical properties :
#
#
# Convention : Reuss Voigt Hill
#
# Bulk Modulus (GPa) = 49.57029 52.09122 50.83076
# Shear Modulus (GPa) = 21.65427 25.61503 23.63465
#
# Velocity S-wave (km/s) = 3.27378 3.56062 3.42021
# Velocity P-wave (km/s) = 6.23094 6.53347 6.38400
#
# Compressibility (1/GPa) = 0.02017337
#
# Stress axis : x y z
#
# Youngs Moduli (GPa) = 34.72422 38.05646 83.36862
#
# Poissons Ratio (x) = 0.62884 0.15060
# Poissons Ratio (y) = 0.57377 0.42669
# Poissons Ratio (z) = 0.06273 0.19478
#
# Static dielectric constant tensor:
#      x y z
#    x 3.476420 0.000000 -0.023890 
#    y 0.000000 3.514780 0.000000 
#    z -0.023890 0.000000 4.004060 
# 
# 
# High freq. dielectric constant tensor:
#      x y z
#    x 1.765070 0.000000 -0.001340 
#    y 0.000000 1.774110 0.000000 
#    z -0.001340 0.000000 1.798880 
# 
# From -- ./inp_files/290131.got.cif
#   From: 2010.06.25/outbox.cif.g09.slc.cpg/sg15_146_cif.got.tgz:290131.got - 2010.06.28 07:06:18.
