data_PCOD8145450
_publ_section_title
;
Structure prediction by ZEFSAII (Michael W. Deem and Ramdas Pophale) SiO2 
 PCOD8145450
Probable space group: C 2/C
;
_chemical_formula_sum "Si O2"
_cell_formula_units_Z 64
_cell_length_a 21.600114
_cell_length_b 7.936261
_cell_length_c 18.362111
_cell_angle_alpha 90.000000
_cell_angle_beta 110.109129
_cell_angle_gamma 90.000000
_cell_volume 2955.823158
_symmetry_space_group_name_H-M "C 2/C"
_symmetry_group_IT_number 15
_symmetry_cell_setting 'monoclinic'
loop_
_space_group_symop_operation_xyz
x,y,z
-x,y,1/2-z
-x,-y,-z
x,-y,1/2+z
1/2+x,1/2+y,z
1/2-x,1/2+y,1/2-z
1/2-x,1/2-y,-z
1/2+x,1/2-y,1/2+z
loop_
_atom_site_type_symbol
_atom_site_label
_atom_site_fract_x
_atom_site_fract_y
_atom_site_fract_z
Si Si1 0.383140 0.044123 0.035722
Si Si2 0.245646 0.944135 0.933298
Si Si3 0.820850 0.276221 0.636664
Si Si4 0.768622 0.911544 0.408444
Si Si5 0.913387 0.091356 0.920434
Si Si6 0.494965 0.914349 0.166640
Si Si7 0.528678 0.758440 0.036632
Si Si8 0.052984 0.776304 0.216474
O O1 0.349765 0.198865 0.066815
O O2 0.418436 0.924621 0.110165
O O3 0.438691 0.099395 0.000688
O O4 0.325377 0.945795 0.970937
O O5 0.228304 0.766160 0.887015
O O6 0.220417 0.102888 0.876972
O O7 0.213266 0.949102 0.000167
O O8 0.774874 0.434955 0.640813
O O9 0.877886 0.261804 0.718265
O O10 0.835155 0.888786 0.389782
O O11 0.937597 0.098331 0.846871
O O12 0.931521 0.911825 0.962084
O O13 0.951653 0.235086 0.982771
O O14 0.500000 0.835130 0.250000
O O15 0.535132 0.804027 0.124499
O O16 0.523345 0.101831 0.176516
O O17 0.000000 0.861574 0.250000
#
# Coordination Sequence:
#
# PCOD8145450 Si02
#       8
#     8   8   8   8   8   8   8   8
#     4  11  19  39  70  92 125 173 218 270 327 391
#     4  10  22  38  68  96 121 172 219 267 331 390
#     4  11  21  43  66  90 133 178 215 271 332 399
#     4  10  22  41  60  96 129 161 224 274 318 401
#     4  11  23  42  61  97 132 163 217 284 328 389
#     4  11  22  40  62  96 128 169 213 264 337 403
#     4  11  23  37  67  97 124 167 217 274 330 393
#     4  11  23  44  65  89 132 177 217 268 340 395
#
# _framework density 21.652173999999999
#
# number of rings (size 3 to 8) (size 9 to 14) (size 15 to 20)
#    0.000    1.250    3.750    4.125    1.750    1.500 
#    4.500    0.000    0.000    0.000    0.000    0.000 
#    0.000    0.000    0.000    0.000    0.000    0.000 
#
# Total GULP energy -396794.863360 kJ/mol
# GULP energy per Si atom -12399.839480 kJ/mol
# Density = 2.160289 g / cm^3
# Si number density = 21.652174 Si / 1000 Ang^3
#
#
#
# Elastic Constant Matrix: (Units=GPa)
#
#
# Indices 1 2 3 4 5 6 
#
# 1 121.0281 22.3862 48.1302 0.0000 -4.8094 0.0000
# 2 22.3862 83.5174 20.0240 0.0000 4.7977 0.0000
# 3 48.1302 20.0240 82.2694 0.0000 -6.1240 0.0000
# 4 0.0000 0.0000 0.0000 16.5056 0.0000 -5.7511
# 5 -4.8094 4.7977 -6.1240 0.0000 38.4409 0.0000
# 6 0.0000 0.0000 0.0000 -5.7511 0.0000 22.0401
#
#
#
# Elastic Compliance Matrix: (Units=1/GPa)
#
#
# Indices 1 2 3 4 5 6 
#
# 1 0.010952 -0.001535 -0.005989 0.000000 0.000608 0.000000
# 2 -0.001535 0.013101 -0.002456 0.000000 -0.002218 0.000000
# 3 -0.005989 -0.002456 0.016418 0.000000 0.002173 0.000000
# 4 0.000000 0.000000 0.000000 0.066645 0.000000 0.017390
# 5 0.000608 -0.002218 0.002173 0.000000 0.026713 0.000000
# 6 0.000000 0.000000 0.000000 0.017390 0.000000 0.049910
#
#
# Mechanical properties :
#
#
# Convention : Reuss Voigt Hill
#
# Bulk Modulus (GPa) = 48.74982 51.98840 50.36911
# Shear Modulus (GPa) = 23.74901 28.48230 26.11566
#
# Velocity S-wave (km/s) = 3.31545 3.63084 3.47673
# Velocity P-wave (km/s) = 6.10083 6.45292 6.27935
#
# Compressibility (1/GPa) = 0.02051290
#
# Stress axis : x y z
#
# Youngs Moduli (GPa) = 91.30701 76.32876 60.90805
#
# Poissons Ratio (x) = 0.11714 0.36475
# Poissons Ratio (y) = 0.14013 0.14959
# Poissons Ratio (z) = 0.54679 0.18747
#
# Static dielectric constant tensor:
#      x y z
#    x 3.889360 0.000000 0.041060 
#    y 0.000000 3.848220 0.000000 
#    z 0.041060 0.000000 3.751610 
# 
# 
# High freq. dielectric constant tensor:
#      x y z
#    x 1.852380 0.000000 0.005310 
#    y 0.000000 1.848400 0.000000 
#    z 0.005310 0.000000 1.831060 
# 
# From -- ./inp_files/251938.got.cif
#   From: 2010.06.25/outbox.cif.g09.slc.cpg/sg15_126_cif.got.tgz:251938.got - 2010.06.28 07:06:18.
