data_PCOD8145775
_publ_section_title
;
Structure prediction by ZEFSAII (Michael W. Deem and Ramdas Pophale) SiO2 
 PCOD8145775
Probable space group: C 2/C
;
_chemical_formula_sum "Si O2"
_cell_formula_units_Z 64
_cell_length_a 11.465342
_cell_length_b 15.041821
_cell_length_c 24.783369
_cell_angle_alpha 90.000000
_cell_angle_beta 43.469361
_cell_angle_gamma 90.000000
_cell_volume 2940.458919
_symmetry_space_group_name_H-M "C 2/C"
_symmetry_group_IT_number 15
_symmetry_cell_setting 'monoclinic'
loop_
_space_group_symop_operation_xyz
x,y,z
-x,y,1/2-z
-x,-y,-z
x,-y,1/2+z
1/2+x,1/2+y,z
1/2-x,1/2+y,1/2-z
1/2-x,1/2-y,-z
1/2+x,1/2-y,1/2+z
loop_
_atom_site_type_symbol
_atom_site_label
_atom_site_fract_x
_atom_site_fract_y
_atom_site_fract_z
Si Si1 0.197071 0.363140 0.671207
Si Si2 0.881605 0.252819 0.335360
Si Si3 0.836234 0.626632 0.955203
Si Si4 0.505415 0.593644 0.134631
Si Si5 0.473592 0.235033 0.096633
Si Si6 0.613036 0.403041 0.099834
Si Si7 0.343740 0.066545 0.426197
Si Si8 0.380093 0.799781 0.063787
O O1 0.310985 0.402865 0.680557
O O2 0.221034 0.430058 0.613261
O O3 0.270587 0.265144 0.637031
O O4 0.000000 0.355544 0.750000
O O5 0.840386 0.316932 0.399135
O O6 0.971277 0.162237 0.324550
O O7 0.715062 0.226166 0.359738
O O8 0.000000 0.299306 0.250000
O O9 0.918902 0.531006 0.914316
O O10 0.945173 0.673557 0.965758
O O11 0.642509 0.618381 0.041402
O O12 0.522250 0.492514 0.150572
O O13 0.493953 0.315600 0.133029
O O14 0.515761 0.142630 0.112283
O O15 0.592043 0.247034 0.003877
O O16 0.765722 0.386808 0.090948
O O17 0.679764 0.419715 0.017554
#
# Coordination Sequence:
#
# PCOD8145775 Si02
#       8
#     8   8   8   8   8   8   8   8
#     4  12  25  42  64  90 134 179 218 271 329 398
#     4  12  27  42  63  95 138 175 210 276 343 392
#     4  11  24  43  71  98 130 173 225 276 321 397
#     4  11  25  44  68 100 129 176 224 270 330 389
#     4  11  21  41  68  96 133 169 218 277 326 385
#     4  10  22  39  70  99 125 166 222 276 319 384
#     4  10  23  39  65  98 125 166 215 274 329 378
#     4  11  20  43  70  97 127 172 226 267 327 390
#
# _framework density 21.765309999999999
#
# number of rings (size 3 to 8) (size 9 to 14) (size 15 to 20)
#    0.000    1.000    5.000    1.875    5.250    3.000 
#    0.000    0.625    0.000    0.000    0.000    0.000 
#    0.000    0.000    0.000    0.000    0.000    0.000 
#
# Total GULP energy -396730.177160 kJ/mol
# GULP energy per Si atom -12397.818036 kJ/mol
# Density = 2.171577 g / cm^3
# Si number density = 21.765310 Si / 1000 Ang^3
#
#
#
# Elastic Constant Matrix: (Units=GPa)
#
#
# Indices 1 2 3 4 5 6 
#
# 1 106.1411 21.1236 19.5586 0.0000 -23.6551 0.0000
# 2 21.1236 121.0954 17.1506 0.0002 -7.8224 0.0000
# 3 19.5586 17.1506 44.5475 0.0005 -12.8168 0.0002
# 4 0.0000 0.0002 0.0005 11.6490 0.0000 -5.4160
# 5 -23.6551 -7.8224 -12.8168 0.0000 30.7022 0.0000
# 6 0.0000 0.0000 0.0002 -5.4160 0.0000 22.3220
#
#
#
# Elastic Compliance Matrix: (Units=1/GPa)
#
#
# Indices 1 2 3 4 5 6 
#
# 1 0.011858 -0.001212 -0.002500 0.000000 0.007784 0.000000
# 2 -0.001212 0.008882 -0.002847 0.000000 0.000141 0.000000
# 3 -0.002500 -0.002847 0.027138 -0.000001 0.008677 -0.000001
# 4 0.000000 0.000000 -0.000001 0.096760 -0.000001 0.023477
# 5 0.007784 0.000141 0.008677 -0.000001 0.042226 0.000000
# 6 0.000000 0.000000 -0.000001 0.023477 0.000000 0.050495
#
#
# Mechanical properties :
#
#
# Convention : Reuss Voigt Hill
#
# Bulk Modulus (GPa) = 28.76841 43.04995 35.90918
# Shear Modulus (GPa) = 19.07935 27.19804 23.13870
#
# Velocity S-wave (km/s) = 2.96395 3.53881 3.26406
# Velocity P-wave (km/s) = 4.99595 6.04315 5.54433
#
# Compressibility (1/GPa) = 0.03476034
#
# Stress axis : x y z
#
# Youngs Moduli (GPa) = 84.33124 112.59235 36.84824
#
# Poissons Ratio (x) = 0.13641 0.09213
# Poissons Ratio (y) = 0.10217 0.10490
# Poissons Ratio (z) = 0.21086 0.32054
#
# Static dielectric constant tensor:
#      x y z
#    x 4.030200 0.000000 0.041330 
#    y 0.000000 4.185640 0.000000 
#    z 0.041330 0.000000 3.758070 
# 
# 
# High freq. dielectric constant tensor:
#      x y z
#    x 1.866650 0.000000 -0.002460 
#    y 0.000000 1.859970 0.000000 
#    z -0.002460 0.000000 1.827360 
# 
# From -- ./inp_files/293048.got.cif
#   From: 2010.06.25/outbox.cif.g09.slc.cpg/sg15_147_cif.got.tgz:293048.got - 2010.06.28 07:06:18.
