data_PCOD8145970
_publ_section_title
;
Structure prediction by ZEFSAII (Michael W. Deem and Ramdas Pophale) SiO2 
 PCOD8145970
Probable space group: C 2/C
;
_chemical_formula_sum "Si O2"
_cell_formula_units_Z 56
_cell_length_a 7.907073
_cell_length_b 35.753420
_cell_length_c 18.799388
_cell_angle_alpha 90.000000
_cell_angle_beta 147.268140
_cell_angle_gamma 90.000000
_cell_volume 2873.690427
_symmetry_space_group_name_H-M "C 2/C"
_symmetry_group_IT_number 15
_symmetry_cell_setting 'monoclinic'
loop_
_space_group_symop_operation_xyz
x,y,z
-x,y,1/2-z
-x,-y,-z
x,-y,1/2+z
1/2+x,1/2+y,z
1/2-x,1/2+y,1/2-z
1/2-x,1/2-y,-z
1/2+x,1/2-y,1/2+z
loop_
_atom_site_type_symbol
_atom_site_label
_atom_site_fract_x
_atom_site_fract_y
_atom_site_fract_z
Si Si1 0.347378 0.669876 0.519687
Si Si2 0.497898 0.411209 0.402982
Si Si3 0.308499 0.965024 0.404249
Si Si4 0.385973 0.088790 0.597022
Si Si5 0.231405 0.169875 0.519704
Si Si6 0.314585 0.718790 0.750010
Si Si7 0.309053 0.701622 0.250007
O O1 0.293782 0.626254 0.518791
O O2 0.635672 0.673464 0.567837
O O3 0.439079 0.693471 0.620750
O O4 0.038893 0.686155 0.375365
O O5 0.708081 0.442512 0.439453
O O6 0.379622 0.424564 0.439809
O O7 0.202198 0.401162 0.250002
O O8 0.549732 0.942513 0.439448
O O9 0.000000 0.976706 0.250000
O O10 0.500000 0.000000 0.500000
O O11 0.281384 0.126253 0.518795
O O12 0.543995 0.193464 0.620790
O O13 0.962641 0.186159 0.375392
O O14 0.500000 0.737061 0.750000
O O15 0.184983 0.753243 0.749998
O O16 0.500000 0.686719 0.250000
#
# Coordination Sequence:
#
# PCOD8145970 Si02
#       7
#     8   8   8   8   8   8   8
#     4  11  22  40  62  86 118 157 206 258 304 363
#     4   9  19  37  64  91 118 158 204 245 294 362
#     4  10  22  40  64  92 126 156 198 246 298 364
#     4   9  19  37  64  91 118 158 204 245 294 362
#     4  11  22  40  62  86 118 157 206 258 304 363
#     4  12  24  38  62  86 116 159 208 255 307 367
#     4  12  26  40  54  84 124 163 200 257 317 361
#
# _framework density 19.487137000000001
#
# number of rings (size 3 to 8) (size 9 to 14) (size 15 to 20)
#    0.000    1.429    1.429    4.286    4.000    0.571 
#    2.571    0.000    0.000    0.000    0.000    0.000 
#    0.000    0.000    0.000    0.000    0.000    0.000 
#
# Total GULP energy -347268.485248 kJ/mol
# GULP energy per Si atom -12402.445902 kJ/mol
# Density = 1.944278 g / cm^3
# Si number density = 19.487137 Si / 1000 Ang^3
#
#
#
# Elastic Constant Matrix: (Units=GPa)
#
#
# Indices 1 2 3 4 5 6 
#
# 1 102.7552 59.8399 23.6851 0.0000 0.4171 0.0000
# 2 59.8399 139.4249 62.8296 0.0000 -0.0301 0.0000
# 3 23.6851 62.8296 111.8601 0.0000 -0.4988 0.0000
# 4 0.0000 0.0000 0.0000 32.6447 0.0000 -0.0179
# 5 0.4171 -0.0301 -0.4988 0.0000 14.7608 0.0000
# 6 0.0000 0.0000 0.0000 -0.0179 0.0000 30.7722
#
#
#
# Elastic Compliance Matrix: (Units=1/GPa)
#
#
# Indices 1 2 3 4 5 6 
#
# 1 0.012998 -0.005808 0.000508 0.000000 -0.000362 0.000000
# 2 -0.005808 0.012198 -0.005622 0.000000 -0.000001 0.000000
# 3 0.000508 -0.005622 0.011991 0.000000 0.000379 0.000000
# 4 0.000000 0.000000 0.000000 0.030633 0.000000 0.000018
# 5 -0.000362 -0.000001 0.000379 0.000000 0.067770 0.000000
# 6 0.000000 0.000000 0.000000 0.000018 0.000000 0.032497
#
#
# Mechanical properties :
#
#
# Convention : Reuss Voigt Hill
#
# Bulk Modulus (GPa) = 65.16611 71.86105 68.51358
# Shear Modulus (GPa) = 25.63494 29.48124 27.55809
#
# Velocity S-wave (km/s) = 3.63089 3.89376 3.76462
# Velocity P-wave (km/s) = 7.14780 7.56118 7.35739
#
# Compressibility (1/GPa) = 0.01534540
#
# Stress axis : x y z
#
# Youngs Moduli (GPa) = 76.93210 81.97755 83.39245
#
# Poissons Ratio (x) = 0.47612 -0.04239
# Poissons Ratio (y) = 0.44682 0.46882
# Poissons Ratio (z) = -0.03911 0.46087
#
# Static dielectric constant tensor:
#      x y z
#    x 3.824080 0.000000 0.005290 
#    y 0.000000 3.398610 0.000000 
#    z 0.005290 0.000000 3.198940 
# 
# 
# High freq. dielectric constant tensor:
#      x y z
#    x 1.777440 0.000000 0.000250 
#    y 0.000000 1.747870 0.000000 
#    z 0.000250 0.000000 1.747790 
# 
# From -- ./inp_files/234981.got.cif
#   From: 2010.06.25/outbox.cif.g09.slc.cpg/sg15_118_cif.got.tgz:234981.got - 2010.06.28 07:06:18.
