data_PCOD8145825
_publ_section_title
;
Structure prediction by ZEFSAII (Michael W. Deem and Ramdas Pophale) SiO2 
 PCOD8145825
Probable space group: C 2/C
;
_chemical_formula_sum "Si O2"
_cell_formula_units_Z 52
_cell_length_a 23.595519
_cell_length_b 11.444718
_cell_length_c 9.111767
_cell_angle_alpha 90.000000
_cell_angle_beta 108.062957
_cell_angle_gamma 90.000000
_cell_volume 2339.312375
_symmetry_space_group_name_H-M "C 2/C"
_symmetry_group_IT_number 15
_symmetry_cell_setting 'monoclinic'
loop_
_space_group_symop_operation_xyz
x,y,z
-x,y,1/2-z
-x,-y,-z
x,-y,1/2+z
1/2+x,1/2+y,z
1/2-x,1/2+y,1/2-z
1/2-x,1/2-y,-z
1/2+x,1/2-y,1/2+z
loop_
_atom_site_type_symbol
_atom_site_label
_atom_site_fract_x
_atom_site_fract_y
_atom_site_fract_z
Si Si1 0.105321 0.182692 0.313003
Si Si2 0.957293 0.890343 0.469756
Si Si3 0.888983 0.734840 0.004313
Si Si4 0.849011 0.066845 0.689846
Si Si5 0.797864 0.648814 0.533305
Si Si6 0.783517 0.434665 0.334602
Si Si7 0.500000 0.226699 0.250000
O O1 0.047205 0.155783 0.365941
O O2 0.137652 0.292303 0.413993
O O3 0.149419 0.070311 0.350112
O O4 0.086079 0.221174 0.133471
O O5 0.890058 0.920327 0.366241
O O6 0.984529 0.798991 0.380958
O O7 0.000000 0.000000 0.500000
O O8 0.873230 0.853728 0.077065
O O9 0.940149 0.662006 0.139886
O O10 0.831677 0.652694 0.944485
O O11 0.782031 0.107416 0.670938
O O12 0.750000 0.750000 0.500000
O O13 0.794209 0.569065 0.386639
O O14 0.788848 0.563811 0.664379
#
# Coordination Sequence:
#
# PCOD8145825 Si02
#       7
#     8   8   8   8   8   8   4
#     4  11  22  38  64  95 138 174 224 283 346 407
#     4  11  22  37  61  95 135 177 217 279 345 416
#     4  10  24  41  62  96 132 183 229 280 341 409
#     4  11  21  36  62  95 135 176 225 281 343 404
#     4  11  24  44  66 100 140 181 227 285 342 409
#     4  11  25  41  68  97 136 181 233 283 341 408
#     4  10  22  40  60  88 132 174 230 274 336 412
#
# _framework density 22.228753000000001
#
# number of rings (size 3 to 8) (size 9 to 14) (size 15 to 20)
#    0.000    1.231    1.538    5.077    2.154    5.538 
#    0.000    0.769    0.000   10.154    0.000    0.000 
#    0.000    0.000    0.000    0.000    0.000    0.000 
#
# Total GULP energy -322262.198652 kJ/mol
# GULP energy per Si atom -12394.699948 kJ/mol
# Density = 2.217816 g / cm^3
# Si number density = 22.228753 Si / 1000 Ang^3
#
#
#
# Elastic Constant Matrix: (Units=GPa)
#
#
# Indices 1 2 3 4 5 6 
#
# 1 117.9790 19.1093 67.6128 0.0000 2.2771 0.0000
# 2 19.1093 84.3468 49.1231 0.0000 -2.2650 0.0000
# 3 67.6128 49.1231 110.0237 0.0000 8.8206 0.0000
# 4 0.0000 0.0000 0.0000 33.4595 0.0000 -5.7567
# 5 2.2771 -2.2650 8.8206 0.0000 46.4387 0.0000
# 6 0.0000 0.0000 0.0000 -5.7567 0.0000 30.4650
#
#
#
# Elastic Compliance Matrix: (Units=1/GPa)
#
#
# Indices 1 2 3 4 5 6 
#
# 1 0.013502 0.002523 -0.009526 0.000000 0.001270 0.000000
# 2 0.002523 0.016712 -0.009208 0.000000 0.002440 0.000000
# 3 -0.009526 -0.009208 0.019347 0.000000 -0.003657 0.000000
# 4 0.000000 0.000000 0.000000 0.030891 0.000000 0.005837
# 5 0.001270 0.002440 -0.003657 0.000000 0.022285 0.000000
# 6 0.000000 0.000000 0.000000 0.005837 0.000000 0.033928
#
#
# Mechanical properties :
#
#
# Convention : Reuss Voigt Hill
#
# Bulk Modulus (GPa) = 58.34206 64.89334 61.61770
# Shear Modulus (GPa) = 28.60427 33.83959 31.22193
#
# Velocity S-wave (km/s) = 3.59111 3.90594 3.75183
# Velocity P-wave (km/s) = 6.59530 7.04263 6.82263
#
# Compressibility (1/GPa) = 0.01714029
#
# Stress axis : x y z
#
# Youngs Moduli (GPa) = 74.06323 59.83632 51.68800
#
# Poissons Ratio (x) = -0.15095 0.49236
# Poissons Ratio (y) = -0.18685 0.47592
# Poissons Ratio (z) = 0.70549 0.55095
#
# Static dielectric constant tensor:
#      x y z
#    x 4.225950 0.000000 0.196470 
#    y 0.000000 3.774800 0.000000 
#    z 0.196470 0.000000 4.400560 
# 
# 
# High freq. dielectric constant tensor:
#      x y z
#    x 1.885520 0.000000 0.007920 
#    y 0.000000 1.840550 0.000000 
#    z 0.007920 0.000000 1.899670 
# 
# From -- ./inp_files/65213.got.cif
#   From: 2010.06.25/outbox.cif.g09.slc.cpg/sg15_33_cif.got.tgz:65213.got - 2010.06.28 07:06:18.
