data_PCOD8145614
_publ_section_title
;
Structure prediction by ZEFSAII (Michael W. Deem and Ramdas Pophale) SiO2 
 PCOD8145614
Probable space group: C 2/C
;
_chemical_formula_sum "Si O2"
_cell_formula_units_Z 56
_cell_length_a 16.895255
_cell_length_b 5.272368
_cell_length_c 26.615803
_cell_angle_alpha 90.000000
_cell_angle_beta 101.868546
_cell_angle_gamma 90.000000
_cell_volume 2320.197913
_symmetry_space_group_name_H-M "C 2/C"
_symmetry_group_IT_number 15
_symmetry_cell_setting 'monoclinic'
loop_
_space_group_symop_operation_xyz
x,y,z
-x,y,1/2-z
-x,-y,-z
x,-y,1/2+z
1/2+x,1/2+y,z
1/2-x,1/2+y,1/2-z
1/2-x,1/2-y,-z
1/2+x,1/2-y,1/2+z
loop_
_atom_site_type_symbol
_atom_site_label
_atom_site_fract_x
_atom_site_fract_y
_atom_site_fract_z
Si Si1 0.540154 0.325776 0.368275
Si Si2 0.439858 0.705443 0.514329
Si Si3 0.375032 0.954487 0.926671
Si Si4 0.211301 0.059661 0.533398
Si Si5 0.720533 0.264485 0.381412
Si Si6 0.049595 0.354788 0.164040
Si Si7 0.717836 0.763194 0.220933
O O1 0.529270 0.234734 0.424995
O O2 0.632190 0.387355 0.365469
O O3 0.493165 0.588225 0.352899
O O4 0.511336 0.086715 0.329114
O O5 0.500000 0.500000 0.500000
O O6 0.438984 0.946990 0.476689
O O7 0.343326 0.637100 0.505955
O O8 0.283660 0.060118 0.919419
O O9 0.404281 0.013245 0.875556
O O10 0.360484 0.661749 0.938443
O O11 0.250000 0.250000 0.500000
O O12 0.283025 0.972518 0.580363
O O13 0.753949 0.185769 0.331180
O O14 0.120382 0.299956 0.213581
O O15 0.740161 0.528836 0.259555
#
# Coordination Sequence:
#
# PCOD8145614 Si02
#       7
#     8   8   8   8   8   8   8
#     4  12  25  42  65 104 146 179 225 285 355 404
#     4  11  22  36  57  96 136 194 236 276 332 398
#     4  10  22  39  63  90 139 191 246 277 327 417
#     4  11  23  38  64  97 143 191 249 281 340 422
#     4  10  26  42  69 101 140 185 233 299 356 417
#     4  11  26  43  70 102 136 176 224 291 349 423
#     4  11  26  51  80 102 128 177 236 291 365 443
#
# _framework density 24.135871000000002
#
# number of rings (size 3 to 8) (size 9 to 14) (size 15 to 20)
#    0.000    1.143    1.429    3.429   14.000    3.429 
#    0.000    4.286    0.000    0.000    0.000    0.000 
#    0.000    0.000    0.000    0.000    0.000    0.000 
#
# Total GULP energy -346891.669543 kJ/mol
# GULP energy per Si atom -12388.988198 kJ/mol
# Density = 2.408094 g / cm^3
# Si number density = 24.135871 Si / 1000 Ang^3
#
#
#
# Elastic Constant Matrix: (Units=GPa)
#
#
# Indices 1 2 3 4 5 6 
#
# 1 80.7445 2.9421 34.0212 0.0000 31.6084 0.0000
# 2 2.9421 90.7725 35.0501 0.0000 18.8085 0.0000
# 3 34.0212 35.0501 96.3199 0.0000 32.0687 0.0000
# 4 0.0000 0.0000 0.0000 41.0101 0.0000 7.5524
# 5 31.6084 18.8085 32.0687 0.0000 44.9819 0.0000
# 6 0.0000 0.0000 0.0000 7.5524 0.0000 32.9544
#
#
#
# Elastic Compliance Matrix: (Units=1/GPa)
#
#
# Indices 1 2 3 4 5 6 
#
# 1 0.018416 0.003287 -0.003848 0.000000 -0.011572 0.000000
# 2 0.003287 0.013653 -0.004536 0.000000 -0.004784 0.000000
# 3 -0.003848 -0.004536 0.015551 0.000000 -0.006486 0.000000
# 4 0.000000 0.000000 0.000000 0.025459 0.000000 -0.005835
# 5 -0.011572 -0.004784 -0.006486 0.000000 0.036987 0.000000
# 6 0.000000 0.000000 0.000000 -0.005835 0.000000 0.031682
#
#
# Mechanical properties :
#
#
# Convention : Reuss Voigt Hill
#
# Bulk Modulus (GPa) = 26.71977 45.76264 36.24121
# Shear Modulus (GPa) = 30.41006 36.84417 33.62711
#
# Velocity S-wave (km/s) = 3.55343 3.91132 3.73667
# Velocity P-wave (km/s) = 5.28493 6.27690 5.80215
#
# Compressibility (1/GPa) = 0.03742547
#
# Stress axis : x y z
#
# Youngs Moduli (GPa) = 54.29977 73.24431 64.30249
#
# Poissons Ratio (x) = -0.24073 0.24744
# Poissons Ratio (y) = -0.17847 0.29169
# Poissons Ratio (z) = 0.20895 0.33225
#
# Static dielectric constant tensor:
#      x y z
#    x 4.664910 0.000000 0.504860 
#    y 0.000000 4.554020 0.000000 
#    z 0.504860 0.000000 4.410940 
# 
# 
# High freq. dielectric constant tensor:
#      x y z
#    x 1.975750 0.000000 0.030270 
#    y 0.000000 1.960490 0.000000 
#    z 0.030270 0.000000 1.947590 
# 
# From -- ./inp_files/315129.got.cif
#   From: 2010.06.25/outbox.cif.g09.slc.cpg/sg15_158_cif.got.tgz:315129.got - 2010.06.28 07:06:18.
