data_PCOD8145372
_publ_section_title
;
Structure prediction by ZEFSAII (Michael W. Deem and Ramdas Pophale) SiO2 
 PCOD8145372
Probable space group: C 2/C
;
_chemical_formula_sum "Si O2"
_cell_formula_units_Z 56
_cell_length_a 18.546605
_cell_length_b 18.895693
_cell_length_c 15.279446
_cell_angle_alpha 90.000000
_cell_angle_beta 153.233174
_cell_angle_gamma 90.000000
_cell_volume 2411.544629
_symmetry_space_group_name_H-M "C 2/C"
_symmetry_group_IT_number 15
_symmetry_cell_setting 'monoclinic'
loop_
_space_group_symop_operation_xyz
x,y,z
-x,y,1/2-z
-x,-y,-z
x,-y,1/2+z
1/2+x,1/2+y,z
1/2-x,1/2+y,1/2-z
1/2-x,1/2-y,-z
1/2+x,1/2-y,1/2+z
loop_
_atom_site_type_symbol
_atom_site_label
_atom_site_fract_x
_atom_site_fract_y
_atom_site_fract_z
Si Si1 0.804654 0.883525 0.682699
Si Si2 0.500000 0.558658 0.250000
Si Si3 0.193396 0.957837 0.242960
Si Si4 0.962341 0.838774 0.018457
Si Si5 0.206669 0.483690 0.339954
Si Si6 0.805480 0.729807 0.156650
Si Si7 0.494160 0.101253 0.145717
Si Si8 0.500000 0.897378 0.250000
O O1 0.949027 0.887876 0.770923
O O2 0.644355 0.855628 0.457234
O O3 0.781868 0.962879 0.696739
O O4 0.862568 0.827860 0.819665
O O5 0.642580 0.506179 0.432372
O O6 0.017856 0.923095 0.075895
O O7 0.314577 0.905527 0.421036
O O8 0.231404 0.948512 0.181698
O O9 0.127001 0.793282 0.208467
O O10 0.838395 0.817436 0.959720
O O11 0.122927 0.558255 0.226352
O O12 0.074499 0.439145 0.248951
O O13 0.965127 0.683333 0.317034
O O14 0.750000 0.750000 0.000000
O O15 0.500000 0.071216 0.250000
#
# Coordination Sequence:
#
# PCOD8145372 Si02
#       8
#     8   4   8   8   8   8   8   4
#     4  11  23  44  68 109 141 182 228 297 366 431
#     4  10  22  38  64  97 149 172 226 280 376 410
#     4  12  24  40  67 105 142 182 238 285 357 430
#     4  12  26  47  70  99 138 186 246 295 342 425
#     4  11  21  40  63 106 143 182 220 288 356 430
#     4  12  28  48  69 100 139 194 244 290 344 416
#     4  12  23  42  66  98 148 189 230 278 346 425
#     4  10  22  40  66 105 145 184 216 280 374 430
#
# _framework density 23.221630000000001
#
# number of rings (size 3 to 8) (size 9 to 14) (size 15 to 20)
#    0.000    0.571    3.571    5.571    4.000    0.000 
#    0.000    0.000    0.000    2.571    0.000    0.000 
#    0.000    0.000    0.000    0.000    0.000    0.000 
#
# Total GULP energy -346893.665547 kJ/mol
# GULP energy per Si atom -12389.059484 kJ/mol
# Density = 2.316878 g / cm^3
# Si number density = 23.221630 Si / 1000 Ang^3
#
#
#
# Elastic Constant Matrix: (Units=GPa)
#
#
# Indices 1 2 3 4 5 6 
#
# 1 144.5673 31.0629 34.7379 0.0000 -7.7381 0.0000
# 2 31.0629 44.3165 30.1074 0.0000 -10.0947 0.0000
# 3 34.7379 30.1074 155.4952 0.0000 -17.3465 0.0000
# 4 0.0000 0.0000 0.0000 43.2562 0.0000 7.4464
# 5 -7.7381 -10.0947 -17.3465 0.0000 38.0979 0.0000
# 6 0.0000 0.0000 0.0000 7.4464 0.0000 33.5966
#
#
#
# Elastic Compliance Matrix: (Units=1/GPa)
#
#
# Indices 1 2 3 4 5 6 
#
# 1 0.008236 -0.005225 -0.000839 0.000000 -0.000093 0.000000
# 2 -0.005225 0.030172 -0.004110 0.000000 0.005062 0.000000
# 3 -0.000839 -0.004110 0.007663 0.000000 0.002230 0.000000
# 4 0.000000 0.000000 0.000000 0.024035 0.000000 -0.005327
# 5 -0.000093 0.005062 0.002230 0.000000 0.028586 0.000000
# 6 0.000000 0.000000 0.000000 -0.005327 0.000000 0.030946
#
#
# Mechanical properties :
#
#
# Convention : Reuss Voigt Hill
#
# Bulk Modulus (GPa) = 38.87311 59.57726 49.22518
# Shear Modulus (GPa) = 31.53376 39.55487 35.54432
#
# Velocity S-wave (km/s) = 3.68903 4.13166 3.91660
# Velocity P-wave (km/s) = 5.90946 6.96222 6.45733
#
# Compressibility (1/GPa) = 0.02572473
#
# Stress axis : x y z
#
# Youngs Moduli (GPa) = 121.41305 33.14281 130.49689
#
# Poissons Ratio (x) = 0.17316 0.10947
# Poissons Ratio (y) = 0.63433 0.53637
# Poissons Ratio (z) = 0.10185 0.13622
#
# Static dielectric constant tensor:
#      x y z
#    x 4.371930 0.000000 -0.041610 
#    y 0.000000 3.756160 0.000000 
#    z -0.041610 0.000000 4.688450 
# 
# 
# High freq. dielectric constant tensor:
#      x y z
#    x 1.928800 0.000000 0.006020 
#    y 0.000000 1.867320 0.000000 
#    z 0.006020 0.000000 1.951070 
# 
# From -- ./inp_files/163866.got.cif
#   From: 2010.06.25/outbox.cif.g09.slc.cpg/sg15_82_cif.got.tgz:163866.got - 2010.06.28 07:06:18.
