data_PCOD8145485
_publ_section_title
;
Structure prediction by ZEFSAII (Michael W. Deem and Ramdas Pophale) SiO2 
 PCOD8145485
Probable space group: C 2/C
;
_chemical_formula_sum "Si O2"
_cell_formula_units_Z 60
_cell_length_a 22.180531
_cell_length_b 17.154047
_cell_length_c 8.640318
_cell_angle_alpha 90.000000
_cell_angle_beta 115.217110
_cell_angle_gamma 90.000000
_cell_volume 2974.217920
_symmetry_space_group_name_H-M "C 2/C"
_symmetry_group_IT_number 15
_symmetry_cell_setting 'monoclinic'
loop_
_space_group_symop_operation_xyz
x,y,z
-x,y,1/2-z
-x,-y,-z
x,-y,1/2+z
1/2+x,1/2+y,z
1/2-x,1/2+y,1/2-z
1/2-x,1/2-y,-z
1/2+x,1/2-y,1/2+z
loop_
_atom_site_type_symbol
_atom_site_label
_atom_site_fract_x
_atom_site_fract_y
_atom_site_fract_z
Si Si1 0.927541 0.302979 0.151759
Si Si2 0.283642 0.341245 0.691851
Si Si3 0.267904 0.889999 0.373852
Si Si4 0.000000 0.311456 0.750000
Si Si5 0.876946 0.268321 0.432465
Si Si6 0.795559 0.532653 0.216705
Si Si7 0.445713 0.068981 0.437083
Si Si8 0.680761 0.297209 0.087038
O O1 0.890825 0.304615 0.276771
O O2 0.000000 0.264827 0.250000
O O3 0.934756 0.391531 0.094135
O O4 0.889636 0.247813 0.985241
O O5 0.343205 0.317311 0.876881
O O6 0.239989 0.414931 0.692024
O O7 0.315720 0.355040 0.557654
O O8 0.238082 0.265859 0.634444
O O9 0.327537 0.828545 0.464334
O O10 0.262865 0.943788 0.518477
O O11 0.197220 0.846148 0.261594
O O12 0.281363 0.942969 0.237943
O O13 0.028348 0.364490 0.646072
O O14 0.942461 0.258218 0.610246
O O15 0.875197 0.539277 0.298350
O O16 0.500000 0.000000 0.500000
#
# Coordination Sequence:
#
# PCOD8145485 Si02
#       8
#     8   8   8   4   8   8   8   8
#     4  11  22  38  60  82 113 159 200 231 299 358
#     4   9  19  37  61  80 112 149 203 250 300 338
#     4  11  24  36  58  81 119 149 202 242 302 344
#     4  12  22  40  48  84 118 158 192 242 280 348
#     4  10  22  39  58  84 115 157 200 249 286 354
#     4  12  24  38  56  89 114 163 193 249 298 353
#     4  12  27  36  54  80 125 166 198 232 284 357
#     4   9  19  39  58  83 109 152 197 256 286 352
#
# _framework density 20.173370999999999
#
# number of rings (size 3 to 8) (size 9 to 14) (size 15 to 20)
#    0.000    1.333    4.000    2.400    2.800    3.200 
#    0.000    0.000    0.000    0.000    1.733    2.800 
#    0.000    0.000    0.000    0.000    0.000    0.000 
#
# Total GULP energy -371813.334400 kJ/mol
# GULP energy per Si atom -12393.777813 kJ/mol
# Density = 2.012746 g / cm^3
# Si number density = 20.173371 Si / 1000 Ang^3
#
#
#
# Elastic Constant Matrix: (Units=GPa)
#
#
# Indices 1 2 3 4 5 6 
#
# 1 53.2991 18.8815 24.1513 0.0000 20.6321 0.0000
# 2 18.8815 43.8160 29.6844 0.0000 22.6546 0.0000
# 3 24.1513 29.6844 113.2754 0.0000 33.5444 0.0000
# 4 0.0000 0.0000 0.0000 -48.3610 0.0000 8.3523
# 5 20.6321 22.6546 33.5444 0.0000 39.4039 0.0000
# 6 0.0000 0.0000 0.0000 8.3523 0.0000 34.4889
#
#
#
# Elastic Compliance Matrix: (Units=1/GPa)
#
#
# Indices 1 2 3 4 5 6 
#
# 1 0.024584 -0.005173 -0.001277 0.000000 -0.008811 0.000000
# 2 -0.005173 0.034970 -0.003890 0.000000 -0.014085 0.000000
# 3 -0.001277 -0.003890 0.012380 0.000000 -0.007634 0.000000
# 4 0.000000 0.000000 0.000000 -0.019848 0.000000 0.004807
# 5 -0.008811 -0.014085 -0.007634 0.000000 0.044589 0.000000
# 6 0.000000 0.000000 0.000000 0.004807 0.000000 0.027831
#
#
# Mechanical properties :
#
#
# Convention : Reuss Voigt Hill
#
# Bulk Modulus (GPa) = 19.51040 39.53609 29.52325
# Shear Modulus (GPa) = 30.81261 14.28458 22.54860
#
# Velocity S-wave (km/s) = 3.91242 2.66388 3.34689
# Velocity P-wave (km/s) = 5.48651 5.39467 5.44078
#
# Compressibility (1/GPa) = 0.05125471
#
# Stress axis : x y z
#
# Youngs Moduli (GPa) = 40.67684 28.59592 80.77265
#
# Poissons Ratio (x) = 0.14793 0.10311
# Poissons Ratio (y) = 0.21043 0.31421
# Poissons Ratio (z) = 0.05193 0.11124
#
# Static dielectric constant tensor:
#      x y z
#    x 4.008060 0.000000 0.212850 
#    y 0.000000 3.562290 0.000000 
#    z 0.212850 0.000000 4.052020 
# 
# 
# High freq. dielectric constant tensor:
#      x y z
#    x 1.771580 0.000000 0.001170 
#    y 0.000000 1.753030 0.000000 
#    z 0.001170 0.000000 1.806550 
# 
# From -- ./inp_files/62746.got.cif
#   From: 2010.06.25/outbox.cif.g09.slc.cpg/sg15_32_cif.got.tgz:62746.got - 2010.06.28 07:06:18.
