data_PCOD8145580
_publ_section_title
;
Structure prediction by ZEFSAII (Michael W. Deem and Ramdas Pophale) SiO2 
 PCOD8145580
Probable space group: C 2/C
;
_chemical_formula_sum "Si O2"
_cell_formula_units_Z 44
_cell_length_a 31.538726
_cell_length_b 7.548560
_cell_length_c 8.977860
_cell_angle_alpha 90.000000
_cell_angle_beta 76.085670
_cell_angle_gamma 90.000000
_cell_volume 2074.658381
_symmetry_space_group_name_H-M "C 2/C"
_symmetry_group_IT_number 15
_symmetry_cell_setting 'monoclinic'
loop_
_space_group_symop_operation_xyz
x,y,z
-x,y,1/2-z
-x,-y,-z
x,-y,1/2+z
1/2+x,1/2+y,z
1/2-x,1/2+y,1/2-z
1/2-x,1/2-y,-z
1/2+x,1/2-y,1/2+z
loop_
_atom_site_type_symbol
_atom_site_label
_atom_site_fract_x
_atom_site_fract_y
_atom_site_fract_z
Si Si1 0.440226 0.907410 0.549454
Si Si2 0.793553 0.758674 0.661060
Si Si3 0.000000 0.513578 0.750000
Si Si4 0.618166 0.378077 0.272282
Si Si5 0.890706 0.767189 0.549022
Si Si6 0.286613 0.453248 0.374555
O O1 0.466599 0.865435 0.374825
O O2 0.400973 0.768235 0.598177
O O3 0.472928 0.887297 0.661251
O O4 0.423795 0.110527 0.559413
O O5 0.842046 0.681975 0.596914
O O6 0.757957 0.610365 0.664364
O O7 0.785650 0.922922 0.552154
O O8 0.789347 0.838432 0.831573
O O9 0.604060 0.574198 0.336572
O O10 0.670732 0.356421 0.231266
O O11 0.599669 0.345402 0.122640
#
# Coordination Sequence:
#
# PCOD8145580 Si02
#       6
#     8   8   4   8   8   8
#     4  11  22  44  64  88 124 156 196 254 308 361
#     4   9  19  35  53  82 120 153 198 240 279 341
#     4  10  24  42  66  90 118 150 204 258 302 368
#     4  10  22  39  62  90 121 163 203 242 297 360
#     4  10  22  39  62  90 121 163 203 242 297 360
#     4   9  19  35  53  82 120 153 198 240 279 341
#
# _framework density 21.208311999999999
#
# number of rings (size 3 to 8) (size 9 to 14) (size 15 to 20)
#    0.000    2.182    1.818    0.000    5.091    0.727 
#    0.000    5.455    0.000    0.000    0.000    0.000 
#    0.000    0.000    0.000    0.000    0.000    0.000 
#
# Total GULP energy -272697.532592 kJ/mol
# GULP energy per Si atom -12395.342391 kJ/mol
# Density = 2.116004 g / cm^3
# Si number density = 21.208312 Si / 1000 Ang^3
#
#
#
# Elastic Constant Matrix: (Units=GPa)
#
#
# Indices 1 2 3 4 5 6 
#
# 1 85.7376 34.0766 29.0062 0.0000 -5.2492 0.0000
# 2 34.0766 77.3404 27.5609 0.0000 -9.1176 0.0000
# 3 29.0062 27.5609 94.3761 0.0000 -13.9646 0.0000
# 4 0.0000 0.0000 0.0000 28.2543 0.0000 -2.4386
# 5 -5.2492 -9.1176 -13.9646 0.0000 27.2692 0.0000
# 6 0.0000 0.0000 0.0000 -2.4386 0.0000 20.4259
#
#
#
# Elastic Compliance Matrix: (Units=1/GPa)
#
#
# Indices 1 2 3 4 5 6 
#
# 1 0.014853 -0.005528 -0.003031 0.000000 -0.000541 0.000000
# 2 -0.005528 0.016702 -0.002715 0.000000 0.003130 0.000000
# 3 -0.003031 -0.002715 0.013092 0.000000 0.005213 0.000000
# 4 0.000000 0.000000 0.000000 0.035761 0.000000 0.004269
# 5 -0.000541 0.003130 0.005213 0.000000 0.040283 0.000000
# 6 0.000000 0.000000 0.000000 0.004269 0.000000 0.049467
#
#
# Mechanical properties :
#
#
# Convention : Reuss Voigt Hill
#
# Bulk Modulus (GPa) = 45.25220 48.74906 47.00063
# Shear Modulus (GPa) = 24.99087 26.31056 25.65072
#
# Velocity S-wave (km/s) = 3.43644 3.52600 3.48151
# Velocity P-wave (km/s) = 6.09334 6.29386 6.19441
#
# Compressibility (1/GPa) = 0.02209837
#
# Stress axis : x y z
#
# Youngs Moduli (GPa) = 67.32738 59.87247 76.38411
#
# Poissons Ratio (x) = 0.33098 0.23150
# Poissons Ratio (y) = 0.37219 0.20742
# Poissons Ratio (z) = 0.20405 0.16258
#
# Static dielectric constant tensor:
#      x y z
#    x 3.879500 0.000000 -0.147100 
#    y 0.000000 3.296490 0.000000 
#    z -0.147100 0.000000 4.104180 
# 
# 
# High freq. dielectric constant tensor:
#      x y z
#    x 1.838150 0.000000 -0.008650 
#    y 0.000000 1.788980 0.000000 
#    z -0.008650 0.000000 1.846400 
# 
# From -- ./inp_files/68284.got.cif
#   From: 2010.06.25/outbox.cif.g09.slc.cpg/sg15_35_cif.got.tgz:68284.got - 2010.06.28 07:06:18.
