data_PCOD8145336
_publ_section_title
;
Structure prediction by ZEFSAII (Michael W. Deem and Ramdas Pophale) SiO2 
 PCOD8145336
Probable space group: C 2/C
;
_chemical_formula_sum "Si O2"
_cell_formula_units_Z 48
_cell_length_a 29.905645
_cell_length_b 7.468772
_cell_length_c 14.651081
_cell_angle_alpha 90.000000
_cell_angle_beta 142.401060
_cell_angle_gamma 90.000000
_cell_volume 1996.617093
_symmetry_space_group_name_H-M "C 2/C"
_symmetry_group_IT_number 15
_symmetry_cell_setting 'monoclinic'
loop_
_space_group_symop_operation_xyz
x,y,z
-x,y,1/2-z
-x,-y,-z
x,-y,1/2+z
1/2+x,1/2+y,z
1/2-x,1/2+y,1/2-z
1/2-x,1/2-y,-z
1/2+x,1/2-y,1/2+z
loop_
_atom_site_type_symbol
_atom_site_label
_atom_site_fract_x
_atom_site_fract_y
_atom_site_fract_z
Si Si1 0.409793 0.948027 0.954610
Si Si2 0.233960 0.943729 0.846389
Si Si3 0.528235 0.193021 0.121423
Si Si4 0.751761 0.035367 0.828302
Si Si5 0.629478 0.500932 0.340224
Si Si6 0.394688 0.102814 0.638222
O O1 0.449683 0.811453 0.949284
O O2 0.324256 0.929387 0.792238
O O3 0.423430 0.887518 0.080653
O O4 0.440252 0.155173 0.989113
O O5 0.217728 0.044000 0.725210
O O6 0.235762 0.730620 0.840237
O O7 0.170957 0.008271 0.811418
O O8 0.314734 0.991136 0.014653
O O9 0.558198 0.371271 0.219190
O O10 0.555664 0.015214 0.216968
O O11 0.813052 0.935956 0.989029
O O12 0.601430 0.697871 0.316159
#
# Coordination Sequence:
#
# PCOD8145336 Si02
#       6
#     8   8   8   8   8   8
#     4  10  23  43  67  95 142 180 219 289 349 407
#     4  10  22  38  63  99 133 170 227 293 346 400
#     4  11  24  43  69  98 133 186 229 272 350 417
#     4  10  22  40  65  97 134 172 228 286 347 404
#     4  11  24  40  70 103 129 179 236 287 341 414
#     4  10  22  44  63  95 142 175 221 287 347 405
#
# _framework density 24.040664
#
# number of rings (size 3 to 8) (size 9 to 14) (size 15 to 20)
#    0.000    1.667    0.000    4.500   11.667    1.333 
#    0.000   10.833    0.000    0.000    0.000    0.000 
#    0.000    0.000    0.000    0.000    0.000    0.000 
#
# Total GULP energy -297529.967298 kJ/mol
# GULP energy per Si atom -12397.081971 kJ/mol
# Density = 2.398595 g / cm^3
# Si number density = 24.040664 Si / 1000 Ang^3
#
#
#
# Elastic Constant Matrix: (Units=GPa)
#
#
# Indices 1 2 3 4 5 6 
#
# 1 108.0683 19.8091 16.7544 0.0001 -13.1743 0.0000
# 2 19.8091 72.8045 31.5442 -0.0006 0.6559 0.0000
# 3 16.7544 31.5442 64.8913 0.0001 -20.6108 0.0000
# 4 0.0001 -0.0006 0.0001 -307.7551 0.0000 -38.1059
# 5 -13.1743 0.6559 -20.6108 0.0000 24.3590 0.0000
# 6 0.0000 0.0000 0.0000 -38.1059 0.0000 25.4471
#
#
#
# Elastic Compliance Matrix: (Units=1/GPa)
#
#
# Indices 1 2 3 4 5 6 
#
# 1 0.010523 -0.003373 0.001038 0.000000 0.006660 0.000000
# 2 -0.003373 0.020661 -0.013578 0.000000 -0.013869 0.000000
# 3 0.001038 -0.013578 0.030136 0.000000 0.026426 0.000000
# 4 0.000000 0.000000 0.000000 -0.002741 0.000000 -0.004105
# 5 0.006660 -0.013869 0.026426 0.000000 0.067388 0.000000
# 6 0.000000 0.000000 0.000000 -0.004105 0.000000 0.033151
#
#
# Mechanical properties :
#
#
# Convention : Reuss Voigt Hill
#
# Bulk Modulus (GPa) = 33.90428 42.44219 38.17323
# Shear Modulus (GPa) = 24.90372 -39.74605 -7.42116
#
# Velocity S-wave (km/s) = 3.22203 -4.07047 -1.75887
# Velocity P-wave (km/s) = 5.28919 2.09738 3.43340
#
# Compressibility (1/GPa) = 0.02949481
#
# Stress axis : x y z
#
# Youngs Moduli (GPa) = 95.03315 48.40061 33.18295
#
# Poissons Ratio (x) = 0.16325 -0.03445
# Poissons Ratio (y) = 0.32054 0.45055
# Poissons Ratio (z) = -0.09866 0.65717
#
# Static dielectric constant tensor:
#      x y z
#    x 4.568900 0.000000 0.059800 
#    y 0.000000 3.926520 0.000000 
#    z 0.059800 0.000000 4.808640 
# 
# 
# High freq. dielectric constant tensor:
#      x y z
#    x 1.961000 0.000000 -0.007670 
#    y 0.000000 1.925660 0.000000 
#    z -0.007670 0.000000 1.972000 
# 
# From -- ./inp_files/180896.got.cif
#   From: 2010.06.25/outbox.cif.g09.slc.cpg/sg15_91_cif.got.tgz:180896.got - 2010.06.28 07:06:18.
