data_PCOD8145687
_publ_section_title
;
Structure prediction by ZEFSAII (Michael W. Deem and Ramdas Pophale) SiO2 
 PCOD8145687
Probable space group: C 2/C
;
_chemical_formula_sum "Si O2"
_cell_formula_units_Z 56
_cell_length_a 30.483518
_cell_length_b 13.795194
_cell_length_c 9.481808
_cell_angle_alpha 90.000000
_cell_angle_beta 134.991849
_cell_angle_gamma 90.000000
_cell_volume 2819.881330
_symmetry_space_group_name_H-M "C 2/C"
_symmetry_group_IT_number 15
_symmetry_cell_setting 'monoclinic'
loop_
_space_group_symop_operation_xyz
x,y,z
-x,y,1/2-z
-x,-y,-z
x,-y,1/2+z
1/2+x,1/2+y,z
1/2-x,1/2+y,1/2-z
1/2-x,1/2-y,-z
1/2+x,1/2-y,1/2+z
loop_
_atom_site_type_symbol
_atom_site_label
_atom_site_fract_x
_atom_site_fract_y
_atom_site_fract_z
Si Si1 0.028281 0.399398 0.020906
Si Si2 0.092309 0.704410 0.210352
Si Si3 0.127007 0.631129 0.987851
Si Si4 0.869345 0.585618 0.955407
Si Si5 0.077655 0.904397 0.584461
Si Si6 0.679414 0.233034 0.871977
Si Si7 0.066249 0.091531 0.731074
O O1 0.075491 0.370217 0.249950
O O2 0.059226 0.412274 0.936933
O O3 0.000000 0.500000 0.000000
O O4 0.977826 0.315234 0.899528
O O5 0.137071 0.637010 0.407109
O O6 0.106677 0.816514 0.272646
O O7 0.100800 0.681166 0.066816
O O8 0.178953 0.700135 0.035535
O O9 0.153896 0.524798 0.083223
O O10 0.830958 0.640870 0.751250
O O11 0.127809 0.818414 0.728895
O O12 0.079264 0.929568 0.423657
O O13 0.006096 0.882265 0.465012
O O14 0.094473 0.000739 0.709996
O O15 0.750000 0.250000 0.000000
#
# Coordination Sequence:
#
# PCOD8145687 Si02
#       7
#     8   8   8   8   8   8   8
#     4  11  20  32  56  94 137 175 192 235 319 401
#     4  12  21  33  59  94 132 163 205 257 313 388
#     4  11  23  37  59  94 129 163 210 249 314 389
#     4  11  21  39  59  89 130 167 209 249 316 384
#     4  10  22  43  64  91 123 165 211 268 326 381
#     4  11  25  48  66  86 125 175 222 269 325 382
#     4  10  22  39  65  94 126 159 209 269 329 387
#
# _framework density 19.858989999999999
#
# number of rings (size 3 to 8) (size 9 to 14) (size 15 to 20)
#    0.000    1.143    4.286    3.429    4.000    0.000 
#    5.143    0.714    0.000    0.000    0.000    0.000 
#    0.000    0.000    0.000    0.000    0.000    0.000 
#
# Total GULP energy -346970.383180 kJ/mol
# GULP energy per Si atom -12391.799399 kJ/mol
# Density = 1.981379 g / cm^3
# Si number density = 19.858990 Si / 1000 Ang^3
#
#
#
# Elastic Constant Matrix: (Units=GPa)
#
#
# Indices 1 2 3 4 5 6 
#
# 1 96.1584 54.6130 37.7783 0.0000 -8.1288 0.0000
# 2 54.6130 143.0724 37.1099 0.0000 -13.4599 0.0000
# 3 37.7783 37.1099 51.1022 0.0000 -14.0301 0.0000
# 4 0.0000 0.0000 0.0000 29.6080 0.0000 -13.4865
# 5 -8.1288 -13.4599 -14.0301 0.0000 36.0867 0.0000
# 6 0.0000 0.0000 0.0000 -13.4865 0.0000 32.0833
#
#
#
# Elastic Compliance Matrix: (Units=1/GPa)
#
#
# Indices 1 2 3 4 5 6 
#
# 1 0.016237 -0.003843 -0.009630 0.000000 -0.001520 0.000000
# 2 -0.003843 0.009546 -0.003752 0.000000 0.001236 0.000000
# 3 -0.009630 -0.003752 0.031830 0.000000 0.008807 0.000000
# 4 0.000000 0.000000 0.000000 0.041773 0.000000 0.017560
# 5 -0.001520 0.001236 0.008807 0.000000 0.031254 0.000000
# 6 0.000000 0.000000 0.000000 0.017560 0.000000 0.038550
#
#
# Mechanical properties :
#
#
# Convention : Reuss Voigt Hill
#
# Bulk Modulus (GPa) = 43.17146 61.03727 52.10437
# Shear Modulus (GPa) = 23.65624 30.27772 26.96698
#
# Velocity S-wave (km/s) = 3.45514 3.90889 3.68900
# Velocity P-wave (km/s) = 6.14032 7.15365 6.66626
#
# Compressibility (1/GPa) = 0.02316345
#
# Stress axis : x y z
#
# Youngs Moduli (GPa) = 61.58720 104.75775 31.41687
#
# Poissons Ratio (x) = 0.40260 0.30255
# Poissons Ratio (y) = 0.23669 0.11786
# Poissons Ratio (z) = 0.59309 0.39300
#
# Static dielectric constant tensor:
#      x y z
#    x 4.137530 0.000000 -0.170810 
#    y 0.000000 3.906450 0.000000 
#    z -0.170810 0.000000 3.488370 
# 
# 
# High freq. dielectric constant tensor:
#      x y z
#    x 1.757230 0.000000 -0.034960 
#    y 0.000000 1.787750 0.000000 
#    z -0.034960 0.000000 1.761130 
# 
# From -- ./inp_files/69972.got.cif
#   From: 2010.06.25/outbox.cif.g09.slc.cpg/sg15_35_cif.got.tgz:69972.got - 2010.06.28 07:06:18.
