data_PCOD8145999
_publ_section_title
;
Structure prediction by ZEFSAII (Michael W. Deem and Ramdas Pophale) SiO2 
 PCOD8145999
Probable space group: C 2/C
;
_chemical_formula_sum "Si O2"
_cell_formula_units_Z 40
_cell_length_a 23.306941
_cell_length_b 8.760032
_cell_length_c 17.471709
_cell_angle_alpha 90.000000
_cell_angle_beta 29.323774
_cell_angle_gamma 90.000000
_cell_volume 1747.011295
_symmetry_space_group_name_H-M "C 2/C"
_symmetry_group_IT_number 15
_symmetry_cell_setting 'monoclinic'
loop_
_space_group_symop_operation_xyz
x,y,z
-x,y,1/2-z
-x,-y,-z
x,-y,1/2+z
1/2+x,1/2+y,z
1/2-x,1/2+y,1/2-z
1/2-x,1/2-y,-z
1/2+x,1/2-y,1/2+z
loop_
_atom_site_type_symbol
_atom_site_label
_atom_site_fract_x
_atom_site_fract_y
_atom_site_fract_z
Si Si1 0.277115 0.498094 0.961687
Si Si2 0.384178 0.241653 0.423921
Si Si3 0.092207 0.393960 0.939193
Si Si4 0.875260 0.279254 0.259584
Si Si5 0.206848 0.689757 0.817795
O O1 0.363702 0.589488 0.915971
O O2 0.355764 0.382697 0.821581
O O3 0.218192 0.620582 0.974072
O O4 0.183692 0.412771 0.123260
O O5 0.500000 0.173986 0.250000
O O6 0.388483 0.259414 0.511349
O O7 0.197556 0.506397 0.843089
O O8 0.162375 0.255945 0.814822
O O9 0.000000 0.500000 0.000000
O O10 0.015183 0.316565 0.096053
O O11 0.825227 0.269829 0.231921
#
# Coordination Sequence:
#
# PCOD8145999 Si02
#       5
#     8   8   8   8   8
#     4  10  23  40  60  90 127 162 206 258 316 376
#     4  11  23  40  60  89 125 163 205 259 317 373
#     4  10  22  40  64  95 129 163 209 268 315 368
#     4  10  22  42  64  90 126 167 210 263 316 373
#     4  11  22  40  67  94 124 169 220 258 310 388
#
# _framework density 22.896246999999999
#
# number of rings (size 3 to 8) (size 9 to 14) (size 15 to 20)
#    0.000    1.600    0.000    4.800    0.000    8.000 
#    0.000   10.000    0.000    0.000    0.000    0.000 
#    0.000    0.000    0.000    0.000    0.000    0.000 
#
# Total GULP energy -247780.788001 kJ/mol
# GULP energy per Si atom -12389.039400 kJ/mol
# Density = 2.284413 g / cm^3
# Si number density = 22.896247 Si / 1000 Ang^3
#
#
#
# Elastic Constant Matrix: (Units=GPa)
#
#
# Indices 1 2 3 4 5 6 
#
# 1 47.2338 38.6771 29.9359 0.0004 24.5293 -0.0003
# 2 38.6771 154.8763 87.0567 0.0040 0.0633 -0.0001
# 3 29.9359 87.0567 190.2822 0.0013 15.9250 0.0000
# 4 0.0004 0.0040 0.0013 41.4746 -0.0008 -10.7237
# 5 24.5293 0.0633 15.9250 -0.0008 43.4842 -0.0001
# 6 -0.0003 -0.0001 0.0000 -10.7237 -0.0001 20.0034
#
#
#
# Elastic Compliance Matrix: (Units=1/GPa)
#
#
# Indices 1 2 3 4 5 6 
#
# 1 0.042102 -0.010638 0.000237 0.000000 -0.023821 0.000001
# 2 -0.010638 0.011474 -0.004206 -0.000001 0.007524 -0.000001
# 3 0.000237 -0.004206 0.007379 0.000000 -0.002830 0.000000
# 4 0.000000 -0.000001 0.000000 0.027991 0.000000 0.015006
# 5 -0.023821 0.007524 -0.002830 0.000000 0.037460 0.000000
# 6 0.000001 -0.000001 0.000000 0.015006 0.000000 0.058036
#
#
# Mechanical properties :
#
#
# Convention : Reuss Voigt Hill
#
# Bulk Modulus (GPa) = 31.50341 78.19242 54.84791
# Shear Modulus (GPa) = 22.29786 36.77394 29.53590
#
# Velocity S-wave (km/s) = 3.12407 4.01198 3.59554
# Velocity P-wave (km/s) = 5.17708 7.46232 6.42216
#
# Compressibility (1/GPa) = 0.03174259
#
# Stress axis : x y z
#
# Youngs Moduli (GPa) = 23.75163 87.15125 135.51668
#
# Poissons Ratio (x) = 0.92707 -0.03208
# Poissons Ratio (y) = 0.25266 0.56996
# Poissons Ratio (z) = -0.00562 0.36654
#
# Static dielectric constant tensor:
#      x y z
#    x 3.897460 0.000000 0.056250 
#    y 0.000000 4.474740 0.000000 
#    z 0.056250 0.000000 4.573860 
# 
# 
# High freq. dielectric constant tensor:
#      x y z
#    x 1.877340 0.000000 0.018760 
#    y 0.000000 1.918300 0.000000 
#    z 0.018760 0.000000 1.917720 
# 
# From -- ./inp_files/218762.got.cif
#   From: 2010.06.25/outbox.cif.g09.slc.cpg/sg15_110_cif.got.tgz:218762.got - 2010.06.28 07:06:18.
