data_PCOD8145840
_publ_section_title
;
Structure prediction by ZEFSAII (Michael W. Deem and Ramdas Pophale) SiO2 
 PCOD8145840
Probable space group: C 2/C
;
_chemical_formula_sum "Si O2"
_cell_formula_units_Z 40
_cell_length_a 9.134872
_cell_length_b 24.774245
_cell_length_c 18.648713
_cell_angle_alpha 90.000000
_cell_angle_beta 150.420257
_cell_angle_gamma 90.000000
_cell_volume 2083.325829
_symmetry_space_group_name_H-M "C 2/C"
_symmetry_group_IT_number 15
_symmetry_cell_setting 'monoclinic'
loop_
_space_group_symop_operation_xyz
x,y,z
-x,y,1/2-z
-x,-y,-z
x,-y,1/2+z
1/2+x,1/2+y,z
1/2-x,1/2+y,1/2-z
1/2-x,1/2-y,-z
1/2+x,1/2-y,1/2+z
loop_
_atom_site_type_symbol
_atom_site_label
_atom_site_fract_x
_atom_site_fract_y
_atom_site_fract_z
Si Si1 0.750942 0.412365 0.299180
Si Si2 0.808559 0.002826 0.847795
Si Si3 0.433543 0.701478 0.142613
Si Si4 0.282808 0.787229 0.323355
Si Si5 0.594147 0.584131 0.372759
O O1 0.500000 0.427840 0.250000
O O2 0.689205 0.440968 0.196285
O O3 0.745136 0.348287 0.280021
O O4 0.059914 0.430852 0.466998
O O5 0.500000 0.989492 0.750000
O O6 0.886485 0.956329 0.825936
O O7 0.000000 0.000000 0.000000
O O8 0.500000 0.684252 0.250000
O O9 0.685413 0.744836 0.228131
O O10 0.459005 0.643433 0.113996
O O11 0.095348 0.723159 0.996966
O O12 0.000000 0.770056 0.250000
O O13 0.500000 0.579188 0.250000
#
# Coordination Sequence:
#
# PCOD8145840 Si02
#       5
#     8   8   8   8   8
#     4  10  22  40  61  85 117 159 198 236 290 354
#     4  12  25  40  58  88 121 153 196 247 294 340
#     4   9  19  37  58  85 115 150 190 238 286 338
#     4   9  19  37  59  85 115 150 193 234 285 346
#     4  10  22  40  61  84 118 157 197 238 290 352
#
# _framework density 19.20007
#
# number of rings (size 3 to 8) (size 9 to 14) (size 15 to 20)
#    0.000    2.000    2.000    0.600    2.800    4.000 
#    3.600    0.000    0.000    0.000    0.000    0.000 
#    0.000    0.000    0.000    0.000    0.000    0.000 
#
# Total GULP energy -247765.615838 kJ/mol
# GULP energy per Si atom -12388.280792 kJ/mol
# Density = 1.915637 g / cm^3
# Si number density = 19.200070 Si / 1000 Ang^3
#
#
#
# Elastic Constant Matrix: (Units=GPa)
#
#
# Indices 1 2 3 4 5 6 
#
# 1 137.8226 78.0620 64.9566 -0.0058 19.2109 -0.0010
# 2 78.0620 105.2622 46.3746 -0.0039 9.6196 -0.0234
# 3 64.9566 46.3746 107.4234 0.0850 0.3657 -0.2318
# 4 -0.0058 -0.0039 0.0850 26.2085 -0.0062 -0.8874
# 5 19.2109 9.6196 0.3657 -0.0062 42.4564 0.0006
# 6 -0.0010 -0.0234 -0.2318 -0.8874 0.0006 45.6266
#
#
#
# Elastic Compliance Matrix: (Units=1/GPa)
#
#
# Indices 1 2 3 4 5 6 
#
# 1 0.015425 -0.008495 -0.005642 0.000018 -0.005006 -0.000032
# 2 -0.008495 0.016708 -0.002076 0.000007 0.000076 -0.000002
# 3 -0.005642 -0.002076 0.013607 -0.000043 0.002906 0.000067
# 4 0.000018 0.000007 -0.000043 0.038181 -0.000004 0.000742
# 5 -0.005006 0.000076 0.002906 -0.000004 0.025776 0.000014
# 6 -0.000032 -0.000002 0.000067 0.000742 0.000014 0.021932
#
#
# Mechanical properties :
#
#
# Convention : Reuss Voigt Hill
#
# Bulk Modulus (GPa) = 75.12072 81.03273 78.07672
# Shear Modulus (GPa) = 29.67462 33.59930 31.63696
#
# Velocity S-wave (km/s) = 3.93561 4.18779 4.06366
# Velocity P-wave (km/s) = 7.73707 8.10428 7.92280
#
# Compressibility (1/GPa) = 0.01331191
#
# Stress axis : x y z
#
# Youngs Moduli (GPa) = 64.83153 59.85179 73.48971
#
# Poissons Ratio (x) = 0.50847 0.41466
# Poissons Ratio (y) = 0.55078 0.15257
# Poissons Ratio (z) = 0.36581 0.12425
#
# Static dielectric constant tensor:
#      x y z
#    x 3.808160 -0.000400 -0.202100 
#    y -0.000400 3.719160 0.000050 
#    z -0.202100 0.000050 3.814050 
# 
# 
# High freq. dielectric constant tensor:
#      x y z
#    x 1.737970 0.000000 0.009040 
#    y 0.000000 1.758870 -0.000020 
#    z 0.009040 -0.000020 1.753770 
# 
# From -- ./inp_files/23393.got.cif
#   From: 2010.06.25/outbox.cif.g09.slc.cpg/sg15_12_cif.got.tgz:23393.got - 2010.06.28 07:06:18.
