data_PCOD8146579
_publ_section_title
;
Structure prediction by ZEFSAII (Michael W. Deem and Ramdas Pophale) SiO2 
 PCOD8146579
Probable space group: C 2/C
;
_chemical_formula_sum "Si O2"
_cell_formula_units_Z 64
_cell_length_a 11.057077
_cell_length_b 14.798262
_cell_length_c 18.902998
_cell_angle_alpha 90.000000
_cell_angle_beta 94.169285
_cell_angle_gamma 90.000000
_cell_volume 3084.827559
_symmetry_space_group_name_H-M "C 2/C"
_symmetry_group_IT_number 15
_symmetry_cell_setting 'monoclinic'
loop_
_space_group_symop_operation_xyz
x,y,z
-x,y,1/2-z
-x,-y,-z
x,-y,1/2+z
1/2+x,1/2+y,z
1/2-x,1/2+y,1/2-z
1/2-x,1/2-y,-z
1/2+x,1/2-y,1/2+z
loop_
_atom_site_type_symbol
_atom_site_label
_atom_site_fract_x
_atom_site_fract_y
_atom_site_fract_z
Si Si1 0.142800 0.748713 0.251916
Si Si2 0.670090 0.772971 0.911757
Si Si3 0.038073 0.453377 0.928752
Si Si4 0.826036 0.837570 0.520404
Si Si5 0.294019 0.515926 0.911050
Si Si6 0.641371 0.544406 0.741298
Si Si7 0.596094 0.343018 0.519229
Si Si8 0.704962 0.086934 0.153332
O O1 0.186820 0.715226 0.329502
O O2 0.186541 0.851507 0.240760
O O3 0.197415 0.681726 0.195285
O O4 0.000000 0.742830 0.250000
O O5 0.586938 0.851882 0.942512
O O6 0.809131 0.772973 0.942984
O O7 0.604524 0.679517 0.934489
O O8 0.148786 0.510167 0.901266
O O9 0.928405 0.453328 0.867551
O O10 0.000000 0.500000 0.000000
O O11 0.750000 0.750000 0.500000
O O12 0.831038 0.889393 0.445987
O O13 0.765848 0.895085 0.580154
O O14 0.965456 0.818720 0.546512
O O15 0.341470 0.501159 0.834584
O O16 0.360727 0.444166 0.964725
O O17 0.500000 0.537089 0.750000
O O18 0.718224 0.487862 0.801550
#
# Coordination Sequence:
#
# PCOD8146579 Si02
#       8
#     8   8   8   8   8   8   8   8
#     4  11  24  43  71  94 135 180 233 272 337 423
#     4  10  22  41  68  98 128 177 227 283 333 411
#     4  11  22  41  67 103 135 169 227 288 343 413
#     4  12  25  40  66  98 139 179 222 280 349 407
#     4  11  24  43  65  96 136 176 226 289 338 402
#     4  11  27  44  68 100 137 179 237 284 342 414
#     4  10  23  39  68  94 131 169 228 276 339 399
#     4  12  24  43  71  98 137 185 223 282 354 408
#
# _framework density 20.746701999999999
#
# number of rings (size 3 to 8) (size 9 to 14) (size 15 to 20)
#    0.000    1.000    2.500    4.125    5.250    1.000 
#    0.000    0.000    5.500    0.000    0.000    0.000 
#    0.000    0.000    0.000    0.000    0.000    0.000 
#
# Total GULP energy -396717.218847 kJ/mol
# GULP energy per Si atom -12397.413089 kJ/mol
# Density = 2.069948 g / cm^3
# Si number density = 20.746702 Si / 1000 Ang^3
#
#
#
# Elastic Constant Matrix: (Units=GPa)
#
#
# Indices 1 2 3 4 5 6 
#
# 1 148.3513 48.2722 41.2751 0.0000 7.4949 0.0000
# 2 48.2722 110.8370 38.2331 0.0000 10.2483 0.0000
# 3 41.2751 38.2331 115.0382 0.0000 -0.7842 0.0000
# 4 0.0000 0.0000 0.0000 40.0701 0.0000 -2.6554
# 5 7.4949 10.2483 -0.7842 0.0000 32.2463 0.0000
# 6 0.0000 0.0000 0.0000 -2.6554 0.0000 40.3216
#
#
#
# Elastic Compliance Matrix: (Units=1/GPa)
#
#
# Indices 1 2 3 4 5 6 
#
# 1 0.008275 -0.002798 -0.002047 0.000000 -0.001084 0.000000
# 2 -0.002798 0.011505 -0.002841 0.000000 -0.003075 0.000000
# 3 -0.002047 -0.002841 0.010382 0.000000 0.001631 0.000000
# 4 0.000000 0.000000 0.000000 0.025066 0.000000 0.001651
# 5 -0.001084 -0.003075 0.001631 0.000000 0.032280 0.000000
# 6 0.000000 0.000000 0.000000 0.001651 0.000000 0.024909
#
#
# Mechanical properties :
#
#
# Convention : Reuss Voigt Hill
#
# Bulk Modulus (GPa) = 67.60387 69.97637 68.79012
# Shear Modulus (GPa) = 37.67343 38.95734 38.31538
#
# Velocity S-wave (km/s) = 4.26593 4.33801 4.30212
# Velocity P-wave (km/s) = 7.54456 7.67420 7.60965
#
# Compressibility (1/GPa) = 0.01479205
#
# Stress axis : x y z
#
# Youngs Moduli (GPa) = 120.84052 86.91794 96.31719
#
# Poissons Ratio (x) = 0.24319 0.19713
# Poissons Ratio (y) = 0.33810 0.27362
# Poissons Ratio (z) = 0.24732 0.24692
#
# Static dielectric constant tensor:
#      x y z
#    x 3.807200 0.000000 0.240370 
#    y 0.000000 3.835540 0.000000 
#    z 0.240370 0.000000 3.124300 
# 
# 
# High freq. dielectric constant tensor:
#      x y z
#    x 1.823620 0.000000 0.002720 
#    y 0.000000 1.813840 0.000000 
#    z 0.002720 0.000000 1.816600 
# 
# From -- ./inp_files/198354.got.cif
#   From: 2010.06.25/outbox.cif.g09.slc.cpg/sg15_100_cif.got.tgz:198354.got - 2010.06.28 07:06:18.
