data_PCOD8146441
_publ_section_title
;
Structure prediction by ZEFSAII (Michael W. Deem and Ramdas Pophale) SiO2 
 PCOD8146441
Probable space group: C 2/C
;
_chemical_formula_sum "Si O2"
_cell_formula_units_Z 48
_cell_length_a 26.612608
_cell_length_b 12.440620
_cell_length_c 13.842720
_cell_angle_alpha 90.000000
_cell_angle_beta 30.766320
_cell_angle_gamma 90.000000
_cell_volume 2344.383605
_symmetry_space_group_name_H-M "C 2/C"
_symmetry_group_IT_number 15
_symmetry_cell_setting 'monoclinic'
loop_
_space_group_symop_operation_xyz
x,y,z
-x,y,1/2-z
-x,-y,-z
x,-y,1/2+z
1/2+x,1/2+y,z
1/2-x,1/2+y,1/2-z
1/2-x,1/2-y,-z
1/2+x,1/2-y,1/2+z
loop_
_atom_site_type_symbol
_atom_site_label
_atom_site_fract_x
_atom_site_fract_y
_atom_site_fract_z
Si Si1 0.338914 0.364401 0.757303
Si Si2 0.591030 0.124376 0.165035
Si Si3 0.297457 0.594488 0.740881
Si Si4 0.066898 0.429135 0.323667
Si Si5 0.765790 0.851923 0.081067
Si Si6 0.537372 0.737376 0.935707
O O1 0.304552 0.472388 0.763009
O O2 0.256210 0.275065 0.868423
O O3 0.447954 0.333954 0.540093
O O4 0.343218 0.374136 0.867139
O O5 0.500000 0.160212 0.250000
O O6 0.588603 0.194451 0.266304
O O7 0.585656 0.995465 0.194538
O O8 0.692460 0.146541 0.941784
O O9 0.310729 0.598423 0.603859
O O10 0.382241 0.662427 0.650217
O O11 0.166506 0.413006 0.217811
O O12 0.000000 0.500000 0.500000
O O13 0.010545 0.315494 0.402698
#
# Coordination Sequence:
#
# PCOD8146441 Si02
#       6
#     8   8   8   8   8   8
#     4  10  22  44  63  90 136 168 209 270 319 386
#     4  11  22  40  63  96 125 165 213 272 329 375
#     4  12  23  40  69  95 122 173 219 259 327 390
#     4   9  18  38  60  86 126 159 206 266 311 373
#     4  10  22  41  65  93 129 171 212 267 323 377
#     4  10  23  41  60  92 134 163 213 271 314 386
#
# _framework density 20.474466
#
# number of rings (size 3 to 8) (size 9 to 14) (size 15 to 20)
#    0.000    1.667    1.667    4.000    0.000    4.667 
#    6.000    0.000    0.000    0.000    0.000    0.000 
#    0.000    0.000    0.000    0.000    0.000    0.000 
#
# Total GULP energy -297555.590327 kJ/mol
# GULP energy per Si atom -12398.149597 kJ/mol
# Density = 2.042786 g / cm^3
# Si number density = 20.474466 Si / 1000 Ang^3
#
#
#
# Elastic Constant Matrix: (Units=GPa)
#
#
# Indices 1 2 3 4 5 6 
#
# 1 93.7100 49.0455 15.6984 0.0000 11.8256 0.0000
# 2 49.0455 96.2570 27.7407 0.0000 0.7971 0.0000
# 3 15.6984 27.7407 57.5329 0.0000 1.6227 0.0000
# 4 0.0000 0.0000 0.0000 19.4510 0.0000 0.0893
# 5 11.8256 0.7971 1.6227 0.0000 34.2548 0.0000
# 6 0.0000 0.0000 0.0000 0.0893 0.0000 19.6376
#
#
#
# Elastic Compliance Matrix: (Units=1/GPa)
#
#
# Indices 1 2 3 4 5 6 
#
# 1 0.015411 -0.007711 -0.000342 0.000000 -0.005125 0.000000
# 2 -0.007711 0.015924 -0.005646 0.000000 0.002559 0.000000
# 3 -0.000342 -0.005646 0.020217 0.000000 -0.000708 0.000000
# 4 0.000000 0.000000 0.000000 0.051412 0.000000 -0.000234
# 5 -0.005125 0.002559 -0.000708 0.000000 0.030936 0.000000
# 6 0.000000 0.000000 0.000000 -0.000234 0.000000 0.050924
#
#
# Mechanical properties :
#
#
# Convention : Reuss Voigt Hill
#
# Bulk Modulus (GPa) = 41.40333 48.05212 44.72773
# Shear Modulus (GPa) = 22.69891 25.00304 23.85098
#
# Velocity S-wave (km/s) = 3.33324 3.49833 3.41679
# Velocity P-wave (km/s) = 5.92282 6.31174 6.12037
#
# Compressibility (1/GPa) = 0.02415265
#
# Stress axis : x y z
#
# Youngs Moduli (GPa) = 64.88801 62.79850 49.46288
#
# Poissons Ratio (x) = 0.48426 0.01694
# Poissons Ratio (y) = 0.50037 0.27927
# Poissons Ratio (z) = 0.02222 0.35457
#
# Static dielectric constant tensor:
#      x y z
#    x 3.450240 0.000000 0.096540 
#    y 0.000000 4.045930 0.000000 
#    z 0.096540 0.000000 3.933850 
# 
# 
# High freq. dielectric constant tensor:
#      x y z
#    x 1.776960 0.000000 -0.001790 
#    y 0.000000 1.804580 0.000000 
#    z -0.001790 0.000000 1.813390 
# 
# From -- ./inp_files/151800.got.cif
#   From: 2010.06.25/outbox.cif.g09.slc.cpg/sg15_76_cif.got.tgz:151800.got - 2010.06.28 07:06:18.
