data_PCOD8146453
_publ_section_title
;
Structure prediction by ZEFSAII (Michael W. Deem and Ramdas Pophale) SiO2 
 PCOD8146453
Probable space group: C 2/C
;
_chemical_formula_sum "Si O2"
_cell_formula_units_Z 32
_cell_length_a 8.941030
_cell_length_b 35.213977
_cell_length_c 5.105939
_cell_angle_alpha 90.000000
_cell_angle_beta 116.727872
_cell_angle_gamma 90.000000
_cell_volume 1435.833129
_symmetry_space_group_name_H-M "C 2/C"
_symmetry_group_IT_number 15
_symmetry_cell_setting 'monoclinic'
loop_
_space_group_symop_operation_xyz
x,y,z
-x,y,1/2-z
-x,-y,-z
x,-y,1/2+z
1/2+x,1/2+y,z
1/2-x,1/2+y,1/2-z
1/2-x,1/2-y,-z
1/2+x,1/2-y,1/2+z
loop_
_atom_site_type_symbol
_atom_site_label
_atom_site_fract_x
_atom_site_fract_y
_atom_site_fract_z
Si Si1 0.500000 0.735880 0.250000
Si Si2 0.500000 0.213857 0.250000
Si Si3 0.302716 0.979018 0.620053
Si Si4 0.665591 0.677683 0.061590
Si Si5 0.389349 0.406229 0.907993
O O1 0.550050 0.760578 0.541057
O O2 0.348302 0.707513 0.209515
O O3 0.661819 0.188175 0.453090
O O4 0.500000 0.982152 0.750000
O O5 0.258791 0.936051 0.661446
O O6 0.227915 0.992505 0.282772
O O7 0.500000 0.681078 0.750000
O O8 0.687063 0.635601 0.199277
O O9 0.500000 0.419072 0.750000
O O10 0.500000 0.405114 0.250000
#
# Coordination Sequence:
#
# PCOD8146453 Si02
#       5
#     4   4   8   8   8
#     4  12  24  46  66  96 132 170 220 280 322 388
#     4  12  28  40  72  96 122 182 222 262 342 384
#     4  10  22  41  65  95 128 165 208 259 309 374
#     4  11  26  45  66  97 135 170 219 276 323 388
#     4  11  24  41  65  92 129 169 206 261 321 374
#
# _framework density 22.286709999999999
#
# number of rings (size 3 to 8) (size 9 to 14) (size 15 to 20)
#    0.000    1.000    2.500    3.000    5.250    3.000 
#    0.000    0.000    0.000    0.000    0.000    0.000 
#    0.000    0.000    0.000    0.000    0.000    0.000 
#
# Total GULP energy -198342.408662 kJ/mol
# GULP energy per Si atom -12396.400541 kJ/mol
# Density = 2.223598 g / cm^3
# Si number density = 22.286710 Si / 1000 Ang^3
#
#
#
# Elastic Constant Matrix: (Units=GPa)
#
#
# Indices 1 2 3 4 5 6 
#
# 1 115.1669 69.8772 47.8613 0.0000 -12.1353 0.0000
# 2 69.8772 141.8435 35.3586 0.0000 -8.8585 0.0000
# 3 47.8613 35.3586 101.2505 0.0000 -25.2502 0.0000
# 4 0.0000 0.0000 0.0000 7.7550 0.0000 -20.7601
# 5 -12.1353 -8.8585 -25.2502 0.0000 35.7659 0.0000
# 6 0.0000 0.0000 0.0000 -20.7601 0.0000 -18.1154
#
#
#
# Elastic Compliance Matrix: (Units=1/GPa)
#
#
# Indices 1 2 3 4 5 6 
#
# 1 0.014141 -0.005805 -0.004635 0.000000 0.000088 0.000000
# 2 -0.005805 0.010106 -0.000791 0.000000 -0.000025 0.000000
# 3 -0.004635 -0.000791 0.014446 0.000000 0.008430 0.000000
# 4 0.000000 0.000000 0.000000 0.031700 0.000000 -0.036328
# 5 0.000088 -0.000025 0.008430 0.000000 0.033935 0.000000
# 6 0.000000 0.000000 0.000000 -0.036328 0.000000 -0.013570
#
#
# Mechanical properties :
#
#
# Convention : Reuss Voigt Hill
#
# Bulk Modulus (GPa) = 61.61740 73.82836 67.72288
# Shear Modulus (GPa) = 42.14774 18.75870 30.45322
#
# Velocity S-wave (km/s) = 4.35346 2.90435 3.70053
# Velocity P-wave (km/s) = 7.27859 6.66675 6.97938
#
# Compressibility (1/GPa) = 0.01622918
#
# Stress axis : x y z
#
# Youngs Moduli (GPa) = 70.71601 98.95475 69.22228
#
# Poissons Ratio (x) = 0.57448 0.32086
# Poissons Ratio (y) = 0.41054 0.05477
# Poissons Ratio (z) = 0.32779 0.07829
#
# Static dielectric constant tensor:
#      x y z
#    x 4.032790 0.000000 -0.365410 
#    y 0.000000 4.518320 0.000000 
#    z -0.365410 0.000000 3.962420 
# 
# 
# High freq. dielectric constant tensor:
#      x y z
#    x 1.882010 0.000000 -0.020260 
#    y 0.000000 1.887870 0.000000 
#    z -0.020260 0.000000 1.866160 
# 
# From -- ./inp_files/2616.got.cif
#   From: 2010.06.25/outbox.cif.g09.slc.cpg/sg15_2_cif.got.tgz:2616.got - 2010.06.28 07:06:18.
