data_PCOD8146953
_publ_section_title
;
Structure prediction by ZEFSAII (Michael W. Deem and Ramdas Pophale) SiO2 
 PCOD8146953
Probable space group: C 2/C
;
_chemical_formula_sum "Si O2"
_cell_formula_units_Z 60
_cell_length_a 9.784205
_cell_length_b 18.064744
_cell_length_c 24.489739
_cell_angle_alpha 90.000000
_cell_angle_beta 143.438397
_cell_angle_gamma 90.000000
_cell_volume 2578.454291
_symmetry_space_group_name_H-M "C 2/C"
_symmetry_group_IT_number 15
_symmetry_cell_setting 'monoclinic'
loop_
_space_group_symop_operation_xyz
x,y,z
-x,y,1/2-z
-x,-y,-z
x,-y,1/2+z
1/2+x,1/2+y,z
1/2-x,1/2+y,1/2-z
1/2-x,1/2-y,-z
1/2+x,1/2-y,1/2+z
loop_
_atom_site_type_symbol
_atom_site_label
_atom_site_fract_x
_atom_site_fract_y
_atom_site_fract_z
Si Si1 0.236226 0.823858 0.434404
Si Si2 0.759813 0.659018 0.761724
Si Si3 0.148328 0.657312 0.411156
Si Si4 0.892066 0.568706 0.907474
Si Si5 0.388980 0.314116 0.771478
Si Si6 0.366192 0.455728 0.602015
Si Si7 0.173526 0.027231 0.099914
Si Si8 0.500000 0.921020 0.250000
O O1 0.271123 0.736768 0.447271
O O2 0.256620 0.867566 0.498860
O O3 0.429492 0.861242 0.459527
O O4 0.012185 0.838031 0.325933
O O5 0.834646 0.597832 0.829270
O O6 0.872342 0.741205 0.805414
O O7 0.817164 0.631652 0.719712
O O8 0.240231 0.608768 0.390281
O O9 0.871601 0.656992 0.321841
O O10 0.695341 0.511134 0.867019
O O11 0.149353 0.536966 0.991117
O O12 0.500000 0.289571 0.750000
O O13 0.558822 0.375554 0.851064
O O14 0.579424 0.477808 0.631804
O O15 0.387148 0.971825 0.166960
O O16 0.000000 0.000000 0.000000
#
# Coordination Sequence:
#
# PCOD8146953 Si02
#       8
#     8   8   8   8   8   8   8   4
#     4  10  22  42  67  94 134 180 231 280 345 419
#     4  11  24  42  68  99 136 180 229 288 352 422
#     4  10  23  43  67  98 135 184 226 286 350 416
#     4  11  24  45  68  98 136 181 233 283 354 418
#     4  11  24  44  69 102 141 178 233 293 353 422
#     4  11  26  44  68 102 138 180 231 293 351 425
#     4  12  25  43  67  98 137 179 232 286 351 421
#     4  12  24  42  66  96 134 176 224 284 350 420
#
# _framework density 23.269755
#
# number of rings (size 3 to 8) (size 9 to 14) (size 15 to 20)
#    0.000    1.067    0.667    5.200    1.867    5.867 
#    4.800    0.000    0.000    0.000    0.000    0.000 
#    0.000    0.000    0.000    0.000    0.000    0.000 
#
# Total GULP energy -371681.761025 kJ/mol
# GULP energy per Si atom -12389.392034 kJ/mol
# Density = 2.321679 g / cm^3
# Si number density = 23.269755 Si / 1000 Ang^3
#
#
#
# Elastic Constant Matrix: (Units=GPa)
#
#
# Indices 1 2 3 4 5 6 
#
# 1 90.4213 38.4567 16.5298 0.0000 1.8405 0.0004
# 2 38.4567 113.5481 39.1623 -0.0002 2.0507 -0.0002
# 3 16.5298 39.1623 95.1780 -0.0028 -5.4743 -0.0006
# 4 0.0000 -0.0002 -0.0028 32.2681 -0.0010 -8.2893
# 5 1.8405 2.0507 -5.4743 -0.0010 31.5374 0.0000
# 6 0.0004 -0.0002 -0.0006 -8.2893 0.0000 47.3307
#
#
#
# Elastic Compliance Matrix: (Units=1/GPa)
#
#
# Indices 1 2 3 4 5 6 
#
# 1 0.012953 -0.004183 -0.000562 0.000000 -0.000581 0.000000
# 2 -0.004183 0.011677 -0.004149 0.000000 -0.001235 0.000000
# 3 -0.000562 -0.004149 0.012453 0.000001 0.002464 0.000000
# 4 0.000000 0.000000 0.000001 0.032450 0.000001 0.005683
# 5 -0.000581 -0.001235 0.002464 0.000001 0.032250 0.000000
# 6 0.000000 0.000000 0.000000 0.005683 0.000000 0.022123
#
#
# Mechanical properties :
#
#
# Convention : Reuss Voigt Hill
#
# Bulk Modulus (GPa) = 51.82639 54.16056 52.99348
# Shear Modulus (GPa) = 33.75502 35.89380 34.82441
#
# Velocity S-wave (km/s) = 3.81280 3.93174 3.87273
# Velocity P-wave (km/s) = 6.45783 6.62850 6.54372
#
# Compressibility (1/GPa) = 0.01929519
#
# Stress axis : x y z
#
# Youngs Moduli (GPa) = 77.20348 85.64017 80.30042
#
# Poissons Ratio (x) = 0.35819 0.04513
# Poissons Ratio (y) = 0.32291 0.33319
# Poissons Ratio (z) = 0.04339 0.35534
#
# Static dielectric constant tensor:
#      x y z
#    x 4.369940 0.000000 0.110540 
#    y 0.000000 4.458230 0.000000 
#    z 0.110540 0.000000 4.023280 
# 
# 
# High freq. dielectric constant tensor:
#      x y z
#    x 1.923210 0.000000 0.003600 
#    y 0.000000 1.931800 0.000000 
#    z 0.003600 0.000000 1.919000 
# 
# From -- ./inp_files/266275.got.cif
#   From: 2010.06.25/outbox.cif.g09.slc.cpg/sg15_134_cif.got.tgz:266275.got - 2010.06.28 07:06:18.
