data_PCOD8146349
_publ_section_title
;
Structure prediction by ZEFSAII (Michael W. Deem and Ramdas Pophale) SiO2 
 PCOD8146349
Probable space group: C 2/C
;
_chemical_formula_sum "Si O2"
_cell_formula_units_Z 56
_cell_length_a 12.127345
_cell_length_b 11.281858
_cell_length_c 17.125764
_cell_angle_alpha 90.000000
_cell_angle_beta 107.402996
_cell_angle_gamma 90.000000
_cell_volume 2235.872150
_symmetry_space_group_name_H-M "C 2/C"
_symmetry_group_IT_number 15
_symmetry_cell_setting 'monoclinic'
loop_
_space_group_symop_operation_xyz
x,y,z
-x,y,1/2-z
-x,-y,-z
x,-y,1/2+z
1/2+x,1/2+y,z
1/2-x,1/2+y,1/2-z
1/2-x,1/2-y,-z
1/2+x,1/2-y,1/2+z
loop_
_atom_site_type_symbol
_atom_site_label
_atom_site_fract_x
_atom_site_fract_y
_atom_site_fract_z
Si Si1 0.661193 0.930478 0.671279
Si Si2 0.045119 0.588785 0.899872
Si Si3 0.500000 0.209670 0.250000
Si Si4 0.058305 0.113375 0.885628
Si Si5 0.223544 0.008990 0.041865
Si Si6 0.000000 0.269727 0.250000
Si Si7 0.376872 0.570458 0.312557
Si Si8 0.377543 0.737675 0.956174
O O1 0.590844 0.871248 0.725992
O O2 0.779593 0.982597 0.732955
O O3 0.690708 0.831659 0.612329
O O4 0.583781 0.035200 0.618369
O O5 0.137083 0.480279 0.930644
O O6 0.073082 0.643350 0.820946
O O7 0.053761 0.694911 0.962549
O O8 0.419187 0.288435 0.175537
O O9 0.973356 0.164241 0.931662
O O10 0.994878 0.003057 0.830905
O O11 0.175214 0.071370 0.953361
O O12 0.208389 0.864661 0.030417
O O13 0.168731 0.068581 0.107536
O O14 0.089325 0.199867 0.212587
#
# Coordination Sequence:
#
# PCOD8146349 Si02
#       8
#     8   8   4   8   8   4   8   8
#     4  11  24  43  63  93 132 168 208 263 318 375
#     4  12  24  41  66  98 130 167 212 262 315 376
#     4  10  22  42  64  90 128 168 210 254 322 382
#     4  10  22  41  64  90 124 169 214 261 311 377
#     4  11  22  42  66  93 130 165 208 267 317 375
#     4  12  24  40  66  96 124 170 216 258 318 380
#     4  11  23  42  65  93 126 165 213 263 317 375
#     4  10  22  41  63  90 128 171 211 258 318 376
#
# _framework density 25.046154999999999
#
# number of rings (size 3 to 8) (size 9 to 14) (size 15 to 20)
#    0.000    1.143    0.000    7.714    0.000    4.571 
#    0.000   10.714    0.000    0.000    0.000    0.000 
#    0.000    0.000    0.000    0.000    0.000    0.000 
#
# Total GULP energy -347208.623118 kJ/mol
# GULP energy per Si atom -12400.307968 kJ/mol
# Density = 2.498915 g / cm^3
# Si number density = 25.046155 Si / 1000 Ang^3
#
#
#
# Elastic Constant Matrix: (Units=GPa)
#
#
# Indices 1 2 3 4 5 6 
#
# 1 46.0989 8.0337 22.0748 0.0000 26.9252 0.0000
# 2 8.0337 75.7999 38.2632 0.0000 5.7543 0.0000
# 3 22.0748 38.2632 148.8234 0.0000 27.9557 0.0000
# 4 0.0000 0.0000 0.0000 43.5977 0.0000 18.3572
# 5 26.9252 5.7543 27.9557 0.0000 38.8643 0.0000
# 6 0.0000 0.0000 0.0000 18.3572 0.0000 -58.8687
#
#
#
# Elastic Compliance Matrix: (Units=1/GPa)
#
#
# Indices 1 2 3 4 5 6 
#
# 1 0.036738 -0.001856 -0.000281 0.000000 -0.024975 0.000000
# 2 -0.001856 0.015268 -0.004009 0.000000 0.001909 0.000000
# 3 -0.000281 -0.004009 0.008838 0.000000 -0.005569 0.000000
# 4 0.000000 0.000000 0.000000 0.020275 0.000000 0.006322
# 5 -0.024975 0.001909 -0.005569 0.000000 0.046757 0.000000
# 6 0.000000 0.000000 0.000000 0.006322 0.000000 -0.015015
#
#
# Mechanical properties :
#
#
# Convention : Reuss Voigt Hill
#
# Bulk Modulus (GPa) = 20.59611 45.27397 32.93504
# Shear Modulus (GPa) = 35.37691 18.20869 26.79280
#
# Velocity S-wave (km/s) = 3.76236 2.69923 3.27423
# Velocity P-wave (km/s) = 5.20720 5.27541 5.24141
#
# Compressibility (1/GPa) = 0.04855286
#
# Stress axis : x y z
#
# Youngs Moduli (GPa) = 27.21992 65.49633 113.15018
#
# Poissons Ratio (x) = 0.12157 0.03175
# Poissons Ratio (y) = 0.05052 0.45359
# Poissons Ratio (z) = 0.00764 0.26256
#
# Static dielectric constant tensor:
#      x y z
#    x 4.367310 0.000000 -0.023810 
#    y 0.000000 4.571430 0.000000 
#    z -0.023810 0.000000 4.924990 
# 
# 
# High freq. dielectric constant tensor:
#      x y z
#    x 1.983980 0.000000 -0.003200 
#    y 0.000000 1.992880 0.000000 
#    z -0.003200 0.000000 2.022070 
# 
# From -- ./inp_files/204562.got.cif
#   From: 2010.06.25/outbox.cif.g09.slc.cpg/sg15_103_cif.got.tgz:204562.got - 2010.06.28 07:06:18.
