data_PCOD8146733
_publ_section_title
;
Structure prediction by ZEFSAII (Michael W. Deem and Ramdas Pophale) SiO2 
 PCOD8146733
Probable space group: C 2/C
;
_chemical_formula_sum "Si O2"
_cell_formula_units_Z 64
_cell_length_a 27.601851
_cell_length_b 11.674185
_cell_length_c 19.861529
_cell_angle_alpha 90.000000
_cell_angle_beta 150.498377
_cell_angle_gamma 90.000000
_cell_volume 3151.650306
_symmetry_space_group_name_H-M "C 2/C"
_symmetry_group_IT_number 15
_symmetry_cell_setting 'monoclinic'
loop_
_space_group_symop_operation_xyz
x,y,z
-x,y,1/2-z
-x,-y,-z
x,-y,1/2+z
1/2+x,1/2+y,z
1/2-x,1/2+y,1/2-z
1/2-x,1/2-y,-z
1/2+x,1/2-y,1/2+z
loop_
_atom_site_type_symbol
_atom_site_label
_atom_site_fract_x
_atom_site_fract_y
_atom_site_fract_z
Si Si1 0.047790 0.968484 0.234976
Si Si2 0.737706 0.627029 0.449137
Si Si3 0.831562 0.669837 0.951064
Si Si4 0.584396 0.485550 0.047728
Si Si5 0.041203 0.267653 0.665789
Si Si6 0.145172 0.745118 0.161379
Si Si7 0.269357 0.077737 0.334595
Si Si8 0.396204 0.056092 0.156546
O O1 0.133664 0.064585 0.339710
O O2 0.000000 0.952968 0.250000
O O3 0.089824 0.847101 0.257625
O O4 0.957890 0.001397 0.077756
O O5 0.750000 0.750000 0.500000
O O6 0.748211 0.637546 0.381086
O O7 0.827465 0.552443 0.586907
O O8 0.739253 0.750786 0.824881
O O9 0.818145 0.545845 0.901134
O O10 0.843750 0.649764 0.045368
O O11 0.924762 0.737397 0.035368
O O12 0.633550 0.362020 0.107511
O O13 0.668761 0.576186 0.169925
O O14 0.500000 0.500000 0.000000
O O15 0.053846 0.274733 0.600709
O O16 0.086856 0.382229 0.752200
O O17 0.151394 0.648901 0.112067
O O18 0.500000 0.015296 0.250000
#
# Coordination Sequence:
#
# PCOD8146733 Si02
#       8
#     8   8   8   8   8   8   8   8
#     4  12  25  40  69 101 126 167 222 271 324 390
#     4  11  25  44  61  90 131 168 216 267 313 387
#     4   9  20  39  59  88 128 164 207 261 319 378
#     4  11  21  44  64  90 130 173 215 264 330 384
#     4  11  21  39  64  98 126 158 213 272 325 377
#     4  11  23  36  65  93 123 174 206 261 323 384
#     4  10  22  42  63  88 128 174 216 260 330 395
#     4   9  20  40  64  87 123 168 199 257 329 372
#
# _framework density 20.306822
#
# number of rings (size 3 to 8) (size 9 to 14) (size 15 to 20)
#    0.000    1.500    2.500    3.375    1.750    5.000 
#    6.750    0.000    0.000    0.000    0.000    0.000 
#    0.000    0.000    0.000    0.000    0.000    0.000 
#
# Total GULP energy -396733.780754 kJ/mol
# GULP energy per Si atom -12397.930649 kJ/mol
# Density = 2.026060 g / cm^3
# Si number density = 20.306822 Si / 1000 Ang^3
#
#
#
# Elastic Constant Matrix: (Units=GPa)
#
#
# Indices 1 2 3 4 5 6 
#
# 1 109.3810 35.9893 6.9464 0.0000 -10.2254 0.0000
# 2 35.9893 85.3366 26.9001 0.0000 2.6256 0.0000
# 3 6.9464 26.9001 87.4001 0.0000 -10.7141 0.0000
# 4 0.0000 0.0000 0.0000 28.4352 0.0000 2.8015
# 5 -10.2254 2.6256 -10.7141 0.0000 25.6579 0.0000
# 6 0.0000 0.0000 0.0000 2.8015 0.0000 32.9781
#
#
#
# Elastic Compliance Matrix: (Units=1/GPa)
#
#
# Indices 1 2 3 4 5 6 
#
# 1 0.011370 -0.005433 0.001467 0.000000 0.005700 0.000000
# 2 -0.005433 0.015821 -0.005166 0.000000 -0.005941 0.000000
# 3 0.001467 -0.005166 0.013756 0.000000 0.006857 0.000000
# 4 0.000000 0.000000 0.000000 0.035464 0.000000 -0.003013
# 5 0.005700 -0.005941 0.006857 0.000000 0.044717 0.000000
# 6 0.000000 0.000000 0.000000 -0.003013 0.000000 0.030579
#
#
# Mechanical properties :
#
#
# Convention : Reuss Voigt Hill
#
# Bulk Modulus (GPa) = 44.08595 46.86545 45.47570
# Shear Modulus (GPa) = 28.16420 31.56639 29.86530
#
# Velocity S-wave (km/s) = 3.72820 3.94696 3.83913
# Velocity P-wave (km/s) = 6.34741 6.62571 6.48805
#
# Compressibility (1/GPa) = 0.02268297
#
# Stress axis : x y z
#
# Youngs Moduli (GPa) = 87.95430 63.20846 72.69777
#
# Poissons Ratio (x) = 0.34340 -0.10666
# Poissons Ratio (y) = 0.47784 0.37554
# Poissons Ratio (z) = -0.12904 0.32652
#
# Static dielectric constant tensor:
#      x y z
#    x 3.626200 0.000000 -0.182410 
#    y 0.000000 3.627570 0.000000 
#    z -0.182410 0.000000 4.318900 
# 
# 
# High freq. dielectric constant tensor:
#      x y z
#    x 1.789320 0.000000 -0.000510 
#    y 0.000000 1.786450 0.000000 
#    z -0.000510 0.000000 1.803380 
# 
# From -- ./inp_files/257519.got.cif
#   From: 2010.06.25/outbox.cif.g09.slc.cpg/sg15_129_cif.got.tgz:257519.got - 2010.06.28 07:06:18.
