data_PCOD8146300
_publ_section_title
;
Structure prediction by ZEFSAII (Michael W. Deem and Ramdas Pophale) SiO2 
 PCOD8146300
Probable space group: C 2/C
;
_chemical_formula_sum "Si O2"
_cell_formula_units_Z 36
_cell_length_a 32.985237
_cell_length_b 8.007232
_cell_length_c 13.725100
_cell_angle_alpha 90.000000
_cell_angle_beta 29.029042
_cell_angle_gamma 90.000000
_cell_volume 1759.080293
_symmetry_space_group_name_H-M "C 2/C"
_symmetry_group_IT_number 15
_symmetry_cell_setting 'monoclinic'
loop_
_space_group_symop_operation_xyz
x,y,z
-x,y,1/2-z
-x,-y,-z
x,-y,1/2+z
1/2+x,1/2+y,z
1/2-x,1/2+y,1/2-z
1/2-x,1/2-y,-z
1/2+x,1/2-y,1/2+z
loop_
_atom_site_type_symbol
_atom_site_label
_atom_site_fract_x
_atom_site_fract_y
_atom_site_fract_z
Si Si1 0.114152 0.426682 0.325828
Si Si2 0.663496 0.306500 0.891679
Si Si3 0.500000 0.525946 0.250000
Si Si4 0.322310 0.989109 0.004083
Si Si5 0.519950 0.819758 0.349511
O O1 0.164467 0.318074 0.297573
O O2 0.046353 0.311685 0.408807
O O3 0.065355 0.575486 0.482853
O O4 0.180234 0.504743 0.109089
O O5 0.740830 0.430064 0.722036
O O6 0.672571 0.201952 0.971976
O O7 0.579452 0.410057 0.072144
O O8 0.507110 0.637127 0.332374
O O9 0.405244 0.087737 0.866962
#
# Coordination Sequence:
#
# PCOD8146300 Si02
#       5
#     8   8   4   8   8
#     4   9  21  42  68  84 124 161 201 253 302 365
#     4  12  23  40  62  90 127 161 203 252 307 348
#     4  12  24  36  64  94 124 162 200 250 296 376
#     4  10  22  41  61  91 118 163 200 256 295 366
#     4   9  20  41  63  90 119 158 202 247 303 357
#
# _framework density 20.465239
#
# number of rings (size 3 to 8) (size 9 to 14) (size 15 to 20)
#    1.333    0.444    0.000    4.667    0.000    0.889 
#    0.000    2.222    0.000    0.000    0.000    0.000 
#    0.000    0.000    0.000    0.000    0.000    0.000 
#
# Total GULP energy -223130.229706 kJ/mol
# GULP energy per Si atom -12396.123873 kJ/mol
# Density = 2.041866 g / cm^3
# Si number density = 20.465239 Si / 1000 Ang^3
#
#
#
# Elastic Constant Matrix: (Units=GPa)
#
#
# Indices 1 2 3 4 5 6 
#
# 1 57.6883 6.5766 13.8853 0.0000 16.4202 0.0000
# 2 6.5766 15.1000 91.4800 0.0000 -3.5293 0.0000
# 3 13.8853 91.4800 141.5946 0.0000 10.2455 0.0000
# 4 0.0000 0.0000 0.0000 20.4057 0.0000 -14.7143
# 5 16.4202 -3.5293 10.2455 0.0000 17.2668 0.0000
# 6 0.0000 0.0000 0.0000 -14.7143 0.0000 38.7112
#
#
#
# Elastic Compliance Matrix: (Units=1/GPa)
#
#
# Indices 1 2 3 4 5 6 
#
# 1 0.023287 0.003279 -0.002976 0.000000 -0.019709 0.000000
# 2 0.003279 -0.019445 0.013327 0.000000 -0.015000 0.000000
# 3 -0.002976 0.013327 -0.001732 0.000000 0.006581 0.000000
# 4 0.000000 0.000000 0.000000 0.067510 0.000000 0.025661
# 5 -0.019709 -0.015000 0.006581 0.000000 0.069687 0.000000
# 6 0.000000 0.000000 0.000000 0.025661 0.000000 0.035586
#
#
# Mechanical properties :
#
#
# Convention : Reuss Voigt Hill
#
# Bulk Modulus (GPa) = 34.04914 48.69629 41.37272
# Shear Modulus (GPa) = 31.76150 22.10614 26.93382
#
# Velocity S-wave (km/s) = 3.94378 3.29017 3.63171
# Velocity P-wave (km/s) = 6.11650 6.18708 6.15189
#
# Compressibility (1/GPa) = 0.02936932
#
# Stress axis : x y z
#
# Youngs Moduli (GPa) = 42.94229 -51.42743 -577.40310
#
# Poissons Ratio (x) = 0.16861 -1.71818
# Poissons Ratio (y) = -0.14079 7.69481
# Poissons Ratio (z) = 0.12778 0.68535
#
# Static dielectric constant tensor:
#      x y z
#    x 3.543750 0.000000 0.067550 
#    y 0.000000 3.518040 0.000000 
#    z 0.067550 0.000000 3.637710 
# 
# 
# High freq. dielectric constant tensor:
#      x y z
#    x 1.793530 0.000000 0.006250 
#    y 0.000000 1.786900 0.000000 
#    z 0.006250 0.000000 1.804560 
# 
# From -- ./inp_files/180672.got.cif
#   From: 2010.06.25/outbox.cif.g09.slc.cpg/sg15_91_cif.got.tgz:180672.got - 2010.06.28 07:06:18.
