data_PCOD8146254
_publ_section_title
;
Structure prediction by ZEFSAII (Michael W. Deem and Ramdas Pophale) SiO2 
 PCOD8146254
Probable space group: C 2/C
;
_chemical_formula_sum "Si O2"
_cell_formula_units_Z 32
_cell_length_a 26.377917
_cell_length_b 6.664017
_cell_length_c 15.121696
_cell_angle_alpha 90.000000
_cell_angle_beta 151.387480
_cell_angle_gamma 90.000000
_cell_volume 1272.937706
_symmetry_space_group_name_H-M "C 2/C"
_symmetry_group_IT_number 15
_symmetry_cell_setting 'monoclinic'
loop_
_space_group_symop_operation_xyz
x,y,z
-x,y,1/2-z
-x,-y,-z
x,-y,1/2+z
1/2+x,1/2+y,z
1/2-x,1/2+y,1/2-z
1/2-x,1/2-y,-z
1/2+x,1/2-y,1/2+z
loop_
_atom_site_type_symbol
_atom_site_label
_atom_site_fract_x
_atom_site_fract_y
_atom_site_fract_z
Si Si1 0.091210 0.305523 0.608625
Si Si2 0.355160 0.239967 0.825927
Si Si3 0.441738 0.477258 0.806060
Si Si4 0.184013 0.057231 0.059884
O O1 0.067513 0.544991 0.568060
O O2 0.219424 0.283809 0.812968
O O3 0.040115 0.183723 0.446392
O O4 0.029285 0.185907 0.595506
O O5 0.352884 0.374076 0.733187
O O6 0.382889 0.367906 0.957420
O O7 0.234777 0.161724 0.655387
O O8 0.397331 0.542982 0.644571
#
# Coordination Sequence:
#
# PCOD8146254 Si02
#       4
#     8   8   8   8
#     4   9  23  38  69  97 134 178 236 291 339 424
#     4  10  22  41  64 103 135 182 233 285 346 420
#     4  11  20  44  69  96 136 183 233 288 351 410
#     4  10  22  40  71  95 143 184 223 290 355 407
#
# _framework density 25.138701999999999
#
# number of rings (size 3 to 8) (size 9 to 14) (size 15 to 20)
#    1.500    0.500    0.000    3.750    0.000    0.000 
#    0.000   11.250   11.000    0.000    0.000    0.000 
#    0.000    0.000    0.000    0.000    0.000    0.000 
#
# Total GULP energy -198226.954472 kJ/mol
# GULP energy per Si atom -12389.184654 kJ/mol
# Density = 2.508149 g / cm^3
# Si number density = 25.138702 Si / 1000 Ang^3
#
#
#
# Elastic Constant Matrix: (Units=GPa)
#
#
# Indices 1 2 3 4 5 6 
#
# 1 136.2025 51.7430 46.7014 0.0000 10.1439 0.0000
# 2 51.7430 168.9172 37.1490 0.0000 8.4141 0.0000
# 3 46.7014 37.1490 130.3227 0.0000 -8.1900 0.0000
# 4 0.0000 0.0000 0.0000 41.5262 0.0000 5.9261
# 5 10.1439 8.4141 -8.1900 0.0000 33.6773 0.0000
# 6 0.0000 0.0000 0.0000 5.9261 0.0000 45.7566
#
#
#
# Elastic Compliance Matrix: (Units=1/GPa)
#
#
# Indices 1 2 3 4 5 6 
#
# 1 0.009367 -0.002068 -0.002957 0.000000 -0.003024 0.000000
# 2 -0.002068 0.006915 -0.001319 0.000000 -0.001426 0.000000
# 3 -0.002957 -0.001319 0.009328 0.000000 0.003489 0.000000
# 4 0.000000 0.000000 0.000000 0.024535 0.000000 -0.003178
# 5 -0.003024 -0.001426 0.003489 0.000000 0.031809 0.000000
# 6 0.000000 0.000000 0.000000 -0.003178 0.000000 0.022266
#
#
# Mechanical properties :
#
#
# Convention : Reuss Voigt Hill
#
# Bulk Modulus (GPa) = 77.39802 78.51437 77.95619
# Shear Modulus (GPa) = 41.24849 44.18196 42.71522
#
# Velocity S-wave (km/s) = 4.05512 4.19684 4.12659
# Velocity P-wave (km/s) = 7.26502 7.40168 7.33367
#
# Compressibility (1/GPa) = 0.01292023
#
# Stress axis : x y z
#
# Youngs Moduli (GPa) = 106.75893 144.61676 107.20041
#
# Poissons Ratio (x) = 0.29911 0.31700
# Poissons Ratio (y) = 0.22081 0.14145
# Poissons Ratio (z) = 0.31570 0.19082
#
# Static dielectric constant tensor:
#      x y z
#    x 4.467110 0.000000 0.404300 
#    y 0.000000 4.662090 0.000000 
#    z 0.404300 0.000000 4.264290 
# 
# 
# High freq. dielectric constant tensor:
#      x y z
#    x 2.028300 0.000000 0.051430 
#    y 0.000000 2.026510 0.000000 
#    z 0.051430 0.000000 1.994680 
# 
# From -- ./inp_files/176778.got.cif
#   From: 2010.06.25/outbox.cif.g09.slc.cpg/sg15_89_cif.got.tgz:176778.got - 2010.06.28 07:06:18.
