data_PCOD8146459
_publ_section_title
;
Structure prediction by ZEFSAII (Michael W. Deem and Ramdas Pophale) SiO2 
 PCOD8146459
Probable space group: C 2/C
;
_chemical_formula_sum "Si O2"
_cell_formula_units_Z 64
_cell_length_a 19.529401
_cell_length_b 8.651696
_cell_length_c 29.684776
_cell_angle_alpha 90.000000
_cell_angle_beta 143.661928
_cell_angle_gamma 90.000000
_cell_volume 2971.993850
_symmetry_space_group_name_H-M "C 2/C"
_symmetry_group_IT_number 15
_symmetry_cell_setting 'monoclinic'
loop_
_space_group_symop_operation_xyz
x,y,z
-x,y,1/2-z
-x,-y,-z
x,-y,1/2+z
1/2+x,1/2+y,z
1/2-x,1/2+y,1/2-z
1/2-x,1/2-y,-z
1/2+x,1/2-y,1/2+z
loop_
_atom_site_type_symbol
_atom_site_label
_atom_site_fract_x
_atom_site_fract_y
_atom_site_fract_z
Si Si1 0.065854 0.233781 0.393791
Si Si2 0.737304 0.753564 0.567060
Si Si3 0.904804 0.763902 0.945063
Si Si4 0.132307 0.109492 0.596690
Si Si5 0.022182 0.080806 0.690537
Si Si6 0.691966 0.417891 0.362584
Si Si7 0.330207 0.238170 0.295180
Si Si8 0.882878 0.604221 0.846945
O O1 0.137959 0.287121 0.388291
O O2 0.142855 0.216646 0.479209
O O3 0.971882 0.365609 0.353607
O O4 0.000347 0.074089 0.349530
O O5 0.713560 0.644545 0.596914
O O6 0.739779 0.931493 0.583998
O O7 0.788559 0.716337 0.910243
O O8 0.938691 0.632532 0.925948
O O9 0.892642 0.928929 0.914521
O O10 0.016061 0.783633 0.036200
O O11 0.196047 0.150135 0.676497
O O12 0.127618 0.049032 0.781148
O O13 0.056097 0.214940 0.673128
O O14 0.904950 0.135837 0.653014
O O15 0.219181 0.268093 0.205389
O O16 0.334439 0.065963 0.315786
#
# Coordination Sequence:
#
# PCOD8146459 Si02
#       8
#     8   8   8   8   8   8   8   8
#     4  10  22  41  66  93 134 166 217 265 319 384
#     4  10  22  41  65  96 128 175 210 265 323 381
#     4  11  23  42  65  93 130 167 210 272 313 384
#     4  11  25  40  64  97 128 167 213 260 329 377
#     4  10  22  43  65  96 130 172 215 270 327 378
#     4  10  22  41  69  94 129 172 218 266 325 388
#     4  12  26  40  67  94 127 166 211 268 325 384
#     4  12  24  42  64  94 125 166 213 263 321 382
#
# _framework density 21.534365000000001
#
# number of rings (size 3 to 8) (size 9 to 14) (size 15 to 20)
#    0.000    1.250    2.500    3.000    5.250    2.000 
#    0.000    0.625    0.000    0.000    0.000    0.000 
#    0.000    0.000    0.000    0.000    0.000    0.000 
#
# Total GULP energy -396785.222218 kJ/mol
# GULP energy per Si atom -12399.538194 kJ/mol
# Density = 2.148535 g / cm^3
# Si number density = 21.534365 Si / 1000 Ang^3
#
#
#
# Elastic Constant Matrix: (Units=GPa)
#
#
# Indices 1 2 3 4 5 6 
#
# 1 119.5158 13.9579 19.3197 0.0001 3.1712 0.0001
# 2 13.9579 51.2817 16.2838 0.0001 -2.7762 0.0009
# 3 19.3197 16.2838 60.6824 0.0000 0.5715 0.0001
# 4 0.0001 0.0001 0.0000 32.6080 0.0000 2.0920
# 5 3.1712 -2.7762 0.5715 0.0000 34.7042 0.0000
# 6 0.0001 0.0009 0.0001 2.0920 0.0000 39.2057
#
#
#
# Elastic Compliance Matrix: (Units=1/GPa)
#
#
# Indices 1 2 3 4 5 6 
#
# 1 0.008980 -0.001737 -0.002384 0.000000 -0.000920 0.000000
# 2 -0.001737 0.021765 -0.005306 0.000000 0.001987 0.000000
# 3 -0.002384 -0.005306 0.018667 0.000000 -0.000514 0.000000
# 4 0.000000 0.000000 0.000000 0.030773 0.000000 -0.001642
# 5 -0.000920 0.001987 -0.000514 0.000000 0.029066 0.000000
# 6 0.000000 0.000000 0.000000 -0.001642 0.000000 0.025594
#
#
# Mechanical properties :
#
#
# Convention : Reuss Voigt Hill
#
# Bulk Modulus (GPa) = 32.72526 36.73361 34.72944
# Shear Modulus (GPa) = 30.50898 33.43148 31.97023
#
# Velocity S-wave (km/s) = 3.76807 3.94442 3.85725
# Velocity P-wave (km/s) = 5.84473 6.15140 6.00002
#
# Compressibility (1/GPa) = 0.03055743
#
# Stress axis : x y z
#
# Youngs Moduli (GPa) = 111.36159 45.94444 53.57025
#
# Poissons Ratio (x) = 0.07980 0.12772
# Poissons Ratio (y) = 0.19342 0.28426
# Poissons Ratio (z) = 0.26551 0.24380
#
# Static dielectric constant tensor:
#      x y z
#    x 4.122910 0.000000 0.087800 
#    y 0.000000 3.604860 0.000000 
#    z 0.087800 0.000000 3.983200 
# 
# 
# High freq. dielectric constant tensor:
#      x y z
#    x 1.860770 0.000000 0.001630 
#    y 0.000000 1.829570 0.000000 
#    z 0.001630 0.000000 1.850510 
# 
# From -- ./inp_files/315711.got.cif
#   From: 2010.06.25/outbox.cif.g09.slc.cpg/sg15_158_cif.got.tgz:315711.got - 2010.06.28 07:06:18.
