data_PCOD8146710
_publ_section_title
;
Structure prediction by ZEFSAII (Michael W. Deem and Ramdas Pophale) SiO2 
 PCOD8146710
Probable space group: C 2/C
;
_chemical_formula_sum "Si O2"
_cell_formula_units_Z 56
_cell_length_a 8.459920
_cell_length_b 31.816804
_cell_length_c 11.272095
_cell_angle_alpha 90.000000
_cell_angle_beta 58.448224
_cell_angle_gamma 90.000000
_cell_volume 2585.547346
_symmetry_space_group_name_H-M "C 2/C"
_symmetry_group_IT_number 15
_symmetry_cell_setting 'monoclinic'
loop_
_space_group_symop_operation_xyz
x,y,z
-x,y,1/2-z
-x,-y,-z
x,-y,1/2+z
1/2+x,1/2+y,z
1/2-x,1/2+y,1/2-z
1/2-x,1/2-y,-z
1/2+x,1/2-y,1/2+z
loop_
_atom_site_type_symbol
_atom_site_label
_atom_site_fract_x
_atom_site_fract_y
_atom_site_fract_z
Si Si1 0.817395 0.507802 0.142235
Si Si2 0.024079 0.179274 0.879331
Si Si3 0.646859 0.407097 0.786743
Si Si4 0.000000 0.548813 0.750000
Si Si5 0.787998 0.320295 0.807249
Si Si6 0.354509 0.592567 0.587132
Si Si7 0.000000 0.046270 0.750000
Si Si8 0.793384 0.250429 0.343788
O O1 0.778431 0.556487 0.183735
O O2 0.851406 0.481550 0.247446
O O3 0.650189 0.486104 0.134322
O O4 0.000000 0.500000 0.000000
O O5 0.132330 0.143019 0.909876
O O6 0.149690 0.220327 0.831708
O O7 0.000000 0.167270 0.750000
O O8 0.831516 0.188402 0.025726
O O9 0.500000 0.389065 0.750000
O O10 0.777751 0.369559 0.778564
O O11 0.518012 0.426029 0.941413
O O12 0.146960 0.579146 0.621563
O O13 0.716267 0.294339 0.720802
O O14 0.000000 0.308326 0.750000
O O15 0.393762 0.576045 0.702394
O O16 0.750000 0.250000 0.500000
O O17 0.000000 0.268578 0.250000
#
# Coordination Sequence:
#
# PCOD8146710 Si02
#       8
#     8   8   8   4   8   8   4   8
#     4  11  24  39  64  97 129 177 226 274 339 396
#     4  11  25  46  73 102 142 186 230 280 349 413
#     4  11  24  44  69  94 134 182 226 284 339 404
#     4  10  24  38  62  96 134 174 230 278 324 414
#     4  11  27  47  71 104 140 183 233 283 343 420
#     4  10  23  44  65  96 137 176 225 278 345 398
#     4  10  22  42  62  92 132 172 216 282 328 396
#     4  12  26  47  73 107 140 180 227 286 347 420
#
# _framework density 21.658856
#
# number of rings (size 3 to 8) (size 9 to 14) (size 15 to 20)
#    0.000    1.143    2.857    1.714    8.000    3.429 
#    2.571    0.000    0.000    0.000    0.000    0.000 
#    0.000    0.000    0.000    0.000    0.000    0.000 
#
# Total GULP energy -346957.890260 kJ/mol
# GULP energy per Si atom -12391.353224 kJ/mol
# Density = 2.160956 g / cm^3
# Si number density = 21.658856 Si / 1000 Ang^3
#
#
#
# Elastic Constant Matrix: (Units=GPa)
#
#
# Indices 1 2 3 4 5 6 
#
# 1 93.0809 30.5869 31.6021 0.0000 -20.5454 0.0000
# 2 30.5869 95.7789 37.2885 0.0000 -16.8630 0.0000
# 3 31.6021 37.2885 133.6259 0.0000 -16.4689 0.0000
# 4 0.0000 0.0000 0.0000 25.2767 0.0000 4.5130
# 5 -20.5454 -16.8630 -16.4689 0.0000 44.9059 0.0000
# 6 0.0000 0.0000 0.0000 4.5130 0.0000 12.8882
#
#
#
# Elastic Compliance Matrix: (Units=1/GPa)
#
#
# Indices 1 2 3 4 5 6 
#
# 1 0.013226 -0.002747 -0.001825 0.000000 0.004350 0.000000
# 2 -0.002747 0.012786 -0.002599 0.000000 0.002591 0.000000
# 3 -0.001825 -0.002599 0.008816 0.000000 0.001422 0.000000
# 4 0.000000 0.000000 0.000000 0.042201 0.000000 -0.014777
# 5 0.004350 0.002591 0.001422 0.000000 0.025754 0.000000
# 6 0.000000 0.000000 0.000000 -0.014777 0.000000 0.082765
#
#
# Mechanical properties :
#
#
# Convention : Reuss Voigt Hill
#
# Bulk Modulus (GPa) = 48.81565 57.93785 53.37675
# Shear Modulus (GPa) = 24.18753 31.48136 27.83445
#
# Velocity S-wave (km/s) = 3.34541 3.81663 3.58876
# Velocity P-wave (km/s) = 6.12451 6.79930 6.47071
#
# Compressibility (1/GPa) = 0.02048523
#
# Stress axis : x y z
#
# Youngs Moduli (GPa) = 75.60889 78.21014 113.43390
#
# Poissons Ratio (x) = 0.21486 0.20703
# Poissons Ratio (y) = 0.20772 0.29480
# Poissons Ratio (z) = 0.13800 0.20326
#
# Static dielectric constant tensor:
#      x y z
#    x 3.836880 0.000000 -0.035470 
#    y 0.000000 3.463720 0.000000 
#    z -0.035470 0.000000 4.093170 
# 
# 
# High freq. dielectric constant tensor:
#      x y z
#    x 1.854340 0.000000 -0.010930 
#    y 0.000000 1.856900 0.000000 
#    z -0.010930 0.000000 1.853330 
# 
# From -- ./inp_files/82535.got.cif
#   From: 2010.06.25/outbox.cif.g09.slc.cpg/sg15_42_cif.got.tgz:82535.got - 2010.06.28 07:06:18.
