data_PCOD8146068
_publ_section_title
;
Structure prediction by ZEFSAII (Michael W. Deem and Ramdas Pophale) SiO2 
 PCOD8146068
Probable space group: C 2/C
;
_chemical_formula_sum "Si O2"
_cell_formula_units_Z 56
_cell_length_a 19.213461
_cell_length_b 11.090737
_cell_length_c 12.882312
_cell_angle_alpha 90.000000
_cell_angle_beta 104.952028
_cell_angle_gamma 90.000000
_cell_volume 2652.167020
_symmetry_space_group_name_H-M "C 2/C"
_symmetry_group_IT_number 15
_symmetry_cell_setting 'monoclinic'
loop_
_space_group_symop_operation_xyz
x,y,z
-x,y,1/2-z
-x,-y,-z
x,-y,1/2+z
1/2+x,1/2+y,z
1/2-x,1/2+y,1/2-z
1/2-x,1/2-y,-z
1/2+x,1/2-y,1/2+z
loop_
_atom_site_type_symbol
_atom_site_label
_atom_site_fract_x
_atom_site_fract_y
_atom_site_fract_z
Si Si1 0.417989 0.057539 0.239631
Si Si2 0.107885 0.088276 0.086949
Si Si3 0.847192 0.649998 0.821605
Si Si4 0.273656 0.602555 0.888962
Si Si5 0.499070 0.597349 0.627201
Si Si6 0.342061 0.008574 0.512593
Si Si7 0.103975 0.284171 0.584999
O O1 0.500000 0.089677 0.250000
O O2 0.380013 0.157962 0.296466
O O3 0.410423 0.925230 0.288411
O O4 0.375474 0.069877 0.116732
O O5 0.121038 0.219686 0.139602
O O6 0.183334 0.018201 0.127040
O O7 0.045751 0.024259 0.132006
O O8 0.080645 0.086134 0.954985
O O9 0.777930 0.651285 0.721268
O O10 0.820660 0.584199 0.915231
O O11 0.229935 0.576616 0.977422
O O12 0.330230 0.706890 0.932811
O O13 0.500000 0.630399 0.750000
O O14 0.532772 0.703971 0.568829
O O15 0.403037 0.105414 0.499060
#
# Coordination Sequence:
#
# PCOD8146068 Si02
#       7
#     8   8   8   8   8   8   8
#     4  10  23  39  60  94 123 166 208 258 321 375
#     4  10  24  43  65  96 130 166 218 259 317 386
#     4  10  24  39  65  91 128 166 211 264 311 385
#     4  10  23  44  62  92 127 168 209 265 314 375
#     4  10  23  44  67  97 126 171 210 265 322 372
#     4  10  23  40  61  93 123 167 211 256 323 372
#     4  10  22  40  66  88 128 162 211 263 313 381
#
# _framework density 21.114808
#
# number of rings (size 3 to 8) (size 9 to 14) (size 15 to 20)
#    0.000    2.000    0.000    0.857   12.000    4.571 
#   12.857    0.000    0.000    0.000    0.000    0.000 
#    0.000    0.000    0.000    0.000    0.000    0.000 
#
# Total GULP energy -347078.904341 kJ/mol
# GULP energy per Si atom -12395.675155 kJ/mol
# Density = 2.106675 g / cm^3
# Si number density = 21.114808 Si / 1000 Ang^3
#
#
#
# Elastic Constant Matrix: (Units=GPa)
#
#
# Indices 1 2 3 4 5 6 
#
# 1 72.0950 13.1534 11.7383 0.0000 -3.0655 0.0000
# 2 13.1534 94.0377 7.3030 0.0000 -1.6332 0.0000
# 3 11.7383 7.3030 74.5570 0.0000 -2.7888 0.0000
# 4 0.0000 0.0000 0.0000 28.2518 0.0000 -0.3685
# 5 -3.0655 -1.6332 -2.7888 0.0000 27.3186 0.0000
# 6 0.0000 0.0000 0.0000 -0.3685 0.0000 21.8671
#
#
#
# Elastic Compliance Matrix: (Units=1/GPa)
#
#
# Indices 1 2 3 4 5 6 
#
# 1 0.014602 -0.001859 -0.002068 0.000000 0.001316 0.000000
# 2 -0.001859 0.010960 -0.000767 0.000000 0.000368 0.000000
# 3 -0.002068 -0.000767 0.013856 0.000000 0.001137 0.000000
# 4 0.000000 0.000000 0.000000 0.035404 0.000000 0.000597
# 5 0.001316 0.000368 0.001137 0.000000 0.036891 0.000000
# 6 0.000000 0.000000 0.000000 0.000597 0.000000 0.045741
#
#
# Mechanical properties :
#
#
# Convention : Reuss Voigt Hill
#
# Bulk Modulus (GPa) = 33.29943 33.89768 33.59856
# Shear Modulus (GPa) = 28.27233 29.38717 28.82975
#
# Velocity S-wave (km/s) = 3.66318 3.73470 3.69911
# Velocity P-wave (km/s) = 5.80489 5.88950 5.84735
#
# Compressibility (1/GPa) = 0.03003054
#
# Stress axis : x y z
#
# Youngs Moduli (GPa) = 68.48201 91.24054 72.17220
#
# Poissons Ratio (x) = 0.16962 0.14923
# Poissons Ratio (y) = 0.12731 0.05536
# Poissons Ratio (z) = 0.14160 0.06999
#
# Static dielectric constant tensor:
#      x y z
#    x 3.823230 0.000000 -0.137790 
#    y 0.000000 3.950950 0.000000 
#    z -0.137790 0.000000 3.844710 
# 
# 
# High freq. dielectric constant tensor:
#      x y z
#    x 1.818140 0.000000 -0.007890 
#    y 0.000000 1.839600 0.000000 
#    z -0.007890 0.000000 1.826730 
# 
# From -- ./inp_files/111073.got.cif
#   From: 2010.06.25/outbox.cif.g09.slc.cpg/sg15_56_cif.got.tgz:111073.got - 2010.06.28 07:06:18.
