data_PCOD8146887
_publ_section_title
;
Structure prediction by ZEFSAII (Michael W. Deem and Ramdas Pophale) SiO2 
 PCOD8146887
Probable space group: C 2/C
;
_chemical_formula_sum "Si O2"
_cell_formula_units_Z 56
_cell_length_a 18.639528
_cell_length_b 9.006565
_cell_length_c 15.316320
_cell_angle_alpha 90.000000
_cell_angle_beta 91.709890
_cell_angle_gamma 90.000000
_cell_volume 2570.130089
_symmetry_space_group_name_H-M "C 2/C"
_symmetry_group_IT_number 15
_symmetry_cell_setting 'monoclinic'
loop_
_space_group_symop_operation_xyz
x,y,z
-x,y,1/2-z
-x,-y,-z
x,-y,1/2+z
1/2+x,1/2+y,z
1/2-x,1/2+y,1/2-z
1/2-x,1/2-y,-z
1/2+x,1/2-y,1/2+z
loop_
_atom_site_type_symbol
_atom_site_label
_atom_site_fract_x
_atom_site_fract_y
_atom_site_fract_z
Si Si1 0.399907 0.274147 0.964556
Si Si2 0.269569 0.308718 0.833104
Si Si3 0.866420 0.544956 0.095217
Si Si4 0.816467 0.320794 0.954537
Si Si5 0.275914 0.521064 0.170318
Si Si6 0.521749 0.196926 0.848918
Si Si7 0.395954 0.574925 0.037181
O O1 0.321418 0.297928 0.918664
O O2 0.449650 0.174391 0.903244
O O3 0.397907 0.198368 0.059640
O O4 0.432985 0.436462 0.988879
O O5 0.201585 0.417216 0.846974
O O6 0.310493 0.389754 0.753663
O O7 0.244692 0.145331 0.803352
O O8 0.926136 0.446834 0.147651
O O9 0.842426 0.462940 0.007555
O O10 0.795201 0.380917 0.857957
O O11 0.750000 0.250000 0.000000
O O12 0.877586 0.193382 0.959087
O O13 0.326343 0.515153 0.087143
O O14 0.500000 0.229087 0.750000
O O15 0.556692 0.346121 0.887768
#
# Coordination Sequence:
#
# PCOD8146887 Si02
#       7
#     8   8   8   8   8   8   8
#     4  12  23  44  68  98 132 180 226 274 327 411
#     4  12  25  37  68 100 140 168 224 283 346 389
#     4  11  23  43  67  95 131 179 222 272 332 410
#     4   9  19  36  61  88 127 169 215 262 326 394
#     4  11  23  38  60 101 136 172 218 283 343 396
#     4  11  26  45  69  95 135 176 223 279 342 401
#     4  10  22  42  66  92 129 178 226 269 331 410
#
# _framework density 21.788782000000001
#
# number of rings (size 3 to 8) (size 9 to 14) (size 15 to 20)
#    0.000    1.143    2.857    3.857   10.000    0.000 
#    0.000    0.714    0.000    0.000    0.000    0.000 
#    0.000    0.000    0.000    0.000    0.000    0.000 
#
# Total GULP energy -347061.431611 kJ/mol
# GULP energy per Si atom -12395.051129 kJ/mol
# Density = 2.173919 g / cm^3
# Si number density = 21.788782 Si / 1000 Ang^3
#
#
#
# Elastic Constant Matrix: (Units=GPa)
#
#
# Indices 1 2 3 4 5 6 
#
# 1 78.4647 27.3264 21.8940 0.0000 8.5805 0.0000
# 2 27.3264 125.3081 26.7574 0.0000 14.1325 0.0000
# 3 21.8940 26.7574 68.6528 0.0000 12.9586 0.0000
# 4 0.0000 0.0000 0.0000 27.1008 0.0000 -8.7966
# 5 8.5805 14.1325 12.9586 0.0000 35.8341 0.0000
# 6 0.0000 0.0000 0.0000 -8.7966 0.0000 14.2628
#
#
#
# Elastic Compliance Matrix: (Units=1/GPa)
#
#
# Indices 1 2 3 4 5 6 
#
# 1 0.014676 -0.002296 -0.003534 0.000000 -0.001331 0.000000
# 2 -0.002296 0.009255 -0.002458 0.000000 -0.002212 0.000000
# 3 -0.003534 -0.002458 0.017503 0.000000 -0.004514 0.000000
# 4 0.000000 0.000000 0.000000 0.046135 0.000000 0.028454
# 5 -0.001331 -0.002212 -0.004514 0.000000 0.030730 0.000000
# 6 0.000000 0.000000 0.000000 0.028454 0.000000 0.087661
#
#
# Mechanical properties :
#
#
# Convention : Reuss Voigt Hill
#
# Bulk Modulus (GPa) = 40.22718 47.15346 43.69032
# Shear Modulus (GPa) = 21.66175 28.53607 25.09891
#
# Velocity S-wave (km/s) = 3.15647 3.62286 3.39768
# Velocity P-wave (km/s) = 5.63798 6.26006 5.95714
#
# Compressibility (1/GPa) = 0.02485881
#
# Stress axis : x y z
#
# Youngs Moduli (GPa) = 68.13952 108.04773 57.13273
#
# Poissons Ratio (x) = 0.24804 0.20193
# Poissons Ratio (y) = 0.15642 0.14041
# Poissons Ratio (z) = 0.24083 0.26554
#
# Static dielectric constant tensor:
#      x y z
#    x 3.958910 0.000000 0.119030 
#    y 0.000000 4.155340 0.000000 
#    z 0.119030 0.000000 3.705400 
# 
# 
# High freq. dielectric constant tensor:
#      x y z
#    x 1.841050 0.000000 0.007470 
#    y 0.000000 1.874870 0.000000 
#    z 0.007470 0.000000 1.843710 
# 
# From -- ./inp_files/166664.got.cif
#   From: 2010.06.25/outbox.cif.g09.slc.cpg/sg15_84_cif.got.tgz:166664.got - 2010.06.28 07:06:18.
