data_PCOD8146264
_publ_section_title
;
Structure prediction by ZEFSAII (Michael W. Deem and Ramdas Pophale) SiO2 
 PCOD8146264
Probable space group: C 2/C
;
_chemical_formula_sum "Si O2"
_cell_formula_units_Z 36
_cell_length_a 7.734516
_cell_length_b 18.430479
_cell_length_c 13.137912
_cell_angle_alpha 90.000000
_cell_angle_beta 46.641578
_cell_angle_gamma 90.000000
_cell_volume 1361.677241
_symmetry_space_group_name_H-M "C 2/C"
_symmetry_group_IT_number 15
_symmetry_cell_setting 'monoclinic'
loop_
_space_group_symop_operation_xyz
x,y,z
-x,y,1/2-z
-x,-y,-z
x,-y,1/2+z
1/2+x,1/2+y,z
1/2-x,1/2+y,1/2-z
1/2-x,1/2-y,-z
1/2+x,1/2-y,1/2+z
loop_
_atom_site_type_symbol
_atom_site_label
_atom_site_fract_x
_atom_site_fract_y
_atom_site_fract_z
Si Si1 0.265973 0.087908 0.545491
Si Si2 0.000000 0.418764 0.250000
Si Si3 0.251944 0.239893 0.617028
Si Si4 0.254458 0.529576 0.286929
Si Si5 0.962013 0.871367 0.970949
O O1 0.266510 0.152938 0.630414
O O2 0.535010 0.081998 0.398594
O O3 0.099996 0.100862 0.515472
O O4 0.174188 0.013788 0.636775
O O5 0.180527 0.468499 0.238154
O O6 0.824098 0.371979 0.394244
O O7 0.250000 0.250000 0.500000
O O8 0.462647 0.287573 0.582447
O O9 0.000000 0.272910 0.750000
O O10 0.467712 0.579731 0.155449
#
# Coordination Sequence:
#
# PCOD8146264 Si02
#       5
#     8   4   8   8   8
#     4  10  23  42  75 103 131 176 236 276 347 412
#     4  12  26  40  66  98 136 190 216 274 348 396
#     4  10  22  40  73 102 129 179 230 285 337 404
#     4  11  23  43  69 105 136 176 224 291 344 400
#     4  11  23  46  66 101 144 176 227 287 338 410
#
# _framework density 26.437984
#
# number of rings (size 3 to 8) (size 9 to 14) (size 15 to 20)
#    0.000    1.333    2.222    3.333    6.222    0.000 
#    4.000    1.111    0.000    0.000    0.000    1.556 
#    0.000    0.000    0.000    0.000    0.000    0.000 
#
# Total GULP energy -223080.527722 kJ/mol
# GULP energy per Si atom -12393.362651 kJ/mol
# Density = 2.637781 g / cm^3
# Si number density = 26.437984 Si / 1000 Ang^3
#
#
#
# Elastic Constant Matrix: (Units=GPa)
#
#
# Indices 1 2 3 4 5 6 
#
# 1 49.4065 20.2118 11.5127 -0.0003 -4.4581 0.0002
# 2 20.2118 161.4890 62.3817 0.0001 -11.6163 -0.0001
# 3 11.5127 62.3817 218.0118 -0.0009 -40.0632 0.0006
# 4 -0.0003 0.0001 -0.0009 -58.1889 0.0006 87.2504
# 5 -4.4581 -11.6163 -40.0632 0.0006 48.1810 -0.0004
# 6 0.0002 -0.0001 0.0006 87.2504 -0.0004 -55.6932
#
#
#
# Elastic Compliance Matrix: (Units=1/GPa)
#
#
# Indices 1 2 3 4 5 6 
#
# 1 0.021425 -0.002522 -0.000186 0.000000 0.001220 0.000000
# 2 -0.002522 0.007259 -0.001965 0.000000 -0.000118 0.000000
# 3 -0.000186 -0.001965 0.005983 0.000000 0.004484 0.000000
# 4 0.000000 0.000000 0.000000 0.012739 0.000000 0.019957
# 5 0.001220 -0.000118 0.004484 0.000000 0.024568 0.000000
# 6 0.000000 0.000000 0.000000 0.019957 0.000000 0.013310
#
#
# Mechanical properties :
#
#
# Convention : Reuss Voigt Hill
#
# Bulk Modulus (GPa) = 39.49284 68.56887 54.03085
# Shear Modulus (GPa) = 48.51043 9.17985 28.84514
#
# Velocity S-wave (km/s) = 4.28819 1.86541 3.30669
# Velocity P-wave (km/s) = 6.28399 5.53459 5.92116
#
# Compressibility (1/GPa) = 0.02532105
#
# Stress axis : x y z
#
# Youngs Moduli (GPa) = 46.67361 137.76343 167.13723
#
# Poissons Ratio (x) = 0.34746 0.03101
# Poissons Ratio (y) = 0.11772 0.32850
# Poissons Ratio (z) = 0.00866 0.27077
#
# Static dielectric constant tensor:
#      x y z
#    x 4.764720 0.000000 -0.047300 
#    y 0.000000 8.343060 0.000000 
#    z -0.047300 0.000000 5.206450 
# 
# 
# High freq. dielectric constant tensor:
#      x y z
#    x 2.046300 0.000000 -0.012370 
#    y 0.000000 2.062870 0.000000 
#    z -0.012370 0.000000 2.088850 
# 
# From -- ./inp_files/136407.got.cif
#   From: 2010.06.25/outbox.cif.g09.slc.cpg/sg15_69_cif.got.tgz:136407.got - 2010.06.28 07:06:18.
