data_PCOD8146518
_publ_section_title
;
Structure prediction by ZEFSAII (Michael W. Deem and Ramdas Pophale) SiO2 
 PCOD8146518
Probable space group: C 2/C
;
_chemical_formula_sum "Si O2"
_cell_formula_units_Z 28
_cell_length_a 6.980990
_cell_length_b 17.845091
_cell_length_c 10.812208
_cell_angle_alpha 90.000000
_cell_angle_beta 101.084394
_cell_angle_gamma 90.000000
_cell_volume 1321.818780
_symmetry_space_group_name_H-M "C 2/C"
_symmetry_group_IT_number 15
_symmetry_cell_setting 'monoclinic'
loop_
_space_group_symop_operation_xyz
x,y,z
-x,y,1/2-z
-x,-y,-z
x,-y,1/2+z
1/2+x,1/2+y,z
1/2-x,1/2+y,1/2-z
1/2-x,1/2-y,-z
1/2+x,1/2-y,1/2+z
loop_
_atom_site_type_symbol
_atom_site_label
_atom_site_fract_x
_atom_site_fract_y
_atom_site_fract_z
Si Si1 0.029772 0.900208 0.947493
Si Si2 0.206739 0.857518 0.219073
Si Si3 0.500000 0.273240 0.750000
Si Si4 0.789922 0.470960 0.433277
O O1 0.000924 0.823234 0.872579
O O2 0.141113 0.961700 0.875677
O O3 0.180919 0.890403 0.079408
O O4 0.816396 0.927185 0.966809
O O5 0.311028 0.778106 0.228084
O O6 0.322074 0.917175 0.318976
O O7 0.000000 0.838851 0.250000
O O8 0.000000 0.500000 0.500000
#
# Coordination Sequence:
#
# PCOD8146518 Si02
#       4
#     8   8   4   8
#     4  10  24  40  63  95 130 163 218 265 312 380
#     4  10  23  42  64  91 133 168 211 266 318 377
#     4  12  24  40  66  94 132 170 208 262 326 382
#     4  10  22  41  67  91 125 171 216 262 315 374
#
# _framework density 21.182932999999998
#
# number of rings (size 3 to 8) (size 9 to 14) (size 15 to 20)
#    0.000    1.714    0.000    2.571   10.000    6.857 
#    0.000    0.000    0.000    0.000    0.000    0.000 
#    0.000    0.000    0.000    0.000    0.000    0.000 
#
# Total GULP energy -173619.999081 kJ/mol
# GULP energy per Si atom -12401.428506 kJ/mol
# Density = 2.113472 g / cm^3
# Si number density = 21.182933 Si / 1000 Ang^3
#
#
#
# Elastic Constant Matrix: (Units=GPa)
#
#
# Indices 1 2 3 4 5 6 
#
# 1 105.2690 62.2526 57.9098 0.0000 22.0000 0.0000
# 2 62.2526 152.2580 56.9012 0.0000 3.4701 0.0000
# 3 57.9098 56.9012 97.1203 0.0000 7.2766 0.0000
# 4 0.0000 0.0000 0.0000 8.1285 0.0000 -1.8074
# 5 22.0000 3.4701 7.2766 0.0000 25.6401 0.0000
# 6 0.0000 0.0000 0.0000 -1.8074 0.0000 50.5486
#
#
#
# Elastic Compliance Matrix: (Units=1/GPa)
#
#
# Indices 1 2 3 4 5 6 
#
# 1 0.019496 -0.004736 -0.007811 0.000000 -0.013870 0.000000
# 2 -0.004736 0.009561 -0.003050 0.000000 0.003635 0.000000
# 3 -0.007811 -0.003050 0.016560 0.000000 0.002415 0.000000
# 4 0.000000 0.000000 0.000000 0.124010 0.000000 0.004434
# 5 -0.013870 0.003635 0.002415 0.000000 0.049725 0.000000
# 6 0.000000 0.000000 0.000000 0.004434 0.000000 0.019941
#
#
# Mechanical properties :
#
#
# Convention : Reuss Voigt Hill
#
# Bulk Modulus (GPa) = 69.33363 78.75272 74.04318
# Shear Modulus (GPa) = 18.16234 28.70236 23.43235
#
# Velocity S-wave (km/s) = 2.93132 3.68499 3.32955
# Velocity P-wave (km/s) = 6.65273 7.44068 7.05771
#
# Compressibility (1/GPa) = 0.01442301
#
# Stress axis : x y z
#
# Youngs Moduli (GPa) = 51.29345 104.58912 60.38663
#
# Poissons Ratio (x) = 0.49533 0.47166
# Poissons Ratio (y) = 0.24292 0.18419
# Poissons Ratio (z) = 0.40064 0.31902
#
# Static dielectric constant tensor:
#      x y z
#    x 3.801380 0.000000 -0.118490 
#    y 0.000000 3.919260 0.000000 
#    z -0.118490 0.000000 4.042020 
# 
# 
# High freq. dielectric constant tensor:
#      x y z
#    x 1.838900 0.000000 -0.000810 
#    y 0.000000 1.840620 0.000000 
#    z -0.000810 0.000000 1.827860 
# 
# From -- ./inp_files/75886.got.cif
#   From: 2010.06.25/outbox.cif.g09.slc.cpg/sg15_38_cif.got.tgz:75886.got - 2010.06.28 07:06:18.
