data_PCOD8146194
_publ_section_title
;
Structure prediction by ZEFSAII (Michael W. Deem and Ramdas Pophale) SiO2 
 PCOD8146194
Probable space group: C 2/C
;
_chemical_formula_sum "Si O2"
_cell_formula_units_Z 56
_cell_length_a 34.303441
_cell_length_b 9.028919
_cell_length_c 11.553485
_cell_angle_alpha 90.000000
_cell_angle_beta 51.057249
_cell_angle_gamma 90.000000
_cell_volume 2783.172225
_symmetry_space_group_name_H-M "C 2/C"
_symmetry_group_IT_number 15
_symmetry_cell_setting 'monoclinic'
loop_
_space_group_symop_operation_xyz
x,y,z
-x,y,1/2-z
-x,-y,-z
x,-y,1/2+z
1/2+x,1/2+y,z
1/2-x,1/2+y,1/2-z
1/2-x,1/2-y,-z
1/2+x,1/2-y,1/2+z
loop_
_atom_site_type_symbol
_atom_site_label
_atom_site_fract_x
_atom_site_fract_y
_atom_site_fract_z
Si Si1 0.254674 0.322711 0.616957
Si Si2 0.654157 0.192220 0.912546
Si Si3 0.000000 0.007282 0.250000
Si Si4 0.000000 0.495301 0.750000
Si Si5 0.782569 0.616246 0.906430
Si Si6 0.448731 0.741238 0.976976
Si Si7 0.329961 0.127960 0.049046
Si Si8 0.430519 0.245941 0.781441
O O1 0.250000 0.250000 0.500000
O O2 0.308043 0.275445 0.570203
O O3 0.250168 0.499261 0.606216
O O4 0.208865 0.285897 0.791804
O O5 0.674133 0.197004 0.745617
O O6 0.645144 0.016753 0.943699
O O7 0.600233 0.271325 0.015064
O O8 0.045503 0.108435 0.207733
O O9 0.017787 0.903329 0.110903
O O10 0.978517 0.391659 0.892172
O O11 0.957220 0.596675 0.774096
O O12 0.750000 0.750000 0.000000
O O13 0.803232 0.551719 0.987897
O O14 0.433531 0.744186 0.138325
O O15 0.372851 0.243905 0.932084
#
# Coordination Sequence:
#
# PCOD8146194 Si02
#       8
#     8   8   4   4   8   8   8   8
#     4  11  24  41  62  94 135 165 209 262 311 375
#     4  11  22  40  64  95 125 166 216 258 313 379
#     4  10  26  44  60  96 134 162 212 266 326 390
#     4  10  22  40  68  98 120 156 214 270 322 384
#     4  11  22  40  64  89 128 169 206 262 314 374
#     4  11  22  42  67  93 126 166 211 267 323 381
#     4  11  22  40  67  95 125 166 219 257 313 382
#     4  11  22  43  68  93 126 168 210 266 324 381
#
# _framework density 20.120923999999999
#
# number of rings (size 3 to 8) (size 9 to 14) (size 15 to 20)
#    0.000    1.143    5.714    0.857    0.000    1.143 
#    2.571    1.429    0.000    0.000    0.000    0.000 
#    0.000    0.000    0.000    0.000    0.000    0.000 
#
# Total GULP energy -347002.781058 kJ/mol
# GULP energy per Si atom -12392.956466 kJ/mol
# Density = 2.007513 g / cm^3
# Si number density = 20.120924 Si / 1000 Ang^3
#
#
#
# Elastic Constant Matrix: (Units=GPa)
#
#
# Indices 1 2 3 4 5 6 
#
# 1 78.9696 28.6401 37.0802 0.0000 3.2482 0.0000
# 2 28.6401 92.7119 35.4367 0.0000 -11.7877 0.0000
# 3 37.0802 35.4367 123.9866 0.0000 4.1090 0.0000
# 4 0.0000 0.0000 0.0000 26.7301 0.0000 -6.8729
# 5 3.2482 -11.7877 4.1090 0.0000 31.2138 0.0000
# 6 0.0000 0.0000 0.0000 -6.8729 0.0000 20.1974
#
#
#
# Elastic Compliance Matrix: (Units=1/GPa)
#
#
# Indices 1 2 3 4 5 6 
#
# 1 0.015841 -0.003876 -0.003542 0.000000 -0.002646 0.000000
# 2 -0.003876 0.013906 -0.003016 0.000000 0.006052 0.000000
# 3 -0.003542 -0.003016 0.010056 0.000000 -0.002094 0.000000
# 4 0.000000 0.000000 0.000000 0.040998 0.000000 0.013951
# 5 -0.002646 0.006052 -0.002094 0.000000 0.034873 0.000000
# 6 0.000000 0.000000 0.000000 0.013951 0.000000 0.054259
#
#
# Mechanical properties :
#
#
# Convention : Reuss Voigt Hill
#
# Bulk Modulus (GPa) = 52.81244 55.33133 54.07188
# Shear Modulus (GPa) = 25.36630 28.59566 26.98098
#
# Velocity S-wave (km/s) = 3.55448 3.77396 3.66586
# Velocity P-wave (km/s) = 6.56888 6.82271 6.69700
#
# Compressibility (1/GPa) = 0.01893493
#
# Stress axis : x y z
#
# Youngs Moduli (GPa) = 63.12816 71.91349 99.44326
#
# Poissons Ratio (x) = 0.27874 0.35222
# Poissons Ratio (y) = 0.24469 0.29989
# Poissons Ratio (z) = 0.22360 0.21687
#
# Static dielectric constant tensor:
#      x y z
#    x 3.184800 0.000000 -0.085970 
#    y 0.000000 3.568600 0.000000 
#    z -0.085970 0.000000 3.717520 
# 
# 
# High freq. dielectric constant tensor:
#      x y z
#    x 1.785330 0.000000 0.001680 
#    y 0.000000 1.782720 0.000000 
#    z 0.001680 0.000000 1.798780 
# 
# From -- ./inp_files/125860.got.cif
#   From: 2010.06.25/outbox.cif.g09.slc.cpg/sg15_63_cif.got.tgz:125860.got - 2010.06.28 07:06:18.
