data_PCOD8146799
_publ_section_title
;
Structure prediction by ZEFSAII (Michael W. Deem and Ramdas Pophale) SiO2 
 PCOD8146799
Probable space group: C 2/C
;
_chemical_formula_sum "Si O2"
_cell_formula_units_Z 40
_cell_length_a 11.259233
_cell_length_b 12.287634
_cell_length_c 13.110337
_cell_angle_alpha 90.000000
_cell_angle_beta 118.048547
_cell_angle_gamma 90.000000
_cell_volume 1600.773910
_symmetry_space_group_name_H-M "C 2/C"
_symmetry_group_IT_number 15
_symmetry_cell_setting 'monoclinic'
loop_
_space_group_symop_operation_xyz
x,y,z
-x,y,1/2-z
-x,-y,-z
x,-y,1/2+z
1/2+x,1/2+y,z
1/2-x,1/2+y,1/2-z
1/2-x,1/2-y,-z
1/2+x,1/2-y,1/2+z
loop_
_atom_site_type_symbol
_atom_site_label
_atom_site_fract_x
_atom_site_fract_y
_atom_site_fract_z
Si Si1 0.754225 0.096339 0.842593
Si Si2 0.360216 0.806922 0.402405
Si Si3 0.035341 0.979346 0.380402
Si Si4 0.097607 0.221645 0.386136
Si Si5 0.718882 0.886307 0.927133
O O1 0.700910 0.112396 0.707149
O O2 0.904504 0.042282 0.899636
O O3 0.733393 0.207022 0.907279
O O4 0.666550 0.997668 0.854672
O O5 0.514452 0.779297 0.441117
O O6 0.384189 0.855747 0.524989
O O7 0.252013 0.706685 0.356962
O O8 0.000000 0.960681 0.250000
O O9 0.141127 0.889168 0.453580
O O10 0.115469 0.095423 0.426756
O O11 0.000000 0.221990 0.250000
#
# Coordination Sequence:
#
# PCOD8146799 Si02
#       5
#     8   8   8   8   8
#     4  11  22  40  70  97 132 181 221 276 349 400
#     4  10  22  42  64  95 137 172 227 285 331 412
#     4  11  21  42  68  98 132 175 225 282 339 404
#     4   9  21  39  65  94 133 174 224 277 331 408
#     4  11  23  40  69  96 134 179 222 282 343 399
#
# _framework density 24.987912999999999
#
# number of rings (size 3 to 8) (size 9 to 14) (size 15 to 20)
#    0.000    1.600    4.000    0.600    0.000    1.600 
#    0.000    0.000   26.400    0.000    0.000    0.000 
#    0.000    0.000    0.000    0.000    0.000    0.000 
#
# Total GULP energy -247833.271167 kJ/mol
# GULP energy per Si atom -12391.663558 kJ/mol
# Density = 2.493104 g / cm^3
# Si number density = 24.987913 Si / 1000 Ang^3
#
#
#
# Elastic Constant Matrix: (Units=GPa)
#
#
# Indices 1 2 3 4 5 6 
#
# 1 127.9835 36.4088 36.0432 0.0000 -24.5140 0.0000
# 2 36.4088 121.7990 58.1804 0.0000 -23.8694 0.0000
# 3 36.0432 58.1804 59.1206 0.0000 -24.4815 0.0000
# 4 0.0000 0.0000 0.0000 45.1756 0.0000 -7.1495
# 5 -24.5140 -23.8694 -24.4815 0.0000 38.3761 0.0000
# 6 0.0000 0.0000 0.0000 -7.1495 0.0000 8.6544
#
#
#
# Elastic Compliance Matrix: (Units=1/GPa)
#
#
# Indices 1 2 3 4 5 6 
#
# 1 0.009734 -0.000153 -0.004414 0.000000 0.003306 0.000000
# 2 -0.000153 0.015496 -0.015229 0.000000 -0.000174 0.000000
# 3 -0.004414 -0.015229 0.040094 0.000000 0.013285 0.000000
# 4 0.000000 0.000000 0.000000 0.025465 0.000000 0.021037
# 5 0.003306 -0.000174 0.013285 0.000000 0.036537 0.000000
# 6 0.000000 0.000000 0.000000 0.021037 0.000000 0.132926
#
#
# Mechanical properties :
#
#
# Convention : Reuss Voigt Hill
#
# Bulk Modulus (GPa) = 38.86305 63.35199 51.10752
# Shear Modulus (GPa) = 16.21161 30.32594 23.26878
#
# Velocity S-wave (km/s) = 2.54988 3.48749 3.05487
# Velocity P-wave (km/s) = 4.92500 6.45173 5.73936
#
# Compressibility (1/GPa) = 0.02573138
#
# Stress axis : x y z
#
# Youngs Moduli (GPa) = 102.73763 64.53215 24.94157
#
# Poissons Ratio (x) = 0.00987 0.11010
# Poissons Ratio (y) = 0.01572 0.37983
# Poissons Ratio (z) = 0.45353 0.98273
#
# Static dielectric constant tensor:
#      x y z
#    x 4.913320 0.000000 -0.437550 
#    y 0.000000 4.655130 0.000000 
#    z -0.437550 0.000000 4.551510 
# 
# 
# High freq. dielectric constant tensor:
#      x y z
#    x 1.988560 0.000000 -0.033070 
#    y 0.000000 1.998580 0.000000 
#    z -0.033070 0.000000 2.018760 
# 
# From -- ./inp_files/142378.got.cif
#   From: 2010.06.25/outbox.cif.g09.slc.cpg/sg15_72_cif.got.tgz:142378.got - 2010.06.28 07:06:18.
