data_PCOD8146641
_publ_section_title
;
Structure prediction by ZEFSAII (Michael W. Deem and Ramdas Pophale) SiO2 
 PCOD8146641
Probable space group: C 2/C
;
_chemical_formula_sum "Si O2"
_cell_formula_units_Z 52
_cell_length_a 13.283260
_cell_length_b 10.966744
_cell_length_c 18.697358
_cell_angle_alpha 90.000000
_cell_angle_beta 122.117613
_cell_angle_gamma 90.000000
_cell_volume 2306.878744
_symmetry_space_group_name_H-M "C 2/C"
_symmetry_group_IT_number 15
_symmetry_cell_setting 'monoclinic'
loop_
_space_group_symop_operation_xyz
x,y,z
-x,y,1/2-z
-x,-y,-z
x,-y,1/2+z
1/2+x,1/2+y,z
1/2-x,1/2+y,1/2-z
1/2-x,1/2-y,-z
1/2+x,1/2-y,1/2+z
loop_
_atom_site_type_symbol
_atom_site_label
_atom_site_fract_x
_atom_site_fract_y
_atom_site_fract_z
Si Si1 0.500000 0.798663 0.750000
Si Si2 0.438277 0.299523 0.457290
Si Si3 0.907183 0.005696 0.046049
Si Si4 0.649964 0.112181 0.183119
Si Si5 0.420492 0.355324 0.790308
Si Si6 0.088354 0.354676 0.112359
Si Si7 0.796707 0.179020 0.586839
O O1 0.402946 0.878532 0.756640
O O2 0.427158 0.721618 0.663183
O O3 0.552277 0.379825 0.476936
O O4 0.353581 0.394471 0.469888
O O5 0.369726 0.240477 0.365219
O O6 0.477705 0.186740 0.522199
O O7 0.021680 0.067265 0.124601
O O8 0.809109 0.963662 0.066879
O O9 0.790253 0.086039 0.232745
O O10 0.581570 0.999466 0.120532
O O11 0.500000 0.366703 0.750000
O O12 0.412862 0.214006 0.811543
O O13 0.209334 0.312820 0.119985
O O14 0.750000 0.250000 0.500000
#
# Coordination Sequence:
#
# PCOD8146641 Si02
#       7
#     4   8   8   8   8   8   8
#     4  12  26  42  70 110 136 186 244 290 352 422
#     4  10  22  43  67 101 133 183 230 292 357 422
#     4  10  22  41  71  97 136 181 239 284 347 430
#     4  12  25  43  71 101 144 180 235 300 351 419
#     4  11  26  44  65 101 140 190 231 283 359 428
#     4  11  24  44  67  99 142 181 232 289 359 423
#     4  12  23  45  72 107 138 186 242 295 349 419
#
# _framework density 22.541278999999999
#
# number of rings (size 3 to 8) (size 9 to 14) (size 15 to 20)
#    0.000    0.923    4.615    1.385    6.462    0.000 
#    0.000    8.462    0.000    0.000    0.000    0.000 
#    0.000    0.000    0.000    0.000    0.000    0.000 
#
# Total GULP energy -322303.416036 kJ/mol
# GULP energy per Si atom -12396.285232 kJ/mol
# Density = 2.248997 g / cm^3
# Si number density = 22.541279 Si / 1000 Ang^3
#
#
#
# Elastic Constant Matrix: (Units=GPa)
#
#
# Indices 1 2 3 4 5 6 
#
# 1 126.9725 28.6611 27.0447 0.0000 -15.5162 0.0000
# 2 28.6611 117.7241 36.6770 0.0000 -11.1325 0.0000
# 3 27.0447 36.6770 92.5673 0.0000 -10.6506 0.0000
# 4 0.0000 0.0000 0.0000 32.0237 0.0000 -6.8763
# 5 -15.5162 -11.1325 -10.6506 0.0000 28.2185 0.0000
# 6 0.0000 0.0000 0.0000 -6.8763 0.0000 35.5314
#
#
#
# Elastic Compliance Matrix: (Units=1/GPa)
#
#
# Indices 1 2 3 4 5 6 
#
# 1 0.008991 -0.001309 -0.001671 0.000000 0.003797 0.000000
# 2 -0.001309 0.010050 -0.003373 0.000000 0.001972 0.000000
# 3 -0.001671 -0.003373 0.012930 0.000000 0.002631 0.000000
# 4 0.000000 0.000000 0.000000 0.032581 0.000000 0.006305
# 5 0.003797 0.001972 0.002631 0.000000 0.039296 0.000000
# 6 0.000000 0.000000 0.000000 0.006305 0.000000 0.029364
#
#
# Mechanical properties :
#
#
# Convention : Reuss Voigt Hill
#
# Bulk Modulus (GPa) = 51.90693 58.00328 54.95510
# Shear Modulus (GPa) = 32.82095 35.48014 34.15055
#
# Velocity S-wave (km/s) = 3.81995 3.97168 3.89655
# Velocity P-wave (km/s) = 6.52177 6.84253 6.68407
#
# Compressibility (1/GPa) = 0.01926525
#
# Stress axis : x y z
#
# Youngs Moduli (GPa) = 111.22009 99.49780 77.33777
#
# Poissons Ratio (x) = 0.13027 0.12925
# Poissons Ratio (y) = 0.14562 0.26084
# Poissons Ratio (z) = 0.18588 0.33558
#
# Static dielectric constant tensor:
#      x y z
#    x 4.120930 0.000000 -0.289700 
#    y 0.000000 4.132190 0.000000 
#    z -0.289700 0.000000 3.976270 
# 
# 
# High freq. dielectric constant tensor:
#      x y z
#    x 1.884140 0.000000 -0.022830 
#    y 0.000000 1.889460 0.000000 
#    z -0.022830 0.000000 1.885970 
# 
# From -- ./inp_files/243806.got.cif
#   From: 2010.06.25/outbox.cif.g09.slc.cpg/sg15_122_cif.got.tgz:243806.got - 2010.06.28 07:06:18.
