data_PCOD8146659
_publ_section_title
;
Structure prediction by ZEFSAII (Michael W. Deem and Ramdas Pophale) SiO2 
 PCOD8146659
Probable space group: C 2/C
;
_chemical_formula_sum "Si O2"
_cell_formula_units_Z 48
_cell_length_a 18.995000
_cell_length_b 27.341336
_cell_length_c 10.640780
_cell_angle_alpha 90.000000
_cell_angle_beta 157.141254
_cell_angle_gamma 90.000000
_cell_volume 2146.739994
_symmetry_space_group_name_H-M "C 2/C"
_symmetry_group_IT_number 15
_symmetry_cell_setting 'monoclinic'
loop_
_space_group_symop_operation_xyz
x,y,z
-x,y,1/2-z
-x,-y,-z
x,-y,1/2+z
1/2+x,1/2+y,z
1/2-x,1/2+y,1/2-z
1/2-x,1/2-y,-z
1/2+x,1/2-y,1/2+z
loop_
_atom_site_type_symbol
_atom_site_label
_atom_site_fract_x
_atom_site_fract_y
_atom_site_fract_z
Si Si1 0.908037 0.215134 0.314178
Si Si2 0.230525 0.161448 0.749942
Si Si3 0.394151 0.442262 0.447593
Si Si4 0.125735 0.949877 0.578094
Si Si5 0.063186 0.692897 0.168088
Si Si6 0.683936 0.147557 0.119498
O O1 0.841866 0.177398 0.310752
O O2 0.023721 0.183032 0.402145
O O3 0.057395 0.250018 0.624137
O O4 0.750000 0.250000 0.000000
O O5 0.242165 0.102984 0.789699
O O6 0.350937 0.174166 0.825018
O O7 0.333089 0.187040 0.032499
O O8 0.500000 0.432511 0.750000
O O9 0.522280 0.442125 0.537845
O O10 0.292729 0.494877 0.290386
O O11 0.286503 0.910685 0.838331
O O12 0.000000 0.941349 0.250000
O O13 0.173607 0.662349 0.247064
O O14 0.500000 0.162702 0.750000
#
# Coordination Sequence:
#
# PCOD8146659 Si02
#       6
#     8   8   8   8   8   8
#     4  12  25  44  68  97 135 185 230 281 333 411
#     4  11  25  45  68  96 137 177 222 285 335 413
#     4  10  22  41  75 100 127 178 228 280 346 409
#     4  10  22  45  71  99 130 175 231 279 342 418
#     4  11  26  43  64  99 139 175 229 270 347 397
#     4  12  25  43  67 100 133 177 224 284 335 402
#
# _framework density 22.359483999999998
#
# number of rings (size 3 to 8) (size 9 to 14) (size 15 to 20)
#    0.000    1.000    3.333    2.500    4.667    1.333 
#    3.000    0.833    0.000    0.000    0.000    0.000 
#    0.000    0.000    0.000    0.000    0.000    0.000 
#
# Total GULP energy -297519.182816 kJ/mol
# GULP energy per Si atom -12396.632617 kJ/mol
# Density = 2.230859 g / cm^3
# Si number density = 22.359484 Si / 1000 Ang^3
#
#
#
# Elastic Constant Matrix: (Units=GPa)
#
#
# Indices 1 2 3 4 5 6 
#
# 1 130.2345 41.7162 24.4841 0.0000 11.7123 0.0000
# 2 41.7162 180.2749 27.3624 0.0000 18.2451 0.0000
# 3 24.4841 27.3624 46.0118 -0.0002 9.0140 -0.0001
# 4 0.0000 0.0000 -0.0002 21.6542 -0.0001 -2.0448
# 5 11.7123 18.2451 9.0140 -0.0001 39.6345 -0.0001
# 6 0.0000 0.0000 -0.0001 -2.0448 -0.0001 26.2313
#
#
#
# Elastic Compliance Matrix: (Units=1/GPa)
#
#
# Indices 1 2 3 4 5 6 
#
# 1 0.008921 -0.001386 -0.003696 0.000000 -0.001158 0.000000
# 2 -0.001386 0.006480 -0.002734 0.000000 -0.001952 0.000000
# 3 -0.003696 -0.002734 0.026025 0.000000 -0.003568 0.000000
# 4 0.000000 0.000000 0.000000 0.046523 0.000000 0.003627
# 5 -0.001158 -0.001952 -0.003568 0.000000 0.027283 0.000000
# 6 0.000000 0.000000 0.000000 0.003627 0.000000 0.038405
#
#
# Mechanical properties :
#
#
# Convention : Reuss Voigt Hill
#
# Bulk Modulus (GPa) = 38.76780 60.40516 49.58648
# Shear Modulus (GPa) = 28.11072 35.03456 31.57264
#
# Velocity S-wave (km/s) = 3.54957 3.96267 3.76180
# Velocity P-wave (km/s) = 5.84597 6.92901 6.41040
#
# Compressibility (1/GPa) = 0.02579461
#
# Stress axis : x y z
#
# Youngs Moduli (GPa) = 112.08884 154.31312 38.42440
#
# Poissons Ratio (x) = 0.21392 0.14202
# Poissons Ratio (y) = 0.15539 0.10504
# Poissons Ratio (z) = 0.41430 0.42185
#
# Static dielectric constant tensor:
#      x y z
#    x 4.373590 0.000000 0.230890 
#    y 0.000000 4.439490 0.000000 
#    z 0.230890 0.000000 3.964550 
# 
# 
# High freq. dielectric constant tensor:
#      x y z
#    x 1.897600 0.000000 -0.006480 
#    y 0.000000 1.900590 0.000000 
#    z -0.006480 0.000000 1.859340 
# 
# From -- ./inp_files/80932.got.cif
#   From: 2010.06.25/outbox.cif.g09.slc.cpg/sg15_41_cif.got.tgz:80932.got - 2010.06.28 07:06:18.
