data_PCOD8146788
_publ_section_title
;
Structure prediction by ZEFSAII (Michael W. Deem and Ramdas Pophale) SiO2 
 PCOD8146788
Probable space group: C 2/C
;
_chemical_formula_sum "Si O2"
_cell_formula_units_Z 52
_cell_length_a 9.253814
_cell_length_b 24.825134
_cell_length_c 13.295886
_cell_angle_alpha 90.000000
_cell_angle_beta 55.072072
_cell_angle_gamma 90.000000
_cell_volume 2504.241329
_symmetry_space_group_name_H-M "C 2/C"
_symmetry_group_IT_number 15
_symmetry_cell_setting 'monoclinic'
loop_
_space_group_symop_operation_xyz
x,y,z
-x,y,1/2-z
-x,-y,-z
x,-y,1/2+z
1/2+x,1/2+y,z
1/2-x,1/2+y,1/2-z
1/2-x,1/2-y,-z
1/2+x,1/2-y,1/2+z
loop_
_atom_site_type_symbol
_atom_site_label
_atom_site_fract_x
_atom_site_fract_y
_atom_site_fract_z
Si Si1 0.392812 0.077952 0.391710
Si Si2 0.322086 0.712839 0.861772
Si Si3 0.891019 0.867165 0.894693
Si Si4 0.181237 0.977698 0.469356
Si Si5 0.494400 0.135861 0.961084
Si Si6 0.326178 0.681512 0.079020
Si Si7 0.500000 0.074666 0.750000
O O1 0.500000 0.058918 0.250000
O O2 0.507410 0.095500 0.442183
O O3 0.273586 0.126328 0.399247
O O4 0.276351 0.028985 0.482735
O O5 0.500000 0.685182 0.750000
O O6 0.147571 0.678939 0.909764
O O7 0.295798 0.772275 0.819555
O O8 0.369794 0.714162 0.960511
O O9 0.000000 0.866525 0.750000
O O10 0.994165 0.832181 0.935642
O O11 0.858071 0.929432 0.938032
O O12 0.701328 0.838115 0.957414
O O13 0.317179 0.958710 0.328178
O O14 0.000000 0.000000 0.500000
O O15 0.521570 0.108132 0.843134
#
# Coordination Sequence:
#
# PCOD8146788 Si02
#       7
#     8   8   8   8   8   8   4
#     4  11  21  41  67  92 129 170 221 269 320 379
#     4  10  23  42  69  95 122 173 221 269 324 384
#     4  11  24  41  63  97 136 169 213 268 334 396
#     4  11  23  39  65  93 124 176 216 265 324 382
#     4  10  25  40  65  96 129 174 211 271 331 384
#     4  10  22  42  64  94 128 164 224 263 318 397
#     4  10  24  42  58  92 136 160 216 264 322 398
#
# _framework density 20.764771
#
# number of rings (size 3 to 8) (size 9 to 14) (size 15 to 20)
#    0.000    1.538    2.308    1.385    4.308    6.769 
#    1.385    0.769    0.000    0.000    0.000    0.000 
#    0.000    0.000    0.000    0.000    0.000    0.000 
#
# Total GULP energy -322098.146733 kJ/mol
# GULP energy per Si atom -12388.390259 kJ/mol
# Density = 2.071751 g / cm^3
# Si number density = 20.764771 Si / 1000 Ang^3
#
#
#
# Elastic Constant Matrix: (Units=GPa)
#
#
# Indices 1 2 3 4 5 6 
#
# 1 173.8677 60.5504 75.0434 0.0000 -16.2407 0.0000
# 2 60.5504 109.9728 43.2533 0.0000 -10.4788 0.0000
# 3 75.0434 43.2533 121.0223 0.0000 -18.5572 0.0000
# 4 0.0000 0.0000 0.0000 21.6012 0.0000 -2.8017
# 5 -16.2407 -10.4788 -18.5572 0.0000 43.6009 0.0000
# 6 0.0000 0.0000 0.0000 -2.8017 0.0000 22.8317
#
#
#
# Elastic Compliance Matrix: (Units=1/GPa)
#
#
# Indices 1 2 3 4 5 6 
#
# 1 0.008694 -0.003073 -0.004182 0.000000 0.000720 0.000000
# 2 -0.003073 0.011708 -0.002164 0.000000 0.000748 0.000000
# 3 -0.004182 -0.002164 0.012101 0.000000 0.003072 0.000000
# 4 0.000000 0.000000 0.000000 0.047043 0.000000 0.005773
# 5 0.000720 0.000748 0.003072 0.000000 0.024691 0.000000
# 6 0.000000 0.000000 0.000000 0.005773 0.000000 0.044507
#
#
# Mechanical properties :
#
#
# Convention : Reuss Voigt Hill
#
# Bulk Modulus (GPa) = 73.18770 84.72855 78.95812
# Shear Modulus (GPa) = 29.04667 32.67447 30.86057
#
# Velocity S-wave (km/s) = 3.74417 3.97111 3.85931
# Velocity P-wave (km/s) = 7.34945 7.86885 7.61358
#
# Compressibility (1/GPa) = 0.01366350
#
# Stress axis : x y z
#
# Youngs Moduli (GPa) = 115.01919 85.41371 82.63952
#
# Poissons Ratio (x) = 0.26252 0.34562
# Poissons Ratio (y) = 0.35351 0.17882
# Poissons Ratio (z) = 0.48104 0.18482
#
# Static dielectric constant tensor:
#      x y z
#    x 4.011920 0.000000 -0.165250 
#    y 0.000000 3.871510 0.000000 
#    z -0.165250 0.000000 3.926570 
# 
# 
# High freq. dielectric constant tensor:
#      x y z
#    x 1.820980 0.000000 -0.014110 
#    y 0.000000 1.814260 0.000000 
#    z -0.014110 0.000000 1.815390 
# 
# From -- ./inp_files/138441.got.cif
#   From: 2010.06.25/outbox.cif.g09.slc.cpg/sg15_70_cif.got.tgz:138441.got - 2010.06.28 07:06:18.
