data_PCOD8146357
_publ_section_title
;
Structure prediction by ZEFSAII (Michael W. Deem and Ramdas Pophale) SiO2 
 PCOD8146357
Probable space group: C 2/C
;
_chemical_formula_sum "Si O2"
_cell_formula_units_Z 48
_cell_length_a 8.339230
_cell_length_b 28.253986
_cell_length_c 13.709631
_cell_angle_alpha 90.000000
_cell_angle_beta 136.864024
_cell_angle_gamma 90.000000
_cell_volume 2208.601781
_symmetry_space_group_name_H-M "C 2/C"
_symmetry_group_IT_number 15
_symmetry_cell_setting 'monoclinic'
loop_
_space_group_symop_operation_xyz
x,y,z
-x,y,1/2-z
-x,-y,-z
x,-y,1/2+z
1/2+x,1/2+y,z
1/2-x,1/2+y,1/2-z
1/2-x,1/2-y,-z
1/2+x,1/2-y,1/2+z
loop_
_atom_site_type_symbol
_atom_site_label
_atom_site_fract_x
_atom_site_fract_y
_atom_site_fract_z
Si Si1 0.169993 0.430395 0.557803
Si Si2 0.266014 0.422519 0.385601
Si Si3 0.256046 0.740357 0.889750
Si Si4 0.623475 0.341320 0.532008
Si Si5 0.212940 0.020235 0.785223
Si Si6 0.388689 0.837794 0.850089
O O1 0.316215 0.433679 0.521532
O O2 0.274879 0.463850 0.689288
O O3 0.169690 0.376752 0.594168
O O4 0.916369 0.449454 0.422649
O O5 0.454431 0.384859 0.430757
O O6 0.301178 0.470526 0.337404
O O7 0.000000 0.403197 0.250000
O O8 0.302926 0.787946 0.851503
O O9 0.000000 0.719194 0.750000
O O10 0.250000 0.750000 0.000000
O O11 0.465473 0.705297 0.955368
O O12 0.738206 0.349214 0.688075
O O13 0.832412 0.337326 0.546081
O O14 0.000000 0.042255 0.750000
#
# Coordination Sequence:
#
# PCOD8146357 Si02
#       6
#     8   8   8   8   8   8
#     4  10  23  42  64  96 131 173 221 275 328 398
#     4  10  22  42  66  95 130 173 227 272 331 394
#     4  12  24  44  71 101 133 173 222 274 331 401
#     4  11  24  44  67  99 134 177 220 273 331 400
#     4  10  22  41  63  94 129 171 225 272 333 383
#     4  11  25  44  66  98 138 174 220 270 339 397
#
# _framework density 21.733207
#
# number of rings (size 3 to 8) (size 9 to 14) (size 15 to 20)
#    0.000    1.333    1.667    3.000    2.333    2.000 
#   15.000    3.333    0.000    0.000    0.000    0.000 
#    0.000    0.000    0.000    0.000    0.000    0.000 
#
# Total GULP energy -297549.584144 kJ/mol
# GULP energy per Si atom -12397.899339 kJ/mol
# Density = 2.168374 g / cm^3
# Si number density = 21.733207 Si / 1000 Ang^3
#
#
#
# Elastic Constant Matrix: (Units=GPa)
#
#
# Indices 1 2 3 4 5 6 
#
# 1 134.7248 43.6841 50.9393 0.0000 -1.1582 0.0000
# 2 43.6841 113.0486 34.5679 0.0000 -5.8585 0.0000
# 3 50.9393 34.5679 85.1694 0.0000 3.3140 0.0000
# 4 0.0000 0.0000 0.0000 7.8141 0.0000 -36.0410
# 5 -1.1582 -5.8585 3.3140 0.0000 43.6079 0.0000
# 6 0.0000 0.0000 0.0000 -36.0410 0.0000 -20.4307
#
#
#
# Elastic Compliance Matrix: (Units=1/GPa)
#
#
# Indices 1 2 3 4 5 6 
#
# 1 0.010115 -0.002325 -0.005119 0.000000 0.000345 0.000000
# 2 -0.002325 0.010757 -0.003038 0.000000 0.001614 0.000000
# 3 -0.005119 -0.003038 0.016105 0.000000 -0.001768 0.000000
# 4 0.000000 0.000000 0.000000 0.014007 0.000000 -0.024709
# 5 0.000345 0.001614 -0.001768 0.000000 0.023292 0.000000
# 6 0.000000 0.000000 0.000000 -0.024709 0.000000 -0.005357
#
#
# Mechanical properties :
#
#
# Convention : Reuss Voigt Hill
#
# Bulk Modulus (GPa) = 62.45487 65.70283 64.07885
# Shear Modulus (GPa) = 52.50908 19.78171 36.14539
#
# Velocity S-wave (km/s) = 4.92069 3.02024 4.08259
# Velocity P-wave (km/s) = 7.81561 6.51610 7.19525
#
# Compressibility (1/GPa) = 0.01601156
#
# Stress axis : x y z
#
# Youngs Moduli (GPa) = 98.86149 92.96349 62.09232
#
# Poissons Ratio (x) = 0.21617 0.31788
# Poissons Ratio (y) = 0.22989 0.18863
# Poissons Ratio (z) = 0.50612 0.28242
#
# Static dielectric constant tensor:
#      x y z
#    x 4.112740 0.000000 0.140070 
#    y 0.000000 4.189740 0.000000 
#    z 0.140070 0.000000 4.088300 
# 
# 
# High freq. dielectric constant tensor:
#      x y z
#    x 1.867260 0.000000 0.011810 
#    y 0.000000 1.846980 0.000000 
#    z 0.011810 0.000000 1.868740 
# 
# From -- ./inp_files/139035.got.cif
#   From: 2010.06.25/outbox.cif.g09.slc.cpg/sg15_70_cif.got.tgz:139035.got - 2010.06.28 07:06:18.
