data_PCOD8146544
_publ_section_title
;
Structure prediction by ZEFSAII (Michael W. Deem and Ramdas Pophale) SiO2 
 PCOD8146544
Probable space group: C 2/C
;
_chemical_formula_sum "Si O2"
_cell_formula_units_Z 52
_cell_length_a 9.506015
_cell_length_b 16.968860
_cell_length_c 18.955663
_cell_angle_alpha 90.000000
_cell_angle_beta 50.497302
_cell_angle_gamma 90.000000
_cell_volume 2359.279193
_symmetry_space_group_name_H-M "C 2/C"
_symmetry_group_IT_number 15
_symmetry_cell_setting 'monoclinic'
loop_
_space_group_symop_operation_xyz
x,y,z
-x,y,1/2-z
-x,-y,-z
x,-y,1/2+z
1/2+x,1/2+y,z
1/2-x,1/2+y,1/2-z
1/2-x,1/2-y,-z
1/2+x,1/2-y,1/2+z
loop_
_atom_site_type_symbol
_atom_site_label
_atom_site_fract_x
_atom_site_fract_y
_atom_site_fract_z
Si Si1 0.387500 0.978725 0.924785
Si Si2 0.000000 0.263511 0.750000
Si Si3 0.000000 0.564512 0.750000
Si Si4 0.228908 0.358621 0.288853
Si Si5 0.573298 0.778079 0.017094
Si Si6 0.000000 0.009020 0.750000
Si Si7 0.790009 0.575609 0.085749
Si Si8 0.226740 0.817401 0.949331
O O1 0.586279 0.960702 0.892104
O O2 0.246299 0.904621 0.975788
O O3 0.404711 0.009700 0.839348
O O4 0.313917 0.047324 0.997884
O O5 0.877067 0.210457 0.736974
O O6 0.879213 0.316579 0.839609
O O7 0.851699 0.622837 0.762351
O O8 0.329609 0.437899 0.281425
O O9 0.068607 0.332450 0.393500
O O10 0.471588 0.699832 0.020815
O O11 0.750000 0.750000 0.000000
O O12 0.657336 0.832056 0.928005
O O13 0.080015 0.947617 0.667090
O O14 0.250000 0.750000 0.000000
#
# Coordination Sequence:
#
# PCOD8146544 Si02
#       8
#     8   4   4   8   8   4   8   8
#     4  11  23  42  73  99 137 177 235 287 344 411
#     4   9  23  42  64  94 140 178 230 270 346 436
#     4  12  21  40  68 104 133 166 230 302 335 392
#     4  10  22  41  67  97 134 178 221 284 346 410
#     4  11  24  47  67  99 141 183 232 287 347 416
#     4  11  22  42  74  98 129 184 234 266 351 426
#     4  11  22  45  69  97 136 185 222 280 352 426
#     4  11  23  42  70  99 132 185 230 282 345 419
#
# _framework density 22.040631000000001
#
# number of rings (size 3 to 8) (size 9 to 14) (size 15 to 20)
#    0.000    1.231    4.615    1.385    4.308    2.462 
#    5.538    1.538    0.000    0.000    0.000    0.000 
#    0.000    0.000    0.000    0.000    0.000    0.000 
#
# Total GULP energy -322147.386823 kJ/mol
# GULP energy per Si atom -12390.284109 kJ/mol
# Density = 2.199047 g / cm^3
# Si number density = 22.040631 Si / 1000 Ang^3
#
#
#
# Elastic Constant Matrix: (Units=GPa)
#
#
# Indices 1 2 3 4 5 6 
#
# 1 133.3715 36.7604 36.4369 -0.0009 -4.3426 0.0004
# 2 36.7604 72.0991 16.0066 -0.0018 -9.3915 0.0010
# 3 36.4369 16.0066 48.0225 -0.0034 0.9963 0.0021
# 4 -0.0009 -0.0018 -0.0034 10.8187 0.0017 -0.2607
# 5 -4.3426 -9.3915 0.9963 0.0017 40.3348 -0.0008
# 6 0.0004 0.0010 0.0021 -0.2607 -0.0008 42.6119
#
#
#
# Elastic Compliance Matrix: (Units=1/GPa)
#
#
# Indices 1 2 3 4 5 6 
#
# 1 0.010353 -0.003758 -0.006611 -0.000002 0.000403 0.000000
# 2 -0.003758 0.016888 -0.002852 0.000001 0.003598 0.000000
# 3 -0.006611 -0.002852 0.026832 0.000008 -0.002039 -0.000001
# 4 -0.000002 0.000001 0.000008 0.092446 -0.000004 0.000566
# 5 0.000403 0.003598 -0.002039 -0.000004 0.025724 0.000000
# 6 0.000000 0.000000 -0.000001 0.000566 0.000000 0.023471
#
#
# Mechanical properties :
#
#
# Convention : Reuss Voigt Hill
#
# Bulk Modulus (GPa) = 36.19151 47.98897 42.09024
# Shear Modulus (GPa) = 21.61064 29.70570 25.65817
#
# Velocity S-wave (km/s) = 3.13468 3.67518 3.41564
# Velocity P-wave (km/s) = 5.43669 6.31106 5.89012
#
# Compressibility (1/GPa) = 0.02763079
#
# Stress axis : x y z
#
# Youngs Moduli (GPa) = 96.59074 59.21402 37.26829
#
# Poissons Ratio (x) = 0.22255 0.24638
# Poissons Ratio (y) = 0.36303 0.10629
# Poissons Ratio (z) = 0.63855 0.16888
#
# Static dielectric constant tensor:
#      x y z
#    x 4.280390 0.000000 -0.174670 
#    y 0.000000 3.724380 0.000000 
#    z -0.174670 0.000000 3.903550 
# 
# 
# High freq. dielectric constant tensor:
#      x y z
#    x 1.866590 0.000000 -0.006290 
#    y 0.000000 1.868720 0.000000 
#    z -0.006290 0.000000 1.860990 
# 
# From -- ./inp_files/190881.got.cif
#   From: 2010.06.25/outbox.cif.g09.slc.cpg/sg15_96_cif.got.tgz:190881.got - 2010.06.28 07:06:18.
