data_PCOD8147184
_publ_section_title
;
Structure prediction by ZEFSAII (Michael W. Deem and Ramdas Pophale) SiO2 
 PCOD8147184
Probable space group: C 2/C
;
_chemical_formula_sum "Si O2"
_cell_formula_units_Z 60
_cell_length_a 10.881770
_cell_length_b 16.284372
_cell_length_c 17.225483
_cell_angle_alpha 90.000000
_cell_angle_beta 76.026362
_cell_angle_gamma 90.000000
_cell_volume 2962.073672
_symmetry_space_group_name_H-M "C 2/C"
_symmetry_group_IT_number 15
_symmetry_cell_setting 'monoclinic'
loop_
_space_group_symop_operation_xyz
x,y,z
-x,y,1/2-z
-x,-y,-z
x,-y,1/2+z
1/2+x,1/2+y,z
1/2-x,1/2+y,1/2-z
1/2-x,1/2-y,-z
1/2+x,1/2-y,1/2+z
loop_
_atom_site_type_symbol
_atom_site_label
_atom_site_fract_x
_atom_site_fract_y
_atom_site_fract_z
Si Si1 0.725324 0.580544 0.353471
Si Si2 0.777060 0.919699 0.052108
Si Si3 0.500000 0.427524 0.250000
Si Si4 0.899309 0.196409 0.652606
Si Si5 0.562527 0.435927 0.619330
Si Si6 0.772440 0.364024 0.679912
Si Si7 0.948948 0.590107 0.018995
Si Si8 0.864468 0.293128 0.940690
O O1 0.754566 0.490556 0.381725
O O2 0.575322 0.598921 0.380476
O O3 0.766402 0.581840 0.257991
O O4 0.807665 0.647405 0.384749
O O5 0.847064 0.843824 0.081739
O O6 0.866192 0.958290 0.971455
O O7 0.646761 0.885794 0.035469
O O8 0.602341 0.369197 0.276988
O O9 0.437845 0.482453 0.327180
O O10 0.806611 0.269731 0.692331
O O11 0.041902 0.228154 0.614704
O O12 0.638283 0.365881 0.654989
O O13 0.880490 0.406729 0.612510
O O14 0.062535 0.655544 0.003702
O O15 0.000000 0.500000 0.000000
O O16 0.750000 0.250000 0.000000
#
# Coordination Sequence:
#
# PCOD8147184 Si02
#       8
#     8   8   4   8   8   8   8   8
#     4  12  21  41  65  96 123 173 206 260 315 386
#     4  11  23  40  71  90 129 166 223 252 319 382
#     4  12  22  38  64  92 130 158 216 258 310 372
#     4  11  24  42  62  96 125 170 206 262 322 379
#     4  11  22  39  67  98 124 167 216 266 305 380
#     4  10  23  40  63  91 134 166 206 262 324 372
#     4  10  22  43  62  90 125 168 209 259 309 377
#     4  11  25  39  63  93 129 158 211 264 320 365
#
# _framework density 20.256079
#
# number of rings (size 3 to 8) (size 9 to 14) (size 15 to 20)
#    0.000    1.067    4.000    2.000    1.867    7.467 
#    0.000    0.000    0.000    0.000    0.000    0.000 
#    0.000    0.000    0.000    0.000    0.000    0.000 
#
# Total GULP energy -372047.867659 kJ/mol
# GULP energy per Si atom -12401.595589 kJ/mol
# Density = 2.020998 g / cm^3
# Si number density = 20.256079 Si / 1000 Ang^3
#
#
#
# Elastic Constant Matrix: (Units=GPa)
#
#
# Indices 1 2 3 4 5 6 
#
# 1 150.2473 55.6331 44.9189 0.0000 20.3106 0.0000
# 2 55.6331 93.0987 47.2404 0.0000 4.2638 0.0000
# 3 44.9189 47.2404 100.6824 0.0000 16.1591 0.0000
# 4 0.0000 0.0000 0.0000 37.3905 0.0000 12.3251
# 5 20.3106 4.2638 16.1591 0.0000 26.7949 0.0000
# 6 0.0000 0.0000 0.0000 12.3251 0.0000 44.5498
#
#
#
# Elastic Compliance Matrix: (Units=1/GPa)
#
#
# Indices 1 2 3 4 5 6 
#
# 1 0.009582 -0.004942 -0.001015 0.000000 -0.005865 0.000000
# 2 -0.004942 0.016738 -0.006446 0.000000 0.004970 0.000000
# 3 -0.001015 -0.006446 0.014528 0.000000 -0.006966 0.000000
# 4 0.000000 0.000000 0.000000 0.029429 0.000000 -0.008142
# 5 -0.005865 0.004970 -0.006966 0.000000 0.045176 0.000000
# 6 0.000000 0.000000 0.000000 -0.008142 0.000000 0.024699
#
#
# Mechanical properties :
#
#
# Convention : Reuss Voigt Hill
#
# Bulk Modulus (GPa) = 62.34067 71.06813 66.70440
# Shear Modulus (GPa) = 29.35911 34.82945 32.09428
#
# Velocity S-wave (km/s) = 3.81123 4.15113 3.98480
# Velocity P-wave (km/s) = 7.08593 7.62475 7.36027
#
# Compressibility (1/GPa) = 0.01604089
#
# Stress axis : x y z
#
# Youngs Moduli (GPa) = 104.36350 59.74412 68.83486
#
# Poissons Ratio (x) = 0.29528 0.06984
# Poissons Ratio (y) = 0.51581 0.44373
# Poissons Ratio (z) = 0.10589 0.38512
#
# Static dielectric constant tensor:
#      x y z
#    x 4.063390 0.000000 0.262480 
#    y 0.000000 3.795220 0.000000 
#    z 0.262480 0.000000 3.810410 
# 
# 
# High freq. dielectric constant tensor:
#      x y z
#    x 1.803570 0.000000 0.019080 
#    y 0.000000 1.787730 0.000000 
#    z 0.019080 0.000000 1.793610 
# 
# From -- ./inp_files/197855.got.cif
#   From: 2010.06.25/outbox.cif.g09.slc.cpg/sg15_99_cif.got.tgz:197855.got - 2010.06.28 07:06:18.
