data_PCOD8147195
_publ_section_title
;
Structure prediction by ZEFSAII (Michael W. Deem and Ramdas Pophale) SiO2 
 PCOD8147195
Probable space group: C 2/C
;
_chemical_formula_sum "Si O2"
_cell_formula_units_Z 64
_cell_length_a 25.375876
_cell_length_b 7.816013
_cell_length_c 29.575645
_cell_angle_alpha 90.000000
_cell_angle_beta 150.521715
_cell_angle_gamma 90.000000
_cell_volume 2886.611332
_symmetry_space_group_name_H-M "C 2/C"
_symmetry_group_IT_number 15
_symmetry_cell_setting 'monoclinic'
loop_
_space_group_symop_operation_xyz
x,y,z
-x,y,1/2-z
-x,-y,-z
x,-y,1/2+z
1/2+x,1/2+y,z
1/2-x,1/2+y,1/2-z
1/2-x,1/2-y,-z
1/2+x,1/2-y,1/2+z
loop_
_atom_site_type_symbol
_atom_site_label
_atom_site_fract_x
_atom_site_fract_y
_atom_site_fract_z
Si Si1 0.263444 0.840144 0.112061
Si Si2 0.444109 0.234276 0.577044
Si Si3 0.320628 0.136217 0.275758
Si Si4 0.767888 0.718352 0.140920
Si Si5 0.503442 0.313401 0.204220
Si Si6 0.821999 0.245669 0.251355
Si Si7 0.589622 0.687054 0.349267
Si Si8 0.054472 0.343568 0.932359
O O1 0.285370 0.724746 0.172389
O O2 0.301616 0.734001 0.096219
O O3 0.307797 0.031996 0.152391
O O4 0.135861 0.856359 0.010168
O O5 0.557984 0.329743 0.655749
O O6 0.412579 0.213224 0.605748
O O7 0.438588 0.044229 0.553566
O O8 0.250606 0.217476 0.182447
O O9 0.260249 0.147913 0.278081
O O10 0.440260 0.219420 0.368149
O O11 0.331856 0.939301 0.273435
O O12 0.868821 0.846304 0.208674
O O13 0.657856 0.765705 0.034173
O O14 0.500000 0.214287 0.250000
O O15 0.434250 0.487032 0.158870
O O16 0.447496 0.205175 0.122472
O O17 0.500000 0.767575 0.250000
#
# Coordination Sequence:
#
# PCOD8147195 Si02
#       8
#     8   8   8   8   8   8   8   8
#     4  11  24  42  65  92 129 168 210 261 312 374
#     4  11  24  39  65  95 126 169 209 259 315 369
#     4   9  22  42  65  90 121 167 204 265 320 368
#     4  10  23  43  65  93 129 166 211 258 316 374
#     4  10  24  40  62  92 126 166 213 247 315 363
#     4  10  22  43  63  91 123 162 212 259 319 375
#     4  11  23  41  63  89 128 165 212 250 313 369
#     4  10  23  41  63  94 131 162 214 258 312 377
#
# _framework density 22.171327000000002
#
# number of rings (size 3 to 8) (size 9 to 14) (size 15 to 20)
#    0.000    1.750    1.250    1.875    5.250    5.500 
#    0.000    5.000    0.000    0.000    0.000    0.000 
#    0.000    0.000    0.000    0.000    0.000    0.000 
#
# Total GULP energy -396528.574568 kJ/mol
# GULP energy per Si atom -12391.517955 kJ/mol
# Density = 2.212086 g / cm^3
# Si number density = 22.171327 Si / 1000 Ang^3
#
#
#
# Elastic Constant Matrix: (Units=GPa)
#
#
# Indices 1 2 3 4 5 6 
#
# 1 108.2878 18.2123 17.4624 -0.0010 22.0973 0.0012
# 2 18.2123 39.4549 11.3103 0.0011 3.6707 0.0072
# 3 17.4624 11.3103 119.2409 -0.0014 10.0408 0.0002
# 4 -0.0010 0.0011 -0.0014 26.0903 0.0000 3.4167
# 5 22.0973 3.6707 10.0408 0.0000 18.0028 -0.0011
# 6 0.0012 0.0072 0.0002 3.4167 -0.0011 5.7617
#
#
#
# Elastic Compliance Matrix: (Units=1/GPa)
#
#
# Indices 1 2 3 4 5 6 
#
# 1 0.013110 -0.004590 -0.000219 0.000001 -0.015033 0.000000
# 2 -0.004590 0.027957 -0.002071 0.000003 0.001089 -0.000036
# 3 -0.000219 -0.002071 0.008978 0.000000 -0.004317 0.000001
# 4 0.000001 0.000003 0.000000 0.041556 -0.000003 -0.024643
# 5 -0.015033 0.001089 -0.004317 -0.000003 0.076185 0.000019
# 6 0.000000 -0.000036 0.000001 -0.024643 0.000019 0.188174
#
#
# Mechanical properties :
#
#
# Convention : Reuss Voigt Hill
#
# Bulk Modulus (GPa) = 27.55973 40.10595 33.83284
# Shear Modulus (GPa) = 13.09536 24.63753 18.86645
#
# Velocity S-wave (km/s) = 2.43295 3.33713 2.92025
# Velocity P-wave (km/s) = 4.51106 5.74256 5.16366
#
# Compressibility (1/GPa) = 0.03628482
#
# Stress axis : x y z
#
# Youngs Moduli (GPa) = 76.27990 35.76978 111.37883
#
# Poissons Ratio (x) = 0.16418 0.02434
# Poissons Ratio (y) = 0.35013 0.23069
# Poissons Ratio (z) = 0.01667 0.07409
#
# Static dielectric constant tensor:
#      x y z
#    x 4.606900 -0.000010 0.139200 
#    y -0.000010 3.706660 0.000000 
#    z 0.139200 0.000000 4.209410 
# 
# 
# High freq. dielectric constant tensor:
#      x y z
#    x 1.868470 0.000000 -0.003550 
#    y 0.000000 1.857980 0.000000 
#    z -0.003550 0.000000 1.884910 
# 
# From -- ./inp_files/318636.got.cif
#   From: 2010.06.25/outbox.cif.g09.slc.cpg/sg15_160_cif.got.tgz:318636.got - 2010.06.28 07:06:18.
