data_PCOD8147610
_publ_section_title
;
Structure prediction by ZEFSAII (Michael W. Deem and Ramdas Pophale) SiO2 
 PCOD8147610
Probable space group: C 2/C
;
_chemical_formula_sum "Si O2"
_cell_formula_units_Z 28
_cell_length_a 17.671826
_cell_length_b 12.321771
_cell_length_c 13.536608
_cell_angle_alpha 90.000000
_cell_angle_beta 154.073384
_cell_angle_gamma 90.000000
_cell_volume 1288.736277
_symmetry_space_group_name_H-M "C 2/C"
_symmetry_group_IT_number 15
_symmetry_cell_setting 'monoclinic'
loop_
_space_group_symop_operation_xyz
x,y,z
-x,y,1/2-z
-x,-y,-z
x,-y,1/2+z
1/2+x,1/2+y,z
1/2-x,1/2+y,1/2-z
1/2-x,1/2-y,-z
1/2+x,1/2-y,1/2+z
loop_
_atom_site_type_symbol
_atom_site_label
_atom_site_fract_x
_atom_site_fract_y
_atom_site_fract_z
Si Si1 0.948586 0.382291 0.977328
Si Si2 0.500000 0.944913 0.250000
Si Si3 0.618219 0.495012 0.291891
Si Si4 0.928349 0.842678 0.932605
O O1 0.979377 0.369408 0.130374
O O2 0.056848 0.287384 0.053011
O O3 0.747888 0.368184 0.716693
O O4 0.000000 0.500000 0.000000
O O5 0.676439 0.015146 0.442689
O O6 0.500000 0.493559 0.250000
O O7 0.418258 0.392495 0.321574
O O8 0.572120 0.605286 0.177794
#
# Coordination Sequence:
#
# PCOD8147610 Si02
#       4
#     8   4   8   8
#     4  11  25  44  68 101 136 178 226 279 333 409
#     4  10  24  40  72  98 132 174 234 270 334 400
#     4  10  22  44  68 100 132 179 225 284 334 401
#     4  10  25  41  71  97 137 177 224 278 345 389
#
# _framework density 21.726711000000002
#
# number of rings (size 3 to 8) (size 9 to 14) (size 15 to 20)
#    0.000    1.714    0.000    1.714   18.000    2.286 
#    2.571    2.857    0.000    0.000    0.000    0.000 
#    0.000    0.000    0.000    0.000    0.000    0.000 
#
# Total GULP energy -173578.768831 kJ/mol
# GULP energy per Si atom -12398.483488 kJ/mol
# Density = 2.167726 g / cm^3
# Si number density = 21.726711 Si / 1000 Ang^3
#
#
#
# Elastic Constant Matrix: (Units=GPa)
#
#
# Indices 1 2 3 4 5 6 
#
# 1 118.9904 53.3441 44.6828 -0.0003 22.6274 -0.0002
# 2 53.3441 178.8175 40.2245 -0.0001 14.3899 0.0000
# 3 44.6828 40.2245 136.7592 -0.0003 32.6874 -0.0002
# 4 -0.0003 -0.0001 -0.0003 18.2523 -0.0002 7.5730
# 5 22.6274 14.3899 32.6874 -0.0002 34.5391 -0.0002
# 6 -0.0002 0.0000 -0.0002 7.5730 -0.0002 28.4329
#
#
#
# Elastic Compliance Matrix: (Units=1/GPa)
#
#
# Indices 1 2 3 4 5 6 
#
# 1 0.011071 -0.002537 -0.001796 0.000000 -0.004496 0.000000
# 2 -0.002537 0.006601 -0.001102 0.000000 -0.000045 0.000000
# 3 -0.001796 -0.001102 0.010122 0.000000 -0.007943 0.000000
# 4 0.000000 0.000000 0.000000 0.061594 0.000000 -0.016405
# 5 -0.004496 -0.000045 -0.007943 0.000000 0.039434 0.000000
# 6 0.000000 0.000000 0.000000 -0.016405 0.000000 0.039540
#
#
# Mechanical properties :
#
#
# Convention : Reuss Voigt Hill
#
# Bulk Modulus (GPa) = 59.09061 79.00777 69.04919
# Shear Modulus (GPa) = 27.04572 35.99924 31.52248
#
# Velocity S-wave (km/s) = 3.53202 4.07493 3.81315
# Velocity P-wave (km/s) = 6.62494 7.65398 7.15798
#
# Compressibility (1/GPa) = 0.01692316
#
# Stress axis : x y z
#
# Youngs Moduli (GPa) = 90.32795 151.50331 98.79843
#
# Poissons Ratio (x) = 0.38432 0.17749
# Poissons Ratio (y) = 0.22913 0.10885
# Poissons Ratio (z) = 0.16227 0.16692
#
# Static dielectric constant tensor:
#      x y z
#    x 3.906000 0.000000 0.054830 
#    y 0.000000 3.634410 0.000000 
#    z 0.054830 0.000000 4.237300 
# 
# 
# High freq. dielectric constant tensor:
#      x y z
#    x 1.858240 0.000000 0.007500 
#    y 0.000000 1.832570 0.000000 
#    z 0.007500 0.000000 1.869940 
# 
# From -- ./inp_files/95892.got.cif
#   From: 2010.06.25/outbox.cif.g09.slc.cpg/sg15_48_cif.got.tgz:95892.got - 2010.06.28 07:06:18.
