data_PCOD8147387
_publ_section_title
;
Structure prediction by ZEFSAII (Michael W. Deem and Ramdas Pophale) SiO2 
 PCOD8147387
Probable space group: C 2/C
;
_chemical_formula_sum "Si O2"
_cell_formula_units_Z 60
_cell_length_a 17.366763
_cell_length_b 9.047628
_cell_length_c 16.960341
_cell_angle_alpha 90.000000
_cell_angle_beta 84.696771
_cell_angle_gamma 90.000000
_cell_volume 2653.537331
_symmetry_space_group_name_H-M "C 2/C"
_symmetry_group_IT_number 15
_symmetry_cell_setting 'monoclinic'
loop_
_space_group_symop_operation_xyz
x,y,z
-x,y,1/2-z
-x,-y,-z
x,-y,1/2+z
1/2+x,1/2+y,z
1/2-x,1/2+y,1/2-z
1/2-x,1/2-y,-z
1/2+x,1/2-y,1/2+z
loop_
_atom_site_type_symbol
_atom_site_label
_atom_site_fract_x
_atom_site_fract_y
_atom_site_fract_z
Si Si1 0.015867 0.827572 0.374481
Si Si2 0.111617 0.929435 0.785666
Si Si3 0.270804 0.066661 0.348482
Si Si4 0.744806 0.987865 0.981554
Si Si5 0.155753 0.853902 0.147178
Si Si6 0.000000 0.406106 0.750000
Si Si7 0.374797 0.747239 0.495532
Si Si8 0.892437 0.655056 0.818220
O O1 0.052953 0.792200 0.455568
O O2 0.923400 0.831984 0.394925
O O3 0.041773 0.702049 0.309241
O O4 0.041398 0.987334 0.336145
O O5 0.181125 0.912996 0.839845
O O6 0.086085 0.769761 0.753626
O O7 0.144863 0.017650 0.709735
O O8 0.321497 0.202771 0.309450
O O9 0.282474 0.082056 0.441244
O O10 0.303751 0.905702 0.317689
O O11 0.818516 0.891508 0.999600
O O12 0.672349 0.885216 0.962588
O O13 0.769917 0.099319 0.911121
O O14 0.057244 0.508238 0.695116
O O15 0.405742 0.777132 0.403950
#
# Coordination Sequence:
#
# PCOD8147387 Si02
#       8
#     8   8   8   8   8   4   8   8
#     4  12  25  47  71 101 141 186 226 295 361 405
#     4  12  24  41  73  98 135 185 231 285 352 415
#     4  11  23  45  68 102 133 182 234 285 345 417
#     4  10  22  43  69  99 135 182 235 284 336 422
#     4  12  24  43  67 102 139 176 230 295 342 413
#     4  12  26  46  68  98 144 178 230 294 350 420
#     4  10  23  45  73  97 141 188 232 288 350 412
#     4  11  25  45  68 101 141 182 235 286 345 424
#
# _framework density 22.611326999999999
#
# number of rings (size 3 to 8) (size 9 to 14) (size 15 to 20)
#    0.000    0.800    5.333    1.200    1.867    4.267 
#    2.400    0.000    0.000    0.000    0.000    0.000 
#    0.000    0.000    0.000    0.000    0.000    0.000 
#
# Total GULP energy -371952.127590 kJ/mol
# GULP energy per Si atom -12398.404253 kJ/mol
# Density = 2.255986 g / cm^3
# Si number density = 22.611327 Si / 1000 Ang^3
#
#
#
# Elastic Constant Matrix: (Units=GPa)
#
#
# Indices 1 2 3 4 5 6 
#
# 1 62.3777 24.9866 13.0455 0.0000 -4.6615 0.0000
# 2 24.9866 109.1658 24.7482 0.0000 4.1711 0.0000
# 3 13.0455 24.7482 62.2281 0.0000 4.1636 0.0000
# 4 0.0000 0.0000 0.0000 17.2239 0.0000 -4.4730
# 5 -4.6615 4.1711 4.1636 0.0000 27.4540 0.0000
# 6 0.0000 0.0000 0.0000 -4.4730 0.0000 34.7769
#
#
#
# Elastic Compliance Matrix: (Units=1/GPa)
#
#
# Indices 1 2 3 4 5 6 
#
# 1 0.018398 -0.003771 -0.002631 0.000000 0.004096 0.000000
# 2 -0.003771 0.010865 -0.003412 0.000000 -0.001774 0.000000
# 3 -0.002631 -0.003412 0.018158 0.000000 -0.002682 0.000000
# 4 0.000000 0.000000 0.000000 0.060065 0.000000 0.007726
# 5 0.004096 -0.001774 -0.002682 0.000000 0.037796 0.000000
# 6 0.000000 0.000000 0.000000 0.007726 0.000000 0.029748
#
#
# Mechanical properties :
#
#
# Convention : Reuss Voigt Hill
#
# Bulk Modulus (GPa) = 35.98065 39.92580 37.95323
# Shear Modulus (GPa) = 24.51904 27.29039 25.90472
#
# Velocity S-wave (km/s) = 3.29655 3.47787 3.38842
# Velocity P-wave (km/s) = 5.51696 5.81577 5.66833
#
# Compressibility (1/GPa) = 0.02779272
#
# Stress axis : x y z
#
# Youngs Moduli (GPa) = 54.35268 92.04089 55.07266
#
# Poissons Ratio (x) = 0.34710 0.14491
# Poissons Ratio (y) = 0.20497 0.18789
# Poissons Ratio (z) = 0.14302 0.31401
#
# Static dielectric constant tensor:
#      x y z
#    x 4.035370 0.000000 -0.120360 
#    y 0.000000 4.281810 0.000000 
#    z -0.120360 0.000000 3.914470 
# 
# 
# High freq. dielectric constant tensor:
#      x y z
#    x 1.887910 0.000000 -0.009990 
#    y 0.000000 1.907890 0.000000 
#    z -0.009990 0.000000 1.877040 
# 
# From -- ./inp_files/209599.got.cif
#   From: 2010.06.25/outbox.cif.g09.slc.cpg/sg15_105_cif.got.tgz:209599.got - 2010.06.28 07:06:18.
