data_PCOD8147728
_publ_section_title
;
Structure prediction by ZEFSAII (Michael W. Deem and Ramdas Pophale) SiO2 
 PCOD8147728
Probable space group: C 2/C
;
_chemical_formula_sum "Si O2"
_cell_formula_units_Z 48
_cell_length_a 20.272410
_cell_length_b 11.909624
_cell_length_c 14.740199
_cell_angle_alpha 90.000000
_cell_angle_beta 36.766530
_cell_angle_gamma 90.000000
_cell_volume 2130.155845
_symmetry_space_group_name_H-M "C 2/C"
_symmetry_group_IT_number 15
_symmetry_cell_setting 'monoclinic'
loop_
_space_group_symop_operation_xyz
x,y,z
-x,y,1/2-z
-x,-y,-z
x,-y,1/2+z
1/2+x,1/2+y,z
1/2-x,1/2+y,1/2-z
1/2-x,1/2-y,-z
1/2+x,1/2-y,1/2+z
loop_
_atom_site_type_symbol
_atom_site_label
_atom_site_fract_x
_atom_site_fract_y
_atom_site_fract_z
Si Si1 0.882818 0.510872 0.081547
Si Si2 0.681881 0.778910 0.938067
Si Si3 0.349364 0.396778 0.884280
Si Si4 0.022312 0.955476 0.377466
Si Si5 0.786027 0.914471 0.580430
Si Si6 0.763282 0.179511 0.816078
O O1 0.898688 0.618433 0.998576
O O2 0.783997 0.531226 0.261140
O O3 0.844026 0.402919 0.064900
O O4 0.000000 0.500000 0.000000
O O5 0.784947 0.830094 0.877807
O O6 0.723632 0.717492 0.802119
O O7 0.618406 0.688333 0.070079
O O8 0.458848 0.443553 0.715028
O O9 0.277120 0.501955 0.004024
O O10 0.129064 0.877869 0.261484
O O11 0.913115 0.893115 0.466504
O O12 0.000000 0.000000 0.500000
O O13 0.747943 0.786846 0.604661
#
# Coordination Sequence:
#
# PCOD8147728 Si02
#       6
#     8   8   8   8   8   8
#     4  11  23  46  69 101 144 189 233 286 351 427
#     4  10  22  44  72 103 140 182 235 293 347 417
#     4  11  22  45  72 105 144 179 239 301 346 416
#     4  12  22  44  73 101 139 180 242 295 347 424
#     4  11  25  42  66 107 140 183 238 286 354 416
#     4  11  23  44  70 101 138 192 234 281 357 418
#
# _framework density 22.533563000000001
#
# number of rings (size 3 to 8) (size 9 to 14) (size 15 to 20)
#    0.000    1.000    5.000    1.500    4.667    0.667 
#    6.000    2.500    0.000    0.000    0.000    0.000 
#    0.000    0.000    0.000    0.000    0.000    0.000 
#
# Total GULP energy -297474.386829 kJ/mol
# GULP energy per Si atom -12394.766118 kJ/mol
# Density = 2.248228 g / cm^3
# Si number density = 22.533563 Si / 1000 Ang^3
#
#
#
# Elastic Constant Matrix: (Units=GPa)
#
#
# Indices 1 2 3 4 5 6 
#
# 1 98.0143 35.4450 27.1681 0.0000 -12.9538 0.0000
# 2 35.4450 149.7872 41.9084 0.0000 4.4461 0.0000
# 3 27.1681 41.9084 83.3693 0.0000 5.5516 0.0000
# 4 0.0000 0.0000 0.0000 27.5139 0.0000 8.7076
# 5 -12.9538 4.4461 5.5516 0.0000 47.4962 0.0000
# 6 0.0000 0.0000 0.0000 8.7076 0.0000 47.6192
#
#
#
# Elastic Compliance Matrix: (Units=1/GPa)
#
#
# Indices 1 2 3 4 5 6 
#
# 1 0.012396 -0.002149 -0.003223 0.000000 0.003959 0.000000
# 2 -0.002149 0.008145 -0.003330 0.000000 -0.000959 0.000000
# 3 -0.003223 -0.003330 0.014873 0.000000 -0.002306 0.000000
# 4 0.000000 0.000000 0.000000 0.038578 0.000000 -0.007054
# 5 0.003959 -0.000959 -0.002306 0.000000 0.022493 0.000000
# 6 0.000000 0.000000 0.000000 -0.007054 0.000000 0.022290
#
#
# Mechanical properties :
#
#
# Convention : Reuss Voigt Hill
#
# Bulk Modulus (GPa) = 55.52629 60.02377 57.77503
# Shear Modulus (GPa) = 35.16610 39.63581 37.40096
#
# Velocity S-wave (km/s) = 3.95474 4.19855 4.07847
# Velocity P-wave (km/s) = 6.74896 7.08514 6.91909
#
# Compressibility (1/GPa) = 0.01800949
#
# Stress axis : x y z
#
# Youngs Moduli (GPa) = 80.66882 122.77628 67.23767
#
# Poissons Ratio (x) = 0.26387 0.21670
# Poissons Ratio (y) = 0.17337 0.22391
# Poissons Ratio (z) = 0.25999 0.40885
#
# Static dielectric constant tensor:
#      x y z
#    x 4.312340 0.000000 -0.005180 
#    y 0.000000 4.741920 0.000000 
#    z -0.005180 0.000000 4.190560 
# 
# 
# High freq. dielectric constant tensor:
#      x y z
#    x 1.893390 0.000000 0.008220 
#    y 0.000000 1.908980 0.000000 
#    z 0.008220 0.000000 1.873020 
# 
# From -- ./inp_files/167851.got.cif
#   From: 2010.06.25/outbox.cif.g09.slc.cpg/sg15_84_cif.got.tgz:167851.got - 2010.06.28 07:06:18.
