data_PCOD8147157
_publ_section_title
;
Structure prediction by ZEFSAII (Michael W. Deem and Ramdas Pophale) SiO2 
 PCOD8147157
Probable space group: C 2/C
;
_chemical_formula_sum "Si O2"
_cell_formula_units_Z 64
_cell_length_a 14.206250
_cell_length_b 29.679930
_cell_length_c 8.589501
_cell_angle_alpha 90.000000
_cell_angle_beta 128.462338
_cell_angle_gamma 90.000000
_cell_volume 2835.838880
_symmetry_space_group_name_H-M "C 2/C"
_symmetry_group_IT_number 15
_symmetry_cell_setting 'monoclinic'
loop_
_space_group_symop_operation_xyz
x,y,z
-x,y,1/2-z
-x,-y,-z
x,-y,1/2+z
1/2+x,1/2+y,z
1/2-x,1/2+y,1/2-z
1/2-x,1/2-y,-z
1/2+x,1/2-y,1/2+z
loop_
_atom_site_type_symbol
_atom_site_label
_atom_site_fract_x
_atom_site_fract_y
_atom_site_fract_z
Si Si1 0.121931 0.470064 0.285605
Si Si2 0.529403 0.629465 0.060458
Si Si3 0.377731 0.936746 0.565720
Si Si4 0.342786 0.180668 0.705376
Si Si5 0.866019 0.208600 0.819521
Si Si6 0.776949 0.859509 0.977694
Si Si7 0.094746 0.692926 0.081915
Si Si8 0.687339 0.598989 0.503037
O O1 0.144843 0.522908 0.334043
O O2 0.246838 0.447356 0.475729
O O3 0.000000 0.453886 0.250000
O O4 0.109248 0.459115 0.090238
O O5 0.603216 0.620140 0.979243
O O6 0.623325 0.624171 0.295723
O O7 0.415369 0.595172 0.966115
O O8 0.477965 0.680657 0.006885
O O9 0.500000 0.912823 0.750000
O O10 0.273111 0.899454 0.464517
O O11 0.241861 0.213635 0.668700
O O12 0.367909 0.198342 0.558987
O O13 0.297653 0.129570 0.671090
O O14 0.456582 0.177780 0.937935
O O15 0.818016 0.183934 0.616182
O O16 0.903828 0.259715 0.823489
O O17 0.677787 0.844179 0.750016
#
# Coordination Sequence:
#
# PCOD8147157 Si02
#       8
#     8   8   8   8   8   8   8   8
#     4  11  25  44  76 106 141 174 221 282 340 415
#     4  10  23  43  71  95 134 188 228 284 333 406
#     4  11  26  44  71 109 139 176 222 279 346 411
#     4  10  23  41  65 100 130 179 230 287 338 408
#     4  11  25  44  64  96 136 181 237 284 339 404
#     4  12  26  45  71  98 142 182 227 284 352 406
#     4  11  25  40  68  98 134 181 231 288 344 401
#     4  10  22  42  73 101 135 180 232 273 344 404
#
# _framework density 22.568277999999999
#
# number of rings (size 3 to 8) (size 9 to 14) (size 15 to 20)
#    0.000    1.250    1.250    4.125   10.500    4.000 
#    2.250    0.625    5.500    0.000    0.000    0.000 
#    0.000    0.000    0.000    0.000    0.000    0.000 
#
# Total GULP energy -396638.921122 kJ/mol
# GULP energy per Si atom -12394.966285 kJ/mol
# Density = 2.251691 g / cm^3
# Si number density = 22.568278 Si / 1000 Ang^3
#
#
#
# Elastic Constant Matrix: (Units=GPa)
#
#
# Indices 1 2 3 4 5 6 
#
# 1 141.1218 57.8113 39.9205 0.0000 9.6264 0.0000
# 2 57.8113 71.6922 42.4645 0.0000 11.8336 0.0000
# 3 39.9205 42.4645 127.0411 0.0000 12.0084 0.0000
# 4 0.0000 0.0000 0.0000 32.9688 0.0000 2.3459
# 5 9.6264 11.8336 12.0084 0.0000 38.8216 0.0000
# 6 0.0000 0.0000 0.0000 2.3459 0.0000 17.4051
#
#
#
# Elastic Compliance Matrix: (Units=1/GPa)
#
#
# Indices 1 2 3 4 5 6 
#
# 1 0.010617 -0.008219 -0.000594 0.000000 0.000056 0.000000
# 2 -0.008219 0.024259 -0.005171 0.000000 -0.003757 0.000000
# 3 -0.000594 -0.005171 0.009914 0.000000 -0.001343 0.000000
# 4 0.000000 0.000000 0.000000 0.030625 0.000000 -0.004128
# 5 0.000056 -0.003757 -0.001343 0.000000 0.027306 0.000000
# 6 0.000000 0.000000 0.000000 -0.004128 0.000000 0.058011
#
#
# Mechanical properties :
#
#
# Convention : Reuss Voigt Hill
#
# Bulk Modulus (GPa) = 59.44785 68.91642 64.18213
# Shear Modulus (GPa) = 25.73246 31.14968 28.44107
#
# Velocity S-wave (km/s) = 3.38036 3.71919 3.55381
# Velocity P-wave (km/s) = 6.45246 7.00331 6.73352
#
# Compressibility (1/GPa) = 0.01682147
#
# Stress axis : x y z
#
# Youngs Moduli (GPa) = 94.18635 41.22177 100.87100
#
# Poissons Ratio (x) = 0.33879 0.05996
# Poissons Ratio (y) = 0.77410 0.52161
# Poissons Ratio (z) = 0.05599 0.21316
#
# Static dielectric constant tensor:
#      x y z
#    x 4.554620 0.000000 0.195370 
#    y 0.000000 3.798420 0.000000 
#    z 0.195370 0.000000 4.142220 
# 
# 
# High freq. dielectric constant tensor:
#      x y z
#    x 1.903670 0.000000 0.006710 
#    y 0.000000 1.862430 0.000000 
#    z 0.006710 0.000000 1.903750 
# 
# From -- ./inp_files/44877.got.cif
#   From: 2010.06.25/outbox.cif.g09.slc.cpg/sg15_23_cif.got.tgz:44877.got - 2010.06.28 07:06:18.
