data_PCOD8147177
_publ_section_title
;
Structure prediction by ZEFSAII (Michael W. Deem and Ramdas Pophale) SiO2 
 PCOD8147177
Probable space group: C 2/C
;
_chemical_formula_sum "Si O2"
_cell_formula_units_Z 36
_cell_length_a 7.854071
_cell_length_b 12.031819
_cell_length_c 20.054618
_cell_angle_alpha 90.000000
_cell_angle_beta 66.612464
_cell_angle_gamma 90.000000
_cell_volume 1739.434021
_symmetry_space_group_name_H-M "C 2/C"
_symmetry_group_IT_number 15
_symmetry_cell_setting 'monoclinic'
loop_
_space_group_symop_operation_xyz
x,y,z
-x,y,1/2-z
-x,-y,-z
x,-y,1/2+z
1/2+x,1/2+y,z
1/2-x,1/2+y,1/2-z
1/2-x,1/2-y,-z
1/2+x,1/2-y,1/2+z
loop_
_atom_site_type_symbol
_atom_site_label
_atom_site_fract_x
_atom_site_fract_y
_atom_site_fract_z
Si Si1 0.938000 0.776713 0.650123
Si Si2 0.290870 0.545306 0.264669
Si Si3 0.849922 0.335289 0.032836
Si Si4 0.775600 0.421718 0.577101
Si Si5 0.500000 0.885316 0.250000
O O1 0.795375 0.841999 0.720380
O O2 0.825310 0.712356 0.611075
O O3 0.080692 0.862041 0.593970
O O4 0.051323 0.689475 0.677993
O O5 0.500000 0.504626 0.250000
O O6 0.181316 0.566874 0.350560
O O7 0.183946 0.455534 0.237028
O O8 0.759935 0.457845 0.044239
O O9 0.750000 0.250000 0.000000
O O10 0.065641 0.346470 0.980478
#
# Coordination Sequence:
#
# PCOD8147177 Si02
#       5
#     8   8   8   8   4
#     4  11  23  44  64  96 128 169 216 269 324 376
#     4  10  23  42  65 100 128 166 227 268 319 396
#     4  11  25  40  64  95 128 174 211 254 333 384
#     4  10  22  43  60  93 134 157 221 269 301 404
#     4  12  22  42  70  92 132 170 208 282 326 360
#
# _framework density 20.696389
#
# number of rings (size 3 to 8) (size 9 to 14) (size 15 to 20)
#    0.000    1.333    5.556    0.667    3.111    4.444 
#    2.000    0.000    0.000    0.000    0.000    0.000 
#    0.000    0.000    0.000    0.000    0.000    0.000 
#
# Total GULP energy -223221.439657 kJ/mol
# GULP energy per Si atom -12401.191092 kJ/mol
# Density = 2.064928 g / cm^3
# Si number density = 20.696389 Si / 1000 Ang^3
#
#
#
# Elastic Constant Matrix: (Units=GPa)
#
#
# Indices 1 2 3 4 5 6 
#
# 1 69.6679 46.6575 22.1257 0.0000 18.2591 0.0000
# 2 46.6575 121.2765 37.4333 0.0000 10.8906 0.0000
# 3 22.1257 37.4333 90.1635 0.0000 12.4051 0.0000
# 4 0.0000 0.0000 0.0000 41.5792 0.0000 11.9081
# 5 18.2591 10.8906 12.4051 0.0000 34.0760 0.0000
# 6 0.0000 0.0000 0.0000 11.9081 0.0000 31.2366
#
#
#
# Elastic Compliance Matrix: (Units=1/GPa)
#
#
# Indices 1 2 3 4 5 6 
#
# 1 0.021959 -0.007292 -0.001119 0.000000 -0.009029 0.000000
# 2 -0.007292 0.011971 -0.003360 0.000000 0.001305 0.000000
# 3 -0.001119 -0.003360 0.013191 0.000000 -0.003129 0.000000
# 4 0.000000 0.000000 0.000000 0.026998 0.000000 -0.010292
# 5 -0.009029 0.001305 -0.003129 0.000000 0.034906 0.000000
# 6 0.000000 0.000000 0.000000 -0.010292 0.000000 0.035937
#
#
# Mechanical properties :
#
#
# Convention : Reuss Voigt Hill
#
# Bulk Modulus (GPa) = 42.41088 54.83788 48.62438
# Shear Modulus (GPa) = 28.35044 33.03778 30.69411
#
# Velocity S-wave (km/s) = 3.70513 3.99972 3.85524
# Velocity P-wave (km/s) = 6.23221 6.91984 6.58500
#
# Compressibility (1/GPa) = 0.02357886
#
# Stress axis : x y z
#
# Youngs Moduli (GPa) = 45.53956 83.53573 75.80912
#
# Poissons Ratio (x) = 0.60913 0.08484
# Poissons Ratio (y) = 0.33207 0.25472
# Poissons Ratio (z) = 0.05096 0.28069
#
# Static dielectric constant tensor:
#      x y z
#    x 3.374180 0.000000 0.047580 
#    y 0.000000 3.982670 0.000000 
#    z 0.047580 0.000000 3.975630 
# 
# 
# High freq. dielectric constant tensor:
#      x y z
#    x 1.780130 0.000000 0.004640 
#    y 0.000000 1.825240 0.000000 
#    z 0.004640 0.000000 1.820890 
# 
# From -- ./inp_files/187573.got.cif
#   From: 2010.06.25/outbox.cif.g09.slc.cpg/sg15_94_cif.got.tgz:187573.got - 2010.06.28 07:06:18.
