data_PCOD8147228
_publ_section_title
;
Structure prediction by ZEFSAII (Michael W. Deem and Ramdas Pophale) SiO2 
 PCOD8147228
Probable space group: C 2/C
;
_chemical_formula_sum "Si O2"
_cell_formula_units_Z 40
_cell_length_a 17.538893
_cell_length_b 9.452615
_cell_length_c 20.268309
_cell_angle_alpha 90.000000
_cell_angle_beta 146.458970
_cell_angle_gamma 90.000000
_cell_volume 1856.652683
_symmetry_space_group_name_H-M "C 2/C"
_symmetry_group_IT_number 15
_symmetry_cell_setting 'monoclinic'
loop_
_space_group_symop_operation_xyz
x,y,z
-x,y,1/2-z
-x,-y,-z
x,-y,1/2+z
1/2+x,1/2+y,z
1/2-x,1/2+y,1/2-z
1/2-x,1/2-y,-z
1/2+x,1/2-y,1/2+z
loop_
_atom_site_type_symbol
_atom_site_label
_atom_site_fract_x
_atom_site_fract_y
_atom_site_fract_z
Si Si1 0.894795 0.129005 0.056243
Si Si2 0.422639 0.913097 0.501071
Si Si3 0.362112 0.713395 0.882337
Si Si4 0.400314 0.929535 0.119227
Si Si5 0.181914 0.988819 0.752462
O O1 0.915178 0.262260 0.118793
O O2 0.023812 0.025735 0.160460
O O3 0.887234 0.186615 0.976788
O O4 0.758616 0.039642 0.976326
O O5 0.492564 0.757961 0.548169
O O6 0.500000 0.000000 0.500000
O O7 0.446223 0.980075 0.589390
O O8 0.260395 0.918622 0.365284
O O9 0.247043 0.834040 0.789815
O O10 0.307666 0.570414 0.809618
O O11 0.500000 0.976827 0.250000
#
# Coordination Sequence:
#
# PCOD8147228 Si02
#       5
#     8   8   8   8   8
#     4  11  23  39  66 105 129 177 230 279 343 405
#     4  10  22  43  64  95 135 178 219 276 342 398
#     4  11  23  42  70 102 138 178 230 277 342 404
#     4  11  24  40  67  97 140 172 226 288 341 400
#     4  11  23  40  70  99 138 174 228 279 332 408
#
# _framework density 21.544149000000001
#
# number of rings (size 3 to 8) (size 9 to 14) (size 15 to 20)
#    0.000    1.200    4.000    3.000   11.200    0.000 
#    0.000    1.000    0.000    0.000    0.000    0.000 
#    0.000    0.000    0.000    0.000    0.000    0.000 
#
# Total GULP energy -248009.963780 kJ/mol
# GULP energy per Si atom -12400.498189 kJ/mol
# Density = 2.149511 g / cm^3
# Si number density = 21.544149 Si / 1000 Ang^3
#
#
#
# Elastic Constant Matrix: (Units=GPa)
#
#
# Indices 1 2 3 4 5 6 
#
# 1 125.7049 26.9466 74.0048 0.0000 0.0126 0.0000
# 2 26.9466 29.9581 32.5218 0.0000 2.1293 0.0000
# 3 74.0048 32.5218 149.5718 0.0000 -0.1380 0.0000
# 4 0.0000 0.0000 0.0000 32.5401 0.0000 3.8772
# 5 0.0126 2.1293 -0.1380 0.0000 38.9629 0.0000
# 6 0.0000 0.0000 0.0000 3.8772 0.0000 33.3297
#
#
#
# Elastic Compliance Matrix: (Units=1/GPa)
#
#
# Indices 1 2 3 4 5 6 
#
# 1 0.011917 -0.005680 -0.004661 0.000000 0.000290 0.000000
# 2 -0.005680 0.046630 -0.007331 0.000000 -0.002572 0.000000
# 3 -0.004661 -0.007331 0.010586 0.000000 0.000440 0.000000
# 4 0.000000 0.000000 0.000000 0.031163 0.000000 -0.003625
# 5 0.000290 -0.002572 0.000440 0.000000 0.025807 0.000000
# 6 0.000000 0.000000 0.000000 -0.003625 0.000000 0.030425
#
#
# Mechanical properties :
#
#
# Convention : Reuss Voigt Hill
#
# Bulk Modulus (GPa) = 29.59480 63.57568 46.58524
# Shear Modulus (GPa) = 24.61419 32.41732 28.51575
#
# Velocity S-wave (km/s) = 3.38376 3.88324 3.64207
# Velocity P-wave (km/s) = 5.38823 7.04838 6.27346
#
# Compressibility (1/GPa) = 0.03378972
#
# Stress axis : x y z
#
# Youngs Moduli (GPa) = 83.91706 21.44542 94.46188
#
# Poissons Ratio (x) = 0.12180 0.44027
# Poissons Ratio (y) = 0.47661 0.69252
# Poissons Ratio (z) = 0.39112 0.15722
#
# Static dielectric constant tensor:
#      x y z
#    x 3.946780 0.000000 0.295020 
#    y 0.000000 3.808080 0.000000 
#    z 0.295020 0.000000 4.464160 
# 
# 
# High freq. dielectric constant tensor:
#      x y z
#    x 1.840220 0.000000 0.003740 
#    y 0.000000 1.815910 0.000000 
#    z 0.003740 0.000000 1.867860 
# 
# From -- ./inp_files/204250.got.cif
#   From: 2010.06.25/outbox.cif.g09.slc.cpg/sg15_103_cif.got.tgz:204250.got - 2010.06.28 07:06:18.
