data_PCOD8147478
_publ_section_title
;
Structure prediction by ZEFSAII (Michael W. Deem and Ramdas Pophale) SiO2 
 PCOD8147478
Probable space group: C 2/C
;
_chemical_formula_sum "Si O2"
_cell_formula_units_Z 56
_cell_length_a 8.432592
_cell_length_b 11.295909
_cell_length_c 30.785303
_cell_angle_alpha 90.000000
_cell_angle_beta 117.912026
_cell_angle_gamma 90.000000
_cell_volume 2591.281155
_symmetry_space_group_name_H-M "C 2/C"
_symmetry_group_IT_number 15
_symmetry_cell_setting 'monoclinic'
loop_
_space_group_symop_operation_xyz
x,y,z
-x,y,1/2-z
-x,-y,-z
x,-y,1/2+z
1/2+x,1/2+y,z
1/2-x,1/2+y,1/2-z
1/2-x,1/2-y,-z
1/2+x,1/2-y,1/2+z
loop_
_atom_site_type_symbol
_atom_site_label
_atom_site_fract_x
_atom_site_fract_y
_atom_site_fract_z
Si Si1 0.114713 0.545747 0.912757
Si Si2 0.476949 0.499934 0.919340
Si Si3 0.500000 0.010712 0.750000
Si Si4 0.650314 0.881321 0.186969
Si Si5 0.853784 0.411504 0.500013
Si Si6 0.000000 0.998609 0.750000
Si Si7 0.851921 0.107432 0.316769
Si Si8 0.040374 0.249890 0.465624
O O1 0.308969 0.576740 0.916271
O O2 0.017906 0.653429 0.925309
O O3 0.972026 0.525589 0.856097
O O4 0.143162 0.431039 0.947530
O O5 0.660669 0.566979 0.953255
O O6 0.459446 0.472702 0.865736
O O7 0.469343 0.376888 0.943738
O O8 0.400452 0.099969 0.769547
O O9 0.357734 0.926096 0.707335
O O10 0.620760 0.745626 0.168875
O O11 0.856634 0.917123 0.207906
O O12 0.000000 0.500000 0.500000
O O13 0.923435 0.281813 0.494135
O O14 0.918538 0.915102 0.776568
O O15 0.250000 0.250000 0.500000
#
# Coordination Sequence:
#
# PCOD8147478 Si02
#       8
#     8   8   4   8   8   4   8   8
#     4  11  23  41  63  95 127 163 209 258 304 378
#     4  12  23  41  64  93 127 166 207 255 316 368
#     4  10  22  44  62  92 122 156 206 264 312 358
#     4  11  22  42  65  90 124 160 208 256 312 368
#     4  10  23  40  63  92 128 163 208 252 305 373
#     4  10  26  40  64  92 124 158 212 264 308 370
#     4  11  23  40  67  89 122 166 204 254 319 369
#     4  11  23  42  65  88 128 173 202 257 312 364
#
# _framework density 21.610931000000001
#
# number of rings (size 3 to 8) (size 9 to 14) (size 15 to 20)
#    0.000    1.143    5.714    1.286    4.000    0.571 
#    0.000    0.000    0.000    0.000    0.000    0.000 
#    0.000    0.000    0.000    0.000    0.000    0.000 
#
# Total GULP energy -347075.190491 kJ/mol
# GULP energy per Si atom -12395.542518 kJ/mol
# Density = 2.156174 g / cm^3
# Si number density = 21.610931 Si / 1000 Ang^3
#
#
#
# Elastic Constant Matrix: (Units=GPa)
#
#
# Indices 1 2 3 4 5 6 
#
# 1 114.4493 22.1920 42.9365 0.0000 20.7262 0.0000
# 2 22.1920 64.3365 20.0741 0.0000 1.0057 0.0000
# 3 42.9365 20.0741 118.4194 0.0000 21.5838 0.0000
# 4 0.0000 0.0000 0.0000 20.0636 0.0000 4.3506
# 5 20.7262 1.0057 21.5838 0.0000 39.8188 0.0000
# 6 0.0000 0.0000 0.0000 4.3506 0.0000 25.6235
#
#
#
# Elastic Compliance Matrix: (Units=1/GPa)
#
#
# Indices 1 2 3 4 5 6 
#
# 1 0.011099 -0.002900 -0.002766 0.000000 -0.004204 0.000000
# 2 -0.002900 0.017222 -0.002290 0.000000 0.002316 0.000000
# 3 -0.002766 -0.002290 0.010611 0.000000 -0.004254 0.000000
# 4 0.000000 0.000000 0.000000 0.051747 0.000000 -0.008786
# 5 -0.004204 0.002316 -0.004254 0.000000 0.029550 0.000000
# 6 0.000000 0.000000 0.000000 -0.008786 0.000000 0.040518
#
#
# Mechanical properties :
#
#
# Convention : Reuss Voigt Hill
#
# Bulk Modulus (GPa) = 43.44095 51.95670 47.69883
# Shear Modulus (GPa) = 27.12499 31.23471 29.17985
#
# Velocity S-wave (km/s) = 3.54665 3.80586 3.67854
# Velocity P-wave (km/s) = 6.07591 6.58839 6.33733
#
# Compressibility (1/GPa) = 0.02301975
#
# Stress axis : x y z
#
# Youngs Moduli (GPa) = 90.09858 58.06600 94.24013
#
# Poissons Ratio (x) = 0.16836 0.26071
# Poissons Ratio (y) = 0.26124 0.21582
# Poissons Ratio (z) = 0.24925 0.13298
#
# Static dielectric constant tensor:
#      x y z
#    x 4.071310 0.000000 -0.169450 
#    y 0.000000 3.702490 0.000000 
#    z -0.169450 0.000000 4.224810 
# 
# 
# High freq. dielectric constant tensor:
#      x y z
#    x 1.863030 0.000000 0.000760 
#    y 0.000000 1.826290 0.000000 
#    z 0.000760 0.000000 1.858510 
# 
# From -- ./inp_files/287985.got.cif
#   From: 2010.06.25/outbox.cif.g09.slc.cpg/sg15_144_cif.got.tgz:287985.got - 2010.06.28 07:06:18.
