data_PCOD8147701
_publ_section_title
;
Structure prediction by ZEFSAII (Michael W. Deem and Ramdas Pophale) SiO2 
 PCOD8147701
Probable space group: C 2/C
;
_chemical_formula_sum "Si O2"
_cell_formula_units_Z 52
_cell_length_a 9.870321
_cell_length_b 18.277503
_cell_length_c 15.896349
_cell_angle_alpha 90.000000
_cell_angle_beta 122.306718
_cell_angle_gamma 90.000000
_cell_volume 2423.843602
_symmetry_space_group_name_H-M "C 2/C"
_symmetry_group_IT_number 15
_symmetry_cell_setting 'monoclinic'
loop_
_space_group_symop_operation_xyz
x,y,z
-x,y,1/2-z
-x,-y,-z
x,-y,1/2+z
1/2+x,1/2+y,z
1/2-x,1/2+y,1/2-z
1/2-x,1/2-y,-z
1/2+x,1/2-y,1/2+z
loop_
_atom_site_type_symbol
_atom_site_label
_atom_site_fract_x
_atom_site_fract_y
_atom_site_fract_z
Si Si1 0.635858 0.996669 0.727835
Si Si2 0.552253 0.819996 0.957823
Si Si3 0.876571 0.062398 0.933984
Si Si4 0.654628 0.335144 0.538914
Si Si5 0.735469 0.158100 0.235272
Si Si6 0.928333 0.618209 0.583894
Si Si7 0.000000 0.738340 0.750000
O O1 0.500000 0.971598 0.750000
O O2 0.783060 0.038530 0.820251
O O3 0.560579 0.055757 0.640375
O O4 0.703373 0.927182 0.697727
O O5 0.701874 0.867660 0.971818
O O6 0.435799 0.802360 0.839453
O O7 0.638364 0.750979 0.026805
O O8 0.445163 0.858366 0.993184
O O9 0.749279 0.084624 0.963944
O O10 0.985899 0.132660 0.953012
O O11 0.000000 0.000000 0.000000
O O12 0.703865 0.350842 0.650363
O O13 0.857308 0.205406 0.220897
O O14 0.956088 0.686615 0.656509
#
# Coordination Sequence:
#
# PCOD8147701 Si02
#       7
#     8   8   8   8   8   8   4
#     4  10  22  44  70  98 138 188 224 286 357 415
#     4  11  26  42  70  99 139 181 228 292 352 419
#     4  11  22  40  73  97 134 183 232 281 347 421
#     4  11  24  44  66 102 134 181 232 286 353 412
#     4  12  25  42  68 101 142 175 235 293 347 412
#     4  11  24  47  71 102 139 187 236 286 355 423
#     4  12  24  44  74 104 134 186 238 288 340 416
#
# _framework density 21.453529
#
# number of rings (size 3 to 8) (size 9 to 14) (size 15 to 20)
#    0.000    0.923    5.385    2.308    4.308    1.846 
#    2.769    0.000    0.000    0.000    0.000    0.000 
#    0.000    0.000    0.000    0.000    0.000    0.000 
#
# Total GULP energy -322158.876312 kJ/mol
# GULP energy per Si atom -12390.726012 kJ/mol
# Density = 2.140470 g / cm^3
# Si number density = 21.453529 Si / 1000 Ang^3
#
#
#
# Elastic Constant Matrix: (Units=GPa)
#
#
# Indices 1 2 3 4 5 6 
#
# 1 124.3662 54.2873 54.7562 0.0000 24.3123 0.0000
# 2 54.2873 108.3870 33.9922 0.0000 4.8886 0.0000
# 3 54.7562 33.9922 91.6004 0.0000 22.8557 0.0000
# 4 0.0000 0.0000 0.0000 29.9073 0.0000 12.2307
# 5 24.3123 4.8886 22.8557 0.0000 35.5414 0.0000
# 6 0.0000 0.0000 0.0000 12.2307 0.0000 47.0099
#
#
#
# Elastic Compliance Matrix: (Units=1/GPa)
#
#
# Indices 1 2 3 4 5 6 
#
# 1 0.013369 -0.004943 -0.004818 0.000000 -0.005367 0.000000
# 2 -0.004943 0.012316 -0.002426 0.000000 0.003247 0.000000
# 3 -0.004818 -0.002426 0.016428 0.000000 -0.006935 0.000000
# 4 0.000000 0.000000 0.000000 0.037418 0.000000 -0.009735
# 5 -0.005367 0.003247 -0.006935 0.000000 0.035820 0.000000
# 6 0.000000 0.000000 0.000000 -0.009735 0.000000 0.023805
#
#
# Mechanical properties :
#
#
# Convention : Reuss Voigt Hill
#
# Bulk Modulus (GPa) = 56.37379 67.82501 62.09940
# Shear Modulus (GPa) = 29.50845 34.57958 32.04401
#
# Velocity S-wave (km/s) = 3.71274 4.01912 3.86897
# Velocity P-wave (km/s) = 6.68681 7.29529 6.99767
#
# Compressibility (1/GPa) = 0.01773874
#
# Stress axis : x y z
#
# Youngs Moduli (GPa) = 74.80030 81.19323 60.87268
#
# Poissons Ratio (x) = 0.40133 0.29330
# Poissons Ratio (y) = 0.36973 0.14768
# Poissons Ratio (z) = 0.36040 0.19697
#
# Static dielectric constant tensor:
#      x y z
#    x 4.862230 0.000000 0.959140 
#    y 0.000000 4.270800 0.000000 
#    z 0.959140 0.000000 4.506620 
# 
# 
# High freq. dielectric constant tensor:
#      x y z
#    x 1.838060 0.000000 0.024190 
#    y 0.000000 1.849540 0.000000 
#    z 0.024190 0.000000 1.848150 
# 
# From -- ./inp_files/191141.got.cif
#   From: 2010.06.25/outbox.cif.g09.slc.cpg/sg15_96_cif.got.tgz:191141.got - 2010.06.28 07:06:18.
