data_PCOD8147778
_publ_section_title
;
Structure prediction by ZEFSAII (Michael W. Deem and Ramdas Pophale) SiO2 
 PCOD8147778
Probable space group: C 2/C
;
_chemical_formula_sum "Si O2"
_cell_formula_units_Z 52
_cell_length_a 23.881826
_cell_length_b 13.099637
_cell_length_c 8.835007
_cell_angle_alpha 90.000000
_cell_angle_beta 115.260544
_cell_angle_gamma 90.000000
_cell_volume 2499.671969
_symmetry_space_group_name_H-M "C 2/C"
_symmetry_group_IT_number 15
_symmetry_cell_setting 'monoclinic'
loop_
_space_group_symop_operation_xyz
x,y,z
-x,y,1/2-z
-x,-y,-z
x,-y,1/2+z
1/2+x,1/2+y,z
1/2-x,1/2+y,1/2-z
1/2-x,1/2-y,-z
1/2+x,1/2-y,1/2+z
loop_
_atom_site_type_symbol
_atom_site_label
_atom_site_fract_x
_atom_site_fract_y
_atom_site_fract_z
Si Si1 0.000000 0.764090 0.750000
Si Si2 0.608547 0.588006 0.461758
Si Si3 0.998105 0.380789 0.970983
Si Si4 0.773094 0.441032 0.400492
Si Si5 0.895399 0.667109 0.140737
Si Si6 0.862147 0.891128 0.160132
Si Si7 0.243615 0.132174 0.531478
O O1 0.057251 0.838581 0.836540
O O2 0.014708 0.688074 0.631741
O O3 0.601342 0.469567 0.406856
O O4 0.608514 0.596994 0.641269
O O5 0.670896 0.620863 0.452944
O O6 0.927927 0.352793 0.839995
O O7 0.051913 0.357943 0.916636
O O8 0.000000 0.500000 0.000000
O O9 0.834803 0.401899 0.552858
O O10 0.712380 0.401080 0.419405
O O11 0.771911 0.564383 0.425655
O O12 0.773487 0.405933 0.225559
O O13 0.875303 0.783181 0.100842
O O14 0.250000 0.250000 0.500000
#
# Coordination Sequence:
#
# PCOD8147778 Si02
#       7
#     4   8   8   8   8   8   8
#     4  12  24  44  68  94 130 180 218 278 334 384
#     4  10  24  40  67  95 136 167 221 270 325 400
#     4  11  27  45  64  94 130 175 229 277 319 396
#     4  10  24  42  69 102 134 176 219 276 335 400
#     4  11  24  44  69  93 134 178 217 272 336 391
#     4  10  22  45  64 103 132 168 216 272 329 402
#     4  10  24  43  67 101 136 178 224 277 334 400
#
# _framework density 20.80273
#
# number of rings (size 3 to 8) (size 9 to 14) (size 15 to 20)
#    0.000    1.538    1.538    1.385    6.462    9.231 
#    0.000    0.000    0.000    0.000    0.000    0.000 
#    0.000    0.000    0.000    0.000    0.000    0.000 
#
# Total GULP energy -322291.466303 kJ/mol
# GULP energy per Si atom -12395.825627 kJ/mol
# Density = 2.075538 g / cm^3
# Si number density = 20.802730 Si / 1000 Ang^3
#
#
#
# Elastic Constant Matrix: (Units=GPa)
#
#
# Indices 1 2 3 4 5 6 
#
# 1 73.1997 57.4270 49.9628 0.0000 14.9933 0.0000
# 2 57.4270 187.1595 44.5340 0.0000 7.9282 0.0000
# 3 49.9628 44.5340 84.9171 0.0000 18.3916 0.0000
# 4 0.0000 0.0000 0.0000 61.2300 0.0000 13.6266
# 5 14.9933 7.9282 18.3916 0.0000 36.5591 0.0000
# 6 0.0000 0.0000 0.0000 13.6266 0.0000 47.6872
#
#
#
# Elastic Compliance Matrix: (Units=1/GPa)
#
#
# Indices 1 2 3 4 5 6 
#
# 1 0.026861 -0.005159 -0.012294 0.000000 -0.003712 0.000000
# 2 -0.005159 0.007099 -0.000912 0.000000 0.001035 0.000000
# 3 -0.012294 -0.000912 0.020597 0.000000 -0.005122 0.000000
# 4 0.000000 0.000000 0.000000 0.017441 0.000000 -0.004984
# 5 -0.003712 0.001035 -0.005122 0.000000 0.031228 0.000000
# 6 0.000000 0.000000 0.000000 -0.004984 0.000000 0.022394
#
#
# Mechanical properties :
#
#
# Convention : Reuss Voigt Hill
#
# Bulk Modulus (GPa) = 56.09587 72.12489 64.11038
# Shear Modulus (GPa) = 29.71014 41.98542 35.84778
#
# Velocity S-wave (km/s) = 3.78323 4.49738 4.15568
# Velocity P-wave (km/s) = 6.79028 7.85587 7.34244
#
# Compressibility (1/GPa) = 0.01782662
#
# Stress axis : x y z
#
# Youngs Moduli (GPa) = 37.22914 140.86209 48.54984
#
# Poissons Ratio (x) = 0.72672 0.59689
# Poissons Ratio (y) = 0.19207 0.04427
# Poissons Ratio (z) = 0.45771 0.12843
#
# Static dielectric constant tensor:
#      x y z
#    x 3.769150 0.000000 0.159010 
#    y 0.000000 4.067470 0.000000 
#    z 0.159010 0.000000 4.051270 
# 
# 
# High freq. dielectric constant tensor:
#      x y z
#    x 1.813910 0.000000 0.007530 
#    y 0.000000 1.833070 0.000000 
#    z 0.007530 0.000000 1.821820 
# 
# From -- ./inp_files/65599.got.cif
#   From: 2010.06.25/outbox.cif.g09.slc.cpg/sg15_33_cif.got.tgz:65599.got - 2010.06.28 07:06:18.
