data_PCOD8147107
_publ_section_title
;
Structure prediction by ZEFSAII (Michael W. Deem and Ramdas Pophale) SiO2 
 PCOD8147107
Probable space group: C 2/C
;
_chemical_formula_sum "Si O2"
_cell_formula_units_Z 40
_cell_length_a 11.755608
_cell_length_b 11.569132
_cell_length_c 12.331819
_cell_angle_alpha 90.000000
_cell_angle_beta 86.096035
_cell_angle_gamma 90.000000
_cell_volume 1673.262556
_symmetry_space_group_name_H-M "C 2/C"
_symmetry_group_IT_number 15
_symmetry_cell_setting 'monoclinic'
loop_
_space_group_symop_operation_xyz
x,y,z
-x,y,1/2-z
-x,-y,-z
x,-y,1/2+z
1/2+x,1/2+y,z
1/2-x,1/2+y,1/2-z
1/2-x,1/2-y,-z
1/2+x,1/2-y,1/2+z
loop_
_atom_site_type_symbol
_atom_site_label
_atom_site_fract_x
_atom_site_fract_y
_atom_site_fract_z
Si Si1 0.173518 0.122945 0.397875
Si Si2 0.529634 0.787352 0.869404
Si Si3 0.033036 0.978543 0.124892
Si Si4 0.768346 0.572045 0.164725
Si Si5 0.368107 0.867120 0.054876
O O1 0.239688 0.067390 0.293540
O O2 0.249178 0.129062 0.498753
O O3 0.129518 0.251537 0.371016
O O4 0.063699 0.044553 0.441920
O O5 0.500000 0.829294 0.750000
O O6 0.478602 0.659494 0.891633
O O7 0.668194 0.806003 0.871440
O O8 0.471989 0.869742 0.963223
O O9 0.000000 0.008509 0.250000
O O10 0.156725 0.040386 0.101014
O O11 0.866713 0.475461 0.136603
#
# Coordination Sequence:
#
# PCOD8147107 Si02
#       5
#     8   8   8   8   8
#     4  10  22  42  70  98 138 176 227 287 338 413
#     4  11  22  43  69  98 140 182 223 280 343 410
#     4   9  21  40  68  98 133 179 227 277 338 403
#     4  11  23  41  70 102 135 178 229 277 343 411
#     4  11  23  40  69  99 132 183 224 276 351 409
#
# _framework density 23.905391999999999
#
# number of rings (size 3 to 8) (size 9 to 14) (size 15 to 20)
#    0.000    1.600    2.000    3.000    5.600    3.200 
#    0.000    9.000    0.000    0.000    0.000    0.000 
#    0.000    0.000    0.000    0.000    0.000    0.000 
#
# Total GULP energy -247868.933382 kJ/mol
# GULP energy per Si atom -12393.446669 kJ/mol
# Density = 2.385098 g / cm^3
# Si number density = 23.905392 Si / 1000 Ang^3
#
#
#
# Elastic Constant Matrix: (Units=GPa)
#
#
# Indices 1 2 3 4 5 6 
#
# 1 163.5504 65.6485 37.9832 0.0000 -19.0094 0.0000
# 2 65.6485 90.3736 45.8613 0.0000 -10.3935 0.0000
# 3 37.9832 45.8613 104.3486 0.0000 -26.7151 0.0000
# 4 0.0000 0.0000 0.0000 32.0331 0.0000 -5.5988
# 5 -19.0094 -10.3935 -26.7151 0.0000 34.4273 0.0000
# 6 0.0000 0.0000 0.0000 -5.5988 0.0000 50.3916
#
#
#
# Elastic Compliance Matrix: (Units=1/GPa)
#
#
# Indices 1 2 3 4 5 6 
#
# 1 0.008945 -0.006300 0.000362 0.000000 0.003318 0.000000
# 2 -0.006300 0.018692 -0.006699 0.000000 -0.003033 0.000000
# 3 0.000362 -0.006699 0.014886 0.000000 0.009729 0.000000
# 4 0.000000 0.000000 0.000000 0.031836 0.000000 0.003537
# 5 0.003318 -0.003033 0.009729 0.000000 0.037513 0.000000
# 6 0.000000 0.000000 0.000000 0.003537 0.000000 0.020238
#
#
# Mechanical properties :
#
#
# Convention : Reuss Voigt Hill
#
# Bulk Modulus (GPa) = 57.96823 73.02874 65.49848
# Shear Modulus (GPa) = 30.65024 37.28905 33.96964
#
# Velocity S-wave (km/s) = 3.58459 3.95379 3.77371
# Velocity P-wave (km/s) = 6.43693 7.17347 6.81516
#
# Compressibility (1/GPa) = 0.01725083
#
# Stress axis : x y z
#
# Youngs Moduli (GPa) = 111.80049 53.49955 67.17613
#
# Poissons Ratio (x) = 0.33703 -0.02434
# Poissons Ratio (y) = 0.70431 0.44998
# Poissons Ratio (z) = -0.04052 0.35837
#
# Static dielectric constant tensor:
#      x y z
#    x 4.550660 0.000000 -0.246370 
#    y 0.000000 4.466910 0.000000 
#    z -0.246370 0.000000 4.514000 
# 
# 
# High freq. dielectric constant tensor:
#      x y z
#    x 1.952530 0.000000 -0.036630 
#    y 0.000000 1.941780 0.000000 
#    z -0.036630 0.000000 1.966020 
# 
# From -- ./inp_files/141821.got.cif
#   From: 2010.06.25/outbox.cif.g09.slc.cpg/sg15_71_cif.got.tgz:141821.got - 2010.06.28 07:06:18.
