data_PCOD8147972
_publ_section_title
;
Structure prediction by ZEFSAII (Michael W. Deem and Ramdas Pophale) SiO2 
 PCOD8147972
Probable space group: C 2/C
;
_chemical_formula_sum "Si O2"
_cell_formula_units_Z 48
_cell_length_a 9.256716
_cell_length_b 24.421922
_cell_length_c 14.591009
_cell_angle_alpha 90.000000
_cell_angle_beta 140.625016
_cell_angle_gamma 90.000000
_cell_volume 2092.572597
_symmetry_space_group_name_H-M "C 2/C"
_symmetry_group_IT_number 15
_symmetry_cell_setting 'monoclinic'
loop_
_space_group_symop_operation_xyz
x,y,z
-x,y,1/2-z
-x,-y,-z
x,-y,1/2+z
1/2+x,1/2+y,z
1/2-x,1/2+y,1/2-z
1/2-x,1/2-y,-z
1/2+x,1/2-y,1/2+z
loop_
_atom_site_type_symbol
_atom_site_label
_atom_site_fract_x
_atom_site_fract_y
_atom_site_fract_z
Si Si1 0.500000 0.568118 0.250000
Si Si2 0.013833 0.758717 0.934883
Si Si3 0.680756 0.322225 0.189672
Si Si4 0.500000 0.091057 0.750000
Si Si5 0.738043 0.140907 0.251492
Si Si6 0.179263 0.006344 0.506108
Si Si7 0.758963 0.115699 0.467044
O O1 0.297432 0.605680 0.190649
O O2 0.559327 0.527170 0.358272
O O3 0.847472 0.705020 0.847794
O O4 0.870850 0.802436 0.806585
O O5 0.250000 0.750000 0.000000
O O6 0.073938 0.776825 0.067541
O O7 0.818535 0.369778 0.207420
O O8 0.462284 0.354662 0.124005
O O9 0.377127 0.050254 0.619930
O O10 0.819164 0.114889 0.387785
O O11 0.467080 0.150205 0.121020
O O12 0.284352 0.947566 0.529702
O O13 0.000000 0.000000 0.500000
#
# Coordination Sequence:
#
# PCOD8147972 Si02
#       7
#     4   8   8   4   8   8   8
#     4  12  26  41  72 110 130 183 244 282 344 430
#     4  11  22  39  65 101 133 178 232 291 345 416
#     4  11  23  39  68  98 134 183 234 281 355 420
#     4  12  22  41  70  98 130 193 230 278 360 420
#     4  10  23  41  69  98 137 180 234 290 352 414
#     4  12  24  44  71 102 142 185 233 292 356 411
#     4  10  22  47  67  95 142 192 221 288 364 417
#
# _framework density 22.938272000000001
#
# number of rings (size 3 to 8) (size 9 to 14) (size 15 to 20)
#    0.000    1.000    5.000    2.000    2.333    1.333 
#    0.000    1.667    0.000    0.000    0.000    0.000 
#    0.000    0.000    0.000    0.000    0.000    0.000 
#
# Total GULP energy -297415.767169 kJ/mol
# GULP energy per Si atom -12392.323632 kJ/mol
# Density = 2.288606 g / cm^3
# Si number density = 22.938272 Si / 1000 Ang^3
#
#
#
# Elastic Constant Matrix: (Units=GPa)
#
#
# Indices 1 2 3 4 5 6 
#
# 1 90.5290 32.5700 43.7904 0.0000 13.1390 0.0000
# 2 32.5700 131.5813 64.3080 0.0000 18.9569 0.0000
# 3 43.7904 64.3080 127.6021 0.0000 24.1644 0.0000
# 4 0.0000 0.0000 0.0000 44.3976 0.0000 8.3165
# 5 13.1390 18.9569 24.1644 0.0000 41.0297 0.0000
# 6 0.0000 0.0000 0.0000 8.3165 0.0000 32.1415
#
#
#
# Elastic Compliance Matrix: (Units=1/GPa)
#
#
# Indices 1 2 3 4 5 6 
#
# 1 0.013529 -0.001326 -0.003680 0.000000 -0.001552 0.000000
# 2 -0.001326 0.010343 -0.004427 0.000000 -0.001747 0.000000
# 3 -0.003680 -0.004427 0.012066 0.000000 -0.003882 0.000000
# 4 0.000000 0.000000 0.000000 0.023671 0.000000 -0.006125
# 5 -0.001552 -0.001747 -0.003882 0.000000 0.027963 0.000000
# 6 0.000000 0.000000 0.000000 -0.006125 0.000000 0.032697
#
#
# Mechanical properties :
#
#
# Convention : Reuss Voigt Hill
#
# Bulk Modulus (GPa) = 58.57833 70.11657 64.34745
# Shear Modulus (GPa) = 34.52377 37.45001 35.98689
#
# Velocity S-wave (km/s) = 3.88374 4.04498 3.96518
# Velocity P-wave (km/s) = 6.76047 7.24222 7.00549
#
# Compressibility (1/GPa) = 0.01707116
#
# Stress axis : x y z
#
# Youngs Moduli (GPa) = 73.91555 96.68022 82.87675
#
# Poissons Ratio (x) = 0.12824 0.30503
# Poissons Ratio (y) = 0.09804 0.36687
# Poissons Ratio (z) = 0.27204 0.42798
#
# Static dielectric constant tensor:
#      x y z
#    x 3.682470 0.000000 0.123640 
#    y 0.000000 4.611020 0.000000 
#    z 0.123640 0.000000 4.227770 
# 
# 
# High freq. dielectric constant tensor:
#      x y z
#    x 1.883990 0.000000 0.021080 
#    y 0.000000 1.921680 0.000000 
#    z 0.021080 0.000000 1.912040 
# 
# From -- ./inp_files/139071.got.cif
#   From: 2010.06.25/outbox.cif.g09.slc.cpg/sg15_70_cif.got.tgz:139071.got - 2010.06.28 07:06:18.
