data_PCOD8147291
_publ_section_title
;
Structure prediction by ZEFSAII (Michael W. Deem and Ramdas Pophale) SiO2 
 PCOD8147291
Probable space group: C 2/C
;
_chemical_formula_sum "Si O2"
_cell_formula_units_Z 40
_cell_length_a 15.432478
_cell_length_b 9.762555
_cell_length_c 23.693224
_cell_angle_alpha 90.000000
_cell_angle_beta 31.874647
_cell_angle_gamma 90.000000
_cell_volume 1884.988676
_symmetry_space_group_name_H-M "C 2/C"
_symmetry_group_IT_number 15
_symmetry_cell_setting 'monoclinic'
loop_
_space_group_symop_operation_xyz
x,y,z
-x,y,1/2-z
-x,-y,-z
x,-y,1/2+z
1/2+x,1/2+y,z
1/2-x,1/2+y,1/2-z
1/2-x,1/2-y,-z
1/2+x,1/2-y,1/2+z
loop_
_atom_site_type_symbol
_atom_site_label
_atom_site_fract_x
_atom_site_fract_y
_atom_site_fract_z
Si Si1 0.814514 0.960765 0.105471
Si Si2 0.346546 0.241070 0.295361
Si Si3 0.810940 0.039288 0.334374
Si Si4 0.143573 0.266322 0.004631
Si Si5 0.721028 0.750978 0.248175
O O1 0.758580 0.894803 0.196097
O O2 0.726362 0.102223 0.139579
O O3 0.779620 0.852358 0.076478
O O4 0.000000 0.000000 0.000000
O O5 0.500000 0.267098 0.250000
O O6 0.248822 0.384013 0.357791
O O7 0.362199 0.225713 0.218145
O O8 0.686165 0.090312 0.451465
O O9 0.784347 0.124554 0.291607
O O10 0.000000 0.053726 0.250000
O O11 0.950526 0.255834 0.122821
O O12 0.250000 0.250000 0.000000
#
# Coordination Sequence:
#
# PCOD8147291 Si02
#       5
#     8   8   8   8   8
#     4  11  25  46  67  99 134 170 226 277 333 399
#     4  11  25  43  65  97 134 173 216 278 339 389
#     4  10  22  43  66  96 133 172 223 273 329 403
#     4  11  23  41  70  96 129 177 225 269 334 400
#     4  11  23  44  71  92 133 182 220 273 335 403
#
# _framework density 21.220286000000002
#
# number of rings (size 3 to 8) (size 9 to 14) (size 15 to 20)
#    0.000    1.200    4.000    1.200    2.800    0.800 
#    3.600    2.000    0.000    0.000    0.000    0.000 
#    0.000    0.000    0.000    0.000    0.000    0.000 
#
# Total GULP energy -247780.073304 kJ/mol
# GULP energy per Si atom -12389.003665 kJ/mol
# Density = 2.117199 g / cm^3
# Si number density = 21.220286 Si / 1000 Ang^3
#
#
#
# Elastic Constant Matrix: (Units=GPa)
#
#
# Indices 1 2 3 4 5 6 
#
# 1 148.1626 36.2213 24.2458 -0.0002 27.2204 0.0001
# 2 36.2213 163.4471 41.0707 -0.0003 16.4630 0.0000
# 3 24.2458 41.0707 98.1898 -0.0019 19.8026 0.0006
# 4 -0.0002 -0.0003 -0.0019 21.5172 0.0004 0.1114
# 5 27.2204 16.4630 19.8026 0.0004 26.2661 -0.0002
# 6 0.0001 0.0000 0.0006 0.1114 -0.0002 29.4851
#
#
#
# Elastic Compliance Matrix: (Units=1/GPa)
#
#
# Indices 1 2 3 4 5 6 
#
# 1 0.008507 -0.001062 -0.000015 0.000000 -0.008139 0.000000
# 2 -0.001062 0.007113 -0.002401 0.000000 -0.001548 0.000000
# 3 -0.000015 -0.002401 0.012838 0.000001 -0.008158 0.000000
# 4 0.000000 0.000000 0.000001 0.046475 -0.000002 -0.000176
# 5 -0.008139 -0.001548 -0.008158 -0.000002 0.053628 0.000001
# 6 0.000000 0.000000 0.000000 -0.000176 0.000001 0.033916
#
#
# Mechanical properties :
#
#
# Convention : Reuss Voigt Hill
#
# Bulk Modulus (GPa) = 46.50708 68.09724 57.30216
# Shear Modulus (GPa) = 28.31289 36.00444 32.15866
#
# Velocity S-wave (km/s) = 3.65668 4.12357 3.89712
# Velocity P-wave (km/s) = 6.30812 7.40487 6.87839
#
# Compressibility (1/GPa) = 0.02150210
#
# Stress axis : x y z
#
# Youngs Moduli (GPa) = 117.55544 140.59542 77.89632
#
# Poissons Ratio (x) = 0.14925 0.00117
# Poissons Ratio (y) = 0.12479 0.18701
# Poissons Ratio (z) = 0.00177 0.33753
#
# Static dielectric constant tensor:
#      x y z
#    x 4.267220 0.000000 0.215130 
#    y 0.000000 3.416760 0.000010 
#    z 0.215130 0.000010 3.697460 
# 
# 
# High freq. dielectric constant tensor:
#      x y z
#    x 1.849120 0.000000 0.014440 
#    y 0.000000 1.857670 0.000000 
#    z 0.014440 0.000000 1.810260 
# 
# From -- ./inp_files/276725.got.cif
#   From: 2010.06.25/outbox.cif.g09.slc.cpg/sg15_139_cif.got.tgz:276725.got - 2010.06.28 07:06:18.
