data_PCOD8147976
_publ_section_title
;
Structure prediction by ZEFSAII (Michael W. Deem and Ramdas Pophale) SiO2 
 PCOD8147976
Probable space group: C 2/C
;
_chemical_formula_sum "Si O2"
_cell_formula_units_Z 40
_cell_length_a 11.936641
_cell_length_b 7.230190
_cell_length_c 19.204083
_cell_angle_alpha 90.000000
_cell_angle_beta 94.776506
_cell_angle_gamma 90.000000
_cell_volume 1651.636702
_symmetry_space_group_name_H-M "C 2/C"
_symmetry_group_IT_number 15
_symmetry_cell_setting 'monoclinic'
loop_
_space_group_symop_operation_xyz
x,y,z
-x,y,1/2-z
-x,-y,-z
x,-y,1/2+z
1/2+x,1/2+y,z
1/2-x,1/2+y,1/2-z
1/2-x,1/2-y,-z
1/2+x,1/2-y,1/2+z
loop_
_atom_site_type_symbol
_atom_site_label
_atom_site_fract_x
_atom_site_fract_y
_atom_site_fract_z
Si Si1 0.394080 0.933933 0.213915
Si Si2 0.366484 0.157602 0.021198
Si Si3 0.565843 0.574390 0.863266
Si Si4 0.350274 0.547911 0.275403
Si Si5 0.566718 0.213821 0.932214
O O1 0.500000 0.056076 0.250000
O O2 0.379588 0.760279 0.265077
O O3 0.442981 0.862072 0.145153
O O4 0.276707 0.040841 0.201959
O O5 0.417247 0.226733 0.098830
O O6 0.353621 0.932564 0.022198
O O7 0.250000 0.250000 0.000000
O O8 0.446135 0.216911 0.962462
O O9 0.640410 0.564008 0.797151
O O10 0.434549 0.538646 0.837387
O O11 0.608660 0.425522 0.924626
#
# Coordination Sequence:
#
# PCOD8147976 Si02
#       5
#     8   8   8   8   8
#     4  11  23  43  71  99 142 174 229 291 345 414
#     4  11  26  43  71  97 138 187 235 283 342 415
#     4  10  22  47  68  98 141 180 233 284 354 411
#     4  10  23  43  67 103 136 177 226 294 349 413
#     4  10  24  46  62 102 133 178 234 279 338 413
#
# _framework density 24.218401
#
# number of rings (size 3 to 8) (size 9 to 14) (size 15 to 20)
#    0.000    1.600    4.000    0.600    8.400    2.400 
#   10.800    0.000    0.000    0.000    0.000    0.000 
#    0.000    0.000    0.000    0.000    0.000    0.000 
#
# Total GULP energy -247786.412807 kJ/mol
# GULP energy per Si atom -12389.320640 kJ/mol
# Density = 2.416328 g / cm^3
# Si number density = 24.218401 Si / 1000 Ang^3
#
#
#
# Elastic Constant Matrix: (Units=GPa)
#
#
# Indices 1 2 3 4 5 6 
#
# 1 124.3632 23.8259 42.7334 0.0000 14.1909 0.0000
# 2 23.8259 90.4374 10.2514 0.0000 2.2530 0.0000
# 3 42.7334 10.2514 64.3414 0.0000 -4.9216 0.0000
# 4 0.0000 0.0000 0.0000 28.1946 0.0000 1.9095
# 5 14.1909 2.2530 -4.9216 0.0000 35.4738 0.0000
# 6 0.0000 0.0000 0.0000 1.9095 0.0000 29.9128
#
#
#
# Elastic Compliance Matrix: (Units=1/GPa)
#
#
# Indices 1 2 3 4 5 6 
#
# 1 0.011823 -0.002071 -0.007959 0.000000 -0.005702 0.000000
# 2 -0.002071 0.011657 -0.000480 0.000000 0.000021 0.000000
# 3 -0.007959 -0.000480 0.021377 0.000000 0.006180 0.000000
# 4 0.000000 0.000000 0.000000 0.035622 0.000000 -0.002274
# 5 -0.005702 0.000021 0.006180 0.000000 0.031327 0.000000
# 6 0.000000 0.000000 0.000000 -0.002274 0.000000 0.033576
#
#
# Mechanical properties :
#
#
# Convention : Reuss Voigt Hill
#
# Bulk Modulus (GPa) = 41.95045 48.08481 45.01763
# Shear Modulus (GPa) = 28.67837 32.20498 30.44167
#
# Velocity S-wave (km/s) = 3.44489 3.65056 3.54922
# Velocity P-wave (km/s) = 5.76041 6.13731 5.95184
#
# Compressibility (1/GPa) = 0.02383765
#
# Stress axis : x y z
#
# Youngs Moduli (GPa) = 84.57995 85.78680 46.77851
#
# Poissons Ratio (x) = 0.17763 0.37230
# Poissons Ratio (y) = 0.17513 0.02247
# Poissons Ratio (z) = 0.67316 0.04121
#
# Static dielectric constant tensor:
#      x y z
#    x 4.451300 0.000000 -0.271610 
#    y 0.000000 5.221520 0.000000 
#    z -0.271610 0.000000 4.436290 
# 
# 
# High freq. dielectric constant tensor:
#      x y z
#    x 1.950920 0.000000 -0.017130 
#    y 0.000000 1.968860 0.000000 
#    z -0.017130 0.000000 1.961430 
# 
# From -- ./inp_files/195233.got.cif
#   From: 2010.06.25/outbox.cif.g09.slc.cpg/sg15_98_cif.got.tgz:195233.got - 2010.06.28 07:06:18.
