data_PCOD8147800
_publ_section_title
;
Structure prediction by ZEFSAII (Michael W. Deem and Ramdas Pophale) SiO2 
 PCOD8147800
Probable space group: C 2/C
;
_chemical_formula_sum "Si O2"
_cell_formula_units_Z 48
_cell_length_a 16.122909
_cell_length_b 26.785527
_cell_length_c 9.289434
_cell_angle_alpha 90.000000
_cell_angle_beta 146.105005
_cell_angle_gamma 90.000000
_cell_volume 2237.237861
_symmetry_space_group_name_H-M "C 2/C"
_symmetry_group_IT_number 15
_symmetry_cell_setting 'monoclinic'
loop_
_space_group_symop_operation_xyz
x,y,z
-x,y,1/2-z
-x,-y,-z
x,-y,1/2+z
1/2+x,1/2+y,z
1/2-x,1/2+y,1/2-z
1/2-x,1/2-y,-z
1/2+x,1/2-y,1/2+z
loop_
_atom_site_type_symbol
_atom_site_label
_atom_site_fract_x
_atom_site_fract_y
_atom_site_fract_z
Si Si1 0.994880 0.051641 0.572836
Si Si2 0.709900 0.199463 0.606405
Si Si3 0.000000 0.514739 0.250000
Si Si4 0.777533 0.571508 0.499453
Si Si5 0.000000 0.343500 0.250000
Si Si6 0.763543 0.587090 0.789483
Si Si7 0.446438 0.225120 0.404285
O O1 0.839467 0.075781 0.299693
O O2 0.000000 0.045351 0.750000
O O3 0.140411 0.082105 0.736147
O O4 0.000000 0.000000 0.500000
O O5 0.690003 0.144495 0.640890
O O6 0.608365 0.233937 0.566155
O O7 0.656901 0.199237 0.364973
O O8 0.877454 0.221224 0.851859
O O9 0.123001 0.478964 0.354404
O O10 0.090659 0.551762 0.485758
O O11 0.694465 0.573078 0.534238
O O12 0.871424 0.621501 0.624719
O O13 0.056144 0.309530 0.460424
#
# Coordination Sequence:
#
# PCOD8147800 Si02
#       7
#     8   8   4   8   4   8   8
#     4  12  27  46  67  97 142 185 232 287 346 413
#     4  10  23  44  71  97 139 180 239 285 362 418
#     4  11  24  38  76 100 144 180 236 279 344 398
#     4  11  25  44  66 106 140 185 232 290 342 421
#     4  11  24  42  74  98 144 170 244 287 358 418
#     4  12  24  44  72 100 140 188 234 283 346 423
#     4  10  22  45  67 101 136 180 227 302 350 424
#
# _framework density 21.455027000000001
#
# number of rings (size 3 to 8) (size 9 to 14) (size 15 to 20)
#    0.000    1.000    3.333    3.000    2.333    3.333 
#    6.000    0.000    0.000    0.000    0.000    0.000 
#    0.000    0.000    0.000    0.000    0.000    0.000 
#
# Total GULP energy -297509.918212 kJ/mol
# GULP energy per Si atom -12396.246592 kJ/mol
# Density = 2.140619 g / cm^3
# Si number density = 21.455027 Si / 1000 Ang^3
#
#
#
# Elastic Constant Matrix: (Units=GPa)
#
#
# Indices 1 2 3 4 5 6 
#
# 1 137.9423 45.8082 60.3335 0.0000 -15.0495 0.0000
# 2 45.8082 100.9446 50.3929 0.0000 -11.5499 0.0000
# 3 60.3335 50.3929 119.2311 0.0000 -10.9063 0.0000
# 4 0.0000 0.0000 0.0000 30.9871 0.0000 -1.5751
# 5 -15.0495 -11.5499 -10.9063 0.0000 42.0915 0.0000
# 6 0.0000 0.0000 0.0000 -1.5751 0.0000 18.2743
#
#
#
# Elastic Compliance Matrix: (Units=1/GPa)
#
#
# Indices 1 2 3 4 5 6 
#
# 1 0.009926 -0.002365 -0.003849 0.000000 0.001903 0.000000
# 2 -0.002365 0.013307 -0.004272 0.000000 0.001699 0.000000
# 3 -0.003849 -0.004272 0.012196 0.000000 0.000612 0.000000
# 4 0.000000 0.000000 0.000000 0.032414 0.000000 0.002794
# 5 0.001903 0.001699 0.000612 0.000000 0.025063 0.000000
# 6 0.000000 0.000000 0.000000 0.002794 0.000000 0.054962
#
#
# Mechanical properties :
#
#
# Convention : Reuss Voigt Hill
#
# Bulk Modulus (GPa) = 69.17200 74.57635 71.87417
# Shear Modulus (GPa) = 28.79217 31.70948 30.25082
#
# Velocity S-wave (km/s) = 3.66728 3.84858 3.75902
# Velocity P-wave (km/s) = 7.08818 7.38807 7.23968
#
# Compressibility (1/GPa) = 0.01445672
#
# Stress axis : x y z
#
# Youngs Moduli (GPa) = 100.74639 75.15037 81.99251
#
# Poissons Ratio (x) = 0.17774 0.31559
# Poissons Ratio (y) = 0.23828 0.35026
# Poissons Ratio (z) = 0.38778 0.32103
#
# Static dielectric constant tensor:
#      x y z
#    x 3.978330 0.000000 -0.191990 
#    y 0.000000 3.771710 0.000000 
#    z -0.191990 0.000000 3.807030 
# 
# 
# High freq. dielectric constant tensor:
#      x y z
#    x 1.853510 0.000000 -0.002790 
#    y 0.000000 1.838150 0.000000 
#    z -0.002790 0.000000 1.841560 
# 
# From -- ./inp_files/43985.got.cif
#   From: 2010.06.25/outbox.cif.g09.slc.cpg/sg15_22_cif.got.tgz:43985.got - 2010.06.28 07:06:18.
