data_PCOD8147426
_publ_section_title
;
Structure prediction by ZEFSAII (Michael W. Deem and Ramdas Pophale) SiO2 
 PCOD8147426
Probable space group: C 2/C
;
_chemical_formula_sum "Si O2"
_cell_formula_units_Z 32
_cell_length_a 8.001456
_cell_length_b 12.241801
_cell_length_c 22.802186
_cell_angle_alpha 90.000000
_cell_angle_beta 144.929282
_cell_angle_gamma 90.000000
_cell_volume 1283.354543
_symmetry_space_group_name_H-M "C 2/C"
_symmetry_group_IT_number 15
_symmetry_cell_setting 'monoclinic'
loop_
_space_group_symop_operation_xyz
x,y,z
-x,y,1/2-z
-x,-y,-z
x,-y,1/2+z
1/2+x,1/2+y,z
1/2-x,1/2+y,1/2-z
1/2-x,1/2-y,-z
1/2+x,1/2-y,1/2+z
loop_
_atom_site_type_symbol
_atom_site_label
_atom_site_fract_x
_atom_site_fract_y
_atom_site_fract_z
Si Si1 0.847785 0.960136 0.764902
Si Si2 0.191808 0.127389 0.467571
Si Si3 0.781890 0.863371 0.082661
Si Si4 0.227650 0.895268 0.554989
O O1 0.501771 0.959381 0.659951
O O2 0.000000 0.913803 0.750000
O O3 0.950703 0.881877 0.847452
O O4 0.941646 0.086503 0.803678
O O5 0.250000 0.250000 0.500000
O O6 0.500619 0.082439 0.533448
O O7 0.066730 0.070980 0.492187
O O8 0.786989 0.733395 0.083605
O O9 0.803866 0.915278 0.023562
#
# Coordination Sequence:
#
# PCOD8147426 Si02
#       4
#     8   8   8   8
#     4  12  24  42  69 103 138 177 228 283 346 404
#     4  10  22  43  71  96 134 180 225 280 339 401
#     4  10  23  46  70  97 138 183 222 289 342 401
#     4  10  23  46  70  98 137 180 232 277 341 413
#
# _framework density 24.934653999999998
#
# number of rings (size 3 to 8) (size 9 to 14) (size 15 to 20)
#    0.000    1.500    2.500    1.500    0.000    5.000 
#    4.500    2.500    0.000    0.000    0.000    0.000 
#    0.000    0.000    0.000    0.000    0.000    0.000 
#
# Total GULP energy -198426.980999 kJ/mol
# GULP energy per Si atom -12401.686312 kJ/mol
# Density = 2.487790 g / cm^3
# Si number density = 24.934654 Si / 1000 Ang^3
#
#
#
# Elastic Constant Matrix: (Units=GPa)
#
#
# Indices 1 2 3 4 5 6 
#
# 1 229.1905 80.0598 74.1272 0.0000 7.4488 0.0000
# 2 80.0598 94.2152 43.8323 0.0000 1.0866 0.0000
# 3 74.1272 43.8323 149.4150 0.0004 13.6522 0.0000
# 4 0.0000 0.0000 0.0004 48.5404 0.0001 -2.9355
# 5 7.4488 1.0866 13.6522 0.0001 49.7515 0.0000
# 6 0.0000 0.0000 0.0000 -2.9355 0.0000 45.3987
#
#
#
# Elastic Compliance Matrix: (Units=1/GPa)
#
#
# Indices 1 2 3 4 5 6 
#
# 1 0.006646 -0.004778 -0.001861 0.000000 -0.000380 0.000000
# 2 -0.004778 0.015752 -0.002344 0.000000 0.001014 0.000000
# 3 -0.001861 -0.002344 0.008486 0.000000 -0.001999 0.000000
# 4 0.000000 0.000000 0.000000 0.020682 0.000000 0.001337
# 5 -0.000380 0.001014 -0.001999 0.000000 0.020683 0.000000
# 6 0.000000 0.000000 0.000000 0.001337 0.000000 0.022114
#
#
# Mechanical properties :
#
#
# Convention : Reuss Voigt Hill
#
# Bulk Modulus (GPa) = 77.39622 96.53993 86.96808
# Shear Modulus (GPa) = 42.86874 47.05820 44.96347
#
# Velocity S-wave (km/s) = 4.15087 4.34897 4.25108
# Velocity P-wave (km/s) = 7.35391 8.00121 7.68438
#
# Compressibility (1/GPa) = 0.01292053
#
# Stress axis : x y z
#
# Youngs Moduli (GPa) = 150.45894 63.48262 117.83778
#
# Poissons Ratio (x) = 0.30329 0.21931
# Poissons Ratio (y) = 0.71882 0.27616
# Poissons Ratio (z) = 0.28002 0.14878
#
# Static dielectric constant tensor:
#      x y z
#    x 5.930400 0.000000 0.061830 
#    y 0.000000 4.727580 0.000000 
#    z 0.061830 0.000000 4.264680 
# 
# 
# High freq. dielectric constant tensor:
#      x y z
#    x 2.030360 0.000000 -0.006810 
#    y 0.000000 2.033810 0.000000 
#    z -0.006810 0.000000 1.977080 
# 
# From -- ./inp_files/76129.got.cif
#   From: 2010.06.25/outbox.cif.g09.slc.cpg/sg15_39_cif.got.tgz:76129.got - 2010.06.28 07:06:18.
