data_PCOD8147355
_publ_section_title
;
Structure prediction by ZEFSAII (Michael W. Deem and Ramdas Pophale) SiO2 
 PCOD8147355
Probable space group: C 2/C
;
_chemical_formula_sum "Si O2"
_cell_formula_units_Z 48
_cell_length_a 21.196692
_cell_length_b 8.925404
_cell_length_c 11.665719
_cell_angle_alpha 90.000000
_cell_angle_beta 77.030030
_cell_angle_gamma 90.000000
_cell_volume 2150.720153
_symmetry_space_group_name_H-M "C 2/C"
_symmetry_group_IT_number 15
_symmetry_cell_setting 'monoclinic'
loop_
_space_group_symop_operation_xyz
x,y,z
-x,y,1/2-z
-x,-y,-z
x,-y,1/2+z
1/2+x,1/2+y,z
1/2-x,1/2+y,1/2-z
1/2-x,1/2-y,-z
1/2+x,1/2-y,1/2+z
loop_
_atom_site_type_symbol
_atom_site_label
_atom_site_fract_x
_atom_site_fract_y
_atom_site_fract_z
Si Si1 0.078314 0.720179 0.334826
Si Si2 0.690660 0.887417 0.640283
Si Si3 0.500000 0.018834 0.750000
Si Si4 0.906994 0.092993 0.453254
Si Si5 0.836629 0.798730 0.569542
Si Si6 0.500000 0.541078 0.750000
Si Si7 0.869375 0.684983 0.799980
O O1 0.148667 0.664260 0.266429
O O2 0.080802 0.772380 0.463935
O O3 0.024044 0.589937 0.344108
O O4 0.061466 0.861189 0.261575
O O5 0.763646 0.839886 0.632652
O O6 0.661558 0.817136 0.536152
O O7 0.686119 0.068156 0.638583
O O8 0.439311 0.120070 0.810685
O O9 0.976704 0.055845 0.368291
O O10 0.859625 0.159727 0.373515
O O11 0.875315 0.948685 0.523945
O O12 0.868950 0.717731 0.664682
#
# Coordination Sequence:
#
# PCOD8147355 Si02
#       7
#     8   8   4   8   8   4   8
#     4  10  22  43  68  98 142 190 233 301 353 417
#     4  10  25  48  70 104 143 192 242 298 361 425
#     4   9  23  46  66 102 138 182 240 286 360 428
#     4  12  25  41  70 108 142 187 238 295 362 422
#     4  11  26  46  73 103 148 187 247 300 356 430
#     4  11  21  42  64 106 140 184 238 290 362 422
#     4  11  26  45  72 105 140 190 241 287 366 431
#
# _framework density 22.318107000000001
#
# number of rings (size 3 to 8) (size 9 to 14) (size 15 to 20)
#    0.000    1.333    1.667    2.000    7.000    4.000 
#    0.000    0.000    0.000    0.000    0.000    0.000 
#    0.000    0.000    0.000    0.000    0.000    0.000 
#
# Total GULP energy -297620.764473 kJ/mol
# GULP energy per Si atom -12400.865186 kJ/mol
# Density = 2.226731 g / cm^3
# Si number density = 22.318107 Si / 1000 Ang^3
#
#
#
# Elastic Constant Matrix: (Units=GPa)
#
#
# Indices 1 2 3 4 5 6 
#
# 1 87.6195 36.9235 50.6633 0.0000 -8.1046 0.0000
# 2 36.9235 124.2903 52.4139 0.0000 1.8206 0.0000
# 3 50.6633 52.4139 111.5646 0.0000 4.0020 0.0000
# 4 0.0000 0.0000 0.0000 50.2020 0.0000 5.6016
# 5 -8.1046 1.8206 4.0020 0.0000 32.5791 0.0000
# 6 0.0000 0.0000 0.0000 5.6016 0.0000 16.7321
#
#
#
# Elastic Compliance Matrix: (Units=1/GPa)
#
#
# Indices 1 2 3 4 5 6 
#
# 1 0.016707 -0.002197 -0.006738 0.000000 0.005107 0.000000
# 2 -0.002197 0.010322 -0.003829 0.000000 -0.000653 0.000000
# 3 -0.006738 -0.003829 0.013936 0.000000 -0.003174 0.000000
# 4 0.000000 0.000000 0.000000 0.020693 0.000000 -0.006928
# 5 0.005107 -0.000653 -0.003174 0.000000 0.032391 0.000000
# 6 0.000000 0.000000 0.000000 -0.006928 0.000000 0.062085
#
#
# Mechanical properties :
#
#
# Convention : Reuss Voigt Hill
#
# Bulk Modulus (GPa) = 64.77238 67.05288 65.91263
# Shear Modulus (GPa) = 26.76560 32.13421 29.44991
#
# Velocity S-wave (km/s) = 3.46682 3.79862 3.63650
# Velocity P-wave (km/s) = 6.71643 7.02487 6.87238
#
# Compressibility (1/GPa) = 0.01543868
#
# Stress axis : x y z
#
# Youngs Moduli (GPa) = 59.85456 96.87750 71.75699
#
# Poissons Ratio (x) = 0.21279 0.48352
# Poissons Ratio (y) = 0.13147 0.27473
# Poissons Ratio (z) = 0.40331 0.37091
#
# Static dielectric constant tensor:
#      x y z
#    x 3.879410 0.000000 0.027960 
#    y 0.000000 4.291980 0.000000 
#    z 0.027960 0.000000 3.891960 
# 
# 
# High freq. dielectric constant tensor:
#      x y z
#    x 1.867650 0.000000 0.002980 
#    y 0.000000 1.897930 0.000000 
#    z 0.002980 0.000000 1.876350 
# 
# From -- ./inp_files/116304.got.cif
#   From: 2010.06.25/outbox.cif.g09.slc.cpg/sg15_59_cif.got.tgz:116304.got - 2010.06.28 07:06:18.
