data_PCOD8147287
_publ_section_title
;
Structure prediction by ZEFSAII (Michael W. Deem and Ramdas Pophale) SiO2 
 PCOD8147287
Probable space group: C 2/C
;
_chemical_formula_sum "Si O2"
_cell_formula_units_Z 52
_cell_length_a 23.137354
_cell_length_b 10.259530
_cell_length_c 22.514281
_cell_angle_alpha 90.000000
_cell_angle_beta 154.049506
_cell_angle_gamma 90.000000
_cell_volume 2338.680970
_symmetry_space_group_name_H-M "C 2/C"
_symmetry_group_IT_number 15
_symmetry_cell_setting 'monoclinic'
loop_
_space_group_symop_operation_xyz
x,y,z
-x,y,1/2-z
-x,-y,-z
x,-y,1/2+z
1/2+x,1/2+y,z
1/2-x,1/2+y,1/2-z
1/2-x,1/2-y,-z
1/2+x,1/2-y,1/2+z
loop_
_atom_site_type_symbol
_atom_site_label
_atom_site_fract_x
_atom_site_fract_y
_atom_site_fract_z
Si Si1 0.000000 0.755009 0.750000
Si Si2 0.718647 0.328160 0.272662
Si Si3 0.823879 0.979850 0.565890
Si Si4 0.588903 0.036535 0.755262
Si Si5 0.542848 0.610480 0.906468
Si Si6 0.725539 0.529319 0.173910
Si Si7 0.843775 0.627825 0.001713
O O1 0.862078 0.834220 0.620489
O O2 0.988142 0.669551 0.799499
O O3 0.593118 0.322256 0.200983
O O4 0.693728 0.428659 0.196821
O O5 0.746306 0.178527 0.277248
O O6 0.834563 0.390067 0.421025
O O7 0.699474 0.987130 0.406917
O O8 0.959061 0.022203 0.655011
O O9 0.786940 0.067907 0.588514
O O10 0.651107 0.034732 0.747053
O O11 0.477203 0.926558 0.653353
O O12 0.597498 0.529403 0.013329
O O13 0.653621 0.716326 0.988700
#
# Coordination Sequence:
#
# PCOD8147287 Si02
#       7
#     4   8   8   8   8   8   8
#     4  12  24  42  66  96 136 166 212 258 328 394
#     4  11  23  43  65  95 129 172 227 268 321 385
#     4  11  23  41  66 100 129 169 211 265 319 387
#     4  11  23  43  65  92 134 171 208 262 326 383
#     4  10  22  43  66  95 130 168 219 269 319 384
#     4  10  24  43  66  94 129 175 220 274 323 377
#     4  11  22  41  68  94 129 170 215 262 322 384
#
# _framework density 22.234756000000001
#
# number of rings (size 3 to 8) (size 9 to 14) (size 15 to 20)
#    0.000    1.231    3.077    2.308    0.000    3.077 
#    8.308    0.000    0.000    0.000    0.000    0.000 
#    0.000    0.000    0.000    0.000    0.000    0.000 
#
# Total GULP energy -322170.807589 kJ/mol
# GULP energy per Si atom -12391.184907 kJ/mol
# Density = 2.218415 g / cm^3
# Si number density = 22.234756 Si / 1000 Ang^3
#
#
#
# Elastic Constant Matrix: (Units=GPa)
#
#
# Indices 1 2 3 4 5 6 
#
# 1 101.3636 62.2742 13.3998 0.0004 -2.0517 0.0001
# 2 62.2742 118.5115 25.9990 0.0011 -15.2074 0.0006
# 3 13.3998 25.9990 46.5360 0.0015 0.7367 0.0010
# 4 0.0004 0.0011 0.0015 36.9432 0.0007 1.7136
# 5 -2.0517 -15.2074 0.7367 0.0007 33.1712 0.0004
# 6 0.0001 0.0006 0.0010 1.7136 0.0004 51.1393
#
#
#
# Elastic Compliance Matrix: (Units=1/GPa)
#
#
# Indices 1 2 3 4 5 6 
#
# 1 0.014818 -0.008238 0.000381 0.000000 -0.002869 0.000000
# 2 -0.008238 0.014929 -0.006071 0.000000 0.006469 0.000000
# 3 0.000381 -0.006071 0.024823 -0.000001 -0.003311 0.000000
# 4 0.000000 0.000000 -0.000001 0.027111 -0.000001 -0.000908
# 5 -0.002869 0.006469 -0.003311 -0.000001 0.033009 0.000000
# 6 0.000000 0.000000 0.000000 -0.000908 0.000000 0.019585
#
#
# Mechanical properties :
#
#
# Convention : Reuss Voigt Hill
#
# Bulk Modulus (GPa) = 37.43293 52.19522 44.81408
# Shear Modulus (GPa) = 29.23371 35.23328 32.23350
#
# Velocity S-wave (km/s) = 3.62992 3.98503 3.81161
# Velocity P-wave (km/s) = 5.86858 6.68577 6.29046
#
# Compressibility (1/GPa) = 0.02671444
#
# Stress axis : x y z
#
# Youngs Moduli (GPa) = 67.48386 66.98382 40.28512
#
# Poissons Ratio (x) = 0.55184 -0.01536
# Poissons Ratio (y) = 0.55596 0.24456
# Poissons Ratio (z) = -0.02573 0.40665
#
# Static dielectric constant tensor:
#      x y z
#    x 4.071030 0.000000 0.041360 
#    y 0.000000 3.955220 0.000000 
#    z 0.041360 0.000000 4.056260 
# 
# 
# High freq. dielectric constant tensor:
#      x y z
#    x 1.869580 0.000000 0.004300 
#    y 0.000000 1.872330 0.000000 
#    z 0.004300 0.000000 1.887350 
# 
# From -- ./inp_files/252743.got.cif
#   From: 2010.06.25/outbox.cif.g09.slc.cpg/sg15_127_cif.got.tgz:252743.got - 2010.06.28 07:06:18.
