data_PCOD8147679
_publ_section_title
;
Structure prediction by ZEFSAII (Michael W. Deem and Ramdas Pophale) SiO2 
 PCOD8147679
Probable space group: C 2/C
;
_chemical_formula_sum "Si O2"
_cell_formula_units_Z 44
_cell_length_a 19.092147
_cell_length_b 14.891314
_cell_length_c 8.360119
_cell_angle_alpha 90.000000
_cell_angle_beta 56.766671
_cell_angle_gamma 90.000000
_cell_volume 1988.098873
_symmetry_space_group_name_H-M "C 2/C"
_symmetry_group_IT_number 15
_symmetry_cell_setting 'monoclinic'
loop_
_space_group_symop_operation_xyz
x,y,z
-x,y,1/2-z
-x,-y,-z
x,-y,1/2+z
1/2+x,1/2+y,z
1/2-x,1/2+y,1/2-z
1/2-x,1/2-y,-z
1/2+x,1/2-y,1/2+z
loop_
_atom_site_type_symbol
_atom_site_label
_atom_site_fract_x
_atom_site_fract_y
_atom_site_fract_z
Si Si1 0.426105 0.570348 0.741118
Si Si2 0.649322 0.943144 0.893146
Si Si3 0.908266 0.393002 0.882548
Si Si4 0.456827 0.271227 0.517615
Si Si5 0.000000 0.645550 0.750000
Si Si6 0.161367 0.080880 0.337960
O O1 0.500000 0.520353 0.750000
O O2 0.466215 0.664084 0.629870
O O3 0.389891 0.508529 0.647194
O O4 0.348788 0.590705 0.957606
O O5 0.636727 0.902427 0.733168
O O6 0.742649 0.919276 0.834400
O O7 0.584351 0.910249 0.110438
O O8 0.640372 0.051978 0.916217
O O9 0.000000 0.437016 0.750000
O O10 0.918927 0.288353 0.918137
O O11 0.490433 0.203927 0.605213
O O12 0.382556 0.331946 0.685713
#
# Coordination Sequence:
#
# PCOD8147679 Si02
#       6
#     8   8   8   8   4   8
#     4  10  22  44  70 102 137 186 219 276 351 410
#     4  12  26  44  70 101 140 184 226 289 343 406
#     4  12  22  45  69  98 133 183 236 272 337 415
#     4  11  25  43  72 100 136 183 234 280 337 419
#     4  12  26  44  68 100 136 190 230 280 348 404
#     4  11  25  44  69 106 139 180 228 285 351 398
#
# _framework density 22.131698
#
# number of rings (size 3 to 8) (size 9 to 14) (size 15 to 20)
#    0.000    0.727    2.727    6.545    3.818    1.455 
#    3.273    0.000    0.000    0.000    0.000    0.000 
#    0.000    0.000    0.000    0.000    0.000    0.000 
#
# Total GULP energy -272581.116642 kJ/mol
# GULP energy per Si atom -12390.050756 kJ/mol
# Density = 2.208133 g / cm^3
# Si number density = 22.131698 Si / 1000 Ang^3
#
#
#
# Elastic Constant Matrix: (Units=GPa)
#
#
# Indices 1 2 3 4 5 6 
#
# 1 105.6081 52.4744 49.5073 0.0000 -18.3605 0.0000
# 2 52.4744 126.8680 54.3642 0.0000 -12.1017 0.0000
# 3 49.5073 54.3642 105.2353 0.0000 -23.3521 0.0000
# 4 0.0000 0.0000 0.0000 0.0492 0.0000 14.2313
# 5 -18.3605 -12.1017 -23.3521 0.0000 48.7387 0.0000
# 6 0.0000 0.0000 0.0000 14.2313 0.0000 25.0816
#
#
#
# Elastic Compliance Matrix: (Units=1/GPa)
#
#
# Indices 1 2 3 4 5 6 
#
# 1 0.013560 -0.003691 -0.003963 0.000000 0.002293 0.000000
# 2 -0.003691 0.011128 -0.004149 0.000000 -0.000615 0.000000
# 3 -0.003963 -0.004149 0.014491 0.000000 0.004420 0.000000
# 4 0.000000 0.000000 0.000000 -0.124600 0.000000 0.070698
# 5 0.002293 -0.000615 0.004420 0.000000 0.023346 0.000000
# 6 0.000000 0.000000 0.000000 0.070698 0.000000 -0.000245
#
#
# Mechanical properties :
#
#
# Convention : Reuss Voigt Hill
#
# Bulk Modulus (GPa) = 64.21825 72.26705 68.24265
# Shear Modulus (GPa) = -149.15467 26.86492 -61.14487
#
# Velocity S-wave (km/s) = -8.21830 3.48784 -5.26191
# Velocity P-wave (km/s) = 7.80862 6.99601 2.45259
#
# Compressibility (1/GPa) = 0.01557190
#
# Stress axis : x y z
#
# Youngs Moduli (GPa) = 73.74788 89.86256 69.00823
#
# Poissons Ratio (x) = 0.33173 0.27350
# Poissons Ratio (y) = 0.27224 0.28629
# Poissons Ratio (z) = 0.29229 0.37281
#
# Static dielectric constant tensor:
#      x y z
#    x 3.891210 0.000000 0.014940 
#    y 0.000000 4.107660 0.000000 
#    z 0.014940 0.000000 4.139280 
# 
# 
# High freq. dielectric constant tensor:
#      x y z
#    x 1.854730 0.000000 -0.000450 
#    y 0.000000 1.878200 0.000000 
#    z -0.000450 0.000000 1.876180 
# 
# From -- ./inp_files/47378.got.cif
#   From: 2010.06.25/outbox.cif.g09.slc.cpg/sg15_24_cif.got.tgz:47378.got - 2010.06.28 07:06:18.
