data_PCOD8147755
_publ_section_title
;
Structure prediction by ZEFSAII (Michael W. Deem and Ramdas Pophale) SiO2 
 PCOD8147755
Probable space group: C 2/C
;
_chemical_formula_sum "Si O2"
_cell_formula_units_Z 60
_cell_length_a 7.954224
_cell_length_b 12.926834
_cell_length_c 26.962189
_cell_angle_alpha 90.000000
_cell_angle_beta 93.537306
_cell_angle_gamma 90.000000
_cell_volume 2767.049618
_symmetry_space_group_name_H-M "C 2/C"
_symmetry_group_IT_number 15
_symmetry_cell_setting 'monoclinic'
loop_
_space_group_symop_operation_xyz
x,y,z
-x,y,1/2-z
-x,-y,-z
x,-y,1/2+z
1/2+x,1/2+y,z
1/2-x,1/2+y,1/2-z
1/2-x,1/2-y,-z
1/2+x,1/2-y,1/2+z
loop_
_atom_site_type_symbol
_atom_site_label
_atom_site_fract_x
_atom_site_fract_y
_atom_site_fract_z
Si Si1 0.047859 0.982861 0.845433
Si Si2 0.130948 0.240887 0.349709
Si Si3 0.170639 0.750601 0.052190
Si Si4 0.500000 0.053683 0.750000
Si Si5 0.544196 0.945773 0.949244
Si Si6 0.589048 0.515151 0.553464
Si Si7 0.087496 0.444374 0.150454
Si Si8 0.153994 0.141167 0.717527
O O1 0.064959 0.866216 0.824774
O O2 0.211987 0.053699 0.840013
O O3 0.018972 0.971465 0.903579
O O4 0.897222 0.035888 0.812300
O O5 0.186635 0.215666 0.406791
O O6 0.300209 0.272704 0.322714
O O7 0.985034 0.327668 0.346969
O O8 0.113888 0.864765 0.065530
O O9 0.012553 0.673120 0.050888
O O10 0.250000 0.750000 0.000000
O O11 0.494924 0.993504 0.803067
O O12 0.328301 0.122283 0.750433
O O13 0.741991 0.948424 0.944831
O O14 0.457640 0.004595 0.902221
O O15 0.500000 0.000000 0.000000
O O16 0.500000 0.500000 0.500000
O O17 0.000000 0.178415 0.750000
#
# Coordination Sequence:
#
# PCOD8147755 Si02
#       8
#     8   8   8   4   8   8   8   8
#     4  12  24  45  72 106 142 185 241 294 358 431
#     4  11  24  46  70 104 142 185 237 297 357 425
#     4  12  22  41  69  97 137 183 235 293 357 427
#     4  10  22  44  74 102 146 192 230 304 356 412
#     4  12  23  42  71 100 138 191 233 292 364 424
#     4  12  25  41  66 103 143 183 235 295 355 433
#     4  11  22  43  72  98 141 186 234 295 358 419
#     4  11  23  48  72 103 147 187 242 299 360 423
#
# _framework density 21.683745999999999
#
# number of rings (size 3 to 8) (size 9 to 14) (size 15 to 20)
#    0.000    0.533    6.667    2.400    0.000    1.600 
#    6.000    0.000    0.000    0.000    0.000    0.000 
#    0.000    0.000    0.000    0.000    0.000    0.000 
#
# Total GULP energy -371860.698743 kJ/mol
# GULP energy per Si atom -12395.356625 kJ/mol
# Density = 2.163439 g / cm^3
# Si number density = 21.683746 Si / 1000 Ang^3
#
#
#
# Elastic Constant Matrix: (Units=GPa)
#
#
# Indices 1 2 3 4 5 6 
#
# 1 143.0369 59.6915 37.5203 0.0000 -12.9158 0.0000
# 2 59.6915 136.8715 29.7974 0.0000 -6.1964 0.0000
# 3 37.5203 29.7974 138.8774 0.0000 -19.1171 0.0000
# 4 0.0000 0.0000 0.0000 21.1316 0.0000 0.7911
# 5 -12.9158 -6.1964 -19.1171 0.0000 46.1682 0.0000
# 6 0.0000 0.0000 0.0000 0.7911 0.0000 47.3540
#
#
#
# Elastic Compliance Matrix: (Units=1/GPa)
#
#
# Indices 1 2 3 4 5 6 
#
# 1 0.008980 -0.003531 -0.001472 0.000000 0.001429 0.000000
# 2 -0.003531 0.009059 -0.001016 0.000000 -0.000193 0.000000
# 3 -0.001472 -0.001016 0.008209 0.000000 0.002851 0.000000
# 4 0.000000 0.000000 0.000000 0.047352 0.000000 -0.000791
# 5 0.001429 -0.000193 0.002851 0.000000 0.023214 0.000000
# 6 0.000000 0.000000 0.000000 -0.000791 0.000000 0.021131
#
#
# Mechanical properties :
#
#
# Convention : Reuss Voigt Hill
#
# Bulk Modulus (GPa) = 70.37764 74.75599 72.56682
# Shear Modulus (GPa) = 37.11435 42.38252 39.74843
#
# Velocity S-wave (km/s) = 4.14166 4.42585 4.28611
# Velocity P-wave (km/s) = 7.44298 7.78897 7.61794
#
# Compressibility (1/GPa) = 0.01420906
#
# Stress axis : x y z
#
# Youngs Moduli (GPa) = 111.36001 110.39238 121.82226
#
# Poissons Ratio (x) = 0.38981 0.17929
# Poissons Ratio (y) = 0.39323 0.12379
# Poissons Ratio (z) = 0.16390 0.11217
#
# Static dielectric constant tensor:
#      x y z
#    x 4.144970 0.000000 -0.007740 
#    y 0.000000 -3.670260 0.000000 
#    z -0.007740 0.000000 4.464540 
# 
# 
# High freq. dielectric constant tensor:
#      x y z
#    x 1.858280 0.000000 -0.002210 
#    y 0.000000 1.829750 0.000000 
#    z -0.002210 0.000000 1.883390 
# 
# From -- ./inp_files/288027.got.cif
#   From: 2010.06.25/outbox.cif.g09.slc.cpg/sg15_145_cif.got.tgz:288027.got - 2010.06.28 07:06:18.
