data_PCOD8147069
_publ_section_title
;
Structure prediction by ZEFSAII (Michael W. Deem and Ramdas Pophale) SiO2 
 PCOD8147069
Probable space group: C 2/C
;
_chemical_formula_sum "Si O2"
_cell_formula_units_Z 64
_cell_length_a 11.873722
_cell_length_b 22.405053
_cell_length_c 11.596130
_cell_angle_alpha 90.000000
_cell_angle_beta 68.878314
_cell_angle_gamma 90.000000
_cell_volume 2877.679868
_symmetry_space_group_name_H-M "C 2/C"
_symmetry_group_IT_number 15
_symmetry_cell_setting 'monoclinic'
loop_
_space_group_symop_operation_xyz
x,y,z
-x,y,1/2-z
-x,-y,-z
x,-y,1/2+z
1/2+x,1/2+y,z
1/2-x,1/2+y,1/2-z
1/2-x,1/2-y,-z
1/2+x,1/2-y,1/2+z
loop_
_atom_site_type_symbol
_atom_site_label
_atom_site_fract_x
_atom_site_fract_y
_atom_site_fract_z
Si Si1 0.233191 0.382416 0.339076
Si Si2 0.535779 0.619715 0.112148
Si Si3 0.892239 0.245063 0.463404
Si Si4 0.181017 0.926598 0.950453
Si Si5 0.752929 0.937104 0.090373
Si Si6 0.953258 0.626192 0.950510
Si Si7 0.621611 0.137393 0.263536
Si Si8 0.118018 0.227996 0.769016
O O1 0.303637 0.400369 0.427974
O O2 0.275128 0.423304 0.216816
O O3 0.266321 0.313784 0.297601
O O4 0.091790 0.392247 0.413749
O O5 0.500000 0.592360 0.250000
O O6 0.538382 0.691551 0.127296
O O7 0.451566 0.591417 0.044033
O O8 0.670859 0.604674 0.022995
O O9 0.750000 0.250000 0.500000
O O10 0.949232 0.307328 0.397933
O O11 0.919924 0.231736 0.585417
O O12 0.269743 0.901593 0.821633
O O13 0.205058 0.996455 0.950278
O O14 0.613558 0.921840 0.107912
O O15 0.885661 0.628309 0.097644
O O16 0.500000 0.113751 0.250000
O O17 0.648920 0.205334 0.213953
O O18 0.000000 0.201621 0.750000
#
# Coordination Sequence:
#
# PCOD8147069 Si02
#       8
#     8   8   8   8   8   8   8   8
#     4  12  26  44  75 105 137 191 233 292 358 420
#     4  12  27  48  74 107 139 188 234 294 358 421
#     4  11  22  43  72 105 142 182 228 293 358 417
#     4  12  29  46  74 103 137 197 237 288 351 431
#     4  12  28  50  67 103 148 183 245 293 346 424
#     4  11  24  45  73 106 145 184 234 293 357 423
#     4  10  22  45  68 106 144 178 232 292 356 421
#     4  10  22  42  70 101 146 180 226 300 352 423
#
# _framework density 22.240138999999999
#
# number of rings (size 3 to 8) (size 9 to 14) (size 15 to 20)
#    0.000    0.750    3.750    2.250    7.000    3.000 
#    0.000    0.000    0.000    0.000    0.000    0.000 
#    0.000    0.000    0.000    0.000    0.000    0.000 
#
# Total GULP energy -396866.360261 kJ/mol
# GULP energy per Si atom -12402.073758 kJ/mol
# Density = 2.218952 g / cm^3
# Si number density = 22.240139 Si / 1000 Ang^3
#
#
#
# Elastic Constant Matrix: (Units=GPa)
#
#
# Indices 1 2 3 4 5 6 
#
# 1 112.8619 19.7312 18.8617 0.0000 15.8428 0.0000
# 2 19.7312 96.2243 10.1152 0.0000 4.1166 0.0000
# 3 18.8617 10.1152 103.6387 0.0000 9.0363 0.0000
# 4 0.0000 0.0000 0.0000 17.0161 0.0000 1.9634
# 5 15.8428 4.1166 9.0363 0.0000 32.0399 0.0000
# 6 0.0000 0.0000 0.0000 1.9634 0.0000 34.4101
#
#
#
# Elastic Compliance Matrix: (Units=1/GPa)
#
#
# Indices 1 2 3 4 5 6 
#
# 1 0.009986 -0.001728 -0.001269 0.000000 -0.004358 0.000000
# 2 -0.001728 0.010836 -0.000714 0.000000 -0.000337 0.000000
# 3 -0.001269 -0.000714 0.010136 0.000000 -0.002140 0.000000
# 4 0.000000 0.000000 0.000000 0.059157 0.000000 -0.003375
# 5 -0.004358 -0.000337 -0.002140 0.000000 0.034013 0.000000
# 6 0.000000 0.000000 0.000000 -0.003375 0.000000 0.029254
#
#
# Mechanical properties :
#
#
# Convention : Reuss Voigt Hill
#
# Bulk Modulus (GPa) = 42.48557 45.57123 44.02840
# Shear Modulus (GPa) = 29.64736 34.29434 31.97085
#
# Velocity S-wave (km/s) = 3.65507 3.93109 3.79559
# Velocity P-wave (km/s) = 6.07925 6.41402 6.24888
#
# Compressibility (1/GPa) = 0.02353740
#
# Stress axis : x y z
#
# Youngs Moduli (GPa) = 100.13739 92.28380 98.65778
#
# Poissons Ratio (x) = 0.15946 0.12518
# Poissons Ratio (y) = 0.17303 0.07042
# Poissons Ratio (z) = 0.12706 0.06587
#
# Static dielectric constant tensor:
#      x y z
#    x 4.077410 0.000000 0.157230 
#    y 0.000000 4.157990 0.000000 
#    z 0.157230 0.000000 3.899280 
# 
# 
# High freq. dielectric constant tensor:
#      x y z
#    x 1.884950 0.000000 0.009140 
#    y 0.000000 1.869900 0.000000 
#    z 0.009140 0.000000 1.881910 
# 
# From -- ./inp_files/91264.got.cif
#   From: 2010.06.25/outbox.cif.g09.slc.cpg/sg15_46_cif.got.tgz:91264.got - 2010.06.28 07:06:18.
