data_PCOD8148217
_publ_section_title
;
Structure prediction by ZEFSAII (Michael W. Deem and Ramdas Pophale) SiO2 
 PCOD8148217
Probable space group: C 2/C
;
_chemical_formula_sum "Si O2"
_cell_formula_units_Z 48
_cell_length_a 12.614305
_cell_length_b 12.545397
_cell_length_c 16.661129
_cell_angle_alpha 90.000000
_cell_angle_beta 112.574057
_cell_angle_gamma 90.000000
_cell_volume 2434.638967
_symmetry_space_group_name_H-M "C 2/C"
_symmetry_group_IT_number 15
_symmetry_cell_setting 'monoclinic'
loop_
_space_group_symop_operation_xyz
x,y,z
-x,y,1/2-z
-x,-y,-z
x,-y,1/2+z
1/2+x,1/2+y,z
1/2-x,1/2+y,1/2-z
1/2-x,1/2-y,-z
1/2+x,1/2-y,1/2+z
loop_
_atom_site_type_symbol
_atom_site_label
_atom_site_fract_x
_atom_site_fract_y
_atom_site_fract_z
Si Si1 0.705699 0.799894 0.163874
Si Si2 0.616838 0.875997 0.828542
Si Si3 0.381055 0.956853 0.496216
Si Si4 0.702466 0.367818 0.996265
Si Si5 0.286642 0.549345 0.825755
Si Si6 0.468612 0.373565 0.833255
O O1 0.799222 0.722976 0.153314
O O2 0.762306 0.860011 0.254537
O O3 0.594885 0.735192 0.161115
O O4 0.671713 0.880700 0.085226
O O5 0.500000 0.848053 0.750000
O O6 0.593970 0.892729 0.915523
O O7 0.671457 0.980306 0.803432
O O8 0.500000 0.000000 0.500000
O O9 0.293978 0.053072 0.484220
O O10 0.679231 0.392699 0.082278
O O11 0.750000 0.250000 0.000000
O O12 0.583077 0.383658 0.917396
O O13 0.391370 0.476664 0.827178
O O14 0.500000 0.367426 0.750000
#
# Coordination Sequence:
#
# PCOD8148217 Si02
#       6
#     8   8   8   8   8   8
#     4  11  23  39  61  88 118 153 196 243 291 346
#     4  10  23  40  60  86 118 154 195 240 291 347
#     4  11  23  40  62  87 119 156 195 241 292 350
#     4  11  23  40  62  89 119 156 198 243 295 351
#     4  10  23  41  60  86 120 157 196 241 294 350
#     4  11  23  40  61  88 120 156 197 244 294 350
#
# _framework density 19.715449
#
# number of rings (size 3 to 8) (size 9 to 14) (size 15 to 20)
#    0.000    1.333    0.000    5.000    0.000   10.667 
#    0.000    0.000    0.000    0.000    0.000    0.000 
#    0.000    0.000    0.000    0.000    0.000    0.000 
#
# Total GULP energy -297752.345666 kJ/mol
# GULP energy per Si atom -12406.347736 kJ/mol
# Density = 1.967058 g / cm^3
# Si number density = 19.715449 Si / 1000 Ang^3
#
#
#
# Elastic Constant Matrix: (Units=GPa)
#
#
# Indices 1 2 3 4 5 6 
#
# 1 129.3088 52.3946 84.6472 0.0000 -8.4441 0.0000
# 2 52.3946 116.8947 73.4857 0.0000 -13.4799 0.0000
# 3 84.6472 73.4857 169.2117 0.0000 -7.1873 0.0000
# 4 0.0000 0.0000 0.0000 47.0682 0.0000 0.2949
# 5 -8.4441 -13.4799 -7.1873 0.0000 39.8378 0.0000
# 6 0.0000 0.0000 0.0000 0.2949 0.0000 21.2361
#
#
#
# Elastic Compliance Matrix: (Units=1/GPa)
#
#
# Indices 1 2 3 4 5 6 
#
# 1 0.011924 -0.002082 -0.005022 0.000000 0.000917 0.000000
# 2 -0.002082 0.012519 -0.004267 0.000000 0.003025 0.000000
# 3 -0.005022 -0.004267 0.010247 0.000000 -0.000660 0.000000
# 4 0.000000 0.000000 0.000000 0.021248 0.000000 -0.000295
# 5 0.000917 0.003025 -0.000660 0.000000 0.026201 0.000000
# 6 0.000000 0.000000 0.000000 -0.000295 0.000000 0.047094
#
#
# Mechanical properties :
#
#
# Convention : Reuss Voigt Hill
#
# Bulk Modulus (GPa) = 83.69007 92.94111 88.31559
# Shear Modulus (GPa) = 32.06015 35.28760 33.67388
#
# Velocity S-wave (km/s) = 4.03692 4.23525 4.13727
# Velocity P-wave (km/s) = 8.01686 8.43564 8.22892
#
# Compressibility (1/GPa) = 0.01194885
#
# Stress axis : x y z
#
# Youngs Moduli (GPa) = 83.86210 79.87830 97.58971
#
# Poissons Ratio (x) = 0.16630 0.49009
# Poissons Ratio (y) = 0.17459 0.41640
# Poissons Ratio (z) = 0.42115 0.34083
#
# Static dielectric constant tensor:
#      x y z
#    x 3.735110 0.000000 -0.060020 
#    y 0.000000 3.623700 0.000000 
#    z -0.060020 0.000000 3.750400 
# 
# 
# High freq. dielectric constant tensor:
#      x y z
#    x 1.785160 0.000000 -0.002510 
#    y 0.000000 1.782930 0.000000 
#    z -0.002510 0.000000 1.788510 
# 
# From -- ./inp_files/144387.got.cif
#   From: 2010.06.25/outbox.cif.g09.slc.cpg/sg15_73_cif.got.tgz:144387.got - 2010.06.28 07:06:18.
