data_PCOD8148121
_publ_section_title
;
Structure prediction by ZEFSAII (Michael W. Deem and Ramdas Pophale) SiO2 
 PCOD8148121
Probable space group: C 2/C
;
_chemical_formula_sum "Si O2"
_cell_formula_units_Z 40
_cell_length_a 33.620363
_cell_length_b 10.407263
_cell_length_c 12.877137
_cell_angle_alpha 90.000000
_cell_angle_beta 158.945297
_cell_angle_gamma 90.000000
_cell_volume 1618.698802
_symmetry_space_group_name_H-M "C 2/C"
_symmetry_group_IT_number 15
_symmetry_cell_setting 'monoclinic'
loop_
_space_group_symop_operation_xyz
x,y,z
-x,y,1/2-z
-x,-y,-z
x,-y,1/2+z
1/2+x,1/2+y,z
1/2-x,1/2+y,1/2-z
1/2-x,1/2-y,-z
1/2+x,1/2-y,1/2+z
loop_
_atom_site_type_symbol
_atom_site_label
_atom_site_fract_x
_atom_site_fract_y
_atom_site_fract_z
Si Si1 0.542962 0.635871 0.137708
Si Si2 0.392505 0.223261 0.414415
Si Si3 0.870260 0.544019 0.937746
Si Si4 0.614786 0.689562 0.091166
Si Si5 0.211947 0.059258 0.728389
O O1 0.601329 0.698712 0.181592
O O2 0.624060 0.602254 0.428653
O O3 0.500000 0.500000 0.000000
O O4 0.441919 0.731410 0.924165
O O5 0.291631 0.319995 0.200377
O O6 0.339868 0.079325 0.291325
O O7 0.500000 0.226820 0.750000
O O8 0.000000 0.562825 0.250000
O O9 0.818608 0.677945 0.770536
O O10 0.828360 0.529318 0.954857
O O11 0.685669 0.568155 0.228411
O O12 0.500000 0.679678 0.750000
#
# Coordination Sequence:
#
# PCOD8148121 Si02
#       5
#     8   8   8   8   8
#     4  11  20  37  64  91 114 147 200 241 285 349
#     4   9  19  38  61  86 119 153 187 236 292 347
#     4  10  23  39  58  87 122 156 192 240 293 336
#     4  11  21  38  63  89 116 149 195 249 288 340
#     4  11  20  38  64  86 115 158 196 233 289 349
#
# _framework density 24.711206000000001
#
# number of rings (size 3 to 8) (size 9 to 14) (size 15 to 20)
#    0.000    1.600    4.000    1.800    0.000    1.600 
#    0.000    5.000    0.000    0.000    0.000    0.000 
#    0.000    0.000    0.000    0.000    0.000    0.000 
#
# Total GULP energy -247797.207033 kJ/mol
# GULP energy per Si atom -12389.860352 kJ/mol
# Density = 2.465496 g / cm^3
# Si number density = 24.711206 Si / 1000 Ang^3
#
#
#
# Elastic Constant Matrix: (Units=GPa)
#
#
# Indices 1 2 3 4 5 6 
#
# 1 184.4977 84.2249 6.4067 0.0000 41.1078 0.0000
# 2 84.2249 239.1285 3.3121 0.0000 27.2188 0.0000
# 3 6.4067 3.3121 30.6211 0.0000 21.7949 0.0000
# 4 0.0000 0.0000 0.0000 -51.8746 0.0000 -17.0729
# 5 41.1078 27.2188 21.7949 0.0000 39.2964 0.0000
# 6 0.0000 0.0000 0.0000 -17.0729 0.0000 29.9466
#
#
#
# Elastic Compliance Matrix: (Units=1/GPa)
#
#
# Indices 1 2 3 4 5 6 
#
# 1 0.008522 -0.001815 0.006384 0.000000 -0.011198 0.000000
# 2 -0.001815 0.005086 0.001628 0.000000 -0.002527 0.000000
# 3 0.006384 0.001628 0.060640 0.000000 -0.041439 0.000000
# 4 0.000000 0.000000 0.000000 -0.016232 0.000000 -0.009254
# 5 -0.011198 -0.002527 -0.041439 0.000000 0.061896 0.000000
# 6 0.000000 0.000000 0.000000 -0.009254 0.000000 0.028117
#
#
# Mechanical properties :
#
#
# Convention : Reuss Voigt Hill
#
# Bulk Modulus (GPa) = 11.54178 71.34831 41.44504
# Shear Modulus (GPa) = 30.39207 27.49391 28.94299
#
# Velocity S-wave (km/s) = 3.51078 3.33920 3.42607
# Velocity P-wave (km/s) = 4.59510 6.61835 5.69726
#
# Compressibility (1/GPa) = 0.08664177
#
# Stress axis : x y z
#
# Youngs Moduli (GPa) = 117.33892 196.60348 16.49085
#
# Poissons Ratio (x) = 0.35693 -0.10527
# Poissons Ratio (y) = 0.21303 -0.02685
# Poissons Ratio (z) = -0.74907 -0.32014
#
# Static dielectric constant tensor:
#      x y z
#    x 4.906750 0.000000 0.348570 
#    y 0.000000 6.999580 0.000000 
#    z 0.348570 0.000000 4.085710 
# 
# 
# High freq. dielectric constant tensor:
#      x y z
#    x 1.992960 0.000000 0.017200 
#    y 0.000000 2.005450 0.000000 
#    z 0.017200 0.000000 1.958350 
# 
# From -- ./inp_files/94685.got.cif
#   From: 2010.06.25/outbox.cif.g09.slc.cpg/sg15_48_cif.got.tgz:94685.got - 2010.06.28 07:06:18.
