data_PCOD8148762
_publ_section_title
;
Structure prediction by ZEFSAII (Michael W. Deem and Ramdas Pophale) SiO2 
 PCOD8148762
Probable space group: C 2/C
;
_chemical_formula_sum "Si O2"
_cell_formula_units_Z 36
_cell_length_a 5.336248
_cell_length_b 18.840826
_cell_length_c 15.313854
_cell_angle_alpha 90.000000
_cell_angle_beta 67.332522
_cell_angle_gamma 90.000000
_cell_volume 1420.717691
_symmetry_space_group_name_H-M "C 2/C"
_symmetry_group_IT_number 15
_symmetry_cell_setting 'monoclinic'
loop_
_space_group_symop_operation_xyz
x,y,z
-x,y,1/2-z
-x,-y,-z
x,-y,1/2+z
1/2+x,1/2+y,z
1/2-x,1/2+y,1/2-z
1/2-x,1/2-y,-z
1/2+x,1/2-y,1/2+z
loop_
_atom_site_type_symbol
_atom_site_label
_atom_site_fract_x
_atom_site_fract_y
_atom_site_fract_z
Si Si1 0.498235 0.170006 0.891217
Si Si2 0.608875 0.989747 0.138092
Si Si3 0.626814 0.797491 0.911167
Si Si4 0.392055 0.561543 0.359687
Si Si5 0.000000 0.242385 0.750000
O O1 0.386692 0.091622 0.891454
O O2 0.240089 0.218973 0.908719
O O3 0.742056 0.189550 0.792340
O O4 0.583698 0.182809 0.982045
O O5 0.500000 0.997751 0.250000
O O6 0.415911 0.031096 0.095249
O O7 0.913174 0.023574 0.095072
O O8 0.493254 0.796378 0.833040
O O9 0.875110 0.854151 0.879772
O O10 0.500000 0.544067 0.250000
#
# Coordination Sequence:
#
# PCOD8148762 Si02
#       5
#     8   8   8   8   4
#     4  11  26  45  71 105 141 189 245 301 364 438
#     4  10  23  42  70 105 142 192 239 292 361 428
#     4  11  26  45  71 105 141 189 245 301 364 438
#     4  10  23  42  70 105 142 192 239 292 361 428
#     4  12  24  44  76 104 144 192 242 308 366 446
#
# _framework density 25.339307000000002
#
# number of rings (size 3 to 8) (size 9 to 14) (size 15 to 20)
#    0.000    1.333    0.000    4.000   15.556    1.778 
#    0.000    0.000    0.000    0.000    0.000    0.000 
#    0.000    0.000    0.000    0.000    0.000    0.000 
#
# Total GULP energy -223167.937629 kJ/mol
# GULP energy per Si atom -12398.218757 kJ/mol
# Density = 2.528163 g / cm^3
# Si number density = 25.339307 Si / 1000 Ang^3
#
#
#
# Elastic Constant Matrix: (Units=GPa)
#
#
# Indices 1 2 3 4 5 6 
#
# 1 121.8604 53.4850 20.0249 0.0000 4.0763 0.0000
# 2 53.4850 156.6332 3.0665 0.0000 3.4801 0.0000
# 3 20.0249 3.0665 86.7353 0.0000 15.6235 0.0000
# 4 0.0000 0.0000 0.0000 -0.6971 0.0000 2.8663
# 5 4.0763 3.4801 15.6235 0.0000 21.4429 0.0000
# 6 0.0000 0.0000 0.0000 2.8663 0.0000 14.4152
#
#
#
# Elastic Compliance Matrix: (Units=1/GPa)
#
#
# Indices 1 2 3 4 5 6 
#
# 1 0.010058 -0.003396 -0.002252 0.000000 0.000280 0.000000
# 2 -0.003396 0.007555 0.000716 0.000000 -0.001102 0.000000
# 3 -0.002252 0.000716 0.013776 0.000000 -0.009725 0.000000
# 4 0.000000 0.000000 0.000000 -0.789274 0.000000 0.156936
# 5 0.000280 -0.001102 -0.009725 0.000000 0.053847 0.000000
# 6 0.000000 0.000000 0.000000 0.156936 0.000000 0.038167
#
#
# Mechanical properties :
#
#
# Convention : Reuss Voigt Hill
#
# Bulk Modulus (GPa) = 46.46576 57.59796 52.03186
# Shear Modulus (GPa) = -7.70616 26.27571 9.28478
#
# Velocity S-wave (km/s) = -1.74579 3.22367 1.91628
# Velocity P-wave (km/s) = 3.78332 6.05278 5.04726
#
# Compressibility (1/GPa) = 0.02152122
#
# Stress axis : x y z
#
# Youngs Moduli (GPa) = 99.42744 132.36980 72.59077
#
# Poissons Ratio (x) = 0.44959 0.16351
# Poissons Ratio (y) = 0.33770 -0.05194
# Poissons Ratio (z) = 0.22396 -0.09471
#
# Static dielectric constant tensor:
#      x y z
#    x 4.613760 0.000000 0.224450 
#    y 0.000000 4.430610 0.000000 
#    z 0.224450 0.000000 4.886530 
# 
# 
# High freq. dielectric constant tensor:
#      x y z
#    x 1.994940 0.000000 0.010800 
#    y 0.000000 2.016070 0.000000 
#    z 0.010800 0.000000 2.022790 
# 
# From -- ./inp_files/184188.got.cif
#   From: 2010.06.25/outbox.cif.g09.slc.cpg/sg15_93_cif.got.tgz:184188.got - 2010.06.28 07:06:18.
