data_PCOD8148657
_publ_section_title
;
Structure prediction by ZEFSAII (Michael W. Deem and Ramdas Pophale) SiO2 
 PCOD8148657
Probable space group: C 2/C
;
_chemical_formula_sum "Si O2"
_cell_formula_units_Z 40
_cell_length_a 9.961395
_cell_length_b 16.075418
_cell_length_c 14.449141
_cell_angle_alpha 90.000000
_cell_angle_beta 124.137831
_cell_angle_gamma 90.000000
_cell_volume 1915.103111
_symmetry_space_group_name_H-M "C 2/C"
_symmetry_group_IT_number 15
_symmetry_cell_setting 'monoclinic'
loop_
_space_group_symop_operation_xyz
x,y,z
-x,y,1/2-z
-x,-y,-z
x,-y,1/2+z
1/2+x,1/2+y,z
1/2-x,1/2+y,1/2-z
1/2-x,1/2-y,-z
1/2+x,1/2-y,1/2+z
loop_
_atom_site_type_symbol
_atom_site_label
_atom_site_fract_x
_atom_site_fract_y
_atom_site_fract_z
Si Si1 0.572654 0.324316 0.872812
Si Si2 0.638290 0.652553 0.738387
Si Si3 0.619756 0.922294 0.028587
Si Si4 0.943377 0.007792 0.581206
Si Si5 0.409366 0.227399 0.445962
O O1 0.500000 0.285297 0.750000
O O2 0.535490 0.421207 0.859353
O O3 0.766005 0.316999 0.946218
O O4 0.500047 0.282024 0.938786
O O5 0.500000 0.694782 0.750000
O O6 0.805868 0.623778 0.851569
O O7 0.569336 0.565362 0.680229
O O8 0.665447 0.715009 0.663617
O O9 0.761634 0.953877 0.015843
O O10 0.521369 0.845059 0.944627
O O11 0.500000 0.000000 0.000000
O O12 0.000000 0.000000 0.500000
#
# Coordination Sequence:
#
# PCOD8148657 Si02
#       5
#     8   8   8   8   8
#     4  11  22  40  66  92 130 176 218 268 333 392
#     4  10  23  42  66  93 136 174 212 273 335 390
#     4  11  23  43  67  98 134 171 223 276 327 393
#     4  11  22  43  66  93 132 177 218 266 334 398
#     4  11  23  41  65  99 128 168 224 277 324 389
#
# _framework density 20.886604999999999
#
# number of rings (size 3 to 8) (size 9 to 14) (size 15 to 20)
#    0.000    1.200    4.000    3.000    0.000    3.200 
#    3.600    3.000    0.000    0.000    0.000    0.000 
#    0.000    0.000    0.000    0.000    0.000    0.000 
#
# Total GULP energy -247821.062242 kJ/mol
# GULP energy per Si atom -12391.053112 kJ/mol
# Density = 2.083907 g / cm^3
# Si number density = 20.886605 Si / 1000 Ang^3
#
#
#
# Elastic Constant Matrix: (Units=GPa)
#
#
# Indices 1 2 3 4 5 6 
#
# 1 85.4845 43.3108 33.7970 0.0000 -7.3291 0.0000
# 2 43.3108 130.5069 36.2884 0.0000 1.8884 0.0000
# 3 33.7970 36.2884 99.8473 0.0000 -8.6057 0.0000
# 4 0.0000 0.0000 0.0000 24.2950 0.0000 -3.5406
# 5 -7.3291 1.8884 -8.6057 0.0000 37.2892 0.0000
# 6 0.0000 0.0000 0.0000 -3.5406 0.0000 30.4251
#
#
#
# Elastic Compliance Matrix: (Units=1/GPa)
#
#
# Indices 1 2 3 4 5 6 
#
# 1 0.015401 -0.004177 -0.003485 0.000000 0.002434 0.000000
# 2 -0.004177 0.009707 -0.002272 0.000000 -0.001837 0.000000
# 3 -0.003485 -0.002272 0.012215 0.000000 0.002249 0.000000
# 4 0.000000 0.000000 0.000000 0.041871 0.000000 0.004873
# 5 0.002434 -0.001837 0.002249 0.000000 0.027908 0.000000
# 6 0.000000 0.000000 0.000000 0.004873 0.000000 0.033435
#
#
# Mechanical properties :
#
#
# Convention : Reuss Voigt Hill
#
# Bulk Modulus (GPa) = 57.29512 60.29232 58.79372
# Shear Modulus (GPa) = 30.08002 31.89802 30.98902
#
# Velocity S-wave (km/s) = 3.79906 3.91218 3.85603
# Velocity P-wave (km/s) = 6.83629 7.02396 6.93076
#
# Compressibility (1/GPa) = 0.01745349
#
# Stress axis : x y z
#
# Youngs Moduli (GPa) = 64.93097 103.01701 81.86900
#
# Poissons Ratio (x) = 0.43033 0.28532
# Poissons Ratio (y) = 0.27123 0.18603
# Poissons Ratio (z) = 0.22629 0.23409
#
# Static dielectric constant tensor:
#      x y z
#    x 3.828140 0.000000 0.083770 
#    y 0.000000 3.907160 0.000000 
#    z 0.083770 0.000000 3.597420 
# 
# 
# High freq. dielectric constant tensor:
#      x y z
#    x 1.811500 0.000000 0.001780 
#    y 0.000000 1.833340 0.000000 
#    z 0.001780 0.000000 1.812920 
# 
# From -- ./inp_files/77863.got.cif
#   From: 2010.06.25/outbox.cif.g09.slc.cpg/sg15_39_cif.got.tgz:77863.got - 2010.06.28 07:06:18.
