data_PCOD8148686
_publ_section_title
;
Structure prediction by ZEFSAII (Michael W. Deem and Ramdas Pophale) SiO2 
 PCOD8148686
Probable space group: C 2/C
;
_chemical_formula_sum "Si O2"
_cell_formula_units_Z 48
_cell_length_a 27.751805
_cell_length_b 14.261014
_cell_length_c 11.700381
_cell_angle_alpha 90.000000
_cell_angle_beta 30.003796
_cell_angle_gamma 90.000000
_cell_volume 2315.589025
_symmetry_space_group_name_H-M "C 2/C"
_symmetry_group_IT_number 15
_symmetry_cell_setting 'monoclinic'
loop_
_space_group_symop_operation_xyz
x,y,z
-x,y,1/2-z
-x,-y,-z
x,-y,1/2+z
1/2+x,1/2+y,z
1/2-x,1/2+y,1/2-z
1/2-x,1/2-y,-z
1/2+x,1/2-y,1/2+z
loop_
_atom_site_type_symbol
_atom_site_label
_atom_site_fract_x
_atom_site_fract_y
_atom_site_fract_z
Si Si1 0.393606 0.582785 0.932812
Si Si2 0.736707 0.883819 0.429783
Si Si3 0.604216 0.720869 0.774194
Si Si4 0.562680 0.776324 0.227196
Si Si5 0.193615 0.108468 0.951711
Si Si6 0.236438 0.596481 0.448444
O O1 0.500000 0.551020 0.750000
O O2 0.402961 0.674052 0.835017
O O3 0.347002 0.497167 0.958141
O O4 0.327639 0.608605 0.177045
O O5 0.662362 0.817116 0.645345
O O6 0.844621 0.851482 0.243768
O O7 0.727099 0.883082 0.311751
O O8 0.713735 0.988038 0.519408
O O9 0.500113 0.751964 0.032417
O O10 0.500000 0.815653 0.250000
O O11 0.609767 0.679815 0.089829
O O12 0.642494 0.854266 0.090734
O O13 0.238460 0.141127 0.980004
#
# Coordination Sequence:
#
# PCOD8148686 Si02
#       6
#     8   8   8   8   8   8
#     4  11  24  40  68  99 133 170 222 280 333 387
#     4  10  23  42  67  91 129 181 216 270 327 394
#     4  11  23  42  65  92 132 173 226 263 329 401
#     4  12  25  40  66  99 136 176 221 273 337 400
#     4  11  22  42  66  96 133 169 226 274 336 388
#     4  11  25  43  67 101 133 173 221 283 327 395
#
# _framework density 20.729067000000001
#
# number of rings (size 3 to 8) (size 9 to 14) (size 15 to 20)
#    0.000    1.000    3.333    3.000    4.667    3.333 
#    0.000    0.833    0.000    0.000    0.000    0.000 
#    0.000    0.000    0.000    0.000    0.000    0.000 
#
# Total GULP energy -297669.304887 kJ/mol
# GULP energy per Si atom -12402.887704 kJ/mol
# Density = 2.068189 g / cm^3
# Si number density = 20.729067 Si / 1000 Ang^3
#
#
#
# Elastic Constant Matrix: (Units=GPa)
#
#
# Indices 1 2 3 4 5 6 
#
# 1 122.4007 21.4755 22.0892 0.0000 1.3412 0.0000
# 2 21.4755 85.2844 42.5647 0.0000 0.7726 0.0000
# 3 22.0892 42.5647 58.7278 0.0000 -8.3585 0.0000
# 4 0.0000 0.0000 0.0000 19.6180 0.0000 1.3996
# 5 1.3412 0.7726 -8.3585 0.0000 29.7645 0.0000
# 6 0.0000 0.0000 0.0000 1.3996 0.0000 27.5402
#
#
#
# Elastic Compliance Matrix: (Units=1/GPa)
#
#
# Indices 1 2 3 4 5 6 
#
# 1 0.008848 -0.000736 -0.002967 0.000000 -0.001213 0.000000
# 2 -0.000736 0.019000 -0.014124 0.000000 -0.004426 0.000000
# 3 -0.002967 -0.014124 0.029636 0.000000 0.008823 0.000000
# 4 0.000000 0.000000 0.000000 0.051159 0.000000 -0.002600
# 5 -0.001213 -0.004426 0.008823 0.000000 0.036244 0.000000
# 6 0.000000 0.000000 0.000000 -0.002600 0.000000 0.036443
#
#
# Mechanical properties :
#
#
# Convention : Reuss Voigt Hill
#
# Bulk Modulus (GPa) = 45.80891 48.74132 47.27512
# Shear Modulus (GPa) = 22.29546 27.40343 24.84944
#
# Velocity S-wave (km/s) = 3.28314 3.63985 3.46609
# Velocity P-wave (km/s) = 6.04308 6.42100 6.23491
#
# Compressibility (1/GPa) = 0.02182981
#
# Stress axis : x y z
#
# Youngs Moduli (GPa) = 113.02273 52.63126 33.74261
#
# Poissons Ratio (x) = 0.03875 0.10011
# Poissons Ratio (y) = 0.08321 0.47658
# Poissons Ratio (z) = 0.33533 0.74336
#
# Static dielectric constant tensor:
#      x y z
#    x 3.682660 0.000000 0.067220 
#    y 0.000000 3.714510 0.000000 
#    z 0.067220 0.000000 3.646650 
# 
# 
# High freq. dielectric constant tensor:
#      x y z
#    x 1.815200 0.000000 0.014690 
#    y 0.000000 1.817330 0.000000 
#    z 0.014690 0.000000 1.806460 
# 
# From -- ./inp_files/96380.got.cif
#   From: 2010.06.25/outbox.cif.g09.slc.cpg/sg15_49_cif.got.tgz:96380.got - 2010.06.28 07:06:18.
