data_PCOD8148129
_publ_section_title
;
Structure prediction by ZEFSAII (Michael W. Deem and Ramdas Pophale) SiO2 
 PCOD8148129
Probable space group: C 2/C
;
_chemical_formula_sum "Si O2"
_cell_formula_units_Z 40
_cell_length_a 11.620339
_cell_length_b 20.480238
_cell_length_c 8.747707
_cell_angle_alpha 90.000000
_cell_angle_beta 118.892173
_cell_angle_gamma 90.000000
_cell_volume 1822.717336
_symmetry_space_group_name_H-M "C 2/C"
_symmetry_group_IT_number 15
_symmetry_cell_setting 'monoclinic'
loop_
_space_group_symop_operation_xyz
x,y,z
-x,y,1/2-z
-x,-y,-z
x,-y,1/2+z
1/2+x,1/2+y,z
1/2-x,1/2+y,1/2-z
1/2-x,1/2-y,-z
1/2+x,1/2-y,1/2+z
loop_
_atom_site_type_symbol
_atom_site_label
_atom_site_fract_x
_atom_site_fract_y
_atom_site_fract_z
Si Si1 0.141810 0.065329 0.768778
Si Si2 0.742190 0.685114 0.306428
Si Si3 0.505073 0.219501 0.589038
Si Si4 0.144146 0.935277 0.910339
Si Si5 0.698858 0.176519 0.482282
O O1 0.134101 0.057839 0.583850
O O2 0.210552 0.132696 0.853577
O O3 0.000000 0.069524 0.750000
O O4 0.211847 0.000862 0.884603
O O5 0.600378 0.717969 0.179836
O O6 0.729506 0.627720 0.421195
O O7 0.853125 0.736382 0.443581
O O8 0.801931 0.650677 0.191721
O O9 0.500000 0.181920 0.750000
O O10 0.559673 0.176714 0.482595
O O11 0.000000 0.926235 0.750000
O O12 0.750000 0.250000 0.500000
#
# Coordination Sequence:
#
# PCOD8148129 Si02
#       5
#     8   8   8   8   8
#     4  11  22  40  64  95 129 170 219 268 324 388
#     4  11  23  41  63  94 131 173 218 268 325 387
#     4  11  23  39  61  92 130 172 216 266 322 383
#     4  11  22  39  65  95 129 172 218 271 324 386
#     4  10  23  39  60  90 126 167 210 263 320 380
#
# _framework density 21.945257000000002
#
# number of rings (size 3 to 8) (size 9 to 14) (size 15 to 20)
#    0.000    1.200    0.000    7.800    0.000   12.800 
#    0.000    1.000    0.000    0.000    0.000    0.000 
#    0.000    0.000    0.000    0.000    0.000    0.000 
#
# Total GULP energy -247769.026851 kJ/mol
# GULP energy per Si atom -12388.451343 kJ/mol
# Density = 2.189531 g / cm^3
# Si number density = 21.945257 Si / 1000 Ang^3
#
#
#
# Elastic Constant Matrix: (Units=GPa)
#
#
# Indices 1 2 3 4 5 6 
#
# 1 132.0070 51.1302 64.4741 0.0000 -24.9135 0.0000
# 2 51.1302 119.2324 52.1026 0.0000 6.4876 0.0000
# 3 64.4741 52.1026 144.3320 0.0000 -19.7734 0.0000
# 4 0.0000 0.0000 0.0000 36.8530 0.0000 -2.5423
# 5 -24.9135 6.4876 -19.7734 0.0000 51.6741 0.0000
# 6 0.0000 0.0000 0.0000 -2.5423 0.0000 25.3346
#
#
#
# Elastic Compliance Matrix: (Units=1/GPa)
#
#
# Indices 1 2 3 4 5 6 
#
# 1 0.011480 -0.003841 -0.003079 0.000000 0.004839 0.000000
# 2 -0.003841 0.011634 -0.003100 0.000000 -0.004499 0.000000
# 3 -0.003079 -0.003100 0.009786 0.000000 0.002650 0.000000
# 4 0.000000 0.000000 0.000000 0.027324 0.000000 0.002742
# 5 0.004839 -0.004499 0.002650 0.000000 0.023264 0.000000
# 6 0.000000 0.000000 0.000000 0.002742 0.000000 0.039747
#
#
# Mechanical properties :
#
#
# Convention : Reuss Voigt Hill
#
# Bulk Modulus (GPa) = 77.76142 81.22056 79.49099
# Shear Modulus (GPa) = 33.88448 37.96330 35.92389
#
# Velocity S-wave (km/s) = 3.93370 4.16373 4.05035
# Velocity P-wave (km/s) = 7.49287 7.75928 7.62724
#
# Compressibility (1/GPa) = 0.01285985
#
# Stress axis : x y z
#
# Youngs Moduli (GPa) = 87.10816 85.95815 102.18801
#
# Poissons Ratio (x) = 0.33015 0.31461
# Poissons Ratio (y) = 0.33457 0.31680
# Poissons Ratio (z) = 0.26818 0.26649
#
# Static dielectric constant tensor:
#      x y z
#    x 4.307080 0.000000 -0.713380 
#    y 0.000000 4.198980 0.000000 
#    z -0.713380 0.000000 4.199400 
# 
# 
# High freq. dielectric constant tensor:
#      x y z
#    x 1.874810 0.000000 -0.032620 
#    y 0.000000 1.835210 0.000000 
#    z -0.032620 0.000000 1.875740 
# 
# From -- ./inp_files/41075.got.cif
#   From: 2010.06.25/outbox.cif.g09.slc.cpg/sg15_21_cif.got.tgz:41075.got - 2010.06.28 07:06:18.
