data_PCOD8148741
_publ_section_title
;
Structure prediction by ZEFSAII (Michael W. Deem and Ramdas Pophale) SiO2 
 PCOD8148741
Probable space group: C 2/C
;
_chemical_formula_sum "Si O2"
_cell_formula_units_Z 64
_cell_length_a 23.658234
_cell_length_b 14.905190
_cell_length_c 17.542997
_cell_angle_alpha 90.000000
_cell_angle_beta 30.665878
_cell_angle_gamma 90.000000
_cell_volume 3155.149842
_symmetry_space_group_name_H-M "C 2/C"
_symmetry_group_IT_number 15
_symmetry_cell_setting 'monoclinic'
loop_
_space_group_symop_operation_xyz
x,y,z
-x,y,1/2-z
-x,-y,-z
x,-y,1/2+z
1/2+x,1/2+y,z
1/2-x,1/2+y,1/2-z
1/2-x,1/2-y,-z
1/2+x,1/2-y,1/2+z
loop_
_atom_site_type_symbol
_atom_site_label
_atom_site_fract_x
_atom_site_fract_y
_atom_site_fract_z
Si Si1 0.603198 0.532006 0.581520
Si Si2 0.628866 0.152583 0.101605
Si Si3 0.301899 0.038766 0.949108
Si Si4 0.485636 0.422992 0.955416
Si Si5 0.450101 0.821976 0.225873
Si Si6 0.747869 0.195569 0.119158
Si Si7 0.799813 0.182861 0.331961
Si Si8 0.363743 0.244436 0.099655
O O1 0.500000 0.569753 0.750000
O O2 0.688282 0.478056 0.536254
O O3 0.554089 0.463282 0.578102
O O4 0.662998 0.616142 0.472655
O O5 0.500000 0.172727 0.250000
O O6 0.671779 0.177716 0.135044
O O7 0.656396 0.048730 0.054274
O O8 0.687705 0.210672 0.967375
O O9 0.400027 0.076427 0.780070
O O10 0.289327 0.117440 0.025754
O O11 0.605252 0.379232 0.812436
O O12 0.500000 0.500000 0.000000
O O13 0.395813 0.347179 0.081731
O O14 0.500000 0.798965 0.250000
O O15 0.349196 0.752102 0.335297
O O16 0.535116 0.808874 0.057374
O O17 0.667658 0.197288 0.284690
O O18 0.742732 0.240592 0.331442
#
# Coordination Sequence:
#
# PCOD8148741 Si02
#       8
#     8   8   8   8   8   8   8   8
#     4  11  22  41  69  95 127 169 225 284 324 397
#     4  10  23  42  69  94 120 177 221 274 331 398
#     4  11  22  39  66  96 128 166 226 269 326 397
#     4  11  25  39  64  97 133 172 219 274 336 387
#     4  11  23  38  63  93 133 174 215 264 327 403
#     4  10  24  44  65  94 132 169 225 275 340 391
#     4  11  23  38  64  95 130 174 216 265 333 396
#     4  11  25  42  63  94 138 174 211 273 335 399
#
# _framework density 20.284298
#
# number of rings (size 3 to 8) (size 9 to 14) (size 15 to 20)
#    0.000    1.250    2.500    2.625    5.250    4.000 
#    0.000    2.500    0.000    0.000    0.000    0.000 
#    0.000    0.000    0.000    0.000    0.000    0.000 
#
# Total GULP energy -396850.179542 kJ/mol
# GULP energy per Si atom -12401.568111 kJ/mol
# Density = 2.023813 g / cm^3
# Si number density = 20.284298 Si / 1000 Ang^3
#
#
#
# Elastic Constant Matrix: (Units=GPa)
#
#
# Indices 1 2 3 4 5 6 
#
# 1 66.5081 30.4732 37.6461 0.0000 -5.1306 0.0000
# 2 30.4732 125.5568 53.0819 0.0000 -2.9255 0.0000
# 3 37.6461 53.0819 122.2250 0.0000 4.4453 0.0000
# 4 0.0000 0.0000 0.0000 38.1768 0.0000 -0.2462
# 5 -5.1306 -2.9255 4.4453 0.0000 34.4462 0.0000
# 6 0.0000 0.0000 0.0000 -0.2462 0.0000 27.1026
#
#
#
# Elastic Compliance Matrix: (Units=1/GPa)
#
#
# Indices 1 2 3 4 5 6 
#
# 1 0.019242 -0.002495 -0.004963 0.000000 0.003295 0.000000
# 2 -0.002495 0.010145 -0.003673 0.000000 0.000964 0.000000
# 3 -0.004963 -0.003673 0.011397 0.000000 -0.002522 0.000000
# 4 0.000000 0.000000 0.000000 0.026195 0.000000 0.000238
# 5 0.003295 0.000964 -0.002522 0.000000 0.029929 0.000000
# 6 0.000000 0.000000 0.000000 0.000238 0.000000 0.036899
#
#
# Mechanical properties :
#
#
# Convention : Reuss Voigt Hill
#
# Bulk Modulus (GPa) = 53.98654 61.85468 57.92061
# Shear Modulus (GPa) = 30.81783 32.81770 31.81776
#
# Velocity S-wave (km/s) = 3.90204 4.02666 3.96484
# Velocity P-wave (km/s) = 6.85376 7.22348 7.04105
#
# Compressibility (1/GPa) = 0.01852313
#
# Stress axis : x y z
#
# Youngs Moduli (GPa) = 51.96850 98.56838 87.74288
#
# Poissons Ratio (x) = 0.24595 0.43546
# Poissons Ratio (y) = 0.12968 0.32224
# Poissons Ratio (z) = 0.25792 0.36200
#
# Static dielectric constant tensor:
#      x y z
#    x 3.699750 0.000000 -0.261740 
#    y 0.000000 3.921850 0.000000 
#    z -0.261740 0.000000 3.863360 
# 
# 
# High freq. dielectric constant tensor:
#      x y z
#    x 1.789840 0.000000 -0.017480 
#    y 0.000000 1.801320 0.000000 
#    z -0.017480 0.000000 1.799900 
# 
# From -- ./inp_files/219706.got.cif
#   From: 2010.06.25/outbox.cif.g09.slc.cpg/sg15_110_cif.got.tgz:219706.got - 2010.06.28 07:06:18.
