data_PCOD8148006
_publ_section_title
;
Structure prediction by ZEFSAII (Michael W. Deem and Ramdas Pophale) SiO2 
 PCOD8148006
Probable space group: C 2/C
;
_chemical_formula_sum "Si O2"
_cell_formula_units_Z 36
_cell_length_a 12.193124
_cell_length_b 11.264263
_cell_length_c 10.549787
_cell_angle_alpha 90.000000
_cell_angle_beta 96.022604
_cell_angle_gamma 90.000000
_cell_volume 1440.979394
_symmetry_space_group_name_H-M "C 2/C"
_symmetry_group_IT_number 15
_symmetry_cell_setting 'monoclinic'
loop_
_space_group_symop_operation_xyz
x,y,z
-x,y,1/2-z
-x,-y,-z
x,-y,1/2+z
1/2+x,1/2+y,z
1/2-x,1/2+y,1/2-z
1/2-x,1/2-y,-z
1/2+x,1/2-y,1/2+z
loop_
_atom_site_type_symbol
_atom_site_label
_atom_site_fract_x
_atom_site_fract_y
_atom_site_fract_z
Si Si1 0.661740 0.415154 0.432919
Si Si2 0.500000 0.839817 0.250000
Si Si3 0.963203 0.143590 0.056475
Si Si4 0.884964 0.505106 0.409388
Si Si5 0.386855 0.253197 0.297972
O O1 0.585177 0.527355 0.378952
O O2 0.596417 0.361776 0.546478
O O3 0.785584 0.455080 0.485511
O O4 0.679662 0.319723 0.321461
O O5 0.440354 0.759169 0.137256
O O6 0.401254 0.920252 0.290745
O O7 0.903017 0.153384 0.913642
O O8 0.839729 0.631866 0.353116
O O9 0.000000 0.500000 0.500000
O O10 0.500000 0.210302 0.250000
#
# Coordination Sequence:
#
# PCOD8148006 Si02
#       5
#     8   4   8   8   8
#     4  10  26  45  78 105 143 195 245 302 365 435
#     4  12  26  44  72 110 148 190 238 300 370 438
#     4  10  24  48  72 108 145 185 258 297 360 437
#     4  12  26  48  71 110 152 192 239 301 374 439
#     4  10  22  48  71 101 148 191 240 306 359 434
#
# _framework density 24.983007000000001
#
# number of rings (size 3 to 8) (size 9 to 14) (size 15 to 20)
#    0.000    1.333    3.333    0.000   10.889    3.556 
#    0.000    0.000    0.000    0.000    0.000    0.000 
#    0.000    0.000    0.000    0.000    0.000    0.000 
#
# Total GULP energy -223040.328449 kJ/mol
# GULP energy per Si atom -12391.129358 kJ/mol
# Density = 2.492614 g / cm^3
# Si number density = 24.983007 Si / 1000 Ang^3
#
#
#
# Elastic Constant Matrix: (Units=GPa)
#
#
# Indices 1 2 3 4 5 6 
#
# 1 139.6805 32.4907 37.6513 0.0000 -10.1700 0.0000
# 2 32.4907 146.2233 40.2554 0.0000 -3.2399 0.0000
# 3 37.6513 40.2554 86.1396 0.0000 -5.1274 0.0000
# 4 0.0000 0.0000 0.0000 29.5238 0.0000 10.3273
# 5 -10.1700 -3.2399 -5.1274 0.0000 24.3421 0.0000
# 6 0.0000 0.0000 0.0000 10.3273 0.0000 11.5890
#
#
#
# Elastic Compliance Matrix: (Units=1/GPa)
#
#
# Indices 1 2 3 4 5 6 
#
# 1 0.008408 -0.000965 -0.003061 0.000000 0.002740 0.000000
# 2 -0.000965 0.007961 -0.003301 0.000000 -0.000039 0.000000
# 3 -0.003061 -0.003301 0.014570 0.000000 0.001351 0.000000
# 4 0.000000 0.000000 0.000000 0.049211 0.000000 -0.043853
# 5 0.002740 -0.000039 0.001351 0.000000 0.042505 0.000000
# 6 0.000000 0.000000 0.000000 -0.043853 0.000000 0.125367
#
#
# Mechanical properties :
#
#
# Convention : Reuss Voigt Hill
#
# Bulk Modulus (GPa) = 61.40490 65.87091 63.63790
# Shear Modulus (GPa) = 18.64938 30.53405 24.59172
#
# Velocity S-wave (km/s) = 2.73515 3.49978 3.14082
# Velocity P-wave (km/s) = 5.88275 6.53872 6.21939
#
# Compressibility (1/GPa) = 0.01628535
#
# Stress axis : x y z
#
# Youngs Moduli (GPa) = 118.93065 125.60971 68.63322
#
# Poissons Ratio (x) = 0.12119 0.21010
# Poissons Ratio (y) = 0.11475 0.22656
# Poissons Ratio (z) = 0.36408 0.41465
#
# Static dielectric constant tensor:
#      x y z
#    x 4.123630 0.000000 -0.408970 
#    y 0.000000 4.726600 0.000000 
#    z -0.408970 0.000000 4.533550 
# 
# 
# High freq. dielectric constant tensor:
#      x y z
#    x 1.968560 0.000000 -0.025580 
#    y 0.000000 2.016860 0.000000 
#    z -0.025580 0.000000 1.983300 
# 
# From -- ./inp_files/84392.got.cif
#   From: 2010.06.25/outbox.cif.g09.slc.cpg/sg15_43_cif.got.tgz:84392.got - 2010.06.28 07:06:18.
