data_PCOD8148318
_publ_section_title
;
Structure prediction by ZEFSAII (Michael W. Deem and Ramdas Pophale) SiO2 
 PCOD8148318
Probable space group: C 2/C
;
_chemical_formula_sum "Si O2"
_cell_formula_units_Z 56
_cell_length_a 15.122195
_cell_length_b 17.030879
_cell_length_c 11.339686
_cell_angle_alpha 90.000000
_cell_angle_beta 117.881777
_cell_angle_gamma 90.000000
_cell_volume 2581.446572
_symmetry_space_group_name_H-M "C 2/C"
_symmetry_group_IT_number 15
_symmetry_cell_setting 'monoclinic'
loop_
_space_group_symop_operation_xyz
x,y,z
-x,y,1/2-z
-x,-y,-z
x,-y,1/2+z
1/2+x,1/2+y,z
1/2-x,1/2+y,1/2-z
1/2-x,1/2-y,-z
1/2+x,1/2-y,1/2+z
loop_
_atom_site_type_symbol
_atom_site_label
_atom_site_fract_x
_atom_site_fract_y
_atom_site_fract_z
Si Si1 0.343335 0.117755 0.765078
Si Si2 0.813907 0.320677 0.996852
Si Si3 0.067668 0.854046 0.442777
Si Si4 0.787128 0.912751 0.774157
Si Si5 0.006748 0.694383 0.488483
Si Si6 0.076935 0.546280 0.196261
Si Si7 0.138559 0.917298 0.240121
O O1 0.347605 0.122518 0.625457
O O2 0.402531 0.188474 0.862619
O O3 0.229037 0.128460 0.734664
O O4 0.397016 0.037880 0.846720
O O5 0.909231 0.278797 0.998033
O O6 0.750000 0.250000 0.000000
O O7 0.747793 0.368352 0.863706
O O8 0.131748 0.865249 0.600651
O O9 0.038619 0.761168 0.413154
O O10 0.128451 0.885137 0.367598
O O11 0.964842 0.902265 0.392793
O O12 0.689392 0.923505 0.798836
O O13 0.837653 0.991009 0.754545
O O14 0.980957 0.609564 0.418152
O O15 0.000000 0.527182 0.250000
#
# Coordination Sequence:
#
# PCOD8148318 Si02
#       7
#     8   8   8   8   8   8   8
#     4  11  23  42  69  98 136 178 228 276 336 402
#     4  11  23  43  67 101 138 173 228 281 334 403
#     4  11  24  45  66  98 136 174 229 279 340 405
#     4  10  24  43  70  95 131 178 222 274 346 395
#     4  11  24  41  66 100 137 179 219 278 344 396
#     4  10  23  40  67  97 136 170 224 274 331 404
#     4  10  25  43  67  96 134 174 227 282 333 405
#
# _framework density 21.693263000000002
#
# number of rings (size 3 to 8) (size 9 to 14) (size 15 to 20)
#    0.000    1.429    0.000    3.857    8.000    2.857 
#    5.143    0.000    0.000    0.000    0.000    0.000 
#    0.000    0.000    0.000    0.000    0.000    0.000 
#
# Total GULP energy -346973.496963 kJ/mol
# GULP energy per Si atom -12391.910606 kJ/mol
# Density = 2.164389 g / cm^3
# Si number density = 21.693263 Si / 1000 Ang^3
#
#
#
# Elastic Constant Matrix: (Units=GPa)
#
#
# Indices 1 2 3 4 5 6 
#
# 1 130.9341 42.6750 46.4129 0.0000 2.9997 0.0000
# 2 42.6750 99.4520 50.6092 0.0000 3.7635 0.0000
# 3 46.4129 50.6092 116.3740 0.0000 17.1285 0.0000
# 4 0.0000 0.0000 0.0000 23.4794 0.0000 -4.0462
# 5 2.9997 3.7635 17.1285 0.0000 26.2482 0.0000
# 6 0.0000 0.0000 0.0000 -4.0462 0.0000 33.2624
#
#
#
# Elastic Compliance Matrix: (Units=1/GPa)
#
#
# Indices 1 2 3 4 5 6 
#
# 1 0.009473 -0.002698 -0.002768 0.000000 0.001111 0.000000
# 2 -0.002698 0.013777 -0.005166 0.000000 0.001704 0.000000
# 3 -0.002768 -0.005166 0.013041 0.000000 -0.007453 0.000000
# 4 0.000000 0.000000 0.000000 0.043503 0.000000 0.005292
# 5 0.001111 0.001704 -0.007453 0.000000 0.042590 0.000000
# 6 0.000000 0.000000 0.000000 0.005292 0.000000 0.030708
#
#
# Mechanical properties :
#
#
# Convention : Reuss Voigt Hill
#
# Bulk Modulus (GPa) = 66.55275 69.57269 68.06272
# Shear Modulus (GPa) = 27.87627 30.40221 29.13924
#
# Velocity S-wave (km/s) = 3.58861 3.74767 3.66900
# Velocity P-wave (km/s) = 6.92217 7.13214 7.02794
#
# Compressibility (1/GPa) = 0.01502567
#
# Stress axis : x y z
#
# Youngs Moduli (GPa) = 105.56800 72.58250 76.68363
#
# Poissons Ratio (x) = 0.19584 0.21226
# Poissons Ratio (y) = 0.28484 0.39617
# Poissons Ratio (z) = 0.29221 0.37499
#
# Static dielectric constant tensor:
#      x y z
#    x 4.390670 0.000000 -0.053800 
#    y 0.000000 4.412820 0.000000 
#    z -0.053800 0.000000 4.071070 
# 
# 
# High freq. dielectric constant tensor:
#      x y z
#    x 1.868190 0.000000 0.017680 
#    y 0.000000 1.856920 0.000000 
#    z 0.017680 0.000000 1.847230 
# 
# From -- ./inp_files/98850.got.cif
#   From: 2010.06.25/outbox.cif.g09.slc.cpg/sg15_50_cif.got.tgz:98850.got - 2010.06.28 07:06:18.
