data_PCOD8148737
_publ_section_title
;
Structure prediction by ZEFSAII (Michael W. Deem and Ramdas Pophale) SiO2 
 PCOD8148737
Probable space group: C 2/C
;
_chemical_formula_sum "Si O2"
_cell_formula_units_Z 64
_cell_length_a 21.777189
_cell_length_b 18.927852
_cell_length_c 16.609185
_cell_angle_alpha 90.000000
_cell_angle_beta 157.201274
_cell_angle_gamma 90.000000
_cell_volume 2652.880431
_symmetry_space_group_name_H-M "C 2/C"
_symmetry_group_IT_number 15
_symmetry_cell_setting 'monoclinic'
loop_
_space_group_symop_operation_xyz
x,y,z
-x,y,1/2-z
-x,-y,-z
x,-y,1/2+z
1/2+x,1/2+y,z
1/2-x,1/2+y,1/2-z
1/2-x,1/2-y,-z
1/2+x,1/2-y,1/2+z
loop_
_atom_site_type_symbol
_atom_site_label
_atom_site_fract_x
_atom_site_fract_y
_atom_site_fract_z
Si Si1 0.680684 0.435694 0.533155
Si Si2 0.351151 0.559635 0.710127
Si Si3 0.422643 0.665825 0.923878
Si Si4 0.396834 0.098803 0.430306
Si Si5 0.435427 0.203241 0.986629
Si Si6 0.117195 0.539667 0.821130
Si Si7 0.189222 0.672602 0.411384
Si Si8 0.198836 0.105077 0.338469
O O1 0.495461 0.447431 0.320963
O O2 0.781737 0.449970 0.736471
O O3 0.746985 0.481468 0.536215
O O4 0.711022 0.354111 0.545978
O O5 0.411735 0.589972 0.867951
O O6 0.218832 0.617929 0.520614
O O7 0.290911 0.481098 0.656829
O O8 0.254215 0.697513 0.745432
O O9 0.514232 0.716744 0.972431
O O10 0.529247 0.645106 0.132243
O O11 0.491947 0.156886 0.496537
O O12 0.527912 0.049063 0.629566
O O13 0.296439 0.136057 0.380530
O O14 0.504368 0.178863 0.157950
O O15 0.000000 0.511400 0.750000
O O16 0.205450 0.612442 0.960635
O O17 0.250000 0.750000 0.500000
#
# Coordination Sequence:
#
# PCOD8148737 Si02
#       8
#     8   8   8   8   8   8   8   8
#     4  11  23  42  69 100 147 189 237 291 365 439
#     4  12  25  42  69 105 146 196 237 293 368 439
#     4  12  26  46  72 105 145 193 249 296 369 443
#     4  10  23  45  71 101 143 186 237 301 366 428
#     4  11  27  46  75 105 144 193 245 304 371 448
#     4  10  23  42  69 103 140 184 240 303 361 423
#     4  11  24  44  67 102 147 189 237 294 362 440
#     4  11  24  46  70 104 148 191 247 301 360 435
#
# _framework density 24.124721999999998
#
# number of rings (size 3 to 8) (size 9 to 14) (size 15 to 20)
#    0.000    1.000    3.750    1.875    3.500    5.500 
#    0.000    0.625    0.000    0.000    0.000    0.000 
#    0.000    0.000    0.000    0.000    0.000    0.000 
#
# Total GULP energy -396462.441320 kJ/mol
# GULP energy per Si atom -12389.451291 kJ/mol
# Density = 2.406981 g / cm^3
# Si number density = 24.124722 Si / 1000 Ang^3
#
#
#
# Elastic Constant Matrix: (Units=GPa)
#
#
# Indices 1 2 3 4 5 6 
#
# 1 69.4866 7.8868 46.7934 0.0001 -0.8141 0.0000
# 2 7.8868 59.4172 49.0044 0.0000 -0.4964 0.0000
# 3 46.7934 49.0044 181.7386 0.0001 7.9218 0.0000
# 4 0.0001 0.0000 0.0001 40.6849 0.0001 -0.7600
# 5 -0.8141 -0.4964 7.9218 0.0001 37.6709 0.0000
# 6 0.0000 0.0000 0.0000 -0.7600 0.0000 32.5518
#
#
#
# Elastic Compliance Matrix: (Units=1/GPa)
#
#
# Indices 1 2 3 4 5 6 
#
# 1 0.017639 0.001890 -0.005116 0.000000 0.001482 0.000000
# 2 0.001890 0.021933 -0.006475 0.000000 0.001691 0.000000
# 3 -0.005116 -0.006475 0.008653 0.000000 -0.002016 0.000000
# 4 0.000000 0.000000 0.000000 0.024590 0.000000 0.000574
# 5 0.001482 0.001691 -0.002016 0.000000 0.027024 0.000000
# 6 0.000000 0.000000 0.000000 0.000574 0.000000 0.030734
#
#
# Mechanical properties :
#
#
# Convention : Reuss Voigt Hill
#
# Bulk Modulus (GPa) = 34.69145 57.55685 46.12415
# Shear Modulus (GPa) = 31.33179 35.97868 33.65524
#
# Velocity S-wave (km/s) = 3.60772 3.86600 3.73909
# Velocity P-wave (km/s) = 5.63608 6.62101 6.14830
#
# Compressibility (1/GPa) = 0.02882554
#
# Stress axis : x y z
#
# Youngs Moduli (GPa) = 56.69167 45.59274 115.56203
#
# Poissons Ratio (x) = -0.08619 0.59122
# Poissons Ratio (y) = -0.10717 0.74822
# Poissons Ratio (z) = 0.29004 0.29520
#
# Static dielectric constant tensor:
#      x y z
#    x 4.280370 0.000000 -0.321660 
#    y 0.000000 4.102860 0.000000 
#    z -0.321660 0.000000 5.057940 
# 
# 
# High freq. dielectric constant tensor:
#      x y z
#    x 1.951500 0.000000 -0.009580 
#    y 0.000000 1.925300 0.000000 
#    z -0.009580 0.000000 1.993610 
# 
# From -- ./inp_files/220310.got.cif
#   From: 2010.06.25/outbox.cif.g09.slc.cpg/sg15_111_cif.got.tgz:220310.got - 2010.06.28 07:06:18.
