data_PCOD8148849
_publ_section_title
;
Structure prediction by ZEFSAII (Michael W. Deem and Ramdas Pophale) SiO2 
 PCOD8148849
Probable space group: C 2/C
;
_chemical_formula_sum "Si O2"
_cell_formula_units_Z 52
_cell_length_a 24.994849
_cell_length_b 11.039718
_cell_length_c 15.023247
_cell_angle_alpha 90.000000
_cell_angle_beta 141.218392
_cell_angle_gamma 90.000000
_cell_volume 2596.521304
_symmetry_space_group_name_H-M "C 2/C"
_symmetry_group_IT_number 15
_symmetry_cell_setting 'monoclinic'
loop_
_space_group_symop_operation_xyz
x,y,z
-x,y,1/2-z
-x,-y,-z
x,-y,1/2+z
1/2+x,1/2+y,z
1/2-x,1/2+y,1/2-z
1/2-x,1/2-y,-z
1/2+x,1/2-y,1/2+z
loop_
_atom_site_type_symbol
_atom_site_label
_atom_site_fract_x
_atom_site_fract_y
_atom_site_fract_z
Si Si1 0.714278 0.995268 0.564481
Si Si2 0.907441 0.309802 0.171452
Si Si3 0.370541 0.220230 0.974776
Si Si4 0.851246 0.041164 0.096812
Si Si5 0.088843 0.561267 0.636645
Si Si6 0.000000 0.126126 0.750000
Si Si7 0.740874 0.445395 0.684454
O O1 0.655206 0.876212 0.479060
O O2 0.777847 0.011219 0.564872
O O3 0.768885 0.986776 0.726011
O O4 0.652188 0.111626 0.487304
O O5 0.869281 0.179243 0.145540
O O6 0.912172 0.390087 0.265287
O O7 0.000000 0.292849 0.250000
O O8 0.392317 0.172228 0.904999
O O9 0.287988 0.306776 0.862967
O O10 0.453011 0.290298 0.117316
O O11 0.934746 0.959083 0.219517
O O12 0.819699 0.032204 0.953644
O O13 0.161312 0.458391 0.720613
O O14 0.000000 0.500000 0.500000
#
# Coordination Sequence:
#
# PCOD8148849 Si02
#       7
#     8   8   8   8   8   4   8
#     4  11  24  39  71  93 123 179 216 263 332 380
#     4  12  24  42  67  95 130 171 220 271 326 380
#     4  10  24  42  64  95 132 167 216 264 329 388
#     4  11  23  45  65  95 132 171 220 267 323 394
#     4  11  24  43  65  98 130 168 220 272 322 386
#     4  10  24  44  64  94 138 168 212 274 324 394
#     4  10  23  43  64  96 131 166 218 266 323 385
#
# _framework density 20.026796000000001
#
# number of rings (size 3 to 8) (size 9 to 14) (size 15 to 20)
#    0.000    1.231    2.308    3.231    7.538    3.692 
#    2.769    2.308    0.000    0.000    0.000    0.000 
#    0.000    0.000    0.000    0.000    0.000    0.000 
#
# Total GULP energy -322532.760809 kJ/mol
# GULP energy per Si atom -12405.106185 kJ/mol
# Density = 1.998121 g / cm^3
# Si number density = 20.026796 Si / 1000 Ang^3
#
#
#
# Elastic Constant Matrix: (Units=GPa)
#
#
# Indices 1 2 3 4 5 6 
#
# 1 84.7554 36.7533 47.5751 0.0000 -0.6212 0.0000
# 2 36.7533 108.8385 51.1894 0.0000 5.5932 0.0000
# 3 47.5751 51.1894 119.5555 0.0000 2.4833 0.0000
# 4 0.0000 0.0000 0.0000 40.4450 0.0000 4.7244
# 5 -0.6212 5.5932 2.4833 0.0000 40.7848 0.0000
# 6 0.0000 0.0000 0.0000 4.7244 0.0000 31.7536
#
#
#
# Elastic Compliance Matrix: (Units=1/GPa)
#
#
# Indices 1 2 3 4 5 6 
#
# 1 0.015978 -0.003062 -0.005067 0.000000 0.000972 0.000000
# 2 -0.003062 0.012159 -0.003957 0.000000 -0.001473 0.000000
# 3 -0.005067 -0.003957 0.012080 0.000000 -0.000270 0.000000
# 4 0.000000 0.000000 0.000000 0.025162 0.000000 -0.003744
# 5 0.000972 -0.001473 -0.000270 0.000000 0.024752 0.000000
# 6 0.000000 0.000000 0.000000 -0.003744 0.000000 0.032049
#
#
# Mechanical properties :
#
#
# Convention : Reuss Voigt Hill
#
# Bulk Modulus (GPa) = 62.32576 64.90946 63.61761
# Shear Modulus (GPa) = 32.95941 34.43881 33.69911
#
# Velocity S-wave (km/s) = 4.06120 4.15135 4.10652
# Velocity P-wave (km/s) = 7.29246 7.44714 7.37021
#
# Compressibility (1/GPa) = 0.01604473
#
# Stress axis : x y z
#
# Youngs Moduli (GPa) = 62.58591 82.24588 82.77824
#
# Poissons Ratio (x) = 0.25186 0.41946
# Poissons Ratio (y) = 0.19166 0.32753
# Poissons Ratio (z) = 0.31714 0.32542
#
# Static dielectric constant tensor:
#      x y z
#    x 3.666590 0.000000 0.032330 
#    y 0.000000 3.717030 0.000000 
#    z 0.032330 0.000000 3.827470 
# 
# 
# High freq. dielectric constant tensor:
#      x y z
#    x 1.784790 0.000000 0.002720 
#    y 0.000000 1.787160 0.000000 
#    z 0.002720 0.000000 1.793070 
# 
# From -- ./inp_files/161050.got.cif
#   From: 2010.06.25/outbox.cif.g09.slc.cpg/sg15_81_cif.got.tgz:161050.got - 2010.06.28 07:06:18.
