data_PCOD8148441
_publ_section_title
;
Structure prediction by ZEFSAII (Michael W. Deem and Ramdas Pophale) SiO2 
 PCOD8148441
Probable space group: C 2/C
;
_chemical_formula_sum "Si O2"
_cell_formula_units_Z 40
_cell_length_a 10.269587
_cell_length_b 18.236358
_cell_length_c 16.281916
_cell_angle_alpha 90.000000
_cell_angle_beta 143.554990
_cell_angle_gamma 90.000000
_cell_volume 1811.424900
_symmetry_space_group_name_H-M "C 2/C"
_symmetry_group_IT_number 15
_symmetry_cell_setting 'monoclinic'
loop_
_space_group_symop_operation_xyz
x,y,z
-x,y,1/2-z
-x,-y,-z
x,-y,1/2+z
1/2+x,1/2+y,z
1/2-x,1/2+y,1/2-z
1/2-x,1/2-y,-z
1/2+x,1/2-y,1/2+z
loop_
_atom_site_type_symbol
_atom_site_label
_atom_site_fract_x
_atom_site_fract_y
_atom_site_fract_z
Si Si1 0.027507 0.212544 0.360170
Si Si2 0.542372 0.423556 0.429889
Si Si3 0.201822 0.191343 0.793218
Si Si4 0.160470 0.921574 0.667981
Si Si5 0.433391 0.072623 0.014074
O O1 0.250000 0.250000 0.500000
O O2 0.000000 0.227539 0.250000
O O3 0.823040 0.240939 0.311562
O O4 0.029678 0.125166 0.381314
O O5 0.397969 0.354528 0.331923
O O6 0.668275 0.399439 0.576266
O O7 0.380703 0.491987 0.354943
O O8 0.708891 0.447307 0.444220
O O9 0.000000 0.217139 0.750000
O O10 0.387580 0.142743 0.933129
O O11 0.387098 0.904061 0.828250
O O12 0.500000 0.000000 0.000000
#
# Coordination Sequence:
#
# PCOD8148441 Si02
#       5
#     8   8   8   8   8
#     4  12  27  44  69 102 138 181 225 278 345 405
#     4  10  23  41  65  95 129 170 226 277 335 390
#     4  10  23  45  67  95 135 178 220 282 333 407
#     4  11  24  41  64  95 132 173 218 277 335 405
#     4  11  22  39  67  95 126 169 226 275 332 393
#
# _framework density 22.082063999999999
#
# number of rings (size 3 to 8) (size 9 to 14) (size 15 to 20)
#    0.000    1.200    2.000    3.000    5.600    1.600 
#    0.000    5.000    0.000    0.000    0.000    0.000 
#    0.000    0.000    0.000    0.000    0.000    0.000 
#
# Total GULP energy -247981.642511 kJ/mol
# GULP energy per Si atom -12399.082126 kJ/mol
# Density = 2.203180 g / cm^3
# Si number density = 22.082064 Si / 1000 Ang^3
#
#
#
# Elastic Constant Matrix: (Units=GPa)
#
#
# Indices 1 2 3 4 5 6 
#
# 1 94.5351 34.2021 28.1543 0.0008 -14.0768 0.0007
# 2 34.2021 61.2318 20.8159 0.0000 -3.1452 -0.0004
# 3 28.1543 20.8159 118.5801 -0.0058 -23.1636 -0.0036
# 4 0.0008 0.0000 -0.0058 19.9358 -0.0027 8.2912
# 5 -14.0768 -3.1452 -23.1636 -0.0027 39.4504 -0.0010
# 6 0.0007 -0.0004 -0.0036 8.2912 -0.0010 37.8834
#
#
#
# Elastic Compliance Matrix: (Units=1/GPa)
#
#
# Indices 1 2 3 4 5 6 
#
# 1 0.014157 -0.007253 -0.001372 0.000000 0.003668 0.000000
# 2 -0.007253 0.021091 -0.002437 -0.000001 -0.002337 0.000000
# 3 -0.001372 -0.002437 0.010226 0.000004 0.005321 0.000000
# 4 0.000000 -0.000001 0.000004 0.055184 0.000005 -0.012078
# 5 0.003668 -0.002337 0.005321 0.000005 0.029595 0.000000
# 6 0.000000 0.000000 0.000000 -0.012078 0.000000 0.029040
#
#
# Mechanical properties :
#
#
# Convention : Reuss Voigt Hill
#
# Bulk Modulus (GPa) = 42.82475 48.96573 45.89524
# Shear Modulus (GPa) = 26.42724 32.19890 29.31307
#
# Velocity S-wave (km/s) = 3.46320 3.82271 3.64739
# Velocity P-wave (km/s) = 5.95207 6.45808 6.21023
#
# Compressibility (1/GPa) = 0.02335098
#
# Stress axis : x y z
#
# Youngs Moduli (GPa) = 70.63781 47.41367 97.79130
#
# Poissons Ratio (x) = 0.34388 0.13412
# Poissons Ratio (y) = 0.51232 0.23831
# Poissons Ratio (z) = 0.09688 0.11554
#
# Static dielectric constant tensor:
#      x y z
#    x 4.074490 0.000000 -0.280270 
#    y 0.000000 3.886280 -0.000010 
#    z -0.280270 -0.000010 4.430900 
# 
# 
# High freq. dielectric constant tensor:
#      x y z
#    x 1.870540 0.000000 -0.013430 
#    y 0.000000 1.871580 0.000000 
#    z -0.013430 0.000000 1.884340 
# 
# From -- ./inp_files/199748.got.cif
#   From: 2010.06.25/outbox.cif.g09.slc.cpg/sg15_100_cif.got.tgz:199748.got - 2010.06.28 07:06:18.
