data_PCOD8148444
_publ_section_title
;
Structure prediction by ZEFSAII (Michael W. Deem and Ramdas Pophale) SiO2 
 PCOD8148444
Probable space group: C 2/C
;
_chemical_formula_sum "Si O2"
_cell_formula_units_Z 64
_cell_length_a 29.434215
_cell_length_b 12.380320
_cell_length_c 16.346505
_cell_angle_alpha 90.000000
_cell_angle_beta 148.188435
_cell_angle_gamma 90.000000
_cell_volume 3139.964776
_symmetry_space_group_name_H-M "C 2/C"
_symmetry_group_IT_number 15
_symmetry_cell_setting 'monoclinic'
loop_
_space_group_symop_operation_xyz
x,y,z
-x,y,1/2-z
-x,-y,-z
x,-y,1/2+z
1/2+x,1/2+y,z
1/2-x,1/2+y,1/2-z
1/2-x,1/2-y,-z
1/2+x,1/2-y,1/2+z
loop_
_atom_site_type_symbol
_atom_site_label
_atom_site_fract_x
_atom_site_fract_y
_atom_site_fract_z
Si Si1 0.024436 0.374865 0.530868
Si Si2 0.744067 0.553602 0.538576
Si Si3 0.405999 0.352068 0.601859
Si Si4 0.930200 0.378497 0.087705
Si Si5 0.207519 0.317302 0.860650
Si Si6 0.219518 0.145122 0.740737
Si Si7 0.152225 0.295066 0.189861
Si Si8 0.251116 0.428540 0.640454
O O1 0.039287 0.349556 0.457462
O O2 0.106072 0.346209 0.713664
O O3 0.000000 0.500000 0.500000
O O4 0.950723 0.298720 0.458070
O O5 0.648238 0.599893 0.405931
O O6 0.743594 0.431495 0.572362
O O7 0.813290 0.630532 0.685418
O O8 0.772627 0.561244 0.489675
O O9 0.500000 0.409220 0.750000
O O10 0.417109 0.224259 0.628201
O O11 0.356511 0.365065 0.441015
O O12 0.000000 0.446908 0.250000
O O13 0.835964 0.431523 0.938374
O O14 0.214916 0.252056 0.788044
O O15 0.250000 0.250000 0.000000
O O16 0.313601 0.151125 0.841927
O O17 0.201382 0.039345 0.765852
O O18 0.187947 0.173220 0.248550
#
# Coordination Sequence:
#
# PCOD8148444 Si02
#       8
#     8   8   8   8   8   8   8   8
#     4  12  24  43  69  98 134 175 225 280 337 396
#     4  11  23  41  69  94 133 176 223 272 337 398
#     4  10  23  41  65  95 131 172 218 278 336 394
#     4  11  23  38  67  98 131 164 215 285 337 383
#     4  12  25  47  66  95 139 185 218 270 347 415
#     4  11  24  45  67  94 135 185 215 271 349 399
#     4  11  24  40  70  99 129 166 234 285 324 395
#     4  12  23  41  67  99 131 174 225 275 332 407
#
# _framework density 20.382394000000001
#
# number of rings (size 3 to 8) (size 9 to 14) (size 15 to 20)
#    0.000    0.750    6.250    1.875    8.750    0.000 
#    2.250    1.875    0.000    0.000    0.000    0.000 
#    0.000    0.000    0.000    0.000    0.000    0.000 
#
# Total GULP energy -396543.193978 kJ/mol
# GULP energy per Si atom -12391.974812 kJ/mol
# Density = 2.033600 g / cm^3
# Si number density = 20.382394 Si / 1000 Ang^3
#
#
#
# Elastic Constant Matrix: (Units=GPa)
#
#
# Indices 1 2 3 4 5 6 
#
# 1 103.7987 36.7419 41.2690 0.0000 12.7333 0.0000
# 2 36.7419 117.6472 20.8385 0.0000 5.7774 0.0000
# 3 41.2690 20.8385 100.9835 0.0000 25.9659 0.0000
# 4 0.0000 0.0000 0.0000 11.9645 0.0000 -1.2459
# 5 12.7333 5.7774 25.9659 0.0000 29.2243 0.0000
# 6 0.0000 0.0000 0.0000 -1.2459 0.0000 29.0296
#
#
#
# Elastic Compliance Matrix: (Units=1/GPa)
#
#
# Indices 1 2 3 4 5 6 
#
# 1 0.012543 -0.003119 -0.004194 0.000000 -0.001122 0.000000
# 2 -0.003119 0.009599 -0.000736 0.000000 0.000115 0.000000
# 3 -0.004194 -0.000736 0.014596 0.000000 -0.010996 0.000000
# 4 0.000000 0.000000 0.000000 0.083956 0.000000 0.003603
# 5 -0.001122 0.000115 -0.010996 0.000000 0.044454 0.000000
# 6 0.000000 0.000000 0.000000 0.003603 0.000000 0.034602
#
#
# Mechanical properties :
#
#
# Convention : Reuss Voigt Hill
#
# Bulk Modulus (GPa) = 48.44908 57.79201 53.12054
# Shear Modulus (GPa) = 22.44901 28.94901 25.69901
#
# Velocity S-wave (km/s) = 3.32232 3.77277 3.55469
# Velocity P-wave (km/s) = 6.20796 6.88432 6.55487
#
# Compressibility (1/GPa) = 0.02064023
#
# Stress axis : x y z
#
# Youngs Moduli (GPa) = 79.72393 104.17935 68.51403
#
# Poissons Ratio (x) = 0.32498 0.28733
# Poissons Ratio (y) = 0.24869 0.05040
# Poissons Ratio (z) = 0.33434 0.07663
#
# Static dielectric constant tensor:
#      x y z
#    x 3.754300 0.000000 0.107130 
#    y 0.000000 3.735320 0.000000 
#    z 0.107130 0.000000 3.894950 
# 
# 
# High freq. dielectric constant tensor:
#      x y z
#    x 1.799210 0.000000 0.000870 
#    y 0.000000 1.793860 0.000000 
#    z 0.000870 0.000000 1.799250 
# 
# From -- ./inp_files/225209.got.cif
#   From: 2010.06.25/outbox.cif.g09.slc.cpg/sg15_113_cif.got.tgz:225209.got - 2010.06.28 07:06:18.
