data_PCOD8148630
_publ_section_title
;
Structure prediction by ZEFSAII (Michael W. Deem and Ramdas Pophale) SiO2 
 PCOD8148630
Probable space group: C 2/C
;
_chemical_formula_sum "Si O2"
_cell_formula_units_Z 40
_cell_length_a 22.434041
_cell_length_b 8.170501
_cell_length_c 9.871155
_cell_angle_alpha 90.000000
_cell_angle_beta 87.268928
_cell_angle_gamma 90.000000
_cell_volume 1807.301497
_symmetry_space_group_name_H-M "C 2/C"
_symmetry_group_IT_number 15
_symmetry_cell_setting 'monoclinic'
loop_
_space_group_symop_operation_xyz
x,y,z
-x,y,1/2-z
-x,-y,-z
x,-y,1/2+z
1/2+x,1/2+y,z
1/2-x,1/2+y,1/2-z
1/2-x,1/2-y,-z
1/2+x,1/2-y,1/2+z
loop_
_atom_site_type_symbol
_atom_site_label
_atom_site_fract_x
_atom_site_fract_y
_atom_site_fract_z
Si Si1 0.435322 0.815044 0.216928
Si Si2 0.186893 0.687705 0.674860
Si Si3 0.297952 0.096598 0.124057
Si Si4 0.023319 0.825325 0.046877
Si Si5 0.580197 0.192807 0.297239
O O1 0.500000 0.742683 0.250000
O O2 0.379966 0.735057 0.306260
O O3 0.430811 0.007404 0.249363
O O4 0.430766 0.764317 0.060175
O O5 0.233751 0.834214 0.670941
O O6 0.195535 0.578200 0.538939
O O7 0.196008 0.579945 0.808767
O O8 0.350569 0.218076 0.170621
O O9 0.060332 0.824060 0.184529
O O10 0.962413 0.719960 0.068356
O O11 0.000000 0.000000 0.000000
#
# Coordination Sequence:
#
# PCOD8148630 Si02
#       5
#     8   8   8   8   8
#     4  11  22  39  71  91 129 176 225 270 329 405
#     4  10  24  42  68  97 132 175 224 274 333 389
#     4  10  23  45  65  98 130 175 225 274 328 403
#     4  11  24  40  61 102 136 168 222 281 348 385
#     4  10  23  42  65  94 130 176 226 273 326 423
#
# _framework density 22.132444
#
# number of rings (size 3 to 8) (size 9 to 14) (size 15 to 20)
#    0.000    1.600    2.000    1.800   14.000    2.400 
#    7.200    0.000    0.000    0.000    0.000    0.000 
#    0.000    0.000    0.000    0.000    0.000    0.000 
#
# Total GULP energy -247880.046290 kJ/mol
# GULP energy per Si atom -12394.002315 kJ/mol
# Density = 2.208207 g / cm^3
# Si number density = 22.132444 Si / 1000 Ang^3
#
#
#
# Elastic Constant Matrix: (Units=GPa)
#
#
# Indices 1 2 3 4 5 6 
#
# 1 169.5686 18.0883 36.3351 0.0000 -33.1737 0.0000
# 2 18.0883 42.8846 13.8644 0.0000 -1.0305 0.0000
# 3 36.3351 13.8644 81.8145 0.0000 -19.9372 0.0000
# 4 0.0000 0.0000 0.0000 30.9520 0.0000 -1.2014
# 5 -33.1737 -1.0305 -19.9372 0.0000 44.4284 0.0000
# 6 0.0000 0.0000 0.0000 -1.2014 0.0000 25.6431
#
#
#
# Elastic Compliance Matrix: (Units=1/GPa)
#
#
# Indices 1 2 3 4 5 6 
#
# 1 0.007459 -0.002470 -0.001741 0.000000 0.004731 0.000000
# 2 -0.002470 0.025573 -0.003976 0.000000 -0.003035 0.000000
# 3 -0.001741 -0.003976 0.014967 0.000000 0.005324 0.000000
# 4 0.000000 0.000000 0.000000 0.032367 0.000000 0.001516
# 5 0.004731 -0.003035 0.005324 0.000000 0.028359 0.000000
# 6 0.000000 0.000000 0.000000 0.001516 0.000000 0.039068
#
#
# Mechanical properties :
#
#
# Convention : Reuss Voigt Hill
#
# Bulk Modulus (GPa) = 31.62103 47.87149 39.74626
# Shear Modulus (GPa) = 28.61878 35.27005 31.94441
#
# Velocity S-wave (km/s) = 3.59983 3.99631 3.80324
# Velocity P-wave (km/s) = 5.62108 6.55519 6.10602
#
# Compressibility (1/GPa) = 0.03162452
#
# Stress axis : x y z
#
# Youngs Moduli (GPa) = 134.05753 39.10418 66.81165
#
# Poissons Ratio (x) = 0.09657 0.11635
# Poissons Ratio (y) = 0.33107 0.26567
# Poissons Ratio (z) = 0.23346 0.15550
#
# Static dielectric constant tensor:
#      x y z
#    x 4.609500 0.000000 -0.241790 
#    y 0.000000 3.413860 0.000000 
#    z -0.241790 0.000000 4.222940 
# 
# 
# High freq. dielectric constant tensor:
#      x y z
#    x 1.886540 0.000000 -0.011430 
#    y 0.000000 1.829810 0.000000 
#    z -0.011430 0.000000 1.882890 
# 
# From -- ./inp_files/59926.got.cif
#   From: 2010.06.25/outbox.cif.g09.slc.cpg/sg15_30_cif.got.tgz:59926.got - 2010.06.28 07:06:18.
