data_PCOD8148661
_publ_section_title
;
Structure prediction by ZEFSAII (Michael W. Deem and Ramdas Pophale) SiO2 
 PCOD8148661
Probable space group: C 2/C
;
_chemical_formula_sum "Si O2"
_cell_formula_units_Z 56
_cell_length_a 10.378195
_cell_length_b 21.045613
_cell_length_c 12.389474
_cell_angle_alpha 90.000000
_cell_angle_beta 103.123169
_cell_angle_gamma 90.000000
_cell_volume 2635.382217
_symmetry_space_group_name_H-M "C 2/C"
_symmetry_group_IT_number 15
_symmetry_cell_setting 'monoclinic'
loop_
_space_group_symop_operation_xyz
x,y,z
-x,y,1/2-z
-x,-y,-z
x,-y,1/2+z
1/2+x,1/2+y,z
1/2-x,1/2+y,1/2-z
1/2-x,1/2-y,-z
1/2+x,1/2-y,1/2+z
loop_
_atom_site_type_symbol
_atom_site_label
_atom_site_fract_x
_atom_site_fract_y
_atom_site_fract_z
Si Si1 0.566061 0.371008 0.980847
Si Si2 0.205387 0.923013 0.518633
Si Si3 0.154262 0.493075 0.284372
Si Si4 0.745633 0.352954 0.197702
Si Si5 0.134842 0.021610 0.342506
Si Si6 0.309952 0.805386 0.436706
Si Si7 0.435968 0.240509 0.625074
O O1 0.410235 0.386603 0.937060
O O2 0.648459 0.424768 0.935598
O O3 0.611625 0.305281 0.936970
O O4 0.604857 0.369872 0.115809
O O5 0.281913 0.979051 0.594554
O O6 0.311604 0.870225 0.504993
O O7 0.133894 0.953298 0.400725
O O8 0.169265 0.417308 0.274444
O O9 0.233975 0.528139 0.204512
O O10 0.000000 0.510974 0.250000
O O11 0.727491 0.316969 0.309130
O O12 0.817371 0.307921 0.123885
O O13 0.000000 0.028459 0.250000
O O14 0.250000 0.750000 0.500000
O O15 0.460711 0.791626 0.436950
O O16 0.500000 0.259480 0.750000
#
# Coordination Sequence:
#
# PCOD8148661 Si02
#       7
#     8   8   8   8   8   8   8
#     4  12  23  42  70 103 136 180 231 290 349 413
#     4  12  25  42  70 103 141 177 236 290 346 420
#     4  12  26  45  67 104 140 186 233 290 352 418
#     4  11  24  43  68  98 135 184 238 281 349 424
#     4  12  24  42  72 104 141 182 227 289 358 419
#     4  11  23  44  67  96 136 185 228 292 350 408
#     4  10  23  42  66  94 134 184 234 281 345 416
#
# _framework density 21.249290999999999
#
# number of rings (size 3 to 8) (size 9 to 14) (size 15 to 20)
#    0.000    0.571    5.714    3.429    0.000    1.714 
#    0.000    1.429    0.000    0.000    0.000    0.000 
#    0.000    0.000    0.000    0.000    0.000    0.000 
#
# Total GULP energy -347147.877111 kJ/mol
# GULP energy per Si atom -12398.138468 kJ/mol
# Density = 2.120093 g / cm^3
# Si number density = 21.249291 Si / 1000 Ang^3
#
#
#
# Elastic Constant Matrix: (Units=GPa)
#
#
# Indices 1 2 3 4 5 6 
#
# 1 117.1280 39.7510 44.3942 0.0000 -11.0881 0.0000
# 2 39.7510 121.5531 47.8510 0.0000 -10.3222 0.0000
# 3 44.3942 47.8510 100.8446 0.0000 -1.2592 0.0000
# 4 0.0000 0.0000 0.0000 45.1221 0.0000 -8.7969
# 5 -11.0881 -10.3222 -1.2592 0.0000 37.6396 0.0000
# 6 0.0000 0.0000 0.0000 -8.7969 0.0000 19.6097
#
#
#
# Elastic Compliance Matrix: (Units=1/GPa)
#
#
# Indices 1 2 3 4 5 6 
#
# 1 0.010871 -0.001801 -0.003899 0.000000 0.002578 0.000000
# 2 -0.001801 0.010679 -0.004246 0.000000 0.002256 0.000000
# 3 -0.003899 -0.004246 0.013624 0.000000 -0.001857 0.000000
# 4 0.000000 0.000000 0.000000 0.024286 0.000000 0.010895
# 5 0.002578 0.002256 -0.001857 0.000000 0.027884 0.000000
# 6 0.000000 0.000000 0.000000 0.010895 0.000000 0.055883
#
#
# Mechanical properties :
#
#
# Convention : Reuss Voigt Hill
#
# Bulk Modulus (GPa) = 65.43734 67.05755 66.24745
# Shear Modulus (GPa) = 29.72436 34.30958 32.01697
#
# Velocity S-wave (km/s) = 3.74416 4.02260 3.88587
# Velocity P-wave (km/s) = 7.03943 7.29391 7.16780
#
# Compressibility (1/GPa) = 0.01528179
#
# Stress axis : x y z
#
# Youngs Moduli (GPa) = 91.99019 93.64146 73.39941
#
# Poissons Ratio (x) = 0.16868 0.28616
# Poissons Ratio (y) = 0.16571 0.31166
# Poissons Ratio (z) = 0.35863 0.39761
#
# Static dielectric constant tensor:
#      x y z
#    x 3.774540 0.000000 -0.196670 
#    y 0.000000 3.972400 0.000000 
#    z -0.196670 0.000000 3.907860 
# 
# 
# High freq. dielectric constant tensor:
#      x y z
#    x 1.822440 0.000000 -0.012790 
#    y 0.000000 1.845380 0.000000 
#    z -0.012790 0.000000 1.836810 
# 
# From -- ./inp_files/88882.got.cif
#   From: 2010.06.25/outbox.cif.g09.slc.cpg/sg15_45_cif.got.tgz:88882.got - 2010.06.28 07:06:18.
