data_PCOD8148886
_publ_section_title
;
Structure prediction by ZEFSAII (Michael W. Deem and Ramdas Pophale) SiO2 
 PCOD8148886
Probable space group: C 2/C
;
_chemical_formula_sum "Si O2"
_cell_formula_units_Z 56
_cell_length_a 25.058837
_cell_length_b 12.492129
_cell_length_c 9.034294
_cell_angle_alpha 90.000000
_cell_angle_beta 62.555501
_cell_angle_gamma 90.000000
_cell_volume 2509.800801
_symmetry_space_group_name_H-M "C 2/C"
_symmetry_group_IT_number 15
_symmetry_cell_setting 'monoclinic'
loop_
_space_group_symop_operation_xyz
x,y,z
-x,y,1/2-z
-x,-y,-z
x,-y,1/2+z
1/2+x,1/2+y,z
1/2-x,1/2+y,1/2-z
1/2-x,1/2-y,-z
1/2+x,1/2-y,1/2+z
loop_
_atom_site_type_symbol
_atom_site_label
_atom_site_fract_x
_atom_site_fract_y
_atom_site_fract_z
Si Si1 0.299670 0.909621 0.806635
Si Si2 0.982698 0.393752 0.936064
Si Si3 0.904384 0.023343 0.121826
Si Si4 0.739780 0.721847 0.842366
Si Si5 0.845447 0.610453 0.567996
Si Si6 0.012201 0.838875 0.408596
Si Si7 0.321106 0.516364 0.484980
O O1 0.297635 0.807855 0.702271
O O2 0.324132 0.000754 0.668477
O O3 0.343493 0.893491 0.891085
O O4 0.234049 0.933966 0.960384
O O5 0.017830 0.286650 0.947184
O O6 0.000000 0.423741 0.750000
O O7 0.912474 0.365288 0.035609
O O8 0.000000 0.500000 0.000000
O O9 0.927295 0.902358 0.126205
O O10 0.845331 0.052603 0.294208
O O11 0.879929 0.034045 0.986568
O O12 0.958019 0.108099 0.072996
O O13 0.804075 0.706471 0.680942
O O14 0.750000 0.750000 0.000000
O O15 0.700377 0.614946 0.886922
O O16 0.000000 0.848450 0.250000
#
# Coordination Sequence:
#
# PCOD8148886 Si02
#       7
#     8   8   8   8   8   8   8
#     4  11  23  43  65  98 140 172 226 270 346 419
#     4  11  26  47  69  97 129 183 239 278 345 409
#     4  11  22  42  66  98 133 169 225 278 338 400
#     4  11  24  40  64 103 137 177 224 270 349 418
#     4  11  24  43  67  94 136 178 217 292 332 403
#     4  10  23  43  66  94 132 174 222 282 339 399
#     4  11  23  38  67  98 129 175 216 270 335 408
#
# _framework density 22.312525999999998
#
# number of rings (size 3 to 8) (size 9 to 14) (size 15 to 20)
#    0.000    1.143    1.429    5.571    4.000    3.429 
#    2.571    0.000    0.000    0.000    0.000    0.000 
#    0.000    0.000    0.000    0.000    0.000    0.000 
#
# Total GULP energy -347226.757787 kJ/mol
# GULP energy per Si atom -12400.955635 kJ/mol
# Density = 2.226174 g / cm^3
# Si number density = 22.312526 Si / 1000 Ang^3
#
#
#
# Elastic Constant Matrix: (Units=GPa)
#
#
# Indices 1 2 3 4 5 6 
#
# 1 71.0762 9.0352 14.5276 0.0000 1.2420 0.0000
# 2 9.0352 101.4032 29.9487 0.0000 3.5073 0.0000
# 3 14.5276 29.9487 91.2919 0.0000 0.7281 0.0000
# 4 0.0000 0.0000 0.0000 33.3849 0.0000 8.1105
# 5 1.2420 3.5073 0.7281 0.0000 40.9483 0.0000
# 6 0.0000 0.0000 0.0000 8.1105 0.0000 21.5826
#
#
#
# Elastic Compliance Matrix: (Units=1/GPa)
#
#
# Indices 1 2 3 4 5 6 
#
# 1 0.014590 -0.000668 -0.002100 0.000000 -0.000348 0.000000
# 2 -0.000668 0.010981 -0.003489 0.000000 -0.000858 0.000000
# 3 -0.002100 -0.003489 0.012432 0.000000 0.000142 0.000000
# 4 0.000000 0.000000 0.000000 0.032963 0.000000 -0.012387
# 5 -0.000348 -0.000858 0.000142 0.000000 0.024503 0.000000
# 6 0.000000 0.000000 0.000000 -0.012387 0.000000 0.050989
#
#
# Mechanical properties :
#
#
# Convention : Reuss Voigt Hill
#
# Bulk Modulus (GPa) = 39.23325 41.19937 40.21631
# Shear Modulus (GPa) = 29.85662 33.20046 31.52854
#
# Velocity S-wave (km/s) = 3.66199 3.86161 3.76312
# Velocity P-wave (km/s) = 5.95835 6.19576 6.07821
#
# Compressibility (1/GPa) = 0.02548859
#
# Stress axis : x y z
#
# Youngs Moduli (GPa) = 68.54210 91.06334 80.44007
#
# Poissons Ratio (x) = 0.06081 0.16891
# Poissons Ratio (y) = 0.04577 0.28069
# Poissons Ratio (z) = 0.14393 0.31775
#
# Static dielectric constant tensor:
#      x y z
#    x 3.897050 0.000000 -0.137200 
#    y 0.000000 4.079000 0.000000 
#    z -0.137200 0.000000 4.012350 
# 
# 
# High freq. dielectric constant tensor:
#      x y z
#    x 1.876050 0.000000 -0.007910 
#    y 0.000000 1.879440 0.000000 
#    z -0.007910 0.000000 1.887240 
# 
# From -- ./inp_files/65429.got.cif
#   From: 2010.06.25/outbox.cif.g09.slc.cpg/sg15_33_cif.got.tgz:65429.got - 2010.06.28 07:06:18.
