data_PCOD8148551
_publ_section_title
;
Structure prediction by ZEFSAII (Michael W. Deem and Ramdas Pophale) SiO2 
 PCOD8148551
Probable space group: C 2/C
;
_chemical_formula_sum "Si O2"
_cell_formula_units_Z 44
_cell_length_a 17.713878
_cell_length_b 15.742690
_cell_length_c 9.898679
_cell_angle_alpha 90.000000
_cell_angle_beta 134.913576
_cell_angle_gamma 90.000000
_cell_volume 1954.829712
_symmetry_space_group_name_H-M "C 2/C"
_symmetry_group_IT_number 15
_symmetry_cell_setting 'monoclinic'
loop_
_space_group_symop_operation_xyz
x,y,z
-x,y,1/2-z
-x,-y,-z
x,-y,1/2+z
1/2+x,1/2+y,z
1/2-x,1/2+y,1/2-z
1/2-x,1/2-y,-z
1/2+x,1/2-y,1/2+z
loop_
_atom_site_type_symbol
_atom_site_label
_atom_site_fract_x
_atom_site_fract_y
_atom_site_fract_z
Si Si1 0.777236 0.590110 0.229140
Si Si2 0.823055 0.827539 0.134130
Si Si3 0.685509 0.900287 0.189228
Si Si4 0.500000 0.291079 0.750000
Si Si5 0.473982 0.796908 0.936927
Si Si6 0.284888 0.344545 0.567802
O O1 0.819142 0.500742 0.341208
O O2 0.881006 0.635100 0.301708
O O3 0.721572 0.637103 0.282940
O O4 0.688520 0.597563 0.994986
O O5 0.784280 0.863232 0.229672
O O6 0.942791 0.788119 0.309276
O O7 0.750000 0.750000 0.000000
O O8 0.707302 0.900419 0.377550
O O9 0.581078 0.844095 0.019705
O O10 0.479861 0.227538 0.600687
O O11 0.405202 0.355184 0.667589
O O12 0.250000 0.250000 0.500000
#
# Coordination Sequence:
#
# PCOD8148551 Si02
#       6
#     8   8   8   4   8   8
#     4  11  24  42  66 104 143 173 222 292 355 393
#     4  10  23  42  61 101 139 183 222 278 349 417
#     4  12  23  42  71  98 138 175 225 296 342 398
#     4  12  22  40  72  98 120 178 248 270 318 406
#     4  11  22  40  69 103 130 180 235 278 335 418
#     4  12  22  43  69  95 131 184 234 275 325 425
#
# _framework density 22.508354000000001
#
# number of rings (size 3 to 8) (size 9 to 14) (size 15 to 20)
#    0.000    0.727    5.455    2.727    0.000    2.909 
#    0.000    6.364    0.000    0.000    0.000    0.000 
#    0.000    0.000    0.000    0.000    0.000    0.000 
#
# Total GULP energy -272576.512907 kJ/mol
# GULP energy per Si atom -12389.841496 kJ/mol
# Density = 2.245712 g / cm^3
# Si number density = 22.508354 Si / 1000 Ang^3
#
#
#
# Elastic Constant Matrix: (Units=GPa)
#
#
# Indices 1 2 3 4 5 6 
#
# 1 112.6609 41.3834 36.4164 0.0000 4.8366 0.0000
# 2 41.3834 96.8269 42.9924 0.0000 7.4399 0.0000
# 3 36.4164 42.9924 115.7023 0.0000 -3.5916 0.0000
# 4 0.0000 0.0000 0.0000 35.8185 0.0000 -0.0938
# 5 4.8366 7.4399 -3.5916 0.0000 42.8664 0.0000
# 6 0.0000 0.0000 0.0000 -0.0938 0.0000 27.7048
#
#
#
# Elastic Compliance Matrix: (Units=1/GPa)
#
#
# Indices 1 2 3 4 5 6 
#
# 1 0.010941 -0.003685 -0.002098 0.000000 -0.000771 0.000000
# 2 -0.003685 0.013891 -0.004074 0.000000 -0.002337 0.000000
# 3 -0.002098 -0.004074 0.010875 0.000000 0.001855 0.000000
# 4 0.000000 0.000000 0.000000 0.027919 0.000000 0.000094
# 5 -0.000771 -0.002337 0.001855 0.000000 0.023976 0.000000
# 6 0.000000 0.000000 0.000000 0.000094 0.000000 0.036095
#
#
# Mechanical properties :
#
#
# Convention : Reuss Voigt Hill
#
# Bulk Modulus (GPa) = 62.53278 62.97497 62.75387
# Shear Modulus (GPa) = 33.61481 34.90446 34.25963
#
# Velocity S-wave (km/s) = 3.86869 3.94221 3.90562
# Velocity P-wave (km/s) = 6.91361 6.98288 6.94833
#
# Compressibility (1/GPa) = 0.01599161
#
# Stress axis : x y z
#
# Youngs Moduli (GPa) = 91.39730 71.98688 91.95598
#
# Poissons Ratio (x) = 0.26530 0.19294
# Poissons Ratio (y) = 0.33684 0.37466
# Poissons Ratio (z) = 0.19177 0.29330
#
# Static dielectric constant tensor:
#      x y z
#    x 4.824870 0.000000 0.213020 
#    y 0.000000 26.625620 0.000000 
#    z 0.213020 0.000000 5.488560 
# 
# 
# High freq. dielectric constant tensor:
#      x y z
#    x 1.880510 0.000000 -0.013930 
#    y 0.000000 1.870370 0.000000 
#    z -0.013930 0.000000 1.901240 
# 
# From -- ./inp_files/49267.got.cif
#   From: 2010.06.25/outbox.cif.g09.slc.cpg/sg15_25_cif.got.tgz:49267.got - 2010.06.28 07:06:18.
