data_PCOD8148270
_publ_section_title
;
Structure prediction by ZEFSAII (Michael W. Deem and Ramdas Pophale) SiO2 
 PCOD8148270
Probable space group: C 2/C
;
_chemical_formula_sum "Si O2"
_cell_formula_units_Z 56
_cell_length_a 16.576843
_cell_length_b 14.399675
_cell_length_c 15.190124
_cell_angle_alpha 90.000000
_cell_angle_beta 136.196660
_cell_angle_gamma 90.000000
_cell_volume 2509.794552
_symmetry_space_group_name_H-M "C 2/C"
_symmetry_group_IT_number 15
_symmetry_cell_setting 'monoclinic'
loop_
_space_group_symop_operation_xyz
x,y,z
-x,y,1/2-z
-x,-y,-z
x,-y,1/2+z
1/2+x,1/2+y,z
1/2-x,1/2+y,1/2-z
1/2-x,1/2-y,-z
1/2+x,1/2-y,1/2+z
loop_
_atom_site_type_symbol
_atom_site_label
_atom_site_fract_x
_atom_site_fract_y
_atom_site_fract_z
Si Si1 0.632349 0.673160 0.982649
Si Si2 0.743489 0.136234 0.589807
Si Si3 0.753952 0.742434 0.397985
Si Si4 0.431162 0.879440 0.282332
Si Si5 0.384743 0.364731 0.373278
Si Si6 0.760677 0.474285 0.686105
Si Si7 0.855135 0.555656 0.443965
O O1 0.649087 0.783763 0.995123
O O2 0.733603 0.623282 0.119399
O O3 0.648962 0.637946 0.895172
O O4 0.510376 0.644812 0.928583
O O5 0.789389 0.156179 0.723315
O O6 0.677115 0.037968 0.529041
O O7 0.750000 0.750000 0.500000
O O8 0.641067 0.784323 0.258343
O O9 0.866581 0.793906 0.441434
O O10 0.756618 0.632805 0.383910
O O11 0.500000 0.858670 0.250000
O O12 0.516960 0.905241 0.430105
O O13 0.336596 0.958620 0.183053
O O14 0.359532 0.471604 0.383036
O O15 0.851123 0.460628 0.837080
#
# Coordination Sequence:
#
# PCOD8148270 Si02
#       7
#     8   8   8   8   8   8   8
#     4  11  22  43  68  96 134 179 225 279 342 397
#     4  10  24  42  68 100 133 173 232 280 329 415
#     4  11  24  42  65  97 132 169 224 277 331 410
#     4  11  22  42  66  95 129 174 220 274 341 394
#     4  10  23  42  66  95 137 177 223 281 345 400
#     4  10  23  40  65 100 133 175 224 280 327 410
#     4  11  23  43  65  94 134 173 221 279 340 399
#
# _framework density 22.312581999999999
#
# number of rings (size 3 to 8) (size 9 to 14) (size 15 to 20)
#    0.000    1.429    1.429    3.000    2.000    6.857 
#    0.000    4.286    0.000    0.000    0.000    0.000 
#    0.000    0.000    0.000    0.000    0.000    0.000 
#
# Total GULP energy -347030.814217 kJ/mol
# GULP energy per Si atom -12393.957651 kJ/mol
# Density = 2.226180 g / cm^3
# Si number density = 22.312582 Si / 1000 Ang^3
#
#
#
# Elastic Constant Matrix: (Units=GPa)
#
#
# Indices 1 2 3 4 5 6 
#
# 1 111.1468 40.2584 22.7733 0.0000 5.9110 0.0000
# 2 40.2584 162.4959 47.0613 0.0000 8.5585 0.0000
# 3 22.7733 47.0613 79.3460 0.0000 10.6156 0.0000
# 4 0.0000 0.0000 0.0000 14.2548 0.0000 -4.8719
# 5 5.9110 8.5585 10.6156 0.0000 38.9917 0.0000
# 6 0.0000 0.0000 0.0000 -4.8719 0.0000 28.5171
#
#
#
# Elastic Compliance Matrix: (Units=1/GPa)
#
#
# Indices 1 2 3 4 5 6 
#
# 1 0.010087 -0.001994 -0.001626 0.000000 -0.000649 0.000000
# 2 -0.001994 0.007832 -0.004030 0.000000 -0.000320 0.000000
# 3 -0.001626 -0.004030 0.015887 0.000000 -0.003194 0.000000
# 4 0.000000 0.000000 0.000000 0.074502 0.000000 0.012728
# 5 -0.000649 -0.000320 -0.003194 0.000000 0.026685 0.000000
# 6 0.000000 0.000000 0.000000 0.012728 0.000000 0.037241
#
#
# Mechanical properties :
#
#
# Convention : Reuss Voigt Hill
#
# Bulk Modulus (GPa) = 54.03467 63.68608 58.86038
# Shear Modulus (GPa) = 25.81273 32.54577 29.17925
#
# Velocity S-wave (km/s) = 3.40497 3.82334 3.62020
# Velocity P-wave (km/s) = 6.30302 6.93507 6.62659
#
# Compressibility (1/GPa) = 0.01850663
#
# Stress axis : x y z
#
# Youngs Moduli (GPa) = 99.13792 127.67988 62.94321
#
# Poissons Ratio (x) = 0.25460 0.10232
# Poissons Ratio (y) = 0.19769 0.25368
# Poissons Ratio (z) = 0.16115 0.51458
#
# Static dielectric constant tensor:
#      x y z
#    x 4.190740 0.000000 -0.071040 
#    y 0.000000 4.296380 0.000000 
#    z -0.071040 0.000000 4.066170 
# 
# 
# High freq. dielectric constant tensor:
#      x y z
#    x 1.892780 0.000000 -0.007210 
#    y 0.000000 1.887970 0.000000 
#    z -0.007210 0.000000 1.858360 
# 
# From -- ./inp_files/211231.got.cif
#   From: 2010.06.25/outbox.cif.g09.slc.cpg/sg15_106_cif.got.tgz:211231.got - 2010.06.28 07:06:18.
