data_PCOD8148527
_publ_section_title
;
Structure prediction by ZEFSAII (Michael W. Deem and Ramdas Pophale) SiO2 
 PCOD8148527
Probable space group: C 2/C
;
_chemical_formula_sum "Si O2"
_cell_formula_units_Z 56
_cell_length_a 11.628557
_cell_length_b 15.697685
_cell_length_c 14.404701
_cell_angle_alpha 90.000000
_cell_angle_beta 90.049896
_cell_angle_gamma 90.000000
_cell_volume 2629.453647
_symmetry_space_group_name_H-M "C 2/C"
_symmetry_group_IT_number 15
_symmetry_cell_setting 'monoclinic'
loop_
_space_group_symop_operation_xyz
x,y,z
-x,y,1/2-z
-x,-y,-z
x,-y,1/2+z
1/2+x,1/2+y,z
1/2-x,1/2+y,1/2-z
1/2-x,1/2-y,-z
1/2+x,1/2-y,1/2+z
loop_
_atom_site_type_symbol
_atom_site_label
_atom_site_fract_x
_atom_site_fract_y
_atom_site_fract_z
Si Si1 0.874404 0.987764 0.209243
Si Si2 0.114079 0.243924 0.484720
Si Si3 0.739931 0.677069 0.867667
Si Si4 0.290284 0.000398 0.119714
Si Si5 0.894988 0.332336 0.545871
Si Si6 0.391914 0.555633 0.021819
Si Si7 0.611362 0.831371 0.304574
O O1 0.789000 0.016536 0.290473
O O2 0.873463 0.062873 0.132905
O O3 0.000000 0.970327 0.250000
O O4 0.837696 0.905664 0.148969
O O5 0.250000 0.250000 0.500000
O O6 0.079738 0.149473 0.516874
O O7 0.089832 0.254107 0.375107
O O8 0.032255 0.311568 0.539299
O O9 0.663433 0.756166 0.898100
O O10 0.792514 0.699231 0.767446
O O11 0.839934 0.659662 0.943277
O O12 0.376155 0.079979 0.102862
O O13 0.359201 0.913907 0.134252
O O14 0.216306 0.988005 0.027282
O O15 0.500000 0.500000 0.000000
O O16 0.500000 0.858681 0.250000
#
# Coordination Sequence:
#
# PCOD8148527 Si02
#       7
#     8   8   8   8   8   8   8
#     4  11  23  40  69 105 147 189 237 295 358 421
#     4  12  27  47  72 102 139 188 233 294 357 425
#     4  10  23  41  70 103 142 182 232 295 357 418
#     4  11  25  44  69 103 144 189 235 293 358 421
#     4  11  24  44  70 102 139 185 235 287 361 426
#     4  12  24  43  72 106 145 183 240 291 351 421
#     4  11  24  47  69 101 141 185 236 289 356 424
#
# _framework density 21.297198999999999
#
# number of rings (size 3 to 8) (size 9 to 14) (size 15 to 20)
#    0.000    0.857    5.714    0.857    4.000    1.143 
#    5.143    0.714    0.000    0.000    0.000    0.000 
#    0.000    0.000    0.000    0.000    0.000    0.000 
#
# Total GULP energy -347133.815861 kJ/mol
# GULP energy per Si atom -12397.636281 kJ/mol
# Density = 2.124873 g / cm^3
# Si number density = 21.297199 Si / 1000 Ang^3
#
#
#
# Elastic Constant Matrix: (Units=GPa)
#
#
# Indices 1 2 3 4 5 6 
#
# 1 142.2892 56.3717 43.0855 0.0000 6.4253 0.0000
# 2 56.3717 112.5789 44.1528 0.0000 -10.5554 0.0000
# 3 43.0855 44.1528 103.7571 0.0000 -2.9787 0.0000
# 4 0.0000 0.0000 0.0000 35.7514 0.0000 -1.7753
# 5 6.4253 -10.5554 -2.9787 0.0000 37.0753 0.0000
# 6 0.0000 0.0000 0.0000 -1.7753 0.0000 33.8591
#
#
#
# Elastic Compliance Matrix: (Units=1/GPa)
#
#
# Indices 1 2 3 4 5 6 
#
# 1 0.009492 -0.004147 -0.002263 0.000000 -0.003008 0.000000
# 2 -0.004147 0.012746 -0.003585 0.000000 0.004060 0.000000
# 3 -0.002263 -0.003585 0.012113 0.000000 0.000345 0.000000
# 4 0.000000 0.000000 0.000000 0.028044 0.000000 0.001470
# 5 -0.003008 0.004060 0.000345 0.000000 0.028677 0.000000
# 6 0.000000 0.000000 0.000000 0.001470 0.000000 0.029611
#
#
# Mechanical properties :
#
#
# Convention : Reuss Voigt Hill
#
# Bulk Modulus (GPa) = 69.63787 71.76059 70.69923
# Shear Modulus (GPa) = 34.37332 35.67149 35.02240
#
# Velocity S-wave (km/s) = 4.02180 4.09704 4.05959
# Velocity P-wave (km/s) = 7.37127 7.49326 7.43252
#
# Compressibility (1/GPa) = 0.01436000
#
# Stress axis : x y z
#
# Youngs Moduli (GPa) = 105.35032 78.45522 82.55458
#
# Poissons Ratio (x) = 0.32539 0.18683
# Poissons Ratio (y) = 0.43693 0.29598
# Poissons Ratio (z) = 0.23842 0.28128
#
# Static dielectric constant tensor:
#      x y z
#    x 3.857270 0.000000 -0.057870 
#    y 0.000000 2.112900 0.000000 
#    z -0.057870 0.000000 4.344920 
# 
# 
# High freq. dielectric constant tensor:
#      x y z
#    x 1.837910 0.000000 -0.006500 
#    y 0.000000 1.833240 0.000000 
#    z -0.006500 0.000000 1.847770 
# 
# From -- ./inp_files/144250.got.cif
#   From: 2010.06.25/outbox.cif.g09.slc.cpg/sg15_73_cif.got.tgz:144250.got - 2010.06.28 07:06:18.
