data_PCOD8148504
_publ_section_title
;
Structure prediction by ZEFSAII (Michael W. Deem and Ramdas Pophale) SiO2 
 PCOD8148504
Probable space group: C 2/C
;
_chemical_formula_sum "Si O2"
_cell_formula_units_Z 44
_cell_length_a 26.825902
_cell_length_b 8.007352
_cell_length_c 10.020829
_cell_angle_alpha 90.000000
_cell_angle_beta 115.568189
_cell_angle_gamma 90.000000
_cell_volume 1941.727336
_symmetry_space_group_name_H-M "C 2/C"
_symmetry_group_IT_number 15
_symmetry_cell_setting 'monoclinic'
loop_
_space_group_symop_operation_xyz
x,y,z
-x,y,1/2-z
-x,-y,-z
x,-y,1/2+z
1/2+x,1/2+y,z
1/2-x,1/2+y,1/2-z
1/2-x,1/2-y,-z
1/2+x,1/2-y,1/2+z
loop_
_atom_site_type_symbol
_atom_site_label
_atom_site_fract_x
_atom_site_fract_y
_atom_site_fract_z
Si Si1 0.000000 0.576087 0.750000
Si Si2 0.474819 0.395576 0.852584
Si Si3 0.798601 0.121347 0.841284
Si Si4 0.638779 0.476980 0.336095
Si Si5 0.886603 0.391917 0.628223
Si Si6 0.178514 0.499094 0.696962
O O1 0.006871 0.698783 0.627642
O O2 0.052779 0.460611 0.833024
O O3 0.500000 0.483174 0.750000
O O4 0.408336 0.400140 0.774623
O O5 0.500000 0.500000 0.000000
O O6 0.812452 0.034294 0.716018
O O7 0.809658 0.316412 0.845488
O O8 0.735011 0.090796 0.802189
O O9 0.837410 0.046392 0.999584
O O10 0.609390 0.299192 0.322733
O O11 0.858379 0.499364 0.712740
O O12 0.850924 0.396391 0.452508
#
# Coordination Sequence:
#
# PCOD8148504 Si02
#       6
#     4   8   8   8   8   8
#     4  10  26  44  68  96 136 176 220 274 334 388
#     4  10  23  41  68  95 131 172 220 266 327 393
#     4  11  24  43  70  99 135 174 223 276 338 396
#     4  11  24  43  69  99 132 177 222 276 334 399
#     4  11  26  44  67  99 137 175 226 273 332 396
#     4  11  25  44  67 100 134 175 223 277 334 399
#
# _framework density 22.660235
#
# number of rings (size 3 to 8) (size 9 to 14) (size 15 to 20)
#    0.545    0.727    0.000    4.364    6.364   12.364 
#    0.000    0.000    0.000    0.000    0.000    0.000 
#    0.000    0.000    0.000    0.000    0.000    0.000 
#
# Total GULP energy -272857.009707 kJ/mol
# GULP energy per Si atom -12402.591350 kJ/mol
# Density = 2.260866 g / cm^3
# Si number density = 22.660235 Si / 1000 Ang^3
#
#
#
# Elastic Constant Matrix: (Units=GPa)
#
#
# Indices 1 2 3 4 5 6 
#
# 1 121.2130 37.9490 31.8534 0.0000 24.8529 0.0000
# 2 37.9490 49.6484 23.1010 0.0000 12.9581 0.0000
# 3 31.8534 23.1010 122.4899 0.0000 11.5259 0.0000
# 4 0.0000 0.0000 0.0000 -194.6639 0.0000 145.1190
# 5 24.8529 12.9581 11.5259 0.0000 35.9117 0.0000
# 6 0.0000 0.0000 0.0000 145.1190 0.0000 -52.4144
#
#
#
# Elastic Compliance Matrix: (Units=1/GPa)
#
#
# Indices 1 2 3 4 5 6 
#
# 1 0.011889 -0.007134 -0.001252 0.000000 -0.005252 0.000000
# 2 -0.007134 0.028118 -0.003050 0.000000 -0.004230 0.000000
# 3 -0.001252 -0.003050 0.009156 0.000000 -0.000972 0.000000
# 4 0.000000 0.000000 0.000000 0.004828 0.000000 0.013367
# 5 -0.005252 -0.004230 -0.000972 0.000000 0.033319 0.000000
# 6 0.000000 0.000000 0.000000 0.013367 0.000000 0.017931
#
#
# Mechanical properties :
#
#
# Convention : Reuss Voigt Hill
#
# Bulk Modulus (GPa) = 38.03574 53.23977 45.63776
# Shear Modulus (GPa) = 36.52920 -28.87013 3.82954
#
# Velocity S-wave (km/s) = 4.01938 -3.57325 1.30140
# Velocity P-wave (km/s) = 6.19372 2.55376 4.73729
#
# Compressibility (1/GPa) = 0.02629106
#
# Stress axis : x y z
#
# Youngs Moduli (GPa) = 84.10835 35.56481 109.21649
#
# Poissons Ratio (x) = 0.25373 0.13675
# Poissons Ratio (y) = 0.60006 0.33306
# Poissons Ratio (z) = 0.10532 0.10846
#
# Static dielectric constant tensor:
#      x y z
#    x 4.167820 0.000000 -0.133360 
#    y 0.000000 4.056770 0.000000 
#    z -0.133360 0.000000 3.936250 
# 
# 
# High freq. dielectric constant tensor:
#      x y z
#    x 1.907300 0.000000 -0.001410 
#    y 0.000000 1.899130 0.000000 
#    z -0.001410 0.000000 1.892760 
# 
# From -- ./inp_files/68665.got.cif
#   From: 2010.06.25/outbox.cif.g09.slc.cpg/sg15_35_cif.got.tgz:68665.got - 2010.06.28 07:06:18.
