data_PCOD8148878
_publ_section_title
;
Structure prediction by ZEFSAII (Michael W. Deem and Ramdas Pophale) SiO2 
 PCOD8148878
Probable space group: C 2/C
;
_chemical_formula_sum "Si O2"
_cell_formula_units_Z 44
_cell_length_a 11.853556
_cell_length_b 12.728936
_cell_length_c 13.014920
_cell_angle_alpha 90.000000
_cell_angle_beta 80.792867
_cell_angle_gamma 90.000000
_cell_volume 1938.432168
_symmetry_space_group_name_H-M "C 2/C"
_symmetry_group_IT_number 15
_symmetry_cell_setting 'monoclinic'
loop_
_space_group_symop_operation_xyz
x,y,z
-x,y,1/2-z
-x,-y,-z
x,-y,1/2+z
1/2+x,1/2+y,z
1/2-x,1/2+y,1/2-z
1/2-x,1/2-y,-z
1/2+x,1/2-y,1/2+z
loop_
_atom_site_type_symbol
_atom_site_label
_atom_site_fract_x
_atom_site_fract_y
_atom_site_fract_z
Si Si1 0.429249 0.689662 0.478822
Si Si2 0.111409 0.449061 0.665365
Si Si3 0.500000 0.613972 0.250000
Si Si4 0.589614 0.708715 0.646739
Si Si5 0.717604 0.518570 0.707722
Si Si6 0.194428 0.408299 0.992205
O O1 0.478534 0.682941 0.355560
O O2 0.530619 0.675556 0.547390
O O3 0.326046 0.606274 0.514538
O O4 0.376588 0.802975 0.500392
O O5 0.140601 0.326563 0.641329
O O6 0.209074 0.523938 0.700071
O O7 0.111780 0.504528 0.555106
O O8 0.000000 0.462351 0.750000
O O9 0.397514 0.536727 0.241520
O O10 0.500000 0.695200 0.750000
O O11 0.695051 0.630244 0.655006
O O12 0.794536 0.443057 0.626567
#
# Coordination Sequence:
#
# PCOD8148878 Si02
#       6
#     8   8   4   8   8   8
#     4  10  23  44  72 101 138 182 229 279 346 406
#     4  11  26  44  67 100 142 181 224 282 347 410
#     4  10  24  42  72 106 132 178 232 294 330 406
#     4  11  23  43  72  99 135 183 229 282 337 418
#     4  11  24  43  70 100 136 177 232 287 336 404
#     4  10  23  43  66 101 139 181 219 285 340 406
#
# _framework density 22.698755999999999
#
# number of rings (size 3 to 8) (size 9 to 14) (size 15 to 20)
#    0.000    1.455    0.909    3.273    3.818    8.000 
#    0.000    0.000    0.000    0.000    0.000    0.000 
#    0.000    0.000    0.000    0.000    0.000    0.000 
#
# Total GULP energy -272649.976928 kJ/mol
# GULP energy per Si atom -12393.180769 kJ/mol
# Density = 2.264709 g / cm^3
# Si number density = 22.698756 Si / 1000 Ang^3
#
#
#
# Elastic Constant Matrix: (Units=GPa)
#
#
# Indices 1 2 3 4 5 6 
#
# 1 64.0316 13.4977 23.1362 0.0000 7.7604 0.0000
# 2 13.4977 94.1246 37.9123 0.0000 -15.7058 0.0000
# 3 23.1362 37.9123 85.7215 0.0000 -10.7946 0.0000
# 4 0.0000 0.0000 0.0000 36.6885 0.0000 -10.7550
# 5 7.7604 -15.7058 -10.7946 0.0000 47.4912 0.0000
# 6 0.0000 0.0000 0.0000 -10.7550 0.0000 67.7343
#
#
#
# Elastic Compliance Matrix: (Units=1/GPa)
#
#
# Indices 1 2 3 4 5 6 
#
# 1 0.018225 -0.001412 -0.004868 0.000000 -0.004552 0.000000
# 2 -0.001412 0.013484 -0.005139 0.000000 0.003522 0.000000
# 3 -0.004868 -0.005139 0.015584 0.000000 0.002638 0.000000
# 4 0.000000 0.000000 0.000000 0.028587 0.000000 0.004539
# 5 -0.004552 0.003522 0.002638 0.000000 0.023565 0.000000
# 6 0.000000 0.000000 0.000000 0.004539 0.000000 0.015484
#
#
# Mechanical properties :
#
#
# Convention : Reuss Voigt Hill
#
# Bulk Modulus (GPa) = 40.88928 43.66335 42.27631
# Shear Modulus (GPa) = 34.26520 41.67159 37.96839
#
# Velocity S-wave (km/s) = 3.88952 4.28933 4.09431
# Velocity P-wave (km/s) = 6.18257 6.61883 6.40442
#
# Compressibility (1/GPa) = 0.02445629
#
# Stress axis : x y z
#
# Youngs Moduli (GPa) = 54.86834 74.15965 64.16638
#
# Poissons Ratio (x) = 0.10475 0.31233
# Poissons Ratio (y) = 0.07750 0.32975
# Poissons Ratio (z) = 0.26707 0.38111
#
# Static dielectric constant tensor:
#      x y z
#    x 4.266080 0.000000 0.058500 
#    y 0.000000 4.199660 0.000000 
#    z 0.058500 0.000000 4.117630 
# 
# 
# High freq. dielectric constant tensor:
#      x y z
#    x 1.891120 0.000000 -0.002870 
#    y 0.000000 1.897180 0.000000 
#    z -0.002870 0.000000 1.909870 
# 
# From -- ./inp_files/142249.got.cif
#   From: 2010.06.25/outbox.cif.g09.slc.cpg/sg15_72_cif.got.tgz:142249.got - 2010.06.28 07:06:18.
