data_PCOD8148005
_publ_section_title
;
Structure prediction by ZEFSAII (Michael W. Deem and Ramdas Pophale) SiO2 
 PCOD8148005
Probable space group: C 2/C
;
_chemical_formula_sum "Si O2"
_cell_formula_units_Z 44
_cell_length_a 16.087329
_cell_length_b 20.489114
_cell_length_c 7.767573
_cell_angle_alpha 90.000000
_cell_angle_beta 49.079855
_cell_angle_gamma 90.000000
_cell_volume 1934.629295
_symmetry_space_group_name_H-M "C 2/C"
_symmetry_group_IT_number 15
_symmetry_cell_setting 'monoclinic'
loop_
_space_group_symop_operation_xyz
x,y,z
-x,y,1/2-z
-x,-y,-z
x,-y,1/2+z
1/2+x,1/2+y,z
1/2-x,1/2+y,1/2-z
1/2-x,1/2-y,-z
1/2+x,1/2-y,1/2+z
loop_
_atom_site_type_symbol
_atom_site_label
_atom_site_fract_x
_atom_site_fract_y
_atom_site_fract_z
Si Si1 0.551221 0.570851 0.414826
Si Si2 0.500000 0.753471 0.250000
Si Si3 0.217990 0.575053 0.268646
Si Si4 0.365606 0.636439 0.526173
Si Si5 0.471727 0.848615 0.599365
Si Si6 0.839302 0.569321 0.762673
O O1 0.500000 0.500000 0.500000
O O2 0.649137 0.584073 0.419864
O O3 0.449515 0.622705 0.572755
O O4 0.606173 0.580107 0.153090
O O5 0.389983 0.708351 0.416409
O O6 0.510525 0.795479 0.407903
O O7 0.157440 0.631466 0.238820
O O8 0.168087 0.583875 0.525740
O O9 0.191152 0.504594 0.230918
O O10 0.238558 0.621242 0.738938
O O11 0.500000 0.820935 0.750000
O O12 0.538805 0.915582 0.471459
#
# Coordination Sequence:
#
# PCOD8148005 Si02
#       6
#     8   4   8   8   8   8
#     4   9  16  34  60  92 129 160 216 262 328 401
#     4  10  22  48  70  90 138 180 236 268 328 406
#     4  11  21  36  64  98 133 168 213 278 341 400
#     4   9  21  38  68  95 126 189 211 272 349 392
#     4  12  25  44  66  95 131 183 230 278 328 395
#     4  11  21  39  65  98 137 170 220 276 345 403
#
# _framework density 22.743376999999999
#
# number of rings (size 3 to 8) (size 9 to 14) (size 15 to 20)
#    0.000    1.818    3.636    1.636    0.000    0.727 
#    3.273    0.909   28.000    0.000    0.000    0.000 
#    0.000    0.000    0.000    0.000    0.000    0.000 
#
# Total GULP energy -272598.390183 kJ/mol
# GULP energy per Si atom -12390.835917 kJ/mol
# Density = 2.269161 g / cm^3
# Si number density = 22.743377 Si / 1000 Ang^3
#
#
#
# Elastic Constant Matrix: (Units=GPa)
#
#
# Indices 1 2 3 4 5 6 
#
# 1 157.4265 55.2798 36.4687 0.0000 -6.0044 0.0000
# 2 55.2798 109.1040 22.7077 0.0000 7.8465 0.0000
# 3 36.4687 22.7077 49.8489 0.0000 17.8115 0.0000
# 4 0.0000 0.0000 0.0000 38.0057 0.0000 -0.2950
# 5 -6.0044 7.8465 17.8115 0.0000 31.6081 0.0000
# 6 0.0000 0.0000 0.0000 -0.2950 0.0000 23.2288
#
#
#
# Elastic Compliance Matrix: (Units=1/GPa)
#
#
# Indices 1 2 3 4 5 6 
#
# 1 0.009861 -0.003841 -0.008107 0.000000 0.007395 0.000000
# 2 -0.003841 0.011622 -0.001493 0.000000 -0.002773 0.000000
# 3 -0.008107 -0.001493 0.033919 0.000000 -0.020283 0.000000
# 4 0.000000 0.000000 0.000000 0.026314 0.000000 0.000334
# 5 0.007395 -0.002773 -0.020283 0.000000 0.045160 0.000000
# 6 0.000000 0.000000 0.000000 0.000334 0.000000 0.043054
#
#
# Mechanical properties :
#
#
# Convention : Reuss Voigt Hill
#
# Bulk Modulus (GPa) = 35.06319 60.58797 47.82558
# Shear Modulus (GPa) = 24.23428 32.03007 28.13217
#
# Velocity S-wave (km/s) = 3.26782 3.75684 3.52083
# Velocity P-wave (km/s) = 5.44872 6.74656 6.13207
#
# Compressibility (1/GPa) = 0.02851994
#
# Stress axis : x y z
#
# Youngs Moduli (GPa) = 101.41078 86.04489 29.48194
#
# Poissons Ratio (x) = 0.33048 0.23900
# Poissons Ratio (y) = 0.38950 0.04403
# Poissons Ratio (z) = 0.82211 0.12850
#
# Static dielectric constant tensor:
#      x y z
#    x 4.990100 0.000000 -0.304940 
#    y 0.000000 3.854430 0.000000 
#    z -0.304940 0.000000 3.895600 
# 
# 
# High freq. dielectric constant tensor:
#      x y z
#    x 1.918720 0.000000 -0.012790 
#    y 0.000000 1.872010 0.000000 
#    z -0.012790 0.000000 1.872110 
# 
# From -- ./inp_files/55994.got.cif
#   From: 2010.06.25/outbox.cif.g09.slc.cpg/sg15_28_cif.got.tgz:55994.got - 2010.06.28 07:06:18.
