data_PCOD8148981
_publ_section_title
;
Structure prediction by ZEFSAII (Michael W. Deem and Ramdas Pophale) SiO2 
 PCOD8148981
Probable space group: C 2/C
;
_chemical_formula_sum "Si O2"
_cell_formula_units_Z 28
_cell_length_a 19.789751
_cell_length_b 12.861332
_cell_length_c 5.030128
_cell_angle_alpha 90.000000
_cell_angle_beta 68.761115
_cell_angle_gamma 90.000000
_cell_volume 1193.322003
_symmetry_space_group_name_H-M "C 2/C"
_symmetry_group_IT_number 15
_symmetry_cell_setting 'monoclinic'
loop_
_space_group_symop_operation_xyz
x,y,z
-x,y,1/2-z
-x,-y,-z
x,-y,1/2+z
1/2+x,1/2+y,z
1/2-x,1/2+y,1/2-z
1/2-x,1/2-y,-z
1/2+x,1/2-y,1/2+z
loop_
_atom_site_type_symbol
_atom_site_label
_atom_site_fract_x
_atom_site_fract_y
_atom_site_fract_z
Si Si1 0.424657 0.718586 0.199201
Si Si2 0.311792 0.431411 0.081488
Si Si3 0.354360 0.067659 0.679143
Si Si4 0.500000 0.424446 0.250000
O O1 0.500000 0.712746 0.250000
O O2 0.361480 0.669478 0.470278
O O3 0.406902 0.836372 0.153232
O O4 0.432624 0.653202 0.911283
O O5 0.329837 0.520735 0.841923
O O6 0.228688 0.394722 0.177071
O O7 0.370925 0.023635 0.364288
O O8 0.500000 0.500000 0.500000
#
# Coordination Sequence:
#
# PCOD8148981 Si02
#       4
#     8   8   8   4
#     4  12  27  42  70 103 137 178 220 274 341 398
#     4  10  23  43  69  98 132 175 221 280 332 393
#     4  10  25  47  69  95 134 180 232 274 321 390
#     4  12  26  44  62  98 140 170 210 266 338 406
#
# _framework density 23.463909999999998
#
# number of rings (size 3 to 8) (size 9 to 14) (size 15 to 20)
#    0.000    1.143    1.429    2.571    8.000    1.143 
#    0.000    8.571    0.000    0.000    0.000    0.000 
#    0.000    0.000    0.000    0.000    0.000    0.000 
#
# Total GULP energy -173561.482876 kJ/mol
# GULP energy per Si atom -12397.248777 kJ/mol
# Density = 2.341051 g / cm^3
# Si number density = 23.463910 Si / 1000 Ang^3
#
#
#
# Elastic Constant Matrix: (Units=GPa)
#
#
# Indices 1 2 3 4 5 6 
#
# 1 94.3487 54.7562 21.9344 0.0000 2.8940 0.0000
# 2 54.7562 120.1261 22.5960 0.0000 -15.8677 0.0000
# 3 21.9344 22.5960 92.1848 0.0000 6.6712 0.0000
# 4 0.0000 0.0000 0.0000 28.0276 0.0000 -14.3303
# 5 2.8940 -15.8677 6.6712 0.0000 29.4458 0.0000
# 6 0.0000 0.0000 0.0000 -14.3303 0.0000 41.4898
#
#
#
# Elastic Compliance Matrix: (Units=1/GPa)
#
#
# Indices 1 2 3 4 5 6 
#
# 1 0.015415 -0.007435 -0.001470 0.000000 -0.005189 0.000000
# 2 -0.007435 0.013201 -0.002068 0.000000 0.008313 0.000000
# 3 -0.001470 -0.002068 0.011971 0.000000 -0.003682 0.000000
# 4 0.000000 0.000000 0.000000 0.043331 0.000000 0.014966
# 5 -0.005189 0.008313 -0.003682 0.000000 0.039785 0.000000
# 6 0.000000 0.000000 0.000000 0.014966 0.000000 0.029272
#
#
# Mechanical properties :
#
#
# Convention : Reuss Voigt Hill
#
# Bulk Modulus (GPa) = 53.64788 56.13697 54.89242
# Shear Modulus (GPa) = 27.60378 33.61752 30.61065
#
# Velocity S-wave (km/s) = 3.43364 3.78925 3.61582
# Velocity P-wave (km/s) = 6.21558 6.56668 6.39354
#
# Compressibility (1/GPa) = 0.01864007
#
# Stress axis : x y z
#
# Youngs Moduli (GPa) = 64.87156 75.75219 83.53580
#
# Poissons Ratio (x) = 0.56325 0.12278
# Poissons Ratio (y) = 0.48235 0.17277
# Poissons Ratio (z) = 0.09535 0.15667
#
# Static dielectric constant tensor:
#      x y z
#    x 4.329220 0.000000 -0.124200 
#    y 0.000000 4.133960 0.000000 
#    z -0.124200 0.000000 4.803550 
# 
# 
# High freq. dielectric constant tensor:
#      x y z
#    x 1.927690 0.000000 0.000220 
#    y 0.000000 1.926250 0.000000 
#    z 0.000220 0.000000 1.946680 
# 
# From -- ./inp_files/12343.got.cif
#   From: 2010.06.25/outbox.cif.g09.slc.cpg/sg15_7_cif.got.tgz:12343.got - 2010.06.28 07:06:18.
