data_PCOD8148157
_publ_section_title
;
Structure prediction by ZEFSAII (Michael W. Deem and Ramdas Pophale) SiO2 
 PCOD8148157
Probable space group: C 2/C
;
_chemical_formula_sum "Si O2"
_cell_formula_units_Z 48
_cell_length_a 18.583423
_cell_length_b 23.344248
_cell_length_c 7.480202
_cell_angle_alpha 90.000000
_cell_angle_beta 133.550846
_cell_angle_gamma 90.000000
_cell_volume 2351.879529
_symmetry_space_group_name_H-M "C 2/C"
_symmetry_group_IT_number 15
_symmetry_cell_setting 'monoclinic'
loop_
_space_group_symop_operation_xyz
x,y,z
-x,y,1/2-z
-x,-y,-z
x,-y,1/2+z
1/2+x,1/2+y,z
1/2-x,1/2+y,1/2-z
1/2-x,1/2-y,-z
1/2+x,1/2-y,1/2+z
loop_
_atom_site_type_symbol
_atom_site_label
_atom_site_fract_x
_atom_site_fract_y
_atom_site_fract_z
Si Si1 0.776534 0.720329 0.360316
Si Si2 0.115534 0.397734 0.414066
Si Si3 0.613144 0.649369 0.902335
Si Si4 0.755883 0.050816 0.424001
Si Si5 0.388095 0.330056 0.493725
Si Si6 0.251927 0.074011 0.672931
O O1 0.750000 0.750000 0.500000
O O2 0.848565 0.666753 0.494481
O O3 0.837434 0.769338 0.363161
O O4 0.674990 0.703452 0.083981
O O5 0.158113 0.441570 0.635214
O O6 0.145961 0.415637 0.263023
O O7 0.000000 0.399918 0.250000
O O8 0.500000 0.659774 0.750000
O O9 0.614412 0.638257 0.695585
O O10 0.662430 0.589221 0.044494
O O11 0.729241 0.070247 0.581463
O O12 0.794014 0.985444 0.480047
O O13 0.500000 0.321262 0.750000
O O14 0.323518 0.373246 0.509904
#
# Coordination Sequence:
#
# PCOD8148157 Si02
#       6
#     8   8   8   8   8   8
#     4  11  21  41  65  87 129 160 202 261 308 370
#     4  11  24  41  65  91 123 167 210 255 315 369
#     4  10  23  39  63  95 123 163 208 255 313 372
#     4  10  23  41  64  89 131 160 206 266 307 368
#     4  11  23  39  66  93 123 167 207 251 315 374
#     4  11  22  42  62  92 127 164 208 259 313 367
#
# _framework density 20.409208
#
# number of rings (size 3 to 8) (size 9 to 14) (size 15 to 20)
#    0.000    1.333    3.333    2.000    2.333    2.000 
#    0.000    3.333    0.000    0.000    0.000    0.000 
#    0.000    0.000    0.000    0.000    0.000    0.000 
#
# Total GULP energy -297350.411080 kJ/mol
# GULP energy per Si atom -12389.600462 kJ/mol
# Density = 2.036276 g / cm^3
# Si number density = 20.409208 Si / 1000 Ang^3
#
#
#
# Elastic Constant Matrix: (Units=GPa)
#
#
# Indices 1 2 3 4 5 6 
#
# 1 116.7041 43.0652 64.2120 0.0000 14.7575 0.0000
# 2 43.0652 143.0392 43.3819 0.0000 23.2525 0.0000
# 3 64.2120 43.3819 113.0086 0.0000 27.5611 0.0000
# 4 0.0000 0.0000 0.0000 22.5676 0.0000 -6.7317
# 5 14.7575 23.2525 27.5611 0.0000 40.9852 0.0000
# 6 0.0000 0.0000 0.0000 -6.7317 0.0000 29.0998
#
#
#
# Elastic Compliance Matrix: (Units=1/GPa)
#
#
# Indices 1 2 3 4 5 6 
#
# 1 0.012936 -0.001993 -0.006848 0.000000 0.001078 0.000000
# 2 -0.001993 0.008524 -0.001358 0.000000 -0.003205 0.000000
# 3 -0.006848 -0.001358 0.014919 0.000000 -0.006796 0.000000
# 4 0.000000 0.000000 0.000000 0.047596 0.000000 0.011010
# 5 0.001078 -0.003205 -0.006796 0.000000 0.030399 0.000000
# 6 0.000000 0.000000 0.000000 0.011010 0.000000 0.036912
#
#
# Mechanical properties :
#
#
# Convention : Reuss Voigt Hill
#
# Bulk Modulus (GPa) = 62.57663 74.89667 68.73665
# Shear Modulus (GPa) = 28.24703 33.33669 30.79186
#
# Velocity S-wave (km/s) = 3.72430 4.04594 3.88844
# Velocity P-wave (km/s) = 7.01580 7.65528 7.34250
#
# Compressibility (1/GPa) = 0.01598041
#
# Stress axis : x y z
#
# Youngs Moduli (GPa) = 77.30610 117.31535 67.02980
#
# Poissons Ratio (x) = 0.23380 0.45901
# Poissons Ratio (y) = 0.15406 0.09104
# Poissons Ratio (z) = 0.52939 0.15933
#
# Static dielectric constant tensor:
#      x y z
#    x 3.600510 0.000000 -0.275270 
#    y 0.000000 4.235440 0.000000 
#    z -0.275270 0.000000 3.612070 
# 
# 
# High freq. dielectric constant tensor:
#      x y z
#    x 1.803480 0.000000 -0.013230 
#    y 0.000000 1.813510 0.000000 
#    z -0.013230 0.000000 1.786560 
# 
# From -- ./inp_files/50399.got.cif
#   From: 2010.06.25/outbox.cif.g09.slc.cpg/sg15_26_cif.got.tgz:50399.got - 2010.06.28 07:06:18.
