data_PCOD8148631
_publ_section_title
;
Structure prediction by ZEFSAII (Michael W. Deem and Ramdas Pophale) SiO2 
 PCOD8148631
Probable space group: C 2/C
;
_chemical_formula_sum "Si O2"
_cell_formula_units_Z 56
_cell_length_a 8.960496
_cell_length_b 10.352962
_cell_length_c 28.413523
_cell_angle_alpha 90.000000
_cell_angle_beta 65.737267
_cell_angle_gamma 90.000000
_cell_volume 2403.033221
_symmetry_space_group_name_H-M "C 2/C"
_symmetry_group_IT_number 15
_symmetry_cell_setting 'monoclinic'
loop_
_space_group_symop_operation_xyz
x,y,z
-x,y,1/2-z
-x,-y,-z
x,-y,1/2+z
1/2+x,1/2+y,z
1/2-x,1/2+y,1/2-z
1/2-x,1/2-y,-z
1/2+x,1/2-y,1/2+z
loop_
_atom_site_type_symbol
_atom_site_label
_atom_site_fract_x
_atom_site_fract_y
_atom_site_fract_z
Si Si1 0.082060 0.176734 0.356562
Si Si2 0.693456 0.074695 0.099265
Si Si3 0.826490 0.144725 0.253970
Si Si4 0.756718 0.214460 0.600784
Si Si5 0.044772 0.775211 0.331108
Si Si6 0.975052 0.585572 0.048616
Si Si7 0.747160 0.944057 0.344205
O O1 0.154262 0.096291 0.302675
O O2 0.142567 0.321926 0.342392
O O3 0.886594 0.178269 0.376730
O O4 0.131905 0.117196 0.401329
O O5 0.681613 0.920824 0.095110
O O6 0.650433 0.118674 0.051176
O O7 0.558889 0.141432 0.150648
O O8 0.680409 0.252365 0.272803
O O9 0.000000 0.203405 0.250000
O O10 0.771597 0.029167 0.294789
O O11 0.850416 0.193123 0.636810
O O12 0.887151 0.277933 0.546774
O O13 0.926704 0.897493 0.338413
O O14 0.855383 0.517060 0.102064
O O15 0.000000 0.500000 0.000000
#
# Coordination Sequence:
#
# PCOD8148631 Si02
#       7
#     8   8   8   8   8   8   8
#     4  11  24  42  70 100 140 187 222 282 347 408
#     4  10  23  44  66  97 136 169 228 284 338 410
#     4  12  23  40  63 102 134 181 227 266 335 412
#     4  11  21  43  69  95 136 176 223 288 336 410
#     4  10  23  42  65  94 136 181 227 273 339 395
#     4  11  24  48  74  98 135 182 231 295 360 413
#     4  11  24  46  67  97 145 174 234 290 333 414
#
# _framework density 23.303881000000001
#
# number of rings (size 3 to 8) (size 9 to 14) (size 15 to 20)
#    0.000    1.143    5.714    0.000    6.000    2.286 
#    0.000    7.143    0.000    0.000    0.000    0.000 
#    0.000    0.000    0.000    0.000    0.000    0.000 
#
# Total GULP energy -346865.687853 kJ/mol
# GULP energy per Si atom -12388.060280 kJ/mol
# Density = 2.325084 g / cm^3
# Si number density = 23.303881 Si / 1000 Ang^3
#
#
#
# Elastic Constant Matrix: (Units=GPa)
#
#
# Indices 1 2 3 4 5 6 
#
# 1 129.1003 9.1231 23.4629 0.0000 10.1066 0.0000
# 2 9.1231 69.3722 22.0214 0.0000 -4.7703 0.0000
# 3 23.4629 22.0214 50.3563 0.0000 7.5227 0.0000
# 4 0.0000 0.0000 0.0000 15.6793 0.0000 -0.9108
# 5 10.1066 -4.7703 7.5227 0.0000 21.5639 0.0000
# 6 0.0000 0.0000 0.0000 -0.9108 0.0000 39.8646
#
#
#
# Elastic Compliance Matrix: (Units=1/GPa)
#
#
# Indices 1 2 3 4 5 6 
#
# 1 0.008621 -0.000223 -0.003490 0.000000 -0.002872 0.000000
# 2 -0.000223 0.017685 -0.008682 0.000000 0.007046 0.000000
# 3 -0.003490 -0.008682 0.026716 0.000000 -0.009605 0.000000
# 4 0.000000 0.000000 0.000000 0.063863 0.000000 0.001459
# 5 -0.002872 0.007046 -0.009605 0.000000 0.052629 0.000000
# 6 0.000000 0.000000 0.000000 0.001459 0.000000 0.025118
#
#
# Mechanical properties :
#
#
# Convention : Reuss Voigt Hill
#
# Bulk Modulus (GPa) = 35.42229 39.78261 37.60245
# Shear Modulus (GPa) = 21.84983 28.36965 25.10974
#
# Velocity S-wave (km/s) = 3.06536 3.49288 3.28608
# Velocity P-wave (km/s) = 5.26894 5.77713 5.52888
#
# Compressibility (1/GPa) = 0.02823082
#
# Stress axis : x y z
#
# Youngs Moduli (GPa) = 115.99796 56.54523 37.43024
#
# Poissons Ratio (x) = 0.01263 0.13063
# Poissons Ratio (y) = 0.02591 0.32498
# Poissons Ratio (z) = 0.40483 0.49094
#
# Static dielectric constant tensor:
#      x y z
#    x 4.805050 0.000000 -0.152870 
#    y 0.000000 4.341660 0.000000 
#    z -0.152870 0.000000 3.983470 
# 
# 
# High freq. dielectric constant tensor:
#      x y z
#    x 1.952510 0.000000 -0.004610 
#    y 0.000000 1.923260 0.000000 
#    z -0.004610 0.000000 1.877580 
# 
# From -- ./inp_files/307399.got.cif
#   From: 2010.06.25/outbox.cif.g09.slc.cpg/sg15_154_cif.got.tgz:307399.got - 2010.06.28 07:06:18.
