data_PCOD8148706
_publ_section_title
;
Structure prediction by ZEFSAII (Michael W. Deem and Ramdas Pophale) SiO2 
 PCOD8148706
Probable space group: C 2/C
;
_chemical_formula_sum "Si O2"
_cell_formula_units_Z 60
_cell_length_a 12.200560
_cell_length_b 14.939520
_cell_length_c 15.160342
_cell_angle_alpha 90.000000
_cell_angle_beta 101.395469
_cell_angle_gamma 90.000000
_cell_volume 2708.810121
_symmetry_space_group_name_H-M "C 2/C"
_symmetry_group_IT_number 15
_symmetry_cell_setting 'monoclinic'
loop_
_space_group_symop_operation_xyz
x,y,z
-x,y,1/2-z
-x,-y,-z
x,-y,1/2+z
1/2+x,1/2+y,z
1/2-x,1/2+y,1/2-z
1/2-x,1/2-y,-z
1/2+x,1/2-y,1/2+z
loop_
_atom_site_type_symbol
_atom_site_label
_atom_site_fract_x
_atom_site_fract_y
_atom_site_fract_z
Si Si1 0.863765 0.070657 0.557204
Si Si2 0.660233 0.706642 0.549413
Si Si3 0.500000 0.708447 0.250000
Si Si4 0.289890 0.180799 0.736167
Si Si5 0.004988 0.369874 0.568315
Si Si6 0.992177 0.910162 0.912725
Si Si7 0.894542 0.754438 0.172781
Si Si8 0.133260 0.549424 0.604065
O O1 0.882554 0.168728 0.598097
O O2 0.741485 0.031895 0.560429
O O3 0.880920 0.075582 0.453923
O O4 0.957368 0.004253 0.612858
O O5 0.750000 0.750000 0.500000
O O6 0.716209 0.652623 0.640083
O O7 0.587567 0.786686 0.577382
O O8 0.587349 0.634646 0.487479
O O9 0.605408 0.768956 0.290634
O O10 0.539703 0.649471 0.174753
O O11 0.219023 0.247248 0.788098
O O12 0.331723 0.094459 0.797841
O O13 0.071667 0.456157 0.614638
O O14 0.910313 0.340907 0.624938
O O15 0.950991 0.386633 0.463711
O O16 0.000000 0.777203 0.250000
#
# Coordination Sequence:
#
# PCOD8148706 Si02
#       8
#     8   8   4   8   8   8   8   8
#     4  10  23  42  67  99 133 177 222 280 346 406
#     4  12  22  43  70  94 136 184 226 280 351 416
#     4  12  26  42  66 102 136 178 230 288 330 416
#     4  11  25  43  68  99 137 182 232 285 346 416
#     4  11  23  45  70  99 139 178 224 291 349 422
#     4  11  23  42  67  99 134 176 227 279 344 408
#     4  11  22  42  71  98 132 179 229 278 348 419
#     4  10  25  44  68 102 139 175 229 291 347 417
#
# _framework density 22.149946
#
# number of rings (size 3 to 8) (size 9 to 14) (size 15 to 20)
#    0.000    1.067    4.000    1.600    2.800    1.067 
#    3.600    0.000    0.000    0.000    0.000    0.000 
#    0.000    0.000    0.000    0.000    0.000    0.000 
#
# Total GULP energy -372023.497290 kJ/mol
# GULP energy per Si atom -12400.783243 kJ/mol
# Density = 2.209953 g / cm^3
# Si number density = 22.149946 Si / 1000 Ang^3
#
#
#
# Elastic Constant Matrix: (Units=GPa)
#
#
# Indices 1 2 3 4 5 6 
#
# 1 81.3841 30.9823 15.9847 0.0000 -12.6326 0.0000
# 2 30.9823 81.5295 28.7093 0.0000 -4.0175 0.0000
# 3 15.9847 28.7093 100.4206 0.0000 8.1955 0.0000
# 4 0.0000 0.0000 0.0000 21.8946 0.0000 8.2793
# 5 -12.6326 -4.0175 8.1955 0.0000 35.7723 0.0000
# 6 0.0000 0.0000 0.0000 8.2793 0.0000 30.1477
#
#
#
# Elastic Compliance Matrix: (Units=1/GPa)
#
#
# Indices 1 2 3 4 5 6 
#
# 1 0.015291 -0.005061 -0.001408 0.000000 0.005154 0.000000
# 2 -0.005061 0.015531 -0.003700 0.000000 0.000805 0.000000
# 3 -0.001408 -0.003700 0.011530 0.000000 -0.003554 0.000000
# 4 0.000000 0.000000 0.000000 0.050966 0.000000 -0.013996
# 5 0.005154 0.000805 -0.003554 0.000000 0.030679 0.000000
# 6 0.000000 0.000000 0.000000 -0.013996 0.000000 0.037014
#
#
# Mechanical properties :
#
#
# Convention : Reuss Voigt Hill
#
# Bulk Modulus (GPa) = 45.42534 46.07631 45.75083
# Shear Modulus (GPa) = 26.49890 30.07346 28.28618
#
# Velocity S-wave (km/s) = 3.46257 3.68872 3.57743
# Velocity P-wave (km/s) = 6.04471 6.24415 6.14524
#
# Compressibility (1/GPa) = 0.02201414
#
# Stress axis : x y z
#
# Youngs Moduli (GPa) = 65.39996 64.38561 86.72923
#
# Poissons Ratio (x) = 0.32585 0.12208
# Poissons Ratio (y) = 0.33099 0.32093
# Poissons Ratio (z) = 0.09206 0.23825
#
# Static dielectric constant tensor:
#      x y z
#    x 4.451980 0.000000 -0.269220 
#    y 0.000000 3.990830 0.000000 
#    z -0.269220 0.000000 4.048510 
# 
# 
# High freq. dielectric constant tensor:
#      x y z
#    x 1.885180 0.000000 -0.009120 
#    y 0.000000 1.864370 0.000000 
#    z -0.009120 0.000000 1.870650 
# 
# From -- ./inp_files/197916.got.cif
#   From: 2010.06.25/outbox.cif.g09.slc.cpg/sg15_99_cif.got.tgz:197916.got - 2010.06.28 07:06:18.
