data_PCOD8148304
_publ_section_title
;
Structure prediction by ZEFSAII (Michael W. Deem and Ramdas Pophale) SiO2 
 PCOD8148304
Probable space group: C 2/C
;
_chemical_formula_sum "Si O2"
_cell_formula_units_Z 56
_cell_length_a 30.873405
_cell_length_b 8.844107
_cell_length_c 11.250753
_cell_angle_alpha 90.000000
_cell_angle_beta 120.304092
_cell_angle_gamma 90.000000
_cell_volume 2652.233697
_symmetry_space_group_name_H-M "C 2/C"
_symmetry_group_IT_number 15
_symmetry_cell_setting 'monoclinic'
loop_
_space_group_symop_operation_xyz
x,y,z
-x,y,1/2-z
-x,-y,-z
x,-y,1/2+z
1/2+x,1/2+y,z
1/2-x,1/2+y,1/2-z
1/2-x,1/2-y,-z
1/2+x,1/2-y,1/2+z
loop_
_atom_site_type_symbol
_atom_site_label
_atom_site_fract_x
_atom_site_fract_y
_atom_site_fract_z
Si Si1 0.444886 0.579980 0.218225
Si Si2 0.369844 0.038773 0.246060
Si Si3 0.817121 0.971520 0.187915
Si Si4 0.782098 0.391903 0.004449
Si Si5 0.114579 0.798692 0.393346
Si Si6 0.639984 0.737766 0.559091
Si Si7 0.390781 0.717294 0.336011
O O1 0.500000 0.616832 0.250000
O O2 0.434249 0.400459 0.201690
O O3 0.439039 0.628325 0.349329
O O4 0.405181 0.672075 0.082118
O O5 0.391141 0.126300 0.159524
O O6 0.380416 0.148320 0.370407
O O7 0.401205 0.887303 0.308961
O O8 0.311807 0.983858 0.148978
O O9 0.836233 0.869643 0.103345
O O10 0.832809 0.901440 0.336665
O O11 0.757084 0.985661 0.103143
O O12 0.841986 0.138770 0.206764
O O13 0.821630 0.337444 0.962391
O O14 0.750000 0.250000 0.000000
O O15 0.119526 0.794555 0.540329
#
# Coordination Sequence:
#
# PCOD8148304 Si02
#       7
#     8   8   8   8   8   8   8
#     4  11  24  47  74  99 129 177 233 284 348 415
#     4  11  24  41  66  96 138 177 216 282 337 392
#     4  10  23  40  66  97 134 184 226 273 326 410
#     4  12  23  38  63  98 138 181 226 261 342 402
#     4  10  23  44  66  97 133 174 231 278 342 404
#     4  11  24  44  64  97 138 173 230 283 332 402
#     4  11  21  42  70  94 140 175 215 290 334 396
#
# _framework density 21.114277999999999
#
# number of rings (size 3 to 8) (size 9 to 14) (size 15 to 20)
#    0.000    1.143    4.286    1.714    2.000    4.000 
#    0.000    1.429    0.000    0.000    0.000    0.000 
#    0.000    0.000    0.000    0.000    0.000    0.000 
#
# Total GULP energy -347006.406496 kJ/mol
# GULP energy per Si atom -12393.085946 kJ/mol
# Density = 2.106622 g / cm^3
# Si number density = 21.114278 Si / 1000 Ang^3
#
#
#
# Elastic Constant Matrix: (Units=GPa)
#
#
# Indices 1 2 3 4 5 6 
#
# 1 115.5404 26.1446 50.2140 0.0000 -0.8346 0.0000
# 2 26.1446 126.4929 35.7292 0.0000 -6.2520 0.0000
# 3 50.2140 35.7292 78.8734 0.0000 -13.8071 0.0000
# 4 0.0000 0.0000 0.0000 19.6349 0.0000 -8.9632
# 5 -0.8346 -6.2520 -13.8071 0.0000 29.3292 0.0000
# 6 0.0000 0.0000 0.0000 -8.9632 0.0000 30.2495
#
#
#
# Elastic Compliance Matrix: (Units=1/GPa)
#
#
# Indices 1 2 3 4 5 6 
#
# 1 0.012328 -0.000380 -0.008314 0.000000 -0.003644 0.000000
# 2 -0.000380 0.009077 -0.003851 0.000000 0.000111 0.000000
# 3 -0.008314 -0.003851 0.021285 0.000000 0.008963 0.000000
# 4 0.000000 0.000000 0.000000 0.058896 0.000000 0.017451
# 5 -0.003644 0.000111 0.008963 0.000000 0.038235 0.000000
# 6 0.000000 0.000000 0.000000 0.017451 0.000000 0.038229
#
#
# Mechanical properties :
#
#
# Convention : Reuss Voigt Hill
#
# Bulk Modulus (GPa) = 56.81581 60.56469 58.69025
# Shear Modulus (GPa) = 23.92256 29.76400 26.84328
#
# Velocity S-wave (km/s) = 3.36966 3.75862 3.56944
# Velocity P-wave (km/s) = 6.48896 6.89803 6.69662
#
# Compressibility (1/GPa) = 0.01760073
#
# Stress axis : x y z
#
# Youngs Moduli (GPa) = 81.11585 110.16573 46.98103
#
# Poissons Ratio (x) = 0.04183 0.39062
# Poissons Ratio (y) = 0.03080 0.18091
# Poissons Ratio (z) = 0.67444 0.42422
#
# Static dielectric constant tensor:
#      x y z
#    x 3.829620 0.000000 -0.242200 
#    y 0.000000 4.368100 0.000000 
#    z -0.242200 0.000000 3.778670 
# 
# 
# High freq. dielectric constant tensor:
#      x y z
#    x 1.807090 0.000000 -0.027860 
#    y 0.000000 1.848450 0.000000 
#    z -0.027860 0.000000 1.817280 
# 
# From -- ./inp_files/125983.got.cif
#   From: 2010.06.25/outbox.cif.g09.slc.cpg/sg15_63_cif.got.tgz:125983.got - 2010.06.28 07:06:18.
