data_PCOD8148552
_publ_section_title
;
Structure prediction by ZEFSAII (Michael W. Deem and Ramdas Pophale) SiO2 
 PCOD8148552
Probable space group: C 2/C
;
_chemical_formula_sum "Si O2"
_cell_formula_units_Z 48
_cell_length_a 28.950388
_cell_length_b 20.440797
_cell_length_c 11.740816
_cell_angle_alpha 90.000000
_cell_angle_beta 19.679111
_cell_angle_gamma 90.000000
_cell_volume 2339.702669
_symmetry_space_group_name_H-M "C 2/C"
_symmetry_group_IT_number 15
_symmetry_cell_setting 'monoclinic'
loop_
_space_group_symop_operation_xyz
x,y,z
-x,y,1/2-z
-x,-y,-z
x,-y,1/2+z
1/2+x,1/2+y,z
1/2-x,1/2+y,1/2-z
1/2-x,1/2-y,-z
1/2+x,1/2-y,1/2+z
loop_
_atom_site_type_symbol
_atom_site_label
_atom_site_fract_x
_atom_site_fract_y
_atom_site_fract_z
Si Si1 0.700223 0.366567 0.804658
Si Si2 0.296110 0.450873 0.081072
Si Si3 0.000000 0.017110 0.750000
Si Si4 0.656343 0.849250 0.260074
Si Si5 0.858401 0.569256 0.130209
Si Si6 0.921545 0.563615 0.224635
Si Si7 0.500000 0.739483 0.750000
O O1 0.783936 0.337981 0.503649
O O2 0.801075 0.377467 0.675910
O O3 0.628304 0.434059 0.928251
O O4 0.597515 0.311168 0.092257
O O5 0.274065 0.381041 0.069297
O O6 0.242964 0.507467 0.120091
O O7 0.212990 0.453484 0.392379
O O8 0.453729 0.469234 0.751855
O O9 0.521959 0.894553 0.570260
O O10 0.600547 0.780415 0.435582
O O11 0.876677 0.601569 0.212783
O O12 0.000000 0.541501 0.750000
O O13 0.000000 0.500000 0.000000
#
# Coordination Sequence:
#
# PCOD8148552 Si02
#       7
#     8   8   4   8   8   8   4
#     4  10  23  42  61  87 117 169 203 243 300 352
#     4  11  21  35  57  94 124 155 192 248 309 364
#     4   9  22  40  54  90 132 151 194 238 310 373
#     4  12  21  38  69  86 117 159 204 256 297 355
#     4  11  19  34  61  90 125 152 193 248 302 363
#     4  12  19  33  59  96 122 150 194 250 308 362
#     4  11  24  44  60  88 118 159 220 244 288 365
#
# _framework density 20.515426999999999
#
# number of rings (size 3 to 8) (size 9 to 14) (size 15 to 20)
#    0.000    1.000    6.667    1.500    0.000    0.667 
#    6.000    0.833    1.833    0.000    0.000    0.000 
#    0.000    0.000    0.000    0.000    0.000    0.000 
#
# Total GULP energy -297421.384209 kJ/mol
# GULP energy per Si atom -12392.557675 kJ/mol
# Density = 2.046873 g / cm^3
# Si number density = 20.515427 Si / 1000 Ang^3
#
#
#
# Elastic Constant Matrix: (Units=GPa)
#
#
# Indices 1 2 3 4 5 6 
#
# 1 124.8740 41.8036 28.0880 0.0000 -11.8522 -0.0001
# 2 41.8036 95.3594 20.3401 0.0006 -13.2123 -0.0004
# 3 28.0880 20.3401 41.5000 0.0041 -6.4478 0.0002
# 4 0.0000 0.0006 0.0041 31.1867 -0.0012 -2.2230
# 5 -11.8522 -13.2123 -6.4478 -0.0012 39.3463 -0.0001
# 6 -0.0001 -0.0004 0.0002 -2.2230 -0.0001 12.0084
#
#
#
# Elastic Compliance Matrix: (Units=1/GPa)
#
#
# Indices 1 2 3 4 5 6 
#
# 1 0.010397 -0.003276 -0.005249 0.000001 0.001172 0.000000
# 2 -0.003276 0.013116 -0.003777 0.000000 0.002799 0.000001
# 3 -0.005249 -0.003777 0.029816 -0.000004 0.002037 -0.000001
# 4 0.000001 0.000000 -0.000004 0.032494 0.000001 0.006015
# 5 0.001172 0.002799 0.002037 0.000001 0.027042 0.000000
# 6 0.000000 0.000001 -0.000001 0.006015 0.000000 0.084388
#
#
# Mechanical properties :
#
#
# Convention : Reuss Voigt Hill
#
# Bulk Modulus (GPa) = 34.81123 49.13295 41.97209
# Shear Modulus (GPa) = 21.60473 27.94174 24.77323
#
# Velocity S-wave (km/s) = 3.24867 3.69451 3.47874
# Velocity P-wave (km/s) = 5.57467 6.49619 6.05299
#
# Compressibility (1/GPa) = 0.02872636
#
# Stress axis : x y z
#
# Youngs Moduli (GPa) = 96.18592 76.24316 33.53856
#
# Poissons Ratio (x) = 0.24975 0.17605
# Poissons Ratio (y) = 0.31507 0.12666
# Poissons Ratio (z) = 0.50488 0.28794
#
# Static dielectric constant tensor:
#      x y z
#    x 4.121150 0.000000 -0.244900 
#    y 0.000000 3.666910 0.000000 
#    z -0.244900 0.000000 3.693830 
# 
# 
# High freq. dielectric constant tensor:
#      x y z
#    x 1.805160 0.000000 -0.007270 
#    y 0.000000 1.771270 0.000000 
#    z -0.007270 0.000000 1.799210 
# 
# From -- ./inp_files/114211.got.cif
#   From: 2010.06.25/outbox.cif.g09.slc.cpg/sg15_58_cif.got.tgz:114211.got - 2010.06.28 07:06:18.
