data_PCOD8148434
_publ_section_title
;
Structure prediction by ZEFSAII (Michael W. Deem and Ramdas Pophale) SiO2 
 PCOD8148434
Probable space group: C 2/C
;
_chemical_formula_sum "Si O2"
_cell_formula_units_Z 40
_cell_length_a 19.699621
_cell_length_b 11.169748
_cell_length_c 9.271853
_cell_angle_alpha 90.000000
_cell_angle_beta 74.898274
_cell_angle_gamma 90.000000
_cell_volume 1969.718755
_symmetry_space_group_name_H-M "C 2/C"
_symmetry_group_IT_number 15
_symmetry_cell_setting 'monoclinic'
loop_
_space_group_symop_operation_xyz
x,y,z
-x,y,1/2-z
-x,-y,-z
x,-y,1/2+z
1/2+x,1/2+y,z
1/2-x,1/2+y,1/2-z
1/2-x,1/2-y,-z
1/2+x,1/2-y,1/2+z
loop_
_atom_site_type_symbol
_atom_site_label
_atom_site_fract_x
_atom_site_fract_y
_atom_site_fract_z
Si Si1 0.681357 0.667178 0.517428
Si Si2 0.726451 0.498574 0.237676
Si Si3 0.947837 0.605986 0.905430
Si Si4 0.545752 0.163665 0.083560
Si Si5 0.795492 0.636392 0.952747
O O1 0.750000 0.750000 0.500000
O O2 0.685233 0.592884 0.363941
O O3 0.674778 0.579936 0.662211
O O4 0.611747 0.747398 0.547836
O O5 0.774669 0.418994 0.312671
O O6 0.783033 0.555870 0.099449
O O7 0.926876 0.471082 0.968114
O O8 0.876950 0.673448 0.898467
O O9 0.000000 0.581506 0.750000
O O10 0.987638 0.693077 0.994355
O O11 0.500000 0.177998 0.250000
O O12 0.750000 0.750000 0.000000
#
# Coordination Sequence:
#
# PCOD8148434 Si02
#       5
#     8   8   8   8   8
#     4  11  23  42  69  92 134 170 216 263 320 376
#     4  10  24  40  64  97 125 166 225 254 308 385
#     4  10  24  38  62  97 126 155 213 267 322 382
#     4  10  23  41  65  92 125 165 206 269 329 369
#     4  11  24  39  67  90 127 165 211 259 315 376
#
# _framework density 20.307466999999999
#
# number of rings (size 3 to 8) (size 9 to 14) (size 15 to 20)
#    0.000    1.600    0.000    3.600   19.600    0.000 
#    0.000    1.000    0.000    0.000    0.000    0.000 
#    0.000    0.000    0.000    0.000    0.000    0.000 
#
# Total GULP energy -247806.378111 kJ/mol
# GULP energy per Si atom -12390.318906 kJ/mol
# Density = 2.026125 g / cm^3
# Si number density = 20.307467 Si / 1000 Ang^3
#
#
#
# Elastic Constant Matrix: (Units=GPa)
#
#
# Indices 1 2 3 4 5 6 
#
# 1 172.6545 74.3333 45.1199 0.0000 -0.3919 0.0000
# 2 74.3333 95.4314 44.5186 0.0000 2.1422 0.0000
# 3 45.1199 44.5186 115.5778 0.0000 19.9104 0.0000
# 4 0.0000 0.0000 0.0000 19.4083 0.0000 0.3884
# 5 -0.3919 2.1422 19.9104 0.0000 28.6447 0.0000
# 6 0.0000 0.0000 0.0000 0.3884 0.0000 43.9183
#
#
#
# Elastic Compliance Matrix: (Units=1/GPa)
#
#
# Indices 1 2 3 4 5 6 
#
# 1 0.008856 -0.006339 -0.001270 0.000000 0.001478 0.000000
# 2 -0.006339 0.017512 -0.004578 0.000000 0.001786 0.000000
# 3 -0.001270 -0.004578 0.012332 0.000000 -0.008247 0.000000
# 4 0.000000 0.000000 0.000000 0.051534 0.000000 -0.000456
# 5 0.001478 0.001786 -0.008247 0.000000 0.040529 0.000000
# 6 0.000000 0.000000 0.000000 -0.000456 0.000000 0.022774
#
#
# Mechanical properties :
#
#
# Convention : Reuss Voigt Hill
#
# Bulk Modulus (GPa) = 69.80673 79.06747 74.43710
# Shear Modulus (GPa) = 27.36912 33.04038 30.20475
#
# Velocity S-wave (km/s) = 3.67514 4.03799 3.86083
# Velocity P-wave (km/s) = 7.24281 7.79488 7.52391
#
# Compressibility (1/GPa) = 0.01432527
#
# Stress axis : x y z
#
# Youngs Moduli (GPa) = 112.91290 57.10380 81.08779
#
# Poissons Ratio (x) = 0.36198 0.10301
# Poissons Ratio (y) = 0.71575 0.37125
# Poissons Ratio (z) = 0.14344 0.26144
#
# Static dielectric constant tensor:
#      x y z
#    x 3.701630 0.000000 0.057370 
#    y 0.000000 3.710830 0.000000 
#    z 0.057370 0.000000 4.064140 
# 
# 
# High freq. dielectric constant tensor:
#      x y z
#    x 1.790470 0.000000 0.008700 
#    y 0.000000 1.776430 0.000000 
#    z 0.008700 0.000000 1.817340 
# 
# From -- ./inp_files/46044.got.cif
#   From: 2010.06.25/outbox.cif.g09.slc.cpg/sg15_24_cif.got.tgz:46044.got - 2010.06.28 07:06:18.
