data_PCOD8148356
_publ_section_title
;
Structure prediction by ZEFSAII (Michael W. Deem and Ramdas Pophale) SiO2 
 PCOD8148356
Probable space group: C 2/C
;
_chemical_formula_sum "Si O2"
_cell_formula_units_Z 56
_cell_length_a 9.084115
_cell_length_b 17.353500
_cell_length_c 18.446105
_cell_angle_alpha 90.000000
_cell_angle_beta 63.530338
_cell_angle_gamma 90.000000
_cell_volume 2603.035796
_symmetry_space_group_name_H-M "C 2/C"
_symmetry_group_IT_number 15
_symmetry_cell_setting 'monoclinic'
loop_
_space_group_symop_operation_xyz
x,y,z
-x,y,1/2-z
-x,-y,-z
x,-y,1/2+z
1/2+x,1/2+y,z
1/2-x,1/2+y,1/2-z
1/2-x,1/2-y,-z
1/2+x,1/2-y,1/2+z
loop_
_atom_site_type_symbol
_atom_site_label
_atom_site_fract_x
_atom_site_fract_y
_atom_site_fract_z
Si Si1 0.152827 0.388861 0.976675
Si Si2 0.979590 0.858288 0.585074
Si Si3 0.046074 0.475619 0.592447
Si Si4 0.358884 0.195970 0.594032
Si Si5 0.656246 0.390570 0.030842
Si Si6 0.373382 0.083174 0.723873
Si Si7 0.951971 0.994034 0.176472
O O1 0.332316 0.351476 0.929670
O O2 0.109523 0.444050 0.918583
O O3 0.128937 0.443841 0.050464
O O4 0.026868 0.318050 0.012676
O O5 0.869232 0.782107 0.623766
O O6 0.984766 0.871267 0.496422
O O7 0.898354 0.925837 0.650856
O O8 0.191288 0.413285 0.555931
O O9 0.962671 0.500522 0.686312
O O10 0.208163 0.182108 0.570186
O O11 0.333499 0.135879 0.664074
O O12 0.603782 0.460353 0.095637
O O13 0.500000 0.127252 0.750000
O O14 0.198830 0.065111 0.799306
O O15 0.000000 0.005797 0.250000
#
# Coordination Sequence:
#
# PCOD8148356 Si02
#       7
#     8   8   8   8   8   8   8
#     4   9  18  34  61  89 118 155 205 264 316 364
#     4  12  23  37  67  98 123 161 229 276 306 394
#     4   9  18  38  61  90 120 163 211 264 313 375
#     4  10  23  41  59  89 134 166 206 269 347 376
#     4  11  22  41  67  92 126 169 218 270 323 394
#     4  11  23  39  63  87 128 174 211 259 334 411
#     4  12  24  41  66  97 130 167 220 273 329 389
#
# _framework density 21.513341
#
# number of rings (size 3 to 8) (size 9 to 14) (size 15 to 20)
#    0.000    1.429    2.857    3.857    4.000    0.571 
#    0.000    0.000   12.571    0.000    0.000    0.000 
#    0.000    0.000    0.000    0.000    0.000    0.000 
#
# Total GULP energy -346924.967862 kJ/mol
# GULP energy per Si atom -12390.177424 kJ/mol
# Density = 2.146438 g / cm^3
# Si number density = 21.513341 Si / 1000 Ang^3
#
#
#
# Elastic Constant Matrix: (Units=GPa)
#
#
# Indices 1 2 3 4 5 6 
#
# 1 96.2958 27.9575 35.4984 0.0000 10.0135 0.0000
# 2 27.9575 104.3429 24.5800 0.0000 0.9078 0.0000
# 3 35.4984 24.5800 79.3170 0.0000 7.0487 0.0000
# 4 0.0000 0.0000 0.0000 19.3013 0.0000 6.4149
# 5 10.0135 0.9078 7.0487 0.0000 27.2663 0.0000
# 6 0.0000 0.0000 0.0000 6.4149 0.0000 30.1281
#
#
#
# Elastic Compliance Matrix: (Units=1/GPa)
#
#
# Indices 1 2 3 4 5 6 
#
# 1 0.013236 -0.002367 -0.004877 0.000000 -0.003521 0.000000
# 2 -0.002367 0.010768 -0.002378 0.000000 0.001125 0.000000
# 3 -0.004877 -0.002378 0.015722 0.000000 -0.002194 0.000000
# 4 0.000000 0.000000 0.000000 0.055756 0.000000 -0.011872
# 5 -0.003521 0.001125 -0.002194 0.000000 0.038498 0.000000
# 6 0.000000 0.000000 0.000000 -0.011872 0.000000 0.035719
#
#
# Mechanical properties :
#
#
# Convention : Reuss Voigt Hill
#
# Bulk Modulus (GPa) = 48.82184 50.66973 49.74578
# Shear Modulus (GPa) = 25.54000 28.13379 26.83689
#
# Velocity S-wave (km/s) = 3.44927 3.62019 3.53576
# Velocity P-wave (km/s) = 6.21340 6.40923 6.31207
#
# Compressibility (1/GPa) = 0.02048264
#
# Stress axis : x y z
#
# Youngs Moduli (GPa) = 75.55157 92.86525 63.60361
#
# Poissons Ratio (x) = 0.21980 0.31022
# Poissons Ratio (y) = 0.17882 0.15124
# Poissons Ratio (z) = 0.36849 0.22081
#
# Static dielectric constant tensor:
#      x y z
#    x 3.968000 0.000000 0.038490 
#    y 0.000000 3.642120 0.000000 
#    z 0.038490 0.000000 3.877250 
# 
# 
# High freq. dielectric constant tensor:
#      x y z
#    x 1.855930 0.000000 0.007550 
#    y 0.000000 1.818770 0.000000 
#    z 0.007550 0.000000 1.827430 
# 
# From -- ./inp_files/190920.got.cif
#   From: 2010.06.25/outbox.cif.g09.slc.cpg/sg15_96_cif.got.tgz:190920.got - 2010.06.28 07:06:18.
