data_PCOD8148107
_publ_section_title
;
Structure prediction by ZEFSAII (Michael W. Deem and Ramdas Pophale) SiO2 
 PCOD8148107
Probable space group: C 2/C
;
_chemical_formula_sum "Si O2"
_cell_formula_units_Z 40
_cell_length_a 8.928517
_cell_length_b 26.822896
_cell_length_c 8.702533
_cell_angle_alpha 90.000000
_cell_angle_beta 88.708982
_cell_angle_gamma 90.000000
_cell_volume 2083.629110
_symmetry_space_group_name_H-M "C 2/C"
_symmetry_group_IT_number 15
_symmetry_cell_setting 'monoclinic'
loop_
_space_group_symop_operation_xyz
x,y,z
-x,y,1/2-z
-x,-y,-z
x,-y,1/2+z
1/2+x,1/2+y,z
1/2-x,1/2+y,1/2-z
1/2-x,1/2-y,-z
1/2+x,1/2-y,1/2+z
loop_
_atom_site_type_symbol
_atom_site_label
_atom_site_fract_x
_atom_site_fract_y
_atom_site_fract_z
Si Si1 0.758887 0.332613 0.719495
Si Si2 0.659453 0.013908 0.567747
Si Si3 0.537948 0.825787 0.495192
Si Si4 0.669677 0.555150 0.219477
Si Si5 0.500000 0.907108 0.250000
Si Si6 0.500000 0.256762 0.750000
O O1 0.831186 0.323887 0.883819
O O2 0.678495 0.385577 0.716610
O O3 0.637772 0.290183 0.691433
O O4 0.877740 0.329658 0.580014
O O5 0.778235 0.032337 0.441901
O O6 0.637578 0.058229 0.691755
O O7 0.500000 0.000000 0.500000
O O8 0.723727 0.964942 0.647964
O O9 0.562632 0.873925 0.387800
O O10 0.549069 0.776244 0.393639
O O11 0.500000 0.537833 0.250000
#
# Coordination Sequence:
#
# PCOD8148107 Si02
#       6
#     8   8   8   8   4   4
#     4  11  22  40  63  90 123 164 207 252 318 374
#     4  12  23  40  66  91 124 171 218 252 303 376
#     4  10  23  38  66  89 121 161 209 258 308 373
#     4  12  25  41  62  94 133 168 203 265 319 367
#     4  11  20  38  62  94 116 158 222 255 286 366
#     4  11  22  42  62  92 122 156 204 267 316 368
#
# _framework density 19.197274
#
# number of rings (size 3 to 8) (size 9 to 14) (size 15 to 20)
#    0.000    0.800    5.000    3.000    2.800    0.000 
#    0.000    0.000    0.000    0.000    0.000    0.000 
#    0.000    0.000    0.000    0.000    0.000    0.000 
#
# Total GULP energy -248117.776421 kJ/mol
# GULP energy per Si atom -12405.888821 kJ/mol
# Density = 1.915358 g / cm^3
# Si number density = 19.197274 Si / 1000 Ang^3
#
#
#
# Elastic Constant Matrix: (Units=GPa)
#
#
# Indices 1 2 3 4 5 6 
#
# 1 69.8235 11.6981 15.0549 0.0000 -23.5815 0.0000
# 2 11.6981 103.5073 29.1101 0.0000 -11.6011 0.0000
# 3 15.0549 29.1101 93.9504 0.0000 -22.7203 0.0000
# 4 0.0000 0.0000 0.0000 30.7781 0.0000 -8.6084
# 5 -23.5815 -11.6011 -22.7203 0.0000 29.2565 0.0000
# 6 0.0000 0.0000 0.0000 -8.6084 0.0000 33.0373
#
#
#
# Elastic Compliance Matrix: (Units=1/GPa)
#
#
# Indices 1 2 3 4 5 6 
#
# 1 0.019776 -0.000677 0.001023 0.000000 0.016466 0.000000
# 2 -0.000677 0.010706 -0.002849 0.000000 0.001487 0.000000
# 3 0.001023 -0.002849 0.013899 0.000000 0.010489 0.000000
# 4 0.000000 0.000000 0.000000 0.035045 0.000000 0.009131
# 5 0.016466 0.001487 0.010489 0.000000 0.056187 0.000000
# 6 0.000000 0.000000 0.000000 0.009131 0.000000 0.032648
#
#
# Mechanical properties :
#
#
# Convention : Reuss Voigt Hill
#
# Bulk Modulus (GPa) = 25.39761 42.11192 33.75477
# Shear Modulus (GPa) = 26.82522 32.70892 29.76707
#
# Velocity S-wave (km/s) = 3.74216 4.13223 3.94202
# Velocity P-wave (km/s) = 5.65068 6.68963 6.19198
#
# Compressibility (1/GPa) = 0.03937378
#
# Stress axis : x y z
#
# Youngs Moduli (GPa) = 50.56722 93.40932 71.94604
#
# Poissons Ratio (x) = 0.06326 -0.07359
# Poissons Ratio (y) = 0.03424 0.20498
# Poissons Ratio (z) = -0.05172 0.26612
#
# Static dielectric constant tensor:
#      x y z
#    x 3.376140 0.000000 -0.159930 
#    y 0.000000 3.643370 0.000000 
#    z -0.159930 0.000000 3.701390 
# 
# 
# High freq. dielectric constant tensor:
#      x y z
#    x 1.739260 0.000000 -0.010180 
#    y 0.000000 1.762500 0.000000 
#    z -0.010180 0.000000 1.762130 
# 
# From -- ./inp_files/23530.got.cif
#   From: 2010.06.25/outbox.cif.g09.slc.cpg/sg15_12_cif.got.tgz:23530.got - 2010.06.28 07:06:18.
