data_PCOD8148683
_publ_section_title
;
Structure prediction by ZEFSAII (Michael W. Deem and Ramdas Pophale) SiO2 
 PCOD8148683
Probable space group: C 2/C
;
_chemical_formula_sum "Si O2"
_cell_formula_units_Z 52
_cell_length_a 29.360287
_cell_length_b 14.169361
_cell_length_c 16.997943
_cell_angle_alpha 90.000000
_cell_angle_beta 20.390118
_cell_angle_gamma 90.000000
_cell_volume 2463.757860
_symmetry_space_group_name_H-M "C 2/C"
_symmetry_group_IT_number 15
_symmetry_cell_setting 'monoclinic'
loop_
_space_group_symop_operation_xyz
x,y,z
-x,y,1/2-z
-x,-y,-z
x,-y,1/2+z
1/2+x,1/2+y,z
1/2-x,1/2+y,1/2-z
1/2-x,1/2-y,-z
1/2+x,1/2-y,1/2+z
loop_
_atom_site_type_symbol
_atom_site_label
_atom_site_fract_x
_atom_site_fract_y
_atom_site_fract_z
Si Si1 0.643924 0.487404 0.554341
Si Si2 0.510053 0.786953 0.016698
Si Si3 0.097897 0.578424 0.945209
Si Si4 0.181140 0.151699 0.133202
Si Si5 0.000000 0.315380 0.750000
Si Si6 0.437823 0.914361 0.265317
Si Si7 0.213034 0.194880 0.482580
O O1 0.500000 0.499161 0.750000
O O2 0.756064 0.461673 0.307787
O O3 0.637004 0.402813 0.626977
O O4 0.684215 0.583294 0.534990
O O5 0.665116 0.786902 0.771101
O O6 0.448416 0.851978 0.048467
O O7 0.448125 0.681271 0.107089
O O8 0.473722 0.817807 0.163951
O O9 0.990175 0.495596 0.122187
O O10 0.091487 0.623878 0.043102
O O11 0.250000 0.250000 0.000000
O O12 0.278727 0.084960 0.026903
O O13 0.085017 0.246214 0.662999
O O14 0.500000 0.921739 0.250000
O O15 0.250000 0.250000 0.500000
#
# Coordination Sequence:
#
# PCOD8148683 Si02
#       7
#     8   8   8   8   4   8   8
#     4  12  26  47  74 105 148 192 240 301 366 425
#     4  11  23  44  70  98 142 191 225 298 365 416
#     4  12  23  46  73  98 142 189 245 288 359 437
#     4  10  23  42  67 109 137 180 239 292 358 423
#     4  12  28  44  70 112 138 192 248 290 362 440
#     4  11  22  40  71 105 132 179 242 292 346 435
#     4  12  26  48  72 101 149 194 241 297 363 437
#
# _framework density 21.105969000000002
#
# number of rings (size 3 to 8) (size 9 to 14) (size 15 to 20)
#    0.000    0.615    7.692    1.385    2.154    3.692 
#    2.769    0.769    0.000    0.000    0.000    0.000 
#    0.000    0.000    0.000    0.000    0.000    0.000 
#
# Total GULP energy -322106.876936 kJ/mol
# GULP energy per Si atom -12388.726036 kJ/mol
# Density = 2.105793 g / cm^3
# Si number density = 21.105969 Si / 1000 Ang^3
#
#
#
# Elastic Constant Matrix: (Units=GPa)
#
#
# Indices 1 2 3 4 5 6 
#
# 1 114.2880 51.0723 43.0975 -0.0001 -4.4449 0.0001
# 2 51.0723 125.7171 69.2961 -0.0002 -0.4447 0.0001
# 3 43.0975 69.2961 119.8669 -0.0003 -13.8891 0.0001
# 4 -0.0001 -0.0002 -0.0003 36.8014 0.0001 0.0061
# 5 -4.4449 -0.4447 -13.8891 0.0001 33.9934 -0.0001
# 6 0.0001 0.0001 0.0001 0.0061 -0.0001 34.3355
#
#
#
# Elastic Compliance Matrix: (Units=1/GPa)
#
#
# Indices 1 2 3 4 5 6 
#
# 1 0.011025 -0.003421 -0.001915 0.000000 0.000614 0.000000
# 2 -0.003421 0.012983 -0.006621 0.000000 -0.002983 0.000000
# 3 -0.001915 -0.006621 0.013457 0.000000 0.005161 0.000000
# 4 0.000000 0.000000 0.000000 0.027173 0.000000 -0.000005
# 5 0.000614 -0.002983 0.005161 0.000000 0.031568 0.000000
# 6 0.000000 0.000000 0.000000 -0.000005 0.000000 0.029124
#
#
# Mechanical properties :
#
#
# Convention : Reuss Voigt Hill
#
# Bulk Modulus (GPa) = 73.79926 76.31152 75.05539
# Shear Modulus (GPa) = 32.51791 34.11978 33.31884
#
# Velocity S-wave (km/s) = 3.92943 4.02505 3.97753
# Velocity P-wave (km/s) = 7.45850 7.60501 7.53211
#
# Compressibility (1/GPa) = 0.01355027
#
# Stress axis : x y z
#
# Youngs Moduli (GPa) = 90.70625 77.02157 74.31063
#
# Poissons Ratio (x) = 0.26349 0.14230
# Poissons Ratio (y) = 0.31031 0.49204
# Poissons Ratio (z) = 0.17369 0.50999
#
# Static dielectric constant tensor:
#      x y z
#    x 3.606410 0.000000 -0.214570 
#    y 0.000000 4.386750 -0.000010 
#    z -0.214570 -0.000010 9.189650 
# 
# 
# High freq. dielectric constant tensor:
#      x y z
#    x 1.816660 0.000000 -0.008220 
#    y 0.000000 1.834190 0.000000 
#    z -0.008220 0.000000 1.840500 
# 
# From -- ./inp_files/225466.got.cif
#   From: 2010.06.25/outbox.cif.g09.slc.cpg/sg15_113_cif.got.tgz:225466.got - 2010.06.28 07:06:18.
