data_PCOD8148505
_publ_section_title
;
Structure prediction by ZEFSAII (Michael W. Deem and Ramdas Pophale) SiO2 
 PCOD8148505
Probable space group: C 2/C
;
_chemical_formula_sum "Si O2"
_cell_formula_units_Z 52
_cell_length_a 19.324802
_cell_length_b 16.140107
_cell_length_c 9.688632
_cell_angle_alpha 90.000000
_cell_angle_beta 128.455841
_cell_angle_gamma 90.000000
_cell_volume 2366.433640
_symmetry_space_group_name_H-M "C 2/C"
_symmetry_group_IT_number 15
_symmetry_cell_setting 'monoclinic'
loop_
_space_group_symop_operation_xyz
x,y,z
-x,y,1/2-z
-x,-y,-z
x,-y,1/2+z
1/2+x,1/2+y,z
1/2-x,1/2+y,1/2-z
1/2-x,1/2-y,-z
1/2+x,1/2-y,1/2+z
loop_
_atom_site_type_symbol
_atom_site_label
_atom_site_fract_x
_atom_site_fract_y
_atom_site_fract_z
Si Si1 0.164153 0.826790 0.617994
Si Si2 0.789415 0.185884 0.724247
Si Si3 0.462425 0.069067 0.352259
Si Si4 0.186601 0.121920 0.447320
Si Si5 0.000000 0.161487 0.250000
Si Si6 0.481287 0.742757 0.943873
Si Si7 0.241152 0.444533 0.949229
O O1 0.222458 0.760148 0.606106
O O2 0.193993 0.825318 0.815542
O O3 0.188172 0.914772 0.578487
O O4 0.060476 0.806751 0.465328
O O5 0.885285 0.208844 0.778795
O O6 0.755459 0.101971 0.611982
O O7 0.785347 0.174851 0.884716
O O8 0.500000 0.046041 0.250000
O O9 0.495571 0.160218 0.435276
O O10 0.356976 0.068866 0.228239
O O11 0.500000 0.000000 0.500000
O O12 0.082771 0.099606 0.336528
O O13 0.245271 0.040865 0.505378
O O14 0.010349 0.226786 0.384762
#
# Coordination Sequence:
#
# PCOD8148505 Si02
#       7
#     8   8   8   8   4   8   8
#     4  11  23  42  69  98 132 183 223 278 336 405
#     4  11  23  43  67  98 136 180 231 277 327 415
#     4  12  30  47  67  98 139 179 223 279 341 402
#     4  10  23  41  68  96 136 174 225 275 343 397
#     4   8  20  44  68 102 128 180 222 284 328 412
#     4  10  23  43  71  97 136 176 233 276 341 396
#     4  12  26  43  68 101 137 171 222 281 345 395
#
# _framework density 21.973994999999999
#
# number of rings (size 3 to 8) (size 9 to 14) (size 15 to 20)
#    0.000    1.231    1.538    2.769    9.692    1.231 
#    0.000    4.615    0.000    0.000    0.000    0.000 
#    0.000    0.000    0.000    0.000    0.000    0.000 
#
# Total GULP energy -322427.575512 kJ/mol
# GULP energy per Si atom -12401.060597 kJ/mol
# Density = 2.192398 g / cm^3
# Si number density = 21.973995 Si / 1000 Ang^3
#
#
#
# Elastic Constant Matrix: (Units=GPa)
#
#
# Indices 1 2 3 4 5 6 
#
# 1 135.8475 37.9845 38.7887 0.0000 14.5380 0.0000
# 2 37.9845 91.4666 19.1267 0.0000 13.4457 0.0000
# 3 38.7887 19.1267 70.1339 0.0000 13.4555 0.0000
# 4 0.0000 0.0000 0.0000 36.8032 0.0000 1.0822
# 5 14.5380 13.4457 13.4555 0.0000 38.4707 0.0000
# 6 0.0000 0.0000 0.0000 1.0822 0.0000 32.6263
#
#
#
# Elastic Compliance Matrix: (Units=1/GPa)
#
#
# Indices 1 2 3 4 5 6 
#
# 1 0.009503 -0.002896 -0.004257 0.000000 -0.001090 0.000000
# 2 -0.002896 0.012846 -0.001340 0.000000 -0.002927 0.000000
# 3 -0.004257 -0.001340 0.017772 0.000000 -0.004139 0.000000
# 4 0.000000 0.000000 0.000000 0.027198 0.000000 -0.000902
# 5 -0.001090 -0.002927 -0.004139 0.000000 0.028876 0.000000
# 6 0.000000 0.000000 0.000000 -0.000902 0.000000 0.030680
#
#
# Mechanical properties :
#
#
# Convention : Reuss Voigt Hill
#
# Bulk Modulus (GPa) = 43.22387 54.36085 48.79236
# Shear Modulus (GPa) = 32.98720 35.01658 34.00189
#
# Velocity S-wave (km/s) = 3.87873 3.99626 3.93793
# Velocity P-wave (km/s) = 6.30655 6.78866 6.55204
#
# Compressibility (1/GPa) = 0.02313536
#
# Stress axis : x y z
#
# Youngs Moduli (GPa) = 105.22883 77.84470 56.26717
#
# Poissons Ratio (x) = 0.22544 0.23952
# Poissons Ratio (y) = 0.30475 0.07541
# Poissons Ratio (z) = 0.44795 0.10432
#
# Static dielectric constant tensor:
#      x y z
#    x 4.206130 0.000000 0.049110 
#    y 0.000000 3.655580 0.000000 
#    z 0.049110 0.000000 4.053420 
# 
# 
# High freq. dielectric constant tensor:
#      x y z
#    x 1.880540 0.000000 -0.003120 
#    y 0.000000 1.849540 0.000000 
#    z -0.003120 0.000000 1.878550 
# 
# From -- ./inp_files/49228.got.cif
#   From: 2010.06.25/outbox.cif.g09.slc.cpg/sg15_25_cif.got.tgz:49228.got - 2010.06.28 07:06:18.
