data_PCOD8148149
_publ_section_title
;
Structure prediction by ZEFSAII (Michael W. Deem and Ramdas Pophale) SiO2 
 PCOD8148149
Probable space group: C 2/C
;
_chemical_formula_sum "Si O2"
_cell_formula_units_Z 32
_cell_length_a 13.262687
_cell_length_b 19.677396
_cell_length_c 11.059586
_cell_angle_alpha 90.000000
_cell_angle_beta 150.004135
_cell_angle_gamma 90.000000
_cell_volume 1442.958128
_symmetry_space_group_name_H-M "C 2/C"
_symmetry_group_IT_number 15
_symmetry_cell_setting 'monoclinic'
loop_
_space_group_symop_operation_xyz
x,y,z
-x,y,1/2-z
-x,-y,-z
x,-y,1/2+z
1/2+x,1/2+y,z
1/2-x,1/2+y,1/2-z
1/2-x,1/2-y,-z
1/2+x,1/2-y,1/2+z
loop_
_atom_site_type_symbol
_atom_site_label
_atom_site_fract_x
_atom_site_fract_y
_atom_site_fract_z
Si Si1 0.134842 0.811151 0.723211
Si Si2 0.299991 0.963726 0.255969
Si Si3 0.965117 0.087580 0.578901
Si Si4 0.798987 0.331572 0.138895
O O1 0.161261 0.854146 0.626829
O O2 0.113752 0.729337 0.684302
O O3 0.937689 0.840531 0.580712
O O4 0.323242 0.818616 0.017179
O O5 0.388418 0.904868 0.261444
O O6 0.181927 0.929081 0.245301
O O7 0.500000 0.000000 0.500000
O O8 0.158382 0.017483 0.040178
O O9 0.000000 0.116076 0.750000
#
# Coordination Sequence:
#
# PCOD8148149 Si02
#       4
#     8   8   8   8
#     4   9  19  37  60  86 117 156 203 256 303 357
#     4  10  23  39  63  89 121 161 208 248 305 373
#     4  10  23  41  60  87 128 164 196 256 319 362
#     4   9  19  36  62  87 114 155 206 254 302 358
#
# _framework density 22.176666000000001
#
# number of rings (size 3 to 8) (size 9 to 14) (size 15 to 20)
#    0.000    2.500    0.000    0.000   14.000    1.000 
#    0.000    5.000    0.000    0.000    0.000    0.000 
#    0.000    0.000    0.000    0.000    0.000    0.000 
#
# Total GULP energy -198275.108026 kJ/mol
# GULP energy per Si atom -12392.194252 kJ/mol
# Density = 2.212619 g / cm^3
# Si number density = 22.176666 Si / 1000 Ang^3
#
#
#
# Elastic Constant Matrix: (Units=GPa)
#
#
# Indices 1 2 3 4 5 6 
#
# 1 78.2166 53.5487 36.5179 0.0000 -30.0508 0.0000
# 2 53.5487 199.8620 61.3165 0.0000 -29.2816 0.0000
# 3 36.5179 61.3165 88.8260 0.0000 -26.6056 0.0000
# 4 0.0000 0.0000 0.0000 38.4936 0.0000 2.0520
# 5 -30.0508 -29.2816 -26.6056 0.0000 37.5462 0.0000
# 6 0.0000 0.0000 0.0000 2.0520 0.0000 30.1107
#
#
#
# Elastic Compliance Matrix: (Units=1/GPa)
#
#
# Indices 1 2 3 4 5 6 
#
# 1 0.020876 -0.002895 -0.002864 0.000000 0.012422 0.000000
# 2 -0.002895 0.006916 -0.003380 0.000000 0.000682 0.000000
# 3 -0.002864 -0.003380 0.016874 0.000000 0.007029 0.000000
# 4 0.000000 0.000000 0.000000 0.026073 0.000000 -0.001777
# 5 0.012422 0.000682 0.007029 0.000000 0.042089 0.000000
# 6 0.000000 0.000000 0.000000 -0.001777 0.000000 0.033332
#
#
# Mechanical properties :
#
#
# Convention : Reuss Voigt Hill
#
# Bulk Modulus (GPa) = 37.89386 74.40789 56.15088
# Shear Modulus (GPa) = 28.86299 35.59820 32.23059
#
# Velocity S-wave (km/s) = 3.61155 4.01085 3.81643
# Velocity P-wave (km/s) = 5.87498 7.42121 6.69290
#
# Compressibility (1/GPa) = 0.02638950
#
# Stress axis : x y z
#
# Youngs Moduli (GPa) = 47.90093 144.59624 59.26412
#
# Poissons Ratio (x) = 0.41859 0.16971
# Poissons Ratio (y) = 0.13867 0.20029
# Poissons Ratio (z) = 0.13717 0.48869
#
# Static dielectric constant tensor:
#      x y z
#    x 4.978800 0.000000 0.179420 
#    y 0.000000 4.455290 0.000000 
#    z 0.179420 0.000000 4.131880 
# 
# 
# High freq. dielectric constant tensor:
#      x y z
#    x 1.851780 0.000000 0.024890 
#    y 0.000000 1.885190 0.000000 
#    z 0.024890 0.000000 1.870890 
# 
# From -- ./inp_files/87009.got.cif
#   From: 2010.06.25/outbox.cif.g09.slc.cpg/sg15_44_cif.got.tgz:87009.got - 2010.06.28 07:06:18.
