data_PCOD8148195
_publ_section_title
;
Structure prediction by ZEFSAII (Michael W. Deem and Ramdas Pophale) SiO2 
 PCOD8148195
Probable space group: C 2/C
;
_chemical_formula_sum "Si O2"
_cell_formula_units_Z 60
_cell_length_a 17.850821
_cell_length_b 12.512071
_cell_length_c 12.565345
_cell_angle_alpha 90.000000
_cell_angle_beta 87.479100
_cell_angle_gamma 90.000000
_cell_volume 2803.763114
_symmetry_space_group_name_H-M "C 2/C"
_symmetry_group_IT_number 15
_symmetry_cell_setting 'monoclinic'
loop_
_space_group_symop_operation_xyz
x,y,z
-x,y,1/2-z
-x,-y,-z
x,-y,1/2+z
1/2+x,1/2+y,z
1/2-x,1/2+y,1/2-z
1/2-x,1/2-y,-z
1/2+x,1/2-y,1/2+z
loop_
_atom_site_type_symbol
_atom_site_label
_atom_site_fract_x
_atom_site_fract_y
_atom_site_fract_z
Si Si1 0.445082 0.681696 0.449349
Si Si2 0.000000 0.941322 0.750000
Si Si3 0.094330 0.120885 0.820515
Si Si4 0.755677 0.655315 0.856842
Si Si5 0.834527 0.526296 0.685233
Si Si6 0.959743 0.610919 0.521376
Si Si7 0.079209 0.343364 0.708384
Si Si8 0.228486 0.875365 0.589612
O O1 0.497384 0.626273 0.358491
O O2 0.455701 0.637862 0.569110
O O3 0.474769 0.804967 0.446788
O O4 0.359482 0.653972 0.421164
O O5 0.928390 0.017526 0.744967
O O6 0.178862 0.092894 0.843807
O O7 0.087607 0.221509 0.743668
O O8 0.820397 0.610808 0.778702
O O9 0.743450 0.781297 0.833139
O O10 0.777362 0.637968 0.978690
O O11 0.894345 0.589571 0.610558
O O12 0.861234 0.416673 0.735951
O O13 0.755465 0.491450 0.632024
O O14 0.915859 0.652015 0.419608
O O15 0.000000 0.500000 0.500000
O O16 0.000000 0.390741 0.750000
#
# Coordination Sequence:
#
# PCOD8148195 Si02
#       8
#     8   4   8   8   8   8   8   8
#     4  11  25  41  65 101 134 173 228 283 335 411
#     4  12  24  38  70  94 134 164 226 286 332 382
#     4  11  21  45  65  90 127 186 220 259 342 416
#     4  10  23  39  68  90 129 175 222 267 331 411
#     4  12  24  42  68 102 132 176 225 288 341 404
#     4  12  26  41  66 104 139 170 222 286 352 401
#     4  12  22  40  67  92 128 173 219 263 332 416
#     4  10  23  43  67  94 132 179 229 269 335 422
#
# _framework density 21.399809999999999
#
# number of rings (size 3 to 8) (size 9 to 14) (size 15 to 20)
#    0.000    0.800    4.667    2.000    7.467    0.000 
#    0.000    0.667    0.000    0.000    0.000    0.000 
#    0.000    0.000    0.000    0.000    0.000    0.000 
#
# Total GULP energy -371687.513770 kJ/mol
# GULP energy per Si atom -12389.583792 kJ/mol
# Density = 2.135110 g / cm^3
# Si number density = 21.399810 Si / 1000 Ang^3
#
#
#
# Elastic Constant Matrix: (Units=GPa)
#
#
# Indices 1 2 3 4 5 6 
#
# 1 81.8908 35.4522 28.1212 0.0000 -4.2470 0.0000
# 2 35.4522 108.0139 68.7454 0.0000 -10.7908 0.0000
# 3 28.1212 68.7454 115.4061 0.0000 -16.8603 0.0000
# 4 0.0000 0.0000 0.0000 27.2168 0.0000 6.1076
# 5 -4.2470 -10.7908 -16.8603 0.0000 34.8592 0.0000
# 6 0.0000 0.0000 0.0000 6.1076 0.0000 32.8943
#
#
#
# Elastic Compliance Matrix: (Units=1/GPa)
#
#
# Indices 1 2 3 4 5 6 
#
# 1 0.014322 -0.003994 -0.001115 0.000000 -0.000031 0.000000
# 2 -0.003994 0.016029 -0.008523 0.000000 0.000353 0.000000
# 3 -0.001115 -0.008523 0.014643 0.000000 0.004308 0.000000
# 4 0.000000 0.000000 0.000000 0.038339 0.000000 -0.007119
# 5 -0.000031 0.000353 0.004308 0.000000 0.030876 0.000000
# 6 0.000000 0.000000 0.000000 -0.007119 0.000000 0.031722
#
#
# Mechanical properties :
#
#
# Convention : Reuss Voigt Hill
#
# Bulk Modulus (GPa) = 56.40469 63.32760 59.86614
# Shear Modulus (GPa) = 27.91636 30.52689 29.22162
#
# Velocity S-wave (km/s) = 3.61572 3.78100 3.69929
# Velocity P-wave (km/s) = 6.62164 6.97984 6.80310
#
# Compressibility (1/GPa) = 0.01772902
#
# Stress axis : x y z
#
# Youngs Moduli (GPa) = 69.82350 62.38723 68.29011
#
# Poissons Ratio (x) = 0.24918 0.07615
# Poissons Ratio (y) = 0.27888 0.58206
# Poissons Ratio (z) = 0.07786 0.53175
#
# Static dielectric constant tensor:
#      x y z
#    x 3.844360 0.000000 0.159130 
#    y 0.000000 3.842780 0.000000 
#    z 0.159130 0.000000 3.888720 
# 
# 
# High freq. dielectric constant tensor:
#      x y z
#    x 1.837740 0.000000 0.004450 
#    y 0.000000 1.836920 0.000000 
#    z 0.004450 0.000000 1.846450 
# 
# From -- ./inp_files/111640.got.cif
#   From: 2010.06.25/outbox.cif.g09.slc.cpg/sg15_56_cif.got.tgz:111640.got - 2010.06.28 07:06:18.
