data_PCOD8149124
_publ_section_title
;
Structure prediction by ZEFSAII (Michael W. Deem and Ramdas Pophale) SiO2 
 PCOD8149124
Probable space group: C 2/C
;
_chemical_formula_sum "Si O2"
_cell_formula_units_Z 44
_cell_length_a 27.651912
_cell_length_b 14.834883
_cell_length_c 5.125767
_cell_angle_alpha 90.000000
_cell_angle_beta 107.646668
_cell_angle_gamma 90.000000
_cell_volume 2003.713219
_symmetry_space_group_name_H-M "C 2/C"
_symmetry_group_IT_number 15
_symmetry_cell_setting 'monoclinic'
loop_
_space_group_symop_operation_xyz
x,y,z
-x,y,1/2-z
-x,-y,-z
x,-y,1/2+z
1/2+x,1/2+y,z
1/2-x,1/2+y,1/2-z
1/2-x,1/2-y,-z
1/2+x,1/2-y,1/2+z
loop_
_atom_site_type_symbol
_atom_site_label
_atom_site_fract_x
_atom_site_fract_y
_atom_site_fract_z
Si Si1 0.500000 0.063682 0.750000
Si Si2 0.767295 0.805303 0.781051
Si Si3 0.315037 0.055963 0.366632
Si Si4 0.614508 0.698260 0.021890
Si Si5 0.903687 0.310885 0.009022
Si Si6 0.022718 0.100994 0.033223
O O1 0.452548 0.127661 0.620838
O O2 0.500000 0.000000 0.500000
O O3 0.750000 0.750000 0.500000
O O4 0.740983 0.902560 0.747653
O O5 0.826759 0.827360 0.892291
O O6 0.750000 0.750000 0.000000
O O7 0.355654 0.130034 0.348671
O O8 0.322290 0.025683 0.676893
O O9 0.606131 0.775169 0.218677
O O10 0.583308 0.610243 0.085163
O O11 0.593095 0.732264 0.706125
O O12 0.000000 0.151747 0.250000
O O13 0.000000 0.154388 0.750000
O O14 0.000000 0.000000 0.000000
#
# Coordination Sequence:
#
# PCOD8149124 Si02
#       6
#     4   8   8   8   8   8
#     4  12  26  46  64 100 140 176 228 292 344 416
#     4  12  23  46  69 101 138 176 237 291 341 420
#     4  12  24  43  68 100 140 183 222 285 361 416
#     4  12  24  43  71 102 133 185 230 286 344 416
#     4  12  25  42  72  99 135 181 228 279 350 416
#     4  10  23  44  67  95 135 180 224 285 346 401
#
# _framework density 21.959228
#
# number of rings (size 3 to 8) (size 9 to 14) (size 15 to 20)
#    0.000    0.364    3.636    5.455    3.818    0.000 
#    6.545    0.000    0.000    0.000    0.000    0.000 
#    0.000    0.000    0.000    0.000    0.000    0.000 
#
# Total GULP energy -272627.770025 kJ/mol
# GULP energy per Si atom -12392.171365 kJ/mol
# Density = 2.190925 g / cm^3
# Si number density = 21.959228 Si / 1000 Ang^3
#
#
#
# Elastic Constant Matrix: (Units=GPa)
#
#
# Indices 1 2 3 4 5 6 
#
# 1 188.4451 49.5892 49.6153 0.0000 11.6537 0.0000
# 2 49.5892 72.5065 18.2287 0.0000 6.1864 0.0000
# 3 49.6153 18.2287 142.1153 0.0000 -16.8669 0.0000
# 4 0.0000 0.0000 0.0000 128.1828 0.0000 97.1399
# 5 11.6537 6.1864 -16.8669 0.0000 43.1106 0.0000
# 6 0.0000 0.0000 0.0000 97.1399 0.0000 130.9632
#
#
#
# Elastic Compliance Matrix: (Units=1/GPa)
#
#
# Indices 1 2 3 4 5 6 
#
# 1 0.007109 -0.004118 -0.002215 0.000000 -0.002197 0.000000
# 2 -0.004118 0.016990 -0.000943 0.000000 -0.001694 0.000000
# 3 -0.002215 -0.000943 0.008408 0.000000 0.004024 0.000000
# 4 0.000000 0.000000 0.000000 0.017816 0.000000 -0.013214
# 5 -0.002197 -0.001694 0.004024 0.000000 0.025607 0.000000
# 6 0.000000 0.000000 0.000000 -0.013214 0.000000 0.017437
#
#
# Mechanical properties :
#
#
# Convention : Reuss Voigt Hill
#
# Bulk Modulus (GPa) = 55.68893 70.88148 63.28521
# Shear Modulus (GPa) = 43.89706 79.49359 61.69533
#
# Velocity S-wave (km/s) = 4.47590 6.02322 5.30626
# Velocity P-wave (km/s) = 7.21989 8.98448 8.15008
#
# Compressibility (1/GPa) = 0.01795689
#
# Stress axis : x y z
#
# Youngs Moduli (GPa) = 140.66376 58.85924 118.93273
#
# Poissons Ratio (x) = 0.24238 0.26338
# Poissons Ratio (y) = 0.57924 0.11210
# Poissons Ratio (z) = 0.31151 0.05548
#
# Static dielectric constant tensor:
#      x y z
#    x 4.622050 0.000000 -0.624680 
#    y 0.000000 4.464130 0.000000 
#    z -0.624680 0.000000 6.381010 
# 
# 
# High freq. dielectric constant tensor:
#      x y z
#    x 1.882850 0.000000 -0.008410 
#    y 0.000000 1.847550 0.000000 
#    z -0.008410 0.000000 1.892280 
# 
# From -- ./inp_files/16888.got.cif
#   From: 2010.06.25/outbox.cif.g09.slc.cpg/sg15_9_cif.got.tgz:16888.got - 2010.06.28 07:06:18.
