data_PCOD8149258
_publ_section_title
;
Structure prediction by ZEFSAII (Michael W. Deem and Ramdas Pophale) SiO2 
 PCOD8149258
Probable space group: C 2/C
;
_chemical_formula_sum "Si O2"
_cell_formula_units_Z 48
_cell_length_a 12.566789
_cell_length_b 13.827269
_cell_length_c 14.428098
_cell_angle_alpha 90.000000
_cell_angle_beta 53.279200
_cell_angle_gamma 90.000000
_cell_volume 2009.579151
_symmetry_space_group_name_H-M "C 2/C"
_symmetry_group_IT_number 15
_symmetry_cell_setting 'monoclinic'
loop_
_space_group_symop_operation_xyz
x,y,z
-x,y,1/2-z
-x,-y,-z
x,-y,1/2+z
1/2+x,1/2+y,z
1/2-x,1/2+y,1/2-z
1/2-x,1/2-y,-z
1/2+x,1/2-y,1/2+z
loop_
_atom_site_type_symbol
_atom_site_label
_atom_site_fract_x
_atom_site_fract_y
_atom_site_fract_z
Si Si1 0.988228 0.521528 0.399023
Si Si2 0.228029 0.140337 0.481502
Si Si3 0.572913 0.817617 0.126945
Si Si4 0.822836 0.222309 0.594368
Si Si5 0.733939 0.610496 0.267375
Si Si6 0.962472 0.051686 0.613913
O O1 0.114492 0.579059 0.298293
O O2 0.000000 0.500000 0.500000
O O3 0.855778 0.579640 0.443562
O O4 0.995212 0.421064 0.342171
O O5 0.250000 0.250000 0.500000
O O6 0.193078 0.145156 0.390724
O O7 0.097812 0.086879 0.596198
O O8 0.500000 0.761068 0.250000
O O9 0.727447 0.833004 0.071763
O O10 0.560256 0.765340 0.032947
O O11 0.735085 0.303538 0.692049
O O12 0.879625 0.149516 0.640103
O O13 0.633592 0.525363 0.282514
O O14 0.000000 0.000000 0.500000
#
# Coordination Sequence:
#
# PCOD8149258 Si02
#       6
#     8   8   8   8   8   8
#     4  12  24  46  71 101 142 196 247 297 369 450
#     4  11  25  43  74 106 148 192 244 307 379 449
#     4  11  24  41  72 102 141 184 246 307 371 444
#     4  11  24  44  70 110 141 193 246 306 388 450
#     4  11  24  47  73 102 148 194 241 304 373 451
#     4  10  23  44  73 103 151 190 243 307 374 443
#
# _framework density 23.885598999999999
#
# number of rings (size 3 to 8) (size 9 to 14) (size 15 to 20)
#    0.000    1.000    1.667    5.500    4.667    1.333 
#    0.000    2.500    0.000    0.000    0.000    0.000 
#    0.000    0.000    0.000    0.000    0.000    0.000 
#
# Total GULP energy -297433.454353 kJ/mol
# GULP energy per Si atom -12393.060598 kJ/mol
# Density = 2.383123 g / cm^3
# Si number density = 23.885599 Si / 1000 Ang^3
#
#
#
# Elastic Constant Matrix: (Units=GPa)
#
#
# Indices 1 2 3 4 5 6 
#
# 1 103.1210 37.4827 17.6963 0.0000 -22.1633 0.0000
# 2 37.4827 122.8137 36.7855 0.0000 -8.3242 0.0000
# 3 17.6963 36.7855 100.6550 0.0000 4.4521 0.0000
# 4 0.0000 0.0000 0.0000 7.5942 0.0000 7.8101
# 5 -22.1633 -8.3242 4.4521 0.0000 42.1947 0.0000
# 6 0.0000 0.0000 0.0000 7.8101 0.0000 40.4898
#
#
#
# Elastic Compliance Matrix: (Units=1/GPa)
#
#
# Indices 1 2 3 4 5 6 
#
# 1 0.012291 -0.002938 -0.001354 0.000000 0.006019 0.000000
# 2 -0.002938 0.010047 -0.003190 0.000000 0.000775 0.000000
# 3 -0.001354 -0.003190 0.011451 0.000000 -0.002548 0.000000
# 4 0.000000 0.000000 0.000000 0.164265 0.000000 -0.031685
# 5 0.006019 0.000775 -0.002548 0.000000 0.027283 0.000000
# 6 0.000000 0.000000 0.000000 -0.031685 0.000000 0.030809
#
#
# Mechanical properties :
#
#
# Convention : Reuss Voigt Hill
#
# Bulk Modulus (GPa) = 53.11365 56.72429 54.91897
# Shear Modulus (GPa) = 18.02548 33.69742 25.86145
#
# Velocity S-wave (km/s) = 2.75009 3.76012 3.29404
# Velocity P-wave (km/s) = 5.68937 6.53079 6.12454
#
# Compressibility (1/GPa) = 0.01882755
#
# Stress axis : x y z
#
# Youngs Moduli (GPa) = 81.35900 99.53262 87.32656
#
# Poissons Ratio (x) = 0.29242 0.11820
# Poissons Ratio (y) = 0.23902 0.27853
# Poissons Ratio (z) = 0.11012 0.31746
#
# Static dielectric constant tensor:
#      x y z
#    x 4.550230 0.000000 -0.282470 
#    y 0.000000 4.507790 0.000000 
#    z -0.282470 0.000000 4.344740 
# 
# 
# High freq. dielectric constant tensor:
#      x y z
#    x 1.950670 0.000000 -0.015800 
#    y 0.000000 1.950700 0.000000 
#    z -0.015800 0.000000 1.947670 
# 
# From -- ./inp_files/144094.got.cif
#   From: 2010.06.25/outbox.cif.g09.slc.cpg/sg15_73_cif.got.tgz:144094.got - 2010.06.28 07:06:18.
