data_PCOD8149954
_publ_section_title
;
Structure prediction by ZEFSAII (Michael W. Deem and Ramdas Pophale) SiO2 
 PCOD8149954
Probable space group: C 2/C
;
_chemical_formula_sum "Si O2"
_cell_formula_units_Z 48
_cell_length_a 7.004590
_cell_length_b 27.371637
_cell_length_c 14.244736
_cell_angle_alpha 90.000000
_cell_angle_beta 122.262082
_cell_angle_gamma 90.000000
_cell_volume 2309.461453
_symmetry_space_group_name_H-M "C 2/C"
_symmetry_group_IT_number 15
_symmetry_cell_setting 'monoclinic'
loop_
_space_group_symop_operation_xyz
x,y,z
-x,y,1/2-z
-x,-y,-z
x,-y,1/2+z
1/2+x,1/2+y,z
1/2-x,1/2+y,1/2-z
1/2-x,1/2-y,-z
1/2+x,1/2-y,1/2+z
loop_
_atom_site_type_symbol
_atom_site_label
_atom_site_fract_x
_atom_site_fract_y
_atom_site_fract_z
Si Si1 0.552526 0.371226 0.654602
Si Si2 0.522416 0.921414 0.152648
Si Si3 0.500000 0.540673 0.750000
Si Si4 0.808132 0.318570 0.053756
Si Si5 0.500000 0.181919 0.250000
Si Si6 0.619258 0.471520 0.949873
Si Si7 0.488150 0.240223 0.436066
O O1 0.500000 0.374921 0.750000
O O2 0.381214 0.332369 0.569851
O O3 0.793961 0.354385 0.681453
O O4 0.528481 0.423707 0.602313
O O5 0.500000 0.944117 0.250000
O O6 0.791568 0.922688 0.209862
O O7 0.436117 0.865390 0.129777
O O8 0.378109 0.955314 0.042649
O O9 0.601833 0.505701 0.855821
O O10 0.685302 0.286617 0.103616
O O11 0.976970 0.288208 0.032437
O O12 0.430572 0.212520 0.324295
O O13 0.500000 0.500000 0.000000
O O14 0.750000 0.250000 0.500000
#
# Coordination Sequence:
#
# PCOD8149954 Si02
#       7
#     8   8   4   8   4   8   8
#     4  11  22  42  66  97 133 173 225 285 338 402
#     4  11  25  44  68  99 138 180 224 281 340 413
#     4  12  24  44  71 100 138 182 230 279 348 404
#     4  10  24  43  65  93 134 171 220 280 341 392
#     4  12  24  38  71 100 130 178 232 273 348 412
#     4  11  24  45  72 100 137 180 233 284 342 409
#     4  11  23  41  66  95 129 172 225 278 332 411
#
# _framework density 20.784065999999999
#
# number of rings (size 3 to 8) (size 9 to 14) (size 15 to 20)
#    0.000    1.000    5.833    0.500    0.000    5.333 
#    0.000    0.000    0.000    0.000    0.000    0.000 
#    0.000    0.000    0.000    0.000    0.000    0.000 
#
# Total GULP energy -297359.359806 kJ/mol
# GULP energy per Si atom -12389.973325 kJ/mol
# Density = 2.073676 g / cm^3
# Si number density = 20.784066 Si / 1000 Ang^3
#
#
#
# Elastic Constant Matrix: (Units=GPa)
#
#
# Indices 1 2 3 4 5 6 
#
# 1 155.3383 63.9634 58.4730 0.0000 16.5404 0.0000
# 2 63.9634 103.0752 46.4691 0.0000 10.0507 0.0000
# 3 58.4730 46.4691 113.2083 0.0000 5.5446 0.0000
# 4 0.0000 0.0000 0.0000 69.6375 0.0000 -26.2875
# 5 16.5404 10.0507 5.5446 0.0000 45.9535 0.0000
# 6 0.0000 0.0000 0.0000 -26.2875 0.0000 49.9591
#
#
#
# Elastic Compliance Matrix: (Units=1/GPa)
#
#
# Indices 1 2 3 4 5 6 
#
# 1 0.009624 -0.004381 -0.003068 0.000000 -0.002136 0.000000
# 2 -0.004381 0.014089 -0.003467 0.000000 -0.001086 0.000000
# 3 -0.003068 -0.003467 0.011820 0.000000 0.000437 0.000000
# 4 0.000000 0.000000 0.000000 0.017919 0.000000 0.009429
# 5 -0.002136 -0.001086 0.000437 0.000000 0.022715 0.000000
# 6 0.000000 0.000000 0.000000 0.009429 0.000000 0.024978
#
#
# Mechanical properties :
#
#
# Convention : Reuss Voigt Hill
#
# Bulk Modulus (GPa) = 72.98921 78.82586 75.90753
# Shear Modulus (GPa) = 39.20242 46.62443 42.91342
#
# Velocity S-wave (km/s) = 4.34773 4.74146 4.54886
# Velocity P-wave (km/s) = 7.77160 8.24523 8.01191
#
# Compressibility (1/GPa) = 0.01370066
#
# Stress axis : x y z
#
# Youngs Moduli (GPa) = 103.91133 70.97646 84.60371
#
# Poissons Ratio (x) = 0.31092 0.25956
# Poissons Ratio (y) = 0.45519 0.29336
# Poissons Ratio (z) = 0.31879 0.24611
#
# Static dielectric constant tensor:
#      x y z
#    x 3.547400 0.000000 0.443700 
#    y 0.000000 3.888010 0.000000 
#    z 0.443700 0.000000 3.123860 
# 
# 
# High freq. dielectric constant tensor:
#      x y z
#    x 1.822460 0.000000 0.002820 
#    y 0.000000 1.819970 0.000000 
#    z 0.002820 0.000000 1.824820 
# 
# From -- ./inp_files/130329.got.cif
#   From: 2010.06.25/outbox.cif.g09.slc.cpg/sg15_66_cif.got.tgz:130329.got - 2010.06.28 07:06:18.
