data_PCOD8149333
_publ_section_title
;
Structure prediction by ZEFSAII (Michael W. Deem and Ramdas Pophale) SiO2 
 PCOD8149333
Probable space group: C 2/C
;
_chemical_formula_sum "Si O2"
_cell_formula_units_Z 48
_cell_length_a 15.337101
_cell_length_b 15.867335
_cell_length_c 9.391496
_cell_angle_alpha 90.000000
_cell_angle_beta 96.924516
_cell_angle_gamma 90.000000
_cell_volume 2268.833499
_symmetry_space_group_name_H-M "C 2/C"
_symmetry_group_IT_number 15
_symmetry_cell_setting 'monoclinic'
loop_
_space_group_symop_operation_xyz
x,y,z
-x,y,1/2-z
-x,-y,-z
x,-y,1/2+z
1/2+x,1/2+y,z
1/2-x,1/2+y,1/2-z
1/2-x,1/2-y,-z
1/2+x,1/2-y,1/2+z
loop_
_atom_site_type_symbol
_atom_site_label
_atom_site_fract_x
_atom_site_fract_y
_atom_site_fract_z
Si Si1 0.172473 0.598839 0.211477
Si Si2 0.899595 0.472786 0.511620
Si Si3 0.064069 0.681199 0.647040
Si Si4 0.367845 0.351576 0.773475
Si Si5 0.477237 0.405213 0.528838
Si Si6 0.444707 0.750921 0.875077
O O1 0.163702 0.545298 0.063375
O O2 0.119141 0.549312 0.326160
O O3 0.272509 0.609358 0.278739
O O4 0.142455 0.693769 0.165994
O O5 0.876864 0.388389 0.418337
O O6 0.000000 0.500000 0.500000
O O7 0.128474 0.749236 0.737441
O O8 0.000000 0.637378 0.750000
O O9 0.996212 0.722515 0.524941
O O10 0.411982 0.398077 0.649011
O O11 0.425761 0.368600 0.924056
O O12 0.500000 0.500000 0.500000
O O13 0.430982 0.350793 0.391369
O O14 0.500000 0.773516 0.750000
#
# Coordination Sequence:
#
# PCOD8149333 Si02
#       6
#     8   8   8   8   8   8
#     4  12  26  42  65 105 135 167 231 279 328 396
#     4  12  24  43  70  96 137 176 218 275 337 403
#     4  11  20  44  69  90 131 183 215 259 341 403
#     4  10  24  44  63  97 132 171 226 275 328 395
#     4  10  23  45  68  89 133 184 222 264 336 397
#     4  11  21  42  67  96 130 173 223 266 332 406
#
# _framework density 21.156245999999999
#
# number of rings (size 3 to 8) (size 9 to 14) (size 15 to 20)
#    0.000    1.000    6.667    1.500    4.667    1.333 
#    3.000    0.000    0.000    0.000    0.000    0.000 
#    0.000    0.000    0.000    0.000    0.000    0.000 
#
# Total GULP energy -297313.804747 kJ/mol
# GULP energy per Si atom -12388.075198 kJ/mol
# Density = 2.110809 g / cm^3
# Si number density = 21.156246 Si / 1000 Ang^3
#
#
#
# Elastic Constant Matrix: (Units=GPa)
#
#
# Indices 1 2 3 4 5 6 
#
# 1 112.2326 38.7891 25.9914 0.0000 5.4106 0.0000
# 2 38.7891 143.4750 32.7510 0.0000 -0.3835 0.0000
# 3 25.9914 32.7510 77.1302 0.0000 0.7040 0.0000
# 4 0.0000 0.0000 0.0000 58.1670 0.0000 9.8482
# 5 5.4106 -0.3835 0.7040 0.0000 17.0146 0.0000
# 6 0.0000 0.0000 0.0000 9.8482 0.0000 29.5776
#
#
#
# Elastic Compliance Matrix: (Units=1/GPa)
#
#
# Indices 1 2 3 4 5 6 
#
# 1 0.010431 -0.002251 -0.002529 0.000000 -0.003263 0.000000
# 2 -0.002251 0.008206 -0.002735 0.000000 0.001014 0.000000
# 3 -0.002529 -0.002735 0.014978 0.000000 0.000123 0.000000
# 4 0.000000 0.000000 0.000000 0.018219 0.000000 -0.006066
# 5 -0.003263 0.001014 0.000123 0.000000 0.059829 0.000000
# 6 0.000000 0.000000 0.000000 -0.006066 0.000000 0.035829
#
#
# Mechanical properties :
#
#
# Convention : Reuss Voigt Hill
#
# Bulk Modulus (GPa) = 53.81219 58.65567 56.23393
# Shear Modulus (GPa) = 29.63547 36.63891 33.13719
#
# Velocity S-wave (km/s) = 3.74677 4.16603 3.96195
# Velocity P-wave (km/s) = 6.64895 7.13627 6.89692
#
# Compressibility (1/GPa) = 0.01858315
#
# Stress axis : x y z
#
# Youngs Moduli (GPa) = 95.86542 121.86896 66.76659
#
# Poissons Ratio (x) = 0.27439 0.16888
# Poissons Ratio (y) = 0.21584 0.18259
# Poissons Ratio (z) = 0.24248 0.33328
#
# Static dielectric constant tensor:
#      x y z
#    x 3.474000 0.000000 0.028300 
#    y 0.000000 4.638290 0.000000 
#    z 0.028300 0.000000 3.744600 
# 
# 
# High freq. dielectric constant tensor:
#      x y z
#    x 1.793150 0.000000 -0.002620 
#    y 0.000000 1.846460 0.000000 
#    z -0.002620 0.000000 1.833160 
# 
# From -- ./inp_files/39642.got.cif
#   From: 2010.06.25/outbox.cif.g09.slc.cpg/sg15_20_cif.got.tgz:39642.got - 2010.06.28 07:06:18.
