data_PCOD8149120
_publ_section_title
;
Structure prediction by ZEFSAII (Michael W. Deem and Ramdas Pophale) SiO2 
 PCOD8149120
Probable space group: C 2/C
;
_chemical_formula_sum "Si O2"
_cell_formula_units_Z 36
_cell_length_a 6.448134
_cell_length_b 18.991233
_cell_length_c 13.571734
_cell_angle_alpha 90.000000
_cell_angle_beta 82.947427
_cell_angle_gamma 90.000000
_cell_volume 1649.393012
_symmetry_space_group_name_H-M "C 2/C"
_symmetry_group_IT_number 15
_symmetry_cell_setting 'monoclinic'
loop_
_space_group_symop_operation_xyz
x,y,z
-x,y,1/2-z
-x,-y,-z
x,-y,1/2+z
1/2+x,1/2+y,z
1/2-x,1/2+y,1/2-z
1/2-x,1/2-y,-z
1/2+x,1/2-y,1/2+z
loop_
_atom_site_type_symbol
_atom_site_label
_atom_site_fract_x
_atom_site_fract_y
_atom_site_fract_z
Si Si1 0.847747 0.694512 0.349505
Si Si2 0.806561 0.949121 0.006681
Si Si3 0.500000 0.244804 0.750000
Si Si4 0.486390 0.950990 0.866554
Si Si5 0.839253 0.796359 0.081579
O O1 0.611236 0.707913 0.327582
O O2 0.855087 0.619574 0.406193
O O3 0.000000 0.680584 0.250000
O O4 0.936406 0.761416 0.404840
O O5 0.882692 0.874553 0.043390
O O6 0.621796 0.979281 0.085245
O O7 0.718278 0.942635 0.900256
O O8 0.000000 0.000000 0.000000
O O9 0.319493 0.200138 0.815463
O O10 0.500000 0.962152 0.750000
O O11 0.750000 0.750000 0.000000
#
# Coordination Sequence:
#
# PCOD8149120 Si02
#       5
#     8   8   4   8   8
#     4   9  20  40  66  96 123 167 222 263 322 396
#     4  11  26  43  64  97 133 173 220 272 342 387
#     4  10  24  40  70  96 134 174 220 272 336 376
#     4  10  23  44  67  93 131 172 225 273 325 403
#     4  11  23  43  67  98 132 168 224 272 324 403
#
# _framework density 21.826212999999999
#
# number of rings (size 3 to 8) (size 9 to 14) (size 15 to 20)
#    0.000    1.778    2.222    0.000    4.667    5.333 
#    8.000    0.000    0.000    0.000    0.000    0.000 
#    0.000    0.000    0.000    0.000    0.000    0.000 
#
# Total GULP energy -223167.276969 kJ/mol
# GULP energy per Si atom -12398.182054 kJ/mol
# Density = 2.177654 g / cm^3
# Si number density = 21.826213 Si / 1000 Ang^3
#
#
#
# Elastic Constant Matrix: (Units=GPa)
#
#
# Indices 1 2 3 4 5 6 
#
# 1 111.7025 37.6641 36.2500 0.0000 39.7252 0.0000
# 2 37.6641 153.7108 40.8416 0.0000 25.5116 0.0000
# 3 36.2500 40.8416 98.8928 0.0000 29.2830 0.0000
# 4 0.0000 0.0000 0.0000 29.8788 0.0000 5.7766
# 5 39.7252 25.5116 29.2830 0.0000 46.7480 0.0000
# 6 0.0000 0.0000 0.0000 5.7766 0.0000 30.0405
#
#
#
# Elastic Compliance Matrix: (Units=1/GPa)
#
#
# Indices 1 2 3 4 5 6 
#
# 1 0.013304 -0.001256 -0.001490 0.000000 -0.009687 0.000000
# 2 -0.001256 0.007688 -0.002195 0.000000 -0.001752 0.000000
# 3 -0.001490 -0.002195 0.013302 0.000000 -0.005869 0.000000
# 4 0.000000 0.000000 0.000000 0.034761 0.000000 -0.006684
# 5 -0.009687 -0.001752 -0.005869 0.000000 0.034256 0.000000
# 6 0.000000 0.000000 0.000000 -0.006684 0.000000 0.034574
#
#
# Mechanical properties :
#
#
# Convention : Reuss Voigt Hill
#
# Bulk Modulus (GPa) = 40.96391 65.97971 53.47181
# Shear Modulus (GPa) = 32.07078 37.97016 35.02047
#
# Velocity S-wave (km/s) = 3.83739 4.17545 4.00998
# Velocity P-wave (km/s) = 6.20025 7.31717 6.78174
#
# Compressibility (1/GPa) = 0.02441174
#
# Stress axis : x y z
#
# Youngs Moduli (GPa) = 75.16294 130.07602 75.17397
#
# Poissons Ratio (x) = 0.16344 0.11197
# Poissons Ratio (y) = 0.09444 0.16504
# Poissons Ratio (z) = 0.11196 0.28558
#
# Static dielectric constant tensor:
#      x y z
#    x 4.107660 0.000000 0.491920 
#    y 0.000000 4.353320 0.000000 
#    z 0.491920 0.000000 4.542810 
# 
# 
# High freq. dielectric constant tensor:
#      x y z
#    x 1.857960 0.000000 0.016620 
#    y 0.000000 1.860230 0.000000 
#    z 0.016620 0.000000 1.857750 
# 
# From -- ./inp_files/128724.got.cif
#   From: 2010.06.25/outbox.cif.g09.slc.cpg/sg15_65_cif.got.tgz:128724.got - 2010.06.28 07:06:18.
