data_PCOD8149865
_publ_section_title
;
Structure prediction by ZEFSAII (Michael W. Deem and Ramdas Pophale) SiO2 
 PCOD8149865
Probable space group: C 2/C
;
_chemical_formula_sum "Si O2"
_cell_formula_units_Z 56
_cell_length_a 13.861902
_cell_length_b 10.936150
_cell_length_c 19.161731
_cell_angle_alpha 90.000000
_cell_angle_beta 67.324449
_cell_angle_gamma 90.000000
_cell_volume 2680.302445
_symmetry_space_group_name_H-M "C 2/C"
_symmetry_group_IT_number 15
_symmetry_cell_setting 'monoclinic'
loop_
_space_group_symop_operation_xyz
x,y,z
-x,y,1/2-z
-x,-y,-z
x,-y,1/2+z
1/2+x,1/2+y,z
1/2-x,1/2+y,1/2-z
1/2-x,1/2-y,-z
1/2+x,1/2-y,1/2+z
loop_
_atom_site_type_symbol
_atom_site_label
_atom_site_fract_x
_atom_site_fract_y
_atom_site_fract_z
Si Si1 0.614540 0.734270 0.907674
Si Si2 0.608802 0.955396 0.245638
Si Si3 0.678374 0.201775 0.855684
Si Si4 0.894846 0.269877 0.742322
Si Si5 0.070598 0.878705 0.977058
Si Si6 0.257218 0.964523 0.429288
Si Si7 0.622755 0.014503 0.465360
O O1 0.627411 0.696139 0.823190
O O2 0.681490 0.652209 0.942341
O O3 0.653232 0.872166 0.907627
O O4 0.489917 0.720956 0.959191
O O5 0.500000 0.897844 0.250000
O O6 0.652176 0.860728 0.289712
O O7 0.686871 0.977583 0.160218
O O8 0.587732 0.088667 0.284669
O O9 0.796145 0.253446 0.820585
O O10 0.594796 0.311573 0.895364
O O11 0.677827 0.105364 0.919355
O O12 0.000000 0.219276 0.750000
O O13 0.186243 0.917825 0.970255
O O14 0.000000 0.000000 0.000000
O O15 0.341582 0.951277 0.466476
O O16 0.500000 0.000000 0.500000
#
# Coordination Sequence:
#
# PCOD8149865 Si02
#       7
#     8   8   8   8   8   8   8
#     4  11  23  45  65  95 138 174 224 285 340 406
#     4  11  23  41  67  99 133 174 225 281 345 403
#     4  12  23  43  70  99 137 178 231 284 341 415
#     4  11  25  41  68  99 137 176 226 282 345 409
#     4  10  24  42  67  95 135 179 220 276 350 409
#     4  11  24  43  66  95 136 179 222 279 352 400
#     4  12  25  40  68 101 130 174 237 282 332 408
#
# _framework density 20.893163999999999
#
# number of rings (size 3 to 8) (size 9 to 14) (size 15 to 20)
#    0.000    0.857    5.714    1.286    4.000    0.571 
#    0.000    0.000    0.000    4.286    0.000    0.000 
#    0.000    0.000    0.000    0.000    0.000    0.000 
#
# Total GULP energy -346996.391564 kJ/mol
# GULP energy per Si atom -12392.728270 kJ/mol
# Density = 2.084561 g / cm^3
# Si number density = 20.893164 Si / 1000 Ang^3
#
#
#
# Elastic Constant Matrix: (Units=GPa)
#
#
# Indices 1 2 3 4 5 6 
#
# 1 122.0018 43.4891 56.6333 0.0000 3.3864 0.0000
# 2 43.4891 87.7357 36.3967 0.0000 0.8280 0.0000
# 3 56.6333 36.3967 124.0400 0.0000 -2.9291 0.0000
# 4 0.0000 0.0000 0.0000 36.4476 0.0000 -2.8006
# 5 3.3864 0.8280 -2.9291 0.0000 44.9000 0.0000
# 6 0.0000 0.0000 0.0000 -2.8006 0.0000 24.1398
#
#
#
# Elastic Compliance Matrix: (Units=1/GPa)
#
#
# Indices 1 2 3 4 5 6 
#
# 1 0.011575 -0.004013 -0.004133 0.000000 -0.001069 0.000000
# 2 -0.004013 0.014380 -0.002390 0.000000 -0.000118 0.000000
# 3 -0.004133 -0.002390 0.010675 0.000000 0.001052 0.000000
# 4 0.000000 0.000000 0.000000 0.027683 0.000000 0.003212
# 5 -0.001069 -0.000118 0.001052 0.000000 0.022423 0.000000
# 6 0.000000 0.000000 0.000000 0.003212 0.000000 0.041798
#
#
# Mechanical properties :
#
#
# Convention : Reuss Voigt Hill
#
# Bulk Modulus (GPa) = 64.27374 67.42396 65.84885
# Shear Modulus (GPa) = 32.30151 34.24803 33.27477
#
# Velocity S-wave (km/s) = 3.93623 4.05309 3.99509
# Velocity P-wave (km/s) = 7.17554 7.36507 7.27092
#
# Compressibility (1/GPa) = 0.01555845
#
# Stress axis : x y z
#
# Youngs Moduli (GPa) = 86.39207 69.54258 93.67831
#
# Poissons Ratio (x) = 0.27908 0.38713
# Poissons Ratio (y) = 0.34670 0.22388
# Poissons Ratio (z) = 0.35702 0.16620
#
# Static dielectric constant tensor:
#      x y z
#    x 3.768000 0.000000 -0.238030 
#    y 0.000000 4.002230 0.000000 
#    z -0.238030 0.000000 3.836890 
# 
# 
# High freq. dielectric constant tensor:
#      x y z
#    x 1.812340 0.000000 -0.018710 
#    y 0.000000 1.819530 0.000000 
#    z -0.018710 0.000000 1.823960 
# 
# From -- ./inp_files/203929.got.cif
#   From: 2010.06.25/outbox.cif.g09.slc.cpg/sg15_102_cif.got.tgz:203929.got - 2010.06.28 07:06:18.
