data_PCOD8149438
_publ_section_title
;
Structure prediction by ZEFSAII (Michael W. Deem and Ramdas Pophale) SiO2 
 PCOD8149438
Probable space group: C 2/C
;
_chemical_formula_sum "Si O2"
_cell_formula_units_Z 60
_cell_length_a 25.362132
_cell_length_b 8.419961
_cell_length_c 18.689265
_cell_angle_alpha 90.000000
_cell_angle_beta 139.749560
_cell_angle_gamma 90.000000
_cell_volume 2578.741797
_symmetry_space_group_name_H-M "C 2/C"
_symmetry_group_IT_number 15
_symmetry_cell_setting 'monoclinic'
loop_
_space_group_symop_operation_xyz
x,y,z
-x,y,1/2-z
-x,-y,-z
x,-y,1/2+z
1/2+x,1/2+y,z
1/2-x,1/2+y,1/2-z
1/2-x,1/2-y,-z
1/2+x,1/2-y,1/2+z
loop_
_atom_site_type_symbol
_atom_site_label
_atom_site_fract_x
_atom_site_fract_y
_atom_site_fract_z
Si Si1 0.861604 0.551895 0.008573
Si Si2 0.086772 0.030000 0.182248
Si Si3 0.292361 0.610274 0.087731
Si Si4 0.000000 0.574391 0.250000
Si Si5 0.591064 0.559553 0.531514
Si Si6 0.085923 0.420276 0.579121
Si Si7 0.369808 0.188017 0.226746
Si Si8 0.188468 0.101146 0.017691
O O1 0.937631 0.475676 0.133424
O O2 0.777698 0.473813 0.941103
O O3 0.867455 0.529509 0.929519
O O4 0.864105 0.739962 0.027247
O O5 0.132338 0.867933 0.249651
O O6 0.136732 0.162570 0.281212
O O7 0.095198 0.055699 0.105374
O O8 0.990418 0.024075 0.099753
O O9 0.250000 0.750000 0.000000
O O10 0.338195 0.488390 0.081958
O O11 0.057469 0.672191 0.255044
O O12 0.585704 0.742452 0.547990
O O13 0.669726 0.517517 0.564744
O O14 0.124304 0.424897 0.697592
O O15 0.000000 0.500000 0.500000
O O16 0.283733 0.139121 0.103614
#
# Coordination Sequence:
#
# PCOD8149438 Si02
#       8
#     8   8   8   4   8   8   8   8
#     4  12  25  44  69 102 139 184 235 293 358 431
#     4  10  23  46  70 100 144 188 240 299 357 438
#     4  12  26  45  69 108 147 185 234 300 370 432
#     4  12  22  40  70  98 136 178 228 284 354 426
#     4  10  25  45  71 103 141 190 248 294 365 429
#     4  11  25  44  69 105 140 185 240 296 361 426
#     4  11  23  43  71 105 139 183 238 294 359 431
#     4  12  25  45  70 106 138 186 243 293 360 436
#
# _framework density 23.267161999999999
#
# number of rings (size 3 to 8) (size 9 to 14) (size 15 to 20)
#    0.000    0.800    4.000    2.800    5.600    2.667 
#    0.000    0.000    0.000    0.000    0.000    0.000 
#    0.000    0.000    0.000    0.000    0.000    0.000 
#
# Total GULP energy -371791.042937 kJ/mol
# GULP energy per Si atom -12393.034765 kJ/mol
# Density = 2.321420 g / cm^3
# Si number density = 23.267162 Si / 1000 Ang^3
#
#
#
# Elastic Constant Matrix: (Units=GPa)
#
#
# Indices 1 2 3 4 5 6 
#
# 1 165.8309 33.3341 40.3177 0.0000 -5.7018 0.0000
# 2 33.3341 69.3147 23.5991 0.0000 -2.3244 0.0000
# 3 40.3177 23.5991 159.7555 0.0000 -12.5126 0.0000
# 4 0.0000 0.0000 0.0000 30.6378 0.0000 -1.3113
# 5 -5.7018 -2.3244 -12.5126 0.0000 35.6691 0.0000
# 6 0.0000 0.0000 0.0000 -1.3113 0.0000 35.0296
#
#
#
# Elastic Compliance Matrix: (Units=1/GPa)
#
#
# Indices 1 2 3 4 5 6 
#
# 1 0.006939 -0.002883 -0.001289 0.000000 0.000469 0.000000
# 2 -0.002883 0.016390 -0.001693 0.000000 0.000014 0.000000
# 3 -0.001289 -0.001693 0.007002 0.000000 0.002140 0.000000
# 4 0.000000 0.000000 0.000000 0.032692 0.000000 0.001224
# 5 0.000469 0.000014 0.002140 0.000000 0.028862 0.000000
# 6 0.000000 0.000000 0.000000 0.001224 0.000000 0.028593
#
#
# Mechanical properties :
#
#
# Convention : Reuss Voigt Hill
#
# Bulk Modulus (GPa) = 53.75242 65.48921 59.62081
# Shear Modulus (GPa) = 36.12522 40.11065 38.11793
#
# Velocity S-wave (km/s) = 3.94461 4.15651 4.05195
# Velocity P-wave (km/s) = 6.62564 7.15843 6.89718
#
# Compressibility (1/GPa) = 0.01860381
#
# Stress axis : x y z
#
# Youngs Moduli (GPa) = 144.11051 61.01303 142.80738
#
# Poissons Ratio (x) = 0.17588 0.18403
# Poissons Ratio (y) = 0.41541 0.24171
# Poissons Ratio (z) = 0.18571 0.10327
#
# Static dielectric constant tensor:
#      x y z
#    x 4.538360 0.000000 -0.943810 
#    y 0.000000 4.161370 0.000000 
#    z -0.943810 0.000000 5.748020 
# 
# 
# High freq. dielectric constant tensor:
#      x y z
#    x 1.937230 0.000000 -0.010570 
#    y 0.000000 1.892390 0.000000 
#    z -0.010570 0.000000 1.934250 
# 
# From -- ./inp_files/257210.got.cif
#   From: 2010.06.25/outbox.cif.g09.slc.cpg/sg15_129_cif.got.tgz:257210.got - 2010.06.28 07:06:18.
