data_PCOD8149814
_publ_section_title
;
Structure prediction by ZEFSAII (Michael W. Deem and Ramdas Pophale) SiO2 
 PCOD8149814
Probable space group: C 2/C
;
_chemical_formula_sum "Si O2"
_cell_formula_units_Z 36
_cell_length_a 16.776150
_cell_length_b 11.472288
_cell_length_c 9.098363
_cell_angle_alpha 90.000000
_cell_angle_beta 104.035319
_cell_angle_gamma 90.000000
_cell_volume 1698.802471
_symmetry_space_group_name_H-M "C 2/C"
_symmetry_group_IT_number 15
_symmetry_cell_setting 'monoclinic'
loop_
_space_group_symop_operation_xyz
x,y,z
-x,y,1/2-z
-x,-y,-z
x,-y,1/2+z
1/2+x,1/2+y,z
1/2-x,1/2+y,1/2-z
1/2-x,1/2-y,-z
1/2+x,1/2-y,1/2+z
loop_
_atom_site_type_symbol
_atom_site_label
_atom_site_fract_x
_atom_site_fract_y
_atom_site_fract_z
Si Si1 0.486646 0.839204 0.900330
Si Si2 0.092919 0.879736 0.044569
Si Si3 0.000000 0.992726 0.250000
Si Si4 0.227983 0.382562 0.443606
Si Si5 0.371890 0.044930 0.879154
O O1 0.500000 0.776397 0.750000
O O2 0.424392 0.760572 0.971599
O O3 0.442210 0.961172 0.846828
O O4 0.578072 0.856268 0.008940
O O5 0.183514 0.930095 0.063640
O O6 0.067613 0.915975 0.197413
O O7 0.038392 0.927559 0.890684
O O8 0.250000 0.250000 0.500000
O O9 0.192101 0.468329 0.552859
O O10 0.171291 0.387450 0.273754
#
# Coordination Sequence:
#
# PCOD8149814 Si02
#       5
#     8   8   4   8   8
#     4  11  22  43  72  99 130 182 235 282 332 409
#     4  11  23  42  67  94 136 174 233 267 348 399
#     4  10  24  42  64  92 132 186 214 280 326 430
#     4  12  25  44  67 104 137 177 220 290 347 400
#     4  11  25  44  69  99 141 174 230 288 341 402
#
# _framework density 21.191399000000001
#
# number of rings (size 3 to 8) (size 9 to 14) (size 15 to 20)
#    0.000    0.889    5.556    1.333    3.111    0.000 
#    0.000    2.222    0.000    0.000    0.000    0.000 
#    0.000    0.000    0.000    0.000    0.000    0.000 
#
# Total GULP energy -223025.723083 kJ/mol
# GULP energy per Si atom -12390.317949 kJ/mol
# Density = 2.114317 g / cm^3
# Si number density = 21.191399 Si / 1000 Ang^3
#
#
#
# Elastic Constant Matrix: (Units=GPa)
#
#
# Indices 1 2 3 4 5 6 
#
# 1 118.4701 24.7192 42.9706 0.0000 2.6386 0.0000
# 2 24.7192 82.2549 48.3922 0.0000 10.5193 0.0000
# 3 42.9706 48.3922 129.1229 0.0000 0.5578 0.0000
# 4 0.0000 0.0000 0.0000 -114.8575 0.0000 -4.6995
# 5 2.6386 10.5193 0.5578 0.0000 33.7862 0.0000
# 6 0.0000 0.0000 0.0000 -4.6995 0.0000 40.5550
#
#
#
# Elastic Compliance Matrix: (Units=1/GPa)
#
#
# Indices 1 2 3 4 5 6 
#
# 1 0.009711 -0.001253 -0.002761 0.000000 -0.000323 0.000000
# 2 -0.001253 0.016563 -0.005769 0.000000 -0.004964 0.000000
# 3 -0.002761 -0.005769 0.010817 0.000000 0.001833 0.000000
# 4 0.000000 0.000000 0.000000 -0.008665 0.000000 -0.001004
# 5 -0.000323 -0.004964 0.001833 0.000000 0.031138 0.000000
# 6 0.000000 0.000000 0.000000 -0.001004 0.000000 0.024542
#
#
# Mechanical properties :
#
#
# Convention : Reuss Voigt Hill
#
# Bulk Modulus (GPa) = 57.05824 62.44578 59.75201
# Shear Modulus (GPa) = 45.65699 6.14781 25.90240
#
# Velocity S-wave (km/s) = 4.64670 1.70511 3.49994
# Velocity P-wave (km/s) = 7.46812 5.77996 6.67760
#
# Compressibility (1/GPa) = 0.01752595
#
# Stress axis : x y z
#
# Youngs Moduli (GPa) = 102.97706 60.37710 92.44341
#
# Poissons Ratio (x) = 0.07564 0.25521
# Poissons Ratio (y) = 0.12901 0.53330
# Poissons Ratio (z) = 0.28429 0.34831
#
# Static dielectric constant tensor:
#      x y z
#    x 4.254210 0.000000 -0.102850 
#    y 0.000000 3.803150 0.000000 
#    z -0.102850 0.000000 3.829100 
# 
# 
# High freq. dielectric constant tensor:
#      x y z
#    x 1.844180 0.000000 -0.007670 
#    y 0.000000 1.827070 0.000000 
#    z -0.007670 0.000000 1.836570 
# 
# From -- ./inp_files/45934.got.cif
#   From: 2010.06.25/outbox.cif.g09.slc.cpg/sg15_23_cif.got.tgz:45934.got - 2010.06.28 07:06:18.
