data_PCOD8149700
_publ_section_title
;
Structure prediction by ZEFSAII (Michael W. Deem and Ramdas Pophale) SiO2 
 PCOD8149700
Probable space group: C 2/C
;
_chemical_formula_sum "Si O2"
_cell_formula_units_Z 44
_cell_length_a 8.852341
_cell_length_b 11.937704
_cell_length_c 22.061381
_cell_angle_alpha 90.000000
_cell_angle_beta 109.941786
_cell_angle_gamma 90.000000
_cell_volume 2191.582391
_symmetry_space_group_name_H-M "C 2/C"
_symmetry_group_IT_number 15
_symmetry_cell_setting 'monoclinic'
loop_
_space_group_symop_operation_xyz
x,y,z
-x,y,1/2-z
-x,-y,-z
x,-y,1/2+z
1/2+x,1/2+y,z
1/2-x,1/2+y,1/2-z
1/2-x,1/2-y,-z
1/2+x,1/2-y,1/2+z
loop_
_atom_site_type_symbol
_atom_site_label
_atom_site_fract_x
_atom_site_fract_y
_atom_site_fract_z
Si Si1 0.005390 0.793493 0.817997
Si Si2 0.966284 0.503074 0.066446
Si Si3 0.901224 0.754445 0.064920
Si Si4 0.000000 0.991395 0.250000
Si Si5 0.242327 0.643109 0.657146
Si Si6 0.735643 0.311199 0.061473
O O1 0.168156 0.758698 0.874423
O O2 0.000000 0.737705 0.750000
O O3 0.849124 0.753940 0.833258
O O4 0.994856 0.929014 0.809404
O O5 0.950909 0.628611 0.088596
O O6 0.805254 0.435984 0.062628
O O7 0.116911 0.449991 0.120159
O O8 0.000000 0.500000 0.000000
O O9 0.860397 0.822934 0.119279
O O10 0.048885 0.818948 0.053500
O O11 0.750000 0.750000 0.000000
O O12 0.844999 0.911329 0.225471
O O13 0.750000 0.250000 0.000000
#
# Coordination Sequence:
#
# PCOD8149700 Si02
#       6
#     8   8   8   4   8   8
#     4   9  23  45  64  91 131 169 215 264 324 388
#     4  11  22  42  63  93 135 171 208 272 327 382
#     4  12  24  40  66 100 130 164 218 268 323 397
#     4  10  24  40  70  88 130 170 210 270 320 376
#     4  11  24  42  64  95 127 166 220 265 316 395
#     4  11  22  40  72  93 130 176 214 269 331 381
#
# _framework density 20.076816999999998
#
# number of rings (size 3 to 8) (size 9 to 14) (size 15 to 20)
#    0.545    0.727    3.636    2.182    2.545    2.182 
#    3.273    0.000    0.000    0.000    0.000    0.000 
#    0.000    0.000    0.000    0.000    0.000    0.000 
#
# Total GULP energy -272809.501897 kJ/mol
# GULP energy per Si atom -12400.431904 kJ/mol
# Density = 2.003112 g / cm^3
# Si number density = 20.076817 Si / 1000 Ang^3
#
#
#
# Elastic Constant Matrix: (Units=GPa)
#
#
# Indices 1 2 3 4 5 6 
#
# 1 159.7434 43.9860 38.9454 0.0000 12.1231 0.0000
# 2 43.9860 98.9530 9.8194 0.0000 11.2127 0.0000
# 3 38.9454 9.8194 103.5269 0.0000 12.7879 0.0000
# 4 0.0000 0.0000 0.0000 37.4349 0.0000 -5.2777
# 5 12.1231 11.2127 12.7879 0.0000 33.3366 0.0000
# 6 0.0000 0.0000 0.0000 -5.2777 0.0000 27.5506
#
#
#
# Elastic Compliance Matrix: (Units=1/GPa)
#
#
# Indices 1 2 3 4 5 6 
#
# 1 0.007800 -0.003124 -0.002538 0.000000 -0.000813 0.000000
# 2 -0.003124 0.011791 0.000426 0.000000 -0.002994 0.000000
# 3 -0.002538 0.000426 0.010998 0.000000 -0.003440 0.000000
# 4 0.000000 0.000000 0.000000 0.027455 0.000000 0.005259
# 5 -0.000813 -0.002994 -0.003440 0.000000 0.032619 0.000000
# 6 0.000000 0.000000 0.000000 0.005259 0.000000 0.037304
#
#
# Mechanical properties :
#
#
# Convention : Reuss Voigt Hill
#
# Bulk Modulus (GPa) = 49.70108 60.85830 55.27969
# Shear Modulus (GPa) = 34.44849 37.62927 36.03888
#
# Velocity S-wave (km/s) = 4.14676 4.33397 4.24140
# Velocity P-wave (km/s) = 6.90917 7.44466 7.18191
#
# Compressibility (1/GPa) = 0.02012029
#
# Stress axis : x y z
#
# Youngs Moduli (GPa) = 128.19694 84.80940 90.92215
#
# Poissons Ratio (x) = 0.26490 0.23074
# Poissons Ratio (y) = 0.40042 -0.03877
# Poissons Ratio (z) = 0.32534 -0.03616
#
# Static dielectric constant tensor:
#      x y z
#    x 4.740430 0.000000 -0.613050 
#    y 0.000000 3.933020 0.000000 
#    z -0.613050 0.000000 4.293880 
# 
# 
# High freq. dielectric constant tensor:
#      x y z
#    x 1.785730 0.000000 0.011970 
#    y 0.000000 1.784470 0.000000 
#    z 0.011970 0.000000 1.788500 
# 
# From -- ./inp_files/230153.got.cif
#   From: 2010.06.25/outbox.cif.g09.slc.cpg/sg15_116_cif.got.tgz:230153.got - 2010.06.28 07:06:18.
