data_PCOD8149808
_publ_section_title
;
Structure prediction by ZEFSAII (Michael W. Deem and Ramdas Pophale) SiO2 
 PCOD8149808
Probable space group: C 2/C
;
_chemical_formula_sum "Si O2"
_cell_formula_units_Z 44
_cell_length_a 7.549390
_cell_length_b 11.401444
_cell_length_c 26.099698
_cell_angle_alpha 90.000000
_cell_angle_beta 106.526935
_cell_angle_gamma 90.000000
_cell_volume 2153.692215
_symmetry_space_group_name_H-M "C 2/C"
_symmetry_group_IT_number 15
_symmetry_cell_setting 'monoclinic'
loop_
_space_group_symop_operation_xyz
x,y,z
-x,y,1/2-z
-x,-y,-z
x,-y,1/2+z
1/2+x,1/2+y,z
1/2-x,1/2+y,1/2-z
1/2-x,1/2-y,-z
1/2+x,1/2-y,1/2+z
loop_
_atom_site_type_symbol
_atom_site_label
_atom_site_fract_x
_atom_site_fract_y
_atom_site_fract_z
Si Si1 0.622694 0.076949 0.837953
Si Si2 0.000000 0.766278 0.750000
Si Si3 0.489231 0.441656 0.075404
Si Si4 0.677459 0.162872 0.290930
Si Si5 0.680962 0.163218 0.614142
Si Si6 0.447690 0.311203 0.520215
O O1 0.613889 0.189553 0.800436
O O2 0.806777 0.071674 0.886079
O O3 0.453148 0.080634 0.863816
O O4 0.607187 0.964621 0.800934
O O5 0.850263 0.847484 0.766220
O O6 0.347196 0.417167 0.109038
O O7 0.439680 0.572544 0.053990
O O8 0.470888 0.347106 0.028282
O O9 0.500000 0.225647 0.250000
O O10 0.736698 0.232210 0.345822
O O11 0.581234 0.216193 0.556403
O O12 0.250000 0.250000 0.500000
#
# Coordination Sequence:
#
# PCOD8149808 Si02
#       6
#     8   4   8   8   8   8
#     4  11  22  43  63  94 125 159 215 255 304 382
#     4  10  24  42  64  90 126 160 204 264 308 364
#     4  11  24  41  65  91 127 167 206 256 313 367
#     4  11  23  43  66  92 126 163 207 257 314 371
#     4  11  24  42  66  93 124 168 207 257 315 364
#     4  11  23  43  63  93 130 163 211 259 302 374
#
# _framework density 20.430031
#
# number of rings (size 3 to 8) (size 9 to 14) (size 15 to 20)
#    0.000    1.091    4.545    1.636    0.000    3.636 
#    1.636    0.000    0.000    0.000    0.000    0.000 
#    0.000    0.000    0.000    0.000    0.000    0.000 
#
# Total GULP energy -272862.155761 kJ/mol
# GULP energy per Si atom -12402.825262 kJ/mol
# Density = 2.038353 g / cm^3
# Si number density = 20.430031 Si / 1000 Ang^3
#
#
#
# Elastic Constant Matrix: (Units=GPa)
#
#
# Indices 1 2 3 4 5 6 
#
# 1 131.4253 50.2245 43.4990 0.0000 -17.6085 0.0000
# 2 50.2245 74.6941 19.6141 0.0000 -13.4144 0.0000
# 3 43.4990 19.6141 92.5365 0.0000 -0.2945 0.0000
# 4 0.0000 0.0000 0.0000 17.4783 0.0000 -7.1043
# 5 -17.6085 -13.4144 -0.2945 0.0000 46.2333 0.0000
# 6 0.0000 0.0000 0.0000 -7.1043 0.0000 26.8244
#
#
#
# Elastic Compliance Matrix: (Units=1/GPa)
#
#
# Indices 1 2 3 4 5 6 
#
# 1 0.011767 -0.006346 -0.004178 0.000000 0.002614 0.000000
# 2 -0.006346 0.018419 -0.000912 0.000000 0.002922 0.000000
# 3 -0.004178 -0.000912 0.012958 0.000000 -0.001773 0.000000
# 4 0.000000 0.000000 0.000000 0.064116 0.000000 0.016981
# 5 0.002614 0.002922 -0.001773 0.000000 0.023461 0.000000
# 6 0.000000 0.000000 0.000000 0.016981 0.000000 0.041777
#
#
# Mechanical properties :
#
#
# Convention : Reuss Voigt Hill
#
# Bulk Modulus (GPa) = 49.32665 58.37012 53.84839
# Shear Modulus (GPa) = 24.73701 30.46175 27.59938
#
# Velocity S-wave (km/s) = 3.48345 3.86557 3.67948
# Velocity P-wave (km/s) = 6.35420 6.96823 6.66829
#
# Compressibility (1/GPa) = 0.02027302
#
# Stress axis : x y z
#
# Youngs Moduli (GPa) = 84.98431 54.29226 77.17158
#
# Poissons Ratio (x) = 0.34451 0.32242
# Poissons Ratio (y) = 0.53927 0.07037
# Poissons Ratio (z) = 0.35506 0.04951
#
# Static dielectric constant tensor:
#      x y z
#    x 3.888300 0.000000 0.008030 
#    y 0.000000 3.590780 0.000000 
#    z 0.008030 0.000000 4.002840 
# 
# 
# High freq. dielectric constant tensor:
#      x y z
#    x 1.807750 0.000000 0.005280 
#    y 0.000000 1.788120 0.000000 
#    z 0.005280 0.000000 1.823480 
# 
# From -- ./inp_files/304923.got.cif
#   From: 2010.06.25/outbox.cif.g09.slc.cpg/sg15_153_cif.got.tgz:304923.got - 2010.06.28 07:06:18.
