data_PCOD8149737
_publ_section_title
;
Structure prediction by ZEFSAII (Michael W. Deem and Ramdas Pophale) SiO2 
 PCOD8149737
Probable space group: C 2/C
;
_chemical_formula_sum "Si O2"
_cell_formula_units_Z 64
_cell_length_a 11.833561
_cell_length_b 29.963364
_cell_length_c 8.535320
_cell_angle_alpha 90.000000
_cell_angle_beta 103.426363
_cell_angle_gamma 90.000000
_cell_volume 2943.682531
_symmetry_space_group_name_H-M "C 2/C"
_symmetry_group_IT_number 15
_symmetry_cell_setting 'monoclinic'
loop_
_space_group_symop_operation_xyz
x,y,z
-x,y,1/2-z
-x,-y,-z
x,-y,1/2+z
1/2+x,1/2+y,z
1/2-x,1/2+y,1/2-z
1/2-x,1/2-y,-z
1/2+x,1/2-y,1/2+z
loop_
_atom_site_type_symbol
_atom_site_label
_atom_site_fract_x
_atom_site_fract_y
_atom_site_fract_z
Si Si1 0.651479 0.627709 0.607211
Si Si2 0.488786 0.708302 0.562456
Si Si3 0.506184 0.449884 0.565261
Si Si4 0.240276 0.168019 0.945617
Si Si5 0.740955 0.915423 0.875396
Si Si6 0.514983 0.198261 0.573195
Si Si7 0.466650 0.953292 0.558573
Si Si8 0.630822 0.882851 0.533669
O O1 0.568820 0.668076 0.519858
O O2 0.592658 0.579962 0.550755
O O3 0.670848 0.637337 0.796616
O O4 0.779705 0.628074 0.575012
O O5 0.500000 0.717358 0.750000
O O6 0.352409 0.698682 0.492220
O O7 0.528235 0.752080 0.480799
O O8 0.500000 0.449663 0.750000
O O9 0.500000 0.500000 0.500000
O O10 0.626926 0.427992 0.557576
O O11 0.347176 0.196488 0.915527
O O12 0.291052 0.134786 0.088901
O O13 0.672678 0.948277 0.973995
O O14 0.701017 0.912911 0.682728
O O15 0.500000 0.186993 0.750000
O O16 0.434918 0.163801 0.446553
O O17 0.500000 0.945821 0.750000
O O18 0.523709 0.916468 0.460314
O O19 0.500000 0.000000 0.500000
#
# Coordination Sequence:
#
# PCOD8149737 Si02
#       8
#     8   8   8   8   8   8   8   8
#     4  11  24  47  66  96 138 174 222 273 333 397
#     4  10  25  43  67  97 135 175 222 278 332 402
#     4  12  28  45  70 103 135 177 225 276 334 397
#     4  11  23  44  69  97 130 176 222 273 334 391
#     4  11  24  43  71  95 133 179 215 275 336 389
#     4  12  25  43  67 102 132 175 227 275 337 397
#     4  10  24  41  64  96 129 169 218 267 326 391
#     4  11  24  44  65  98 135 173 227 272 327 402
#
# _framework density 21.741475000000001
#
# number of rings (size 3 to 8) (size 9 to 14) (size 15 to 20)
#    0.000    1.000    5.000    0.375    5.250    3.500 
#    0.000    0.000    0.000    0.000    0.000    0.000 
#    0.000    0.000    0.000    0.000    0.000    0.000 
#
# Total GULP energy -396506.991762 kJ/mol
# GULP energy per Si atom -12390.843493 kJ/mol
# Density = 2.169199 g / cm^3
# Si number density = 21.741475 Si / 1000 Ang^3
#
#
#
# Elastic Constant Matrix: (Units=GPa)
#
#
# Indices 1 2 3 4 5 6 
#
# 1 118.4134 33.6938 16.6687 0.0000 -24.4730 0.0000
# 2 33.6938 143.0272 18.8439 0.0000 -11.7227 0.0000
# 3 16.6687 18.8439 32.1651 0.0000 -6.8624 0.0000
# 4 0.0000 0.0000 0.0000 32.8670 0.0000 3.5923
# 5 -24.4730 -11.7227 -6.8624 0.0000 30.1132 0.0000
# 6 0.0000 0.0000 0.0000 3.5923 0.0000 20.9796
#
#
#
# Elastic Compliance Matrix: (Units=1/GPa)
#
#
# Indices 1 2 3 4 5 6 
#
# 1 0.010878 -0.001533 -0.003133 0.000000 0.007530 0.000000
# 2 -0.001533 0.007913 -0.003626 0.000000 0.001008 0.000000
# 3 -0.003133 -0.003626 0.035731 0.000000 0.004185 0.000000
# 4 0.000000 0.000000 0.000000 0.031006 0.000000 -0.005309
# 5 0.007530 0.001008 0.004185 0.000000 0.040674 0.000000
# 6 0.000000 0.000000 0.000000 -0.005309 0.000000 0.048574
#
#
# Mechanical properties :
#
#
# Convention : Reuss Voigt Hill
#
# Bulk Modulus (GPa) = 26.35890 48.00205 37.18048
# Shear Modulus (GPa) = 24.50897 31.75191 28.13044
#
# Velocity S-wave (km/s) = 3.36116 3.82570 3.60093
# Velocity P-wave (km/s) = 5.21664 6.45300 5.86747
#
# Compressibility (1/GPa) = 0.03793784
#
# Stress axis : x y z
#
# Youngs Moduli (GPa) = 91.92477 126.37118 27.98723
#
# Poissons Ratio (x) = 0.19369 0.08768
# Poissons Ratio (y) = 0.14090 0.10150
# Poissons Ratio (z) = 0.28800 0.45828
#
# Static dielectric constant tensor:
#      x y z
#    x 4.093220 0.000000 -0.338280 
#    y 0.000000 3.828730 0.000000 
#    z -0.338280 0.000000 3.517740 
# 
# 
# High freq. dielectric constant tensor:
#      x y z
#    x 1.877270 0.000000 -0.007090 
#    y 0.000000 1.857010 0.000000 
#    z -0.007090 0.000000 1.834410 
# 
# From -- ./inp_files/35696.got.cif
#   From: 2010.06.25/outbox.cif.g09.slc.cpg/sg15_18_cif.got.tgz:35696.got - 2010.06.28 07:06:18.
