data_PCOD8149610
_publ_section_title
;
Structure prediction by ZEFSAII (Michael W. Deem and Ramdas Pophale) SiO2 
 PCOD8149610
Probable space group: C 2/C
;
_chemical_formula_sum "Si O2"
_cell_formula_units_Z 28
_cell_length_a 16.437837
_cell_length_b 9.026416
_cell_length_c 8.966111
_cell_angle_alpha 90.000000
_cell_angle_beta 62.426483
_cell_angle_gamma 90.000000
_cell_volume 1179.240835
_symmetry_space_group_name_H-M "C 2/C"
_symmetry_group_IT_number 15
_symmetry_cell_setting 'monoclinic'
loop_
_space_group_symop_operation_xyz
x,y,z
-x,y,1/2-z
-x,-y,-z
x,-y,1/2+z
1/2+x,1/2+y,z
1/2-x,1/2+y,1/2-z
1/2-x,1/2-y,-z
1/2+x,1/2-y,1/2+z
loop_
_atom_site_type_symbol
_atom_site_label
_atom_site_fract_x
_atom_site_fract_y
_atom_site_fract_z
Si Si1 0.500000 0.990033 0.750000
Si Si2 0.052104 0.703749 0.950667
Si Si3 0.150498 0.816527 0.417529
Si Si4 0.305068 0.589526 0.297929
O O1 0.565796 0.888852 0.591429
O O2 0.563800 0.093572 0.799310
O O3 0.129555 0.827108 0.875809
O O4 0.953202 0.781701 0.038169
O O5 0.203960 0.660554 0.380170
O O6 0.152279 0.900889 0.573771
O O7 0.198653 0.919208 0.251259
#
# Coordination Sequence:
#
# PCOD8149610 Si02
#       4
#     4   8   8   8
#     4  10  24  38  74  92 128 168 220 254 328 364
#     4  11  23  44  65  96 131 169 210 267 313 384
#     4  11  26  43  66  96 130 168 215 263 318 381
#     4  11  26  43  66  96 130 168 215 263 318 381
#
# _framework density 23.744088999999999
#
# number of rings (size 3 to 8) (size 9 to 14) (size 15 to 20)
#    0.000    1.143    2.857    0.857   12.000    1.143 
#    0.000    0.000    0.000    0.000    0.000    0.000 
#    0.000    0.000    0.000    0.000    0.000    0.000 
#
# Total GULP energy -173688.699941 kJ/mol
# GULP energy per Si atom -12406.335710 kJ/mol
# Density = 2.369005 g / cm^3
# Si number density = 23.744089 Si / 1000 Ang^3
#
#
#
# Elastic Constant Matrix: (Units=GPa)
#
#
# Indices 1 2 3 4 5 6 
#
# 1 38.0943 12.5324 16.9726 0.0000 -4.5639 0.0000
# 2 12.5324 80.2552 31.8246 0.0000 15.5719 0.0000
# 3 16.9726 31.8246 98.7237 0.0000 17.6454 0.0000
# 4 0.0000 0.0000 0.0000 54.9220 0.0000 -5.3203
# 5 -4.5639 15.5719 17.6454 0.0000 34.7716 0.0000
# 6 0.0000 0.0000 0.0000 -5.3203 0.0000 17.9300
#
#
#
# Elastic Compliance Matrix: (Units=1/GPa)
#
#
# Indices 1 2 3 4 5 6 
#
# 1 0.031231 -0.004405 -0.005537 0.000000 0.008881 0.000000
# 2 -0.004405 0.015567 -0.003202 0.000000 -0.005925 0.000000
# 3 -0.005537 -0.003202 0.013183 0.000000 -0.005982 0.000000
# 4 0.000000 0.000000 0.000000 0.018746 0.000000 0.005563
# 5 0.008881 -0.005925 -0.005982 0.000000 0.035614 0.000000
# 6 0.000000 0.000000 0.000000 0.005563 0.000000 0.057423
#
#
# Mechanical properties :
#
#
# Convention : Reuss Voigt Hill
#
# Bulk Modulus (GPa) = 29.67903 37.74805 33.71354
# Shear Modulus (GPa) = 23.89118 31.90762 27.89940
#
# Velocity S-wave (km/s) = 3.17550 3.66978 3.43155
# Velocity P-wave (km/s) = 5.09625 5.82141 5.47086
#
# Compressibility (1/GPa) = 0.03369382
#
# Stress axis : x y z
#
# Youngs Moduli (GPa) = 32.01994 64.23670 75.85720
#
# Poissons Ratio (x) = 0.28294 0.42000
# Poissons Ratio (y) = 0.14103 0.24290
# Poissons Ratio (z) = 0.17728 0.20569
#
# Static dielectric constant tensor:
#      x y z
#    x 3.844810 0.000000 0.170970 
#    y 0.000000 4.389130 0.000000 
#    z 0.170970 0.000000 4.408200 
# 
# 
# High freq. dielectric constant tensor:
#      x y z
#    x 1.919560 0.000000 0.003940 
#    y 0.000000 1.945620 0.000000 
#    z 0.003940 0.000000 1.951900 
# 
# From -- ./inp_files/53269.got.cif
#   From: 2010.06.25/outbox.cif.g09.slc.cpg/sg15_27_cif.got.tgz:53269.got - 2010.06.28 07:06:18.
