data_PCOD8149781
_publ_section_title
;
Structure prediction by ZEFSAII (Michael W. Deem and Ramdas Pophale) SiO2 
 PCOD8149781
Probable space group: C 2/C
;
_chemical_formula_sum "Si O2"
_cell_formula_units_Z 56
_cell_length_a 24.904785
_cell_length_b 13.345829
_cell_length_c 8.815073
_cell_angle_alpha 90.000000
_cell_angle_beta 119.648049
_cell_angle_gamma 90.000000
_cell_volume 2546.327265
_symmetry_space_group_name_H-M "C 2/C"
_symmetry_group_IT_number 15
_symmetry_cell_setting 'monoclinic'
loop_
_space_group_symop_operation_xyz
x,y,z
-x,y,1/2-z
-x,-y,-z
x,-y,1/2+z
1/2+x,1/2+y,z
1/2-x,1/2+y,1/2-z
1/2-x,1/2-y,-z
1/2+x,1/2-y,1/2+z
loop_
_atom_site_type_symbol
_atom_site_label
_atom_site_fract_x
_atom_site_fract_y
_atom_site_fract_z
Si Si1 0.000000 0.993044 0.250000
Si Si2 0.922291 0.394089 0.399347
Si Si3 0.712205 0.953965 0.380085
Si Si4 0.000000 0.493656 0.250000
Si Si5 0.257651 0.867562 0.760003
Si Si6 0.916912 0.956135 0.383798
Si Si7 0.318021 0.671574 0.893045
Si Si8 0.872770 0.178706 0.296708
O O1 0.949107 0.925209 0.269139
O O2 0.035239 0.067451 0.414486
O O3 0.857369 0.447543 0.275421
O O4 0.967947 0.420222 0.325623
O O5 0.913888 0.273981 0.402748
O O6 0.949944 0.435533 0.595906
O O7 0.718402 0.935227 0.566939
O O8 0.752128 0.873202 0.344526
O O9 0.740425 0.063946 0.387111
O O10 0.305863 0.778059 0.798362
O O11 0.189744 0.823967 0.692388
O O12 0.853013 0.898027 0.319124
O O13 0.908811 0.076059 0.375035
O O14 0.358455 0.688482 0.098903
#
# Coordination Sequence:
#
# PCOD8149781 Si02
#       8
#     4   8   8   4   8   8   8   8
#     4  10  24  42  60  92 126 184 214 264 324 386
#     4  11  22  45  68  96 131 177 223 276 326 399
#     4  11  21  39  71  97 134 164 218 274 338 393
#     4  10  26  44  68  94 136 178 232 278 320 374
#     4  11  22  40  67 106 129 175 210 273 349 407
#     4  11  22  42  67  93 136 170 224 272 327 396
#     4  11  21  41  68 101 130 177 214 270 344 404
#     4  11  21  39  70  98 132 171 216 273 338 402
#
# _framework density 21.992457999999999
#
# number of rings (size 3 to 8) (size 9 to 14) (size 15 to 20)
#    0.000    1.143    5.714    1.714    0.000    1.143 
#    0.000    3.571    0.000    0.000    0.000    0.000 
#    0.000    0.000    0.000    0.000    0.000    0.000 
#
# Total GULP energy -347201.213052 kJ/mol
# GULP energy per Si atom -12400.043323 kJ/mol
# Density = 2.194240 g / cm^3
# Si number density = 21.992458 Si / 1000 Ang^3
#
#
#
# Elastic Constant Matrix: (Units=GPa)
#
#
# Indices 1 2 3 4 5 6 
#
# 1 101.2366 31.3627 27.3444 0.0000 -0.6034 0.0000
# 2 31.3627 147.5747 24.5447 0.0000 1.2568 0.0000
# 3 27.3444 24.5447 65.4499 0.0000 10.9691 0.0000
# 4 0.0000 0.0000 0.0000 26.3936 0.0000 4.0583
# 5 -0.6034 1.2568 10.9691 0.0000 31.0067 0.0000
# 6 0.0000 0.0000 0.0000 4.0583 0.0000 24.8691
#
#
#
# Elastic Compliance Matrix: (Units=1/GPa)
#
#
# Indices 1 2 3 4 5 6 
#
# 1 0.011653 -0.001738 -0.004535 0.000000 0.001902 0.000000
# 2 -0.001738 0.007501 -0.002158 0.000000 0.000426 0.000000
# 3 -0.004535 -0.002158 0.019116 0.000000 -0.006763 0.000000
# 4 0.000000 0.000000 0.000000 0.038863 0.000000 -0.006342
# 5 0.001902 0.000426 -0.006763 0.000000 0.034664 0.000000
# 6 0.000000 0.000000 0.000000 -0.006342 0.000000 0.041246
#
#
# Mechanical properties :
#
#
# Convention : Reuss Voigt Hill
#
# Bulk Modulus (GPa) = 46.71377 53.41833 50.06605
# Shear Modulus (GPa) = 28.24202 31.85448 30.04825
#
# Velocity S-wave (km/s) = 3.58742 3.80995 3.70036
# Velocity P-wave (km/s) = 6.20051 6.61033 6.40870
#
# Compressibility (1/GPa) = 0.02140697
#
# Stress axis : x y z
#
# Youngs Moduli (GPa) = 85.81710 133.31615 52.31098
#
# Poissons Ratio (x) = 0.23175 0.23724
# Poissons Ratio (y) = 0.14918 0.11289
# Poissons Ratio (z) = 0.38920 0.28770
#
# Static dielectric constant tensor:
#      x y z
#    x 4.160150 0.000000 0.009990 
#    y 0.000000 3.886920 0.000000 
#    z 0.009990 0.000000 3.946800 
# 
# 
# High freq. dielectric constant tensor:
#      x y z
#    x 1.876680 0.000000 0.004990 
#    y 0.000000 1.851030 0.000000 
#    z 0.004990 0.000000 1.860000 
# 
# From -- ./inp_files/65560.got.cif
#   From: 2010.06.25/outbox.cif.g09.slc.cpg/sg15_33_cif.got.tgz:65560.got - 2010.06.28 07:06:18.
