data_PCOD8149502
_publ_section_title
;
Structure prediction by ZEFSAII (Michael W. Deem and Ramdas Pophale) SiO2 
 PCOD8149502
Probable space group: C 2/C
;
_chemical_formula_sum "Si O2"
_cell_formula_units_Z 36
_cell_length_a 11.626736
_cell_length_b 14.863615
_cell_length_c 12.183307
_cell_angle_alpha 90.000000
_cell_angle_beta 46.303866
_cell_angle_gamma 90.000000
_cell_volume 1522.278137
_symmetry_space_group_name_H-M "C 2/C"
_symmetry_group_IT_number 15
_symmetry_cell_setting 'monoclinic'
loop_
_space_group_symop_operation_xyz
x,y,z
-x,y,1/2-z
-x,-y,-z
x,-y,1/2+z
1/2+x,1/2+y,z
1/2-x,1/2+y,1/2-z
1/2-x,1/2-y,-z
1/2+x,1/2-y,1/2+z
loop_
_atom_site_type_symbol
_atom_site_label
_atom_site_fract_x
_atom_site_fract_y
_atom_site_fract_z
Si Si1 0.411046 0.257436 0.592046
Si Si2 0.764048 0.478553 0.343776
Si Si3 0.001263 0.916838 0.373770
Si Si4 0.425776 0.159869 0.188396
Si Si5 0.000000 0.674020 0.750000
O O1 0.481323 0.339151 0.476389
O O2 0.442823 0.169150 0.495157
O O3 0.226726 0.277241 0.739029
O O4 0.508938 0.240478 0.639515
O O5 0.670428 0.460965 0.291626
O O6 0.642155 0.512007 0.517967
O O7 0.891210 0.554753 0.228022
O O8 0.845855 0.389221 0.337455
O O9 0.000000 0.881577 0.250000
O O10 0.500000 0.200284 0.250000
#
# Coordination Sequence:
#
# PCOD8149502 Si02
#       5
#     8   8   8   8   4
#     4  11  26  43  73 102 143 188 235 287 354 410
#     4  10  24  43  69 109 140 184 229 291 362 404
#     4  10  23  47  72 103 140 188 231 290 351 425
#     4  11  23  45  69 106 138 185 237 292 345 421
#     4  12  26  46  68 106 144 182 236 286 344 430
#
# _framework density 23.648765000000001
#
# number of rings (size 3 to 8) (size 9 to 14) (size 15 to 20)
#    0.000    1.333    1.111    2.667    3.111    9.778 
#   14.000    0.000    0.000    0.000    0.000    0.000 
#    0.000    0.000    0.000    0.000    0.000    0.000 
#
# Total GULP energy -223151.334532 kJ/mol
# GULP energy per Si atom -12397.296363 kJ/mol
# Density = 2.359494 g / cm^3
# Si number density = 23.648765 Si / 1000 Ang^3
#
#
#
# Elastic Constant Matrix: (Units=GPa)
#
#
# Indices 1 2 3 4 5 6 
#
# 1 100.2247 63.5646 52.1114 0.0000 43.7639 0.0000
# 2 63.5646 96.3749 49.2090 0.0000 11.5917 0.0000
# 3 52.1114 49.2090 87.4523 0.0000 33.0017 0.0000
# 4 0.0000 0.0000 0.0000 37.5856 0.0000 -5.4770
# 5 43.7639 11.5917 33.0017 0.0000 45.1510 0.0000
# 6 0.0000 0.0000 0.0000 -5.4770 0.0000 49.0737
#
#
#
# Elastic Compliance Matrix: (Units=1/GPa)
#
#
# Indices 1 2 3 4 5 6 
#
# 1 0.035303 -0.020691 0.002092 0.000000 -0.030435 0.000000
# 2 -0.020691 0.027010 -0.010799 0.000000 0.021015 0.000000
# 3 0.002092 -0.010799 0.022071 0.000000 -0.015388 0.000000
# 4 0.000000 0.000000 0.000000 0.027046 0.000000 0.003019
# 5 -0.030435 0.021015 -0.015388 0.000000 0.057500 0.000000
# 6 0.000000 0.000000 0.000000 0.003019 0.000000 0.020714
#
#
# Mechanical properties :
#
#
# Convention : Reuss Voigt Hill
#
# Bulk Modulus (GPa) = 39.08215 68.20246 53.64230
# Shear Modulus (GPa) = 19.45761 34.30651 26.88206
#
# Velocity S-wave (km/s) = 2.87152 3.81290 3.37519
# Velocity P-wave (km/s) = 5.24939 6.94886 6.15803
#
# Compressibility (1/GPa) = 0.02558713
#
# Stress axis : x y z
#
# Youngs Moduli (GPa) = 28.32660 37.02398 45.30752
#
# Poissons Ratio (x) = 0.76608 -0.09478
# Poissons Ratio (y) = 0.58612 0.48926
# Poissons Ratio (z) = -0.05926 0.39981
#
# Static dielectric constant tensor:
#      x y z
#    x 4.464260 0.000000 -0.135640 
#    y 0.000000 4.332320 0.000000 
#    z -0.135640 0.000000 4.390980 
# 
# 
# High freq. dielectric constant tensor:
#      x y z
#    x 1.948040 0.000000 -0.005730 
#    y 0.000000 1.943320 0.000000 
#    z -0.005730 0.000000 1.924840 
# 
# From -- ./inp_files/87045.got.cif
#   From: 2010.06.25/outbox.cif.g09.slc.cpg/sg15_44_cif.got.tgz:87045.got - 2010.06.28 07:06:18.
