data_PCOD8149070
_publ_section_title
;
Structure prediction by ZEFSAII (Michael W. Deem and Ramdas Pophale) SiO2 
 PCOD8149070
Probable space group: C 2/C
;
_chemical_formula_sum "Si O2"
_cell_formula_units_Z 48
_cell_length_a 30.505130
_cell_length_b 6.590588
_cell_length_c 13.098000
_cell_angle_alpha 90.000000
_cell_angle_beta 54.671193
_cell_angle_gamma 90.000000
_cell_volume 2148.378144
_symmetry_space_group_name_H-M "C 2/C"
_symmetry_group_IT_number 15
_symmetry_cell_setting 'monoclinic'
loop_
_space_group_symop_operation_xyz
x,y,z
-x,y,1/2-z
-x,-y,-z
x,-y,1/2+z
1/2+x,1/2+y,z
1/2-x,1/2+y,1/2-z
1/2-x,1/2-y,-z
1/2+x,1/2-y,1/2+z
loop_
_atom_site_type_symbol
_atom_site_label
_atom_site_fract_x
_atom_site_fract_y
_atom_site_fract_z
Si Si1 0.639574 0.756768 0.081526
Si Si2 0.816612 0.922133 0.339829
Si Si3 0.034905 0.457604 0.299241
Si Si4 0.626213 0.559312 0.430932
Si Si5 0.804862 0.353206 0.040996
Si Si6 0.015071 0.215033 0.520968
O O1 0.679157 0.636606 0.105508
O O2 0.595585 0.883761 0.204002
O O3 0.673247 0.920495 0.972599
O O4 0.612774 0.600492 0.038458
O O5 0.827888 0.737954 0.403156
O O6 0.758883 0.876053 0.369305
O O7 0.859883 0.932003 0.190075
O O8 0.008872 0.352375 0.430785
O O9 0.000000 0.392530 0.250000
O O10 0.026220 0.699262 0.336263
O O11 0.676298 0.705496 0.392786
O O12 0.575184 0.706327 0.485988
O O13 0.000000 0.000000 0.500000
#
# Coordination Sequence:
#
# PCOD8149070 Si02
#       6
#     8   8   8   8   8   8
#     4  11  23  42  70  96 135 178 225 279 344 407
#     4  10  23  44  64  99 138 175 229 282 342 411
#     4  11  24  43  66  99 132 173 225 275 339 411
#     4  11  24  42  67 105 134 176 236 282 341 412
#     4  10  24  42  67  96 136 183 222 283 349 407
#     4  11  25  43  68  95 134 177 225 279 344 401
#
# _framework density 22.342435999999999
#
# number of rings (size 3 to 8) (size 9 to 14) (size 15 to 20)
#    0.000    1.333    1.667    2.500    4.667    4.667 
#    0.000    0.000    0.000    0.000    0.000    0.000 
#    0.000    0.000    0.000    0.000    0.000    0.000 
#
# Total GULP energy -297506.456620 kJ/mol
# GULP energy per Si atom -12396.102359 kJ/mol
# Density = 2.229158 g / cm^3
# Si number density = 22.342436 Si / 1000 Ang^3
#
#
#
# Elastic Constant Matrix: (Units=GPa)
#
#
# Indices 1 2 3 4 5 6 
#
# 1 105.3668 43.2565 17.5082 0.0000 7.3897 0.0000
# 2 43.2565 111.0486 30.6562 0.0003 -2.1606 0.0004
# 3 17.5082 30.6562 80.4832 0.0000 6.5544 0.0000
# 4 0.0000 0.0003 0.0000 38.3893 0.0000 -9.1916
# 5 7.3897 -2.1606 6.5544 0.0000 26.8289 0.0000
# 6 0.0000 0.0004 0.0000 -9.1916 0.0000 35.2062
#
#
#
# Elastic Compliance Matrix: (Units=1/GPa)
#
#
# Indices 1 2 3 4 5 6 
#
# 1 0.011651 -0.004451 -0.000560 0.000000 -0.003431 0.000000
# 2 -0.004451 0.011848 -0.003798 0.000000 0.003108 0.000000
# 3 -0.000560 -0.003798 0.014290 0.000000 -0.003643 0.000000
# 4 0.000000 0.000000 0.000000 0.027786 0.000000 0.007254
# 5 -0.003431 0.003108 -0.003643 0.000000 0.039358 0.000000
# 6 0.000000 0.000000 0.000000 0.007254 0.000000 0.030298
#
#
# Mechanical properties :
#
#
# Convention : Reuss Voigt Hill
#
# Bulk Modulus (GPa) = 49.57282 53.30449 51.43865
# Shear Modulus (GPa) = 31.33378 33.78338 32.55858
#
# Velocity S-wave (km/s) = 3.74897 3.89276 3.82154
# Velocity P-wave (km/s) = 6.40122 6.64187 6.52266
#
# Compressibility (1/GPa) = 0.02017235
#
# Stress axis : x y z
#
# Youngs Moduli (GPa) = 85.82590 84.40526 69.97921
#
# Poissons Ratio (x) = 0.37567 0.03918
# Poissons Ratio (y) = 0.38199 0.26576
# Poissons Ratio (z) = 0.04806 0.32054
#
# Static dielectric constant tensor:
#      x y z
#    x 4.102080 0.000000 0.235080 
#    y 0.000000 3.557520 0.000000 
#    z 0.235080 0.000000 3.809060 
# 
# 
# High freq. dielectric constant tensor:
#      x y z
#    x 1.886100 0.000000 0.010110 
#    y 0.000000 1.890290 0.000000 
#    z 0.010110 0.000000 1.868400 
# 
# From -- ./inp_files/180007.got.cif
#   From: 2010.06.25/outbox.cif.g09.slc.cpg/sg15_91_cif.got.tgz:180007.got - 2010.06.28 07:06:18.
