data_PCOD8149990
_publ_section_title
;
Structure prediction by ZEFSAII (Michael W. Deem and Ramdas Pophale) SiO2 
 PCOD8149990
Probable space group: C 2/C
;
_chemical_formula_sum "Si O2"
_cell_formula_units_Z 36
_cell_length_a 7.324608
_cell_length_b 7.272738
_cell_length_c 32.165423
_cell_angle_alpha 90.000000
_cell_angle_beta 110.574266
_cell_angle_gamma 90.000000
_cell_volume 1604.162415
_symmetry_space_group_name_H-M "C 2/C"
_symmetry_group_IT_number 15
_symmetry_cell_setting 'monoclinic'
loop_
_space_group_symop_operation_xyz
x,y,z
-x,y,1/2-z
-x,-y,-z
x,-y,1/2+z
1/2+x,1/2+y,z
1/2-x,1/2+y,1/2-z
1/2-x,1/2-y,-z
1/2+x,1/2-y,1/2+z
loop_
_atom_site_type_symbol
_atom_site_label
_atom_site_fract_x
_atom_site_fract_y
_atom_site_fract_z
Si Si1 0.582692 0.333310 0.421507
Si Si2 0.918997 0.536267 0.286094
Si Si3 0.319804 0.027107 0.617308
Si Si4 0.500000 0.613113 0.750000
Si Si5 0.779156 0.700299 0.454971
O O1 0.676788 0.179356 0.400038
O O2 0.398650 0.430357 0.383229
O O3 0.744569 0.484619 0.444815
O O4 0.501408 0.244902 0.458325
O O5 0.687448 0.512995 0.272659
O O6 0.000000 0.441678 0.250000
O O7 0.024514 0.444339 0.333731
O O8 0.965072 0.755032 0.287435
O O9 0.368608 0.174701 0.584722
O O10 0.750000 0.750000 0.500000
#
# Coordination Sequence:
#
# PCOD8149990 Si02
#       5
#     8   8   8   4   8
#     4  10  25  40  67  95 130 172 220 266 329 393
#     4  10  26  44  66  99 130 177 221 280 337 404
#     4  10  26  42  68  95 134 173 221 275 332 398
#     4  10  26  38  70  90 134 166 226 270 344 398
#     4  10  24  43  67  99 134 175 220 274 330 395
#
# _framework density 22.441617999999998
#
# number of rings (size 3 to 8) (size 9 to 14) (size 15 to 20)
#    2.000    0.000    0.000    0.667   10.889    1.778 
#    0.000    0.000    0.000    0.000    0.000    0.000 
#    0.000    0.000    0.000    0.000    0.000    0.000 
#
# Total GULP energy -223032.064482 kJ/mol
# GULP energy per Si atom -12390.670249 kJ/mol
# Density = 2.239054 g / cm^3
# Si number density = 22.441618 Si / 1000 Ang^3
#
#
#
# Elastic Constant Matrix: (Units=GPa)
#
#
# Indices 1 2 3 4 5 6 
#
# 1 75.3233 51.0192 0.9665 0.0000 -5.2558 0.0000
# 2 51.0192 125.5078 38.7207 0.0000 -10.8753 0.0000
# 3 0.9665 38.7207 119.3652 0.0000 -13.1591 0.0000
# 4 0.0000 0.0000 0.0000 18.5213 0.0000 3.8846
# 5 -5.2558 -10.8753 -13.1591 0.0000 13.0061 0.0000
# 6 0.0000 0.0000 0.0000 3.8846 0.0000 46.6589
#
#
#
# Elastic Compliance Matrix: (Units=1/GPa)
#
#
# Indices 1 2 3 4 5 6 
#
# 1 0.019185 -0.008393 0.002981 0.000000 0.003750 0.000000
# 2 -0.008393 0.012832 -0.003698 0.000000 0.003596 0.000000
# 3 0.002981 -0.003698 0.010518 0.000000 0.008754 0.000000
# 4 0.000000 0.000000 0.000000 0.054951 0.000000 -0.004575
# 5 0.003750 0.003596 0.008754 0.000000 0.090267 0.000000
# 6 0.000000 0.000000 0.000000 -0.004575 0.000000 0.021813
#
#
# Mechanical properties :
#
#
# Convention : Reuss Voigt Hill
#
# Bulk Modulus (GPa) = 41.12918 55.73432 48.43175
# Shear Modulus (GPa) = 21.19618 30.93659 26.06638
#
# Velocity S-wave (km/s) = 3.07661 3.71689 3.41180
# Velocity P-wave (km/s) = 5.56666 6.58100 6.09497
#
# Compressibility (1/GPa) = 0.02431364
#
# Stress axis : x y z
#
# Youngs Moduli (GPa) = 52.12529 77.92994 95.07304
#
# Poissons Ratio (x) = 0.65408 -0.28339
# Poissons Ratio (y) = 0.43750 0.35159
# Poissons Ratio (z) = -0.15537 0.28819
#
# Static dielectric constant tensor:
#      x y z
#    x 3.817860 0.000000 -0.024780 
#    y 0.000000 3.924840 0.000000 
#    z -0.024780 0.000000 3.802650 
# 
# 
# High freq. dielectric constant tensor:
#      x y z
#    x 1.878270 0.000000 -0.001570 
#    y 0.000000 1.885550 0.000000 
#    z -0.001570 0.000000 1.864390 
# 
# From -- ./inp_files/287094.got.cif
#   From: 2010.06.25/outbox.cif.g09.slc.cpg/sg15_144_cif.got.tgz:287094.got - 2010.06.28 07:06:18.
