data_PCOD8149797
_publ_section_title
;
Structure prediction by ZEFSAII (Michael W. Deem and Ramdas Pophale) SiO2 
 PCOD8149797
Probable space group: C 2/C
;
_chemical_formula_sum "Si O2"
_cell_formula_units_Z 40
_cell_length_a 13.821799
_cell_length_b 17.228038
_cell_length_c 8.051783
_cell_angle_alpha 90.000000
_cell_angle_beta 121.904139
_cell_angle_gamma 90.000000
_cell_volume 1627.669155
_symmetry_space_group_name_H-M "C 2/C"
_symmetry_group_IT_number 15
_symmetry_cell_setting 'monoclinic'
loop_
_space_group_symop_operation_xyz
x,y,z
-x,y,1/2-z
-x,-y,-z
x,-y,1/2+z
1/2+x,1/2+y,z
1/2-x,1/2+y,1/2-z
1/2-x,1/2-y,-z
1/2+x,1/2-y,1/2+z
loop_
_atom_site_type_symbol
_atom_site_label
_atom_site_fract_x
_atom_site_fract_y
_atom_site_fract_z
Si Si1 0.081011 0.552114 0.176928
Si Si2 0.879118 0.824596 0.569836
Si Si3 0.816774 0.023078 0.860894
Si Si4 0.374792 0.616057 0.591619
Si Si5 0.213867 0.698325 0.219315
O O1 0.190002 0.497522 0.313532
O O2 0.121211 0.630126 0.121307
O O3 0.000000 0.581027 0.250000
O O4 0.000000 0.500000 0.000000
O O5 0.874390 0.916057 0.537299
O O6 0.851460 0.781582 0.363834
O O7 0.789527 0.802445 0.625952
O O8 0.000000 0.797463 0.750000
O O9 0.816726 0.060477 0.677246
O O10 0.888038 0.941785 0.942012
O O11 0.500000 0.648321 0.750000
O O12 0.290891 0.687023 0.458225
#
# Coordination Sequence:
#
# PCOD8149797 Si02
#       5
#     8   8   8   8   8
#     4  11  22  40  65  93 130 174 222 277 325 382
#     4  11  23  43  67  94 135 178 220 280 341 398
#     4  11  22  38  64  97 130 171 227 274 331 404
#     4  11  21  39  65  96 133 171 218 278 334 394
#     4  10  24  42  62  98 132 174 231 270 332 409
#
# _framework density 24.575019000000001
#
# number of rings (size 3 to 8) (size 9 to 14) (size 15 to 20)
#    0.000    1.200    0.000    8.400    0.000    4.800 
#    0.000    3.000    0.000    0.000    0.000    0.000 
#    0.000    0.000    0.000    0.000    0.000    0.000 
#
# Total GULP energy -247764.355285 kJ/mol
# GULP energy per Si atom -12388.217764 kJ/mol
# Density = 2.451909 g / cm^3
# Si number density = 24.575019 Si / 1000 Ang^3
#
#
#
# Elastic Constant Matrix: (Units=GPa)
#
#
# Indices 1 2 3 4 5 6 
#
# 1 122.6741 30.8223 22.9347 0.0000 14.9375 0.0000
# 2 30.8223 97.8493 26.7276 0.0000 40.4421 0.0000
# 3 22.9347 26.7276 115.9357 0.0000 39.3814 0.0000
# 4 0.0000 0.0000 0.0000 65.4969 0.0000 26.1052
# 5 14.9375 40.4421 39.3814 0.0000 33.9950 0.0000
# 6 0.0000 0.0000 0.0000 26.1052 0.0000 63.9644
#
#
#
# Elastic Compliance Matrix: (Units=1/GPa)
#
#
# Indices 1 2 3 4 5 6 
#
# 1 0.009028 -0.003010 -0.001584 0.000000 0.001449 0.000000
# 2 -0.003010 0.023742 0.007035 0.000000 -0.035072 0.000000
# 3 -0.001584 0.007035 0.016362 0.000000 -0.026628 0.000000
# 4 0.000000 0.000000 0.000000 0.018234 0.000000 -0.007442
# 5 0.001449 -0.035072 -0.026628 0.000000 0.101350 0.000000
# 6 0.000000 0.000000 0.000000 -0.007442 0.000000 0.018671
#
#
# Mechanical properties :
#
#
# Convention : Reuss Voigt Hill
#
# Bulk Modulus (GPa) = 18.51380 55.26979 36.89180
# Shear Modulus (GPa) = 24.93667 49.75624 37.34646
#
# Velocity S-wave (km/s) = 3.18892 4.50451 3.90255
# Velocity P-wave (km/s) = 4.59444 7.04225 5.94567
#
# Compressibility (1/GPa) = 0.05401375
#
# Stress axis : x y z
#
# Youngs Moduli (GPa) = 110.77072 42.11998 61.11689
#
# Poissons Ratio (x) = 0.12678 0.09683
# Poissons Ratio (y) = 0.33342 -0.42998
# Poissons Ratio (z) = 0.17549 -0.29633
#
# Static dielectric constant tensor:
#      x y z
#    x 4.386130 0.000000 0.141140 
#    y 0.000000 4.556260 0.000000 
#    z 0.141140 0.000000 5.501700 
# 
# 
# High freq. dielectric constant tensor:
#      x y z
#    x 1.980010 0.000000 0.002700 
#    y 0.000000 1.976340 0.000000 
#    z 0.002700 0.000000 1.986130 
# 
# From -- ./inp_files/40424.got.cif
#   From: 2010.06.25/outbox.cif.g09.slc.cpg/sg15_21_cif.got.tgz:40424.got - 2010.06.28 07:06:18.
