data_PCOD8149294
_publ_section_title
;
Structure prediction by ZEFSAII (Michael W. Deem and Ramdas Pophale) SiO2 
 PCOD8149294
Probable space group: C 2/C
;
_chemical_formula_sum "Si O2"
_cell_formula_units_Z 60
_cell_length_a 16.044233
_cell_length_b 13.249930
_cell_length_c 29.910743
_cell_angle_alpha 90.000000
_cell_angle_beta 27.862367
_cell_angle_gamma 90.000000
_cell_volume 2971.674825
_symmetry_space_group_name_H-M "C 2/C"
_symmetry_group_IT_number 15
_symmetry_cell_setting 'monoclinic'
loop_
_space_group_symop_operation_xyz
x,y,z
-x,y,1/2-z
-x,-y,-z
x,-y,1/2+z
1/2+x,1/2+y,z
1/2-x,1/2+y,1/2-z
1/2-x,1/2-y,-z
1/2+x,1/2-y,1/2+z
loop_
_atom_site_type_symbol
_atom_site_label
_atom_site_fract_x
_atom_site_fract_y
_atom_site_fract_z
Si Si1 0.052356 0.761230 0.075702
Si Si2 0.717220 0.877118 0.755552
Si Si3 0.690864 0.287045 0.916543
Si Si4 0.520741 0.542758 0.836207
Si Si5 0.000000 0.869204 0.250000
Si Si6 0.049023 0.537151 0.180720
Si Si7 0.793572 0.586032 0.975020
Si Si8 0.014967 0.240887 0.074802
O O1 0.940984 0.659643 0.137361
O O2 0.960475 0.855048 0.144325
O O3 0.250000 0.750000 0.000000
O O4 0.055640 0.768855 0.021249
O O5 0.627052 0.898535 0.749794
O O6 0.861725 0.787842 0.682969
O O7 0.809111 0.976178 0.731690
O O8 0.830629 0.197930 0.842691
O O9 0.789734 0.390436 0.881762
O O10 0.555736 0.289675 0.939870
O O11 0.536353 0.561438 0.775852
O O12 0.332989 0.489136 0.937249
O O13 0.097008 0.469711 0.115614
O O14 0.000000 0.476464 0.250000
O O15 0.931689 0.641356 0.943695
O O16 0.686927 0.672101 0.999966
#
# Coordination Sequence:
#
# PCOD8149294 Si02
#       8
#     8   8   8   8   4   8   8   8
#     4  12  22  42  64  96 133 175 221 281 336 400
#     4  11  24  40  65  98 130 176 221 277 344 400
#     4  12  22  39  68  93 131 170 229 272 333 398
#     4  11  24  42  67  95 137 176 226 276 345 406
#     4  12  24  40  64 102 130 174 222 286 324 406
#     4  12  22  39  66 100 131 168 233 286 318 401
#     4  10  24  44  66  93 137 179 218 278 345 406
#     4  10  23  45  65  93 135 178 215 276 349 402
#
# _framework density 20.190633999999999
#
# number of rings (size 3 to 8) (size 9 to 14) (size 15 to 20)
#    0.000    0.800    6.000    0.800    3.733    2.667 
#    0.000    1.333    2.933    0.000    0.000    0.000 
#    0.000    0.000    0.000    0.000    0.000    0.000 
#
# Total GULP energy -371927.289906 kJ/mol
# GULP energy per Si atom -12397.576330 kJ/mol
# Density = 2.014468 g / cm^3
# Si number density = 20.190634 Si / 1000 Ang^3
#
#
#
# Elastic Constant Matrix: (Units=GPa)
#
#
# Indices 1 2 3 4 5 6 
#
# 1 109.9850 38.1877 40.1493 -0.0005 10.6172 0.0001
# 2 38.1877 89.8175 45.3158 -0.0030 4.2284 -0.0002
# 3 40.1493 45.3158 102.7715 -0.0137 10.9349 -0.0079
# 4 -0.0005 -0.0030 -0.0137 25.6515 -0.0047 -4.7403
# 5 10.6172 4.2284 10.9349 -0.0047 40.4065 -0.0002
# 6 0.0001 -0.0002 -0.0079 -4.7403 -0.0002 34.4877
#
#
#
# Elastic Compliance Matrix: (Units=1/GPa)
#
#
# Indices 1 2 3 4 5 6 
#
# 1 0.011467 -0.003380 -0.002787 -0.000002 -0.001905 -0.000001
# 2 -0.003380 0.015317 -0.005516 -0.000001 0.000778 -0.000001
# 3 -0.002787 -0.005516 0.013501 0.000007 -0.002344 0.000004
# 4 -0.000002 -0.000001 0.000007 0.040000 0.000004 0.005498
# 5 -0.001905 0.000778 -0.002344 0.000004 0.025802 0.000000
# 6 -0.000001 -0.000001 0.000004 0.005498 0.000000 0.029752
#
#
# Mechanical properties :
#
#
# Convention : Reuss Voigt Hill
#
# Bulk Modulus (GPa) = 59.10442 61.09774 60.10108
# Shear Modulus (GPa) = 30.33174 32.03720 31.18447
#
# Velocity S-wave (km/s) = 3.88011 3.98771 3.93428
# Velocity P-wave (km/s) = 7.02926 7.17834 7.10419
#
# Compressibility (1/GPa) = 0.01691921
#
# Stress axis : x y z
#
# Youngs Moduli (GPa) = 87.20837 65.28624 74.06965
#
# Poissons Ratio (x) = 0.22064 0.20641
# Poissons Ratio (y) = 0.29473 0.40860
# Poissons Ratio (z) = 0.24303 0.36014
#
# Static dielectric constant tensor:
#      x y z
#    x 3.702060 -0.000010 -0.273700 
#    y -0.000010 3.785540 0.000000 
#    z -0.273700 0.000000 3.366500 
# 
# 
# High freq. dielectric constant tensor:
#      x y z
#    x 1.790560 0.000000 -0.001000 
#    y 0.000000 1.782250 0.000000 
#    z -0.001000 0.000000 1.801240 
# 
# From -- ./inp_files/296679.got.cif
#   From: 2010.06.25/outbox.cif.g09.slc.cpg/sg15_149_cif.got.tgz:296679.got - 2010.06.28 07:06:18.
