data_PCOD8149470
_publ_section_title
;
Structure prediction by ZEFSAII (Michael W. Deem and Ramdas Pophale) SiO2 
 PCOD8149470
Probable space group: C 2/C
;
_chemical_formula_sum "Si O2"
_cell_formula_units_Z 60
_cell_length_a 19.426439
_cell_length_b 11.300331
_cell_length_c 22.783966
_cell_angle_alpha 90.000000
_cell_angle_beta 147.445072
_cell_angle_gamma 90.000000
_cell_volume 2691.429787
_symmetry_space_group_name_H-M "C 2/C"
_symmetry_group_IT_number 15
_symmetry_cell_setting 'monoclinic'
loop_
_space_group_symop_operation_xyz
x,y,z
-x,y,1/2-z
-x,-y,-z
x,-y,1/2+z
1/2+x,1/2+y,z
1/2-x,1/2+y,1/2-z
1/2-x,1/2-y,-z
1/2+x,1/2-y,1/2+z
loop_
_atom_site_type_symbol
_atom_site_label
_atom_site_fract_x
_atom_site_fract_y
_atom_site_fract_z
Si Si1 0.107601 0.439366 0.922322
Si Si2 0.758460 0.299154 0.381488
Si Si3 0.460841 0.633597 0.491812
Si Si4 0.000000 0.271280 0.750000
Si Si5 0.958711 0.841456 0.864553
Si Si6 0.235681 0.126757 0.523820
Si Si7 0.684925 0.574966 0.716983
Si Si8 0.867383 0.607122 0.743195
O O1 0.086313 0.345808 0.855834
O O2 0.227395 0.522802 0.993993
O O3 0.981197 0.516904 0.837681
O O4 0.144664 0.370190 0.007569
O O5 0.818864 0.165909 0.415829
O O6 0.610015 0.303291 0.295223
O O7 0.769860 0.363705 0.327149
O O8 0.500000 0.500000 0.500000
O O9 0.479416 0.709957 0.445564
O O10 0.562218 0.660954 0.616286
O O11 0.911968 0.739372 0.788616
O O12 0.090125 0.896754 0.936089
O O13 0.851945 0.943771 0.788256
O O14 0.250000 0.250000 0.500000
O O15 0.326320 0.113252 0.645873
O O16 0.755478 0.563568 0.705202
#
# Coordination Sequence:
#
# PCOD8149470 Si02
#       8
#     8   8   8   4   8   8   8   8
#     4  12  28  46  74 104 150 195 244 306 369 449
#     4  12  28  48  71 111 144 190 249 310 372 441
#     4  10  23  46  73 103 140 188 240 300 367 442
#     4  12  28  48  74 100 144 198 242 294 374 454
#     4  11  25  42  74 104 143 189 246 299 366 444
#     4  12  26  47  75 105 148 194 249 301 371 449
#     4  11  26  43  76 106 142 188 242 305 372 441
#     4  12  25  49  73 110 143 198 244 308 376 436
#
# _framework density 22.292983
#
# number of rings (size 3 to 8) (size 9 to 14) (size 15 to 20)
#    0.000    0.533    5.333    1.200   11.200    1.600 
#    0.000    0.000    0.000    0.000    0.000    0.000 
#    0.000    0.000    0.000    0.000    0.000    0.000 
#
# Total GULP energy -371819.486682 kJ/mol
# GULP energy per Si atom -12393.982889 kJ/mol
# Density = 2.224224 g / cm^3
# Si number density = 22.292983 Si / 1000 Ang^3
#
#
#
# Elastic Constant Matrix: (Units=GPa)
#
#
# Indices 1 2 3 4 5 6 
#
# 1 100.5309 29.2627 42.2688 0.0000 8.0325 -0.0001
# 2 29.2627 89.2745 45.7787 0.0001 -4.4660 0.0000
# 3 42.2688 45.7787 101.2659 0.0002 -4.8161 0.0003
# 4 0.0000 0.0001 0.0002 42.9606 0.0001 4.7054
# 5 8.0325 -4.4660 -4.8161 0.0001 51.1602 0.0000
# 6 -0.0001 0.0000 0.0003 4.7054 0.0000 9.0087
#
#
#
# Elastic Compliance Matrix: (Units=1/GPa)
#
#
# Indices 1 2 3 4 5 6 
#
# 1 0.012616 -0.001954 -0.004505 0.000000 -0.002575 0.000000
# 2 -0.001954 0.014906 -0.005873 0.000000 0.001055 0.000000
# 3 -0.004505 -0.005873 0.014484 0.000000 0.001558 -0.000001
# 4 0.000000 0.000000 0.000000 0.024690 0.000000 -0.012896
# 5 -0.002575 0.001055 0.001558 0.000000 0.020190 0.000000
# 6 0.000000 0.000000 -0.000001 -0.012896 0.000000 0.117740
#
#
# Mechanical properties :
#
#
# Convention : Reuss Voigt Hill
#
# Bulk Modulus (GPa) = 57.66076 58.41018 58.03547
# Shear Modulus (GPa) = 21.27022 32.20996 26.74009
#
# Velocity S-wave (km/s) = 3.09224 3.80524 3.46711
# Velocity P-wave (km/s) = 6.21855 6.75015 6.48979
#
# Compressibility (1/GPa) = 0.01734282
#
# Stress axis : x y z
#
# Youngs Moduli (GPa) = 79.26480 67.08642 69.03970
#
# Poissons Ratio (x) = 0.13109 0.31103
# Poissons Ratio (y) = 0.15488 0.40545
# Poissons Ratio (z) = 0.35710 0.39398
#
# Static dielectric constant tensor:
#      x y z
#    x 4.330510 0.000000 -0.134460 
#    y 0.000000 3.870010 0.000000 
#    z -0.134460 0.000000 4.420570 
# 
# 
# High freq. dielectric constant tensor:
#      x y z
#    x 1.893930 0.000000 -0.000870 
#    y 0.000000 1.868440 0.000000 
#    z -0.000870 0.000000 1.890300 
# 
# From -- ./inp_files/280109.got.cif
#   From: 2010.06.25/outbox.cif.g09.slc.cpg/sg15_141_cif.got.tgz:280109.got - 2010.06.28 07:06:18.
