data_PCOD8149679
_publ_section_title
;
Structure prediction by ZEFSAII (Michael W. Deem and Ramdas Pophale) SiO2 
 PCOD8149679
Probable space group: C 2/C
;
_chemical_formula_sum "Si O2"
_cell_formula_units_Z 40
_cell_length_a 5.262863
_cell_length_b 25.768599
_cell_length_c 13.330240
_cell_angle_alpha 90.000000
_cell_angle_beta 73.994559
_cell_angle_gamma 90.000000
_cell_volume 1737.723401
_symmetry_space_group_name_H-M "C 2/C"
_symmetry_group_IT_number 15
_symmetry_cell_setting 'monoclinic'
loop_
_space_group_symop_operation_xyz
x,y,z
-x,y,1/2-z
-x,-y,-z
x,-y,1/2+z
1/2+x,1/2+y,z
1/2-x,1/2+y,1/2-z
1/2-x,1/2-y,-z
1/2+x,1/2-y,1/2+z
loop_
_atom_site_type_symbol
_atom_site_label
_atom_site_fract_x
_atom_site_fract_y
_atom_site_fract_z
Si Si1 0.124358 0.966384 0.336447
Si Si2 0.672889 0.040369 0.041258
Si Si3 0.454466 0.847675 0.871674
Si Si4 0.383155 0.694637 0.468611
Si Si5 0.280423 0.351424 0.193313
O O1 0.267338 0.913067 0.290833
O O2 0.000000 0.990119 0.250000
O O3 0.939973 0.952482 0.450394
O O4 0.307835 0.013546 0.351849
O O5 0.568260 0.097998 0.067578
O O6 0.500000 0.000000 0.000000
O O7 0.500000 0.856702 0.750000
O O8 0.721996 0.825755 0.890609
O O9 0.199676 0.809017 0.912019
O O10 0.250000 0.750000 0.500000
O O11 0.353992 0.661577 0.572432
O O12 0.500000 0.332081 0.250000
O O13 0.000000 0.324339 0.250000
#
# Coordination Sequence:
#
# PCOD8149679 Si02
#       5
#     8   8   8   8   8
#     4  10  24  40  66  99 141 183 243 279 354 418
#     4  11  25  42  67 104 147 195 235 289 351 436
#     4  12  28  48  75 107 152 193 244 300 373 438
#     4  12  27  51  75 105 140 187 244 311 368 439
#     4  11  24  43  72 103 139 182 237 301 359 423
#
# _framework density 23.018623000000002
#
# number of rings (size 3 to 8) (size 9 to 14) (size 15 to 20)
#    0.000    0.800    2.000    3.600   14.000    2.400 
#    0.000    0.000    0.000    0.000    0.000    0.000 
#    0.000    0.000    0.000    0.000    0.000    0.000 
#
# Total GULP energy -247783.516227 kJ/mol
# GULP energy per Si atom -12389.175811 kJ/mol
# Density = 2.296623 g / cm^3
# Si number density = 23.018623 Si / 1000 Ang^3
#
#
#
# Elastic Constant Matrix: (Units=GPa)
#
#
# Indices 1 2 3 4 5 6 
#
# 1 132.0854 15.1353 35.4905 0.0000 13.3497 0.0000
# 2 15.1353 93.0256 1.2927 0.0000 18.2876 0.0000
# 3 35.4905 1.2927 111.9089 0.0000 30.3140 0.0000
# 4 0.0000 0.0000 0.0000 11.9444 0.0000 17.4593
# 5 13.3497 18.2876 30.3140 0.0000 50.0166 0.0000
# 6 0.0000 0.0000 0.0000 17.4593 0.0000 11.1321
#
#
#
# Elastic Compliance Matrix: (Units=1/GPa)
#
#
# Indices 1 2 3 4 5 6 
#
# 1 0.008440 -0.001298 -0.002608 0.000000 -0.000197 0.000000
# 2 -0.001298 0.011921 0.001628 0.000000 -0.004999 0.000000
# 3 -0.002608 0.001628 0.011626 0.000000 -0.006945 0.000000
# 4 0.000000 0.000000 0.000000 -0.064774 0.000000 0.101590
# 5 -0.000197 -0.004999 -0.006945 0.000000 0.026083 0.000000
# 6 0.000000 0.000000 0.000000 0.101590 0.000000 -0.069501
#
#
# Mechanical properties :
#
#
# Convention : Reuss Voigt Hill
#
# Bulk Modulus (GPa) = 36.45625 48.98409 42.72017
# Shear Modulus (GPa) = -79.99358 33.62539 -23.18410
#
# Velocity S-wave (km/s) = -5.90145 3.82618 -3.17707
# Velocity P-wave (km/s) = 5.52848 6.39108 2.26736
#
# Compressibility (1/GPa) = 0.02743014
#
# Stress axis : x y z
#
# Youngs Moduli (GPa) = 118.47777 83.88516 86.01757
#
# Poissons Ratio (x) = 0.10890 0.22436
# Poissons Ratio (y) = 0.15381 -0.14005
# Poissons Ratio (z) = 0.30903 -0.13658
#
# Static dielectric constant tensor:
#      x y z
#    x 4.377190 0.000000 0.012050 
#    y 0.000000 3.130820 0.000000 
#    z 0.012050 0.000000 4.171890 
# 
# 
# High freq. dielectric constant tensor:
#      x y z
#    x 1.916850 0.000000 0.007620 
#    y 0.000000 1.900550 0.000000 
#    z 0.007620 0.000000 1.930070 
# 
# From -- ./inp_files/73084.got.cif
#   From: 2010.06.25/outbox.cif.g09.slc.cpg/sg15_37_cif.got.tgz:73084.got - 2010.06.28 07:06:18.
