data_PCOD8149427
_publ_section_title
;
Structure prediction by ZEFSAII (Michael W. Deem and Ramdas Pophale) SiO2 
 PCOD8149427
Probable space group: C 2/C
;
_chemical_formula_sum "Si O2"
_cell_formula_units_Z 48
_cell_length_a 8.605829
_cell_length_b 15.052988
_cell_length_c 26.108389
_cell_angle_alpha 90.000000
_cell_angle_beta 138.602231
_cell_angle_gamma 90.000000
_cell_volume 2236.570721
_symmetry_space_group_name_H-M "C 2/C"
_symmetry_group_IT_number 15
_symmetry_cell_setting 'monoclinic'
loop_
_space_group_symop_operation_xyz
x,y,z
-x,y,1/2-z
-x,-y,-z
x,-y,1/2+z
1/2+x,1/2+y,z
1/2-x,1/2+y,1/2-z
1/2-x,1/2-y,-z
1/2+x,1/2-y,1/2+z
loop_
_atom_site_type_symbol
_atom_site_label
_atom_site_fract_x
_atom_site_fract_y
_atom_site_fract_z
Si Si1 0.348595 0.287470 0.762917
Si Si2 0.382988 0.030799 0.273227
Si Si3 0.749162 0.248397 0.061433
Si Si4 0.531537 0.622122 0.698217
Si Si5 0.269213 0.558797 0.938621
Si Si6 0.519569 0.907660 0.031395
O O1 0.500000 0.266644 0.750000
O O2 0.246362 0.386474 0.732426
O O3 0.497818 0.276605 0.852059
O O4 0.133939 0.219142 0.712748
O O5 0.500000 0.064642 0.250000
O O6 0.198765 0.952900 0.215374
O O7 0.585692 0.993699 0.359304
O O8 0.665933 0.342185 0.066542
O O9 0.750000 0.250000 0.000000
O O10 0.569685 0.168530 0.030293
O O11 0.500000 0.602324 0.750000
O O12 0.282707 0.616985 0.609918
O O13 0.148573 0.583909 0.961736
O O14 0.500000 0.500000 0.000000
O O15 0.500000 0.000000 0.000000
#
# Coordination Sequence:
#
# PCOD8149427 Si02
#       6
#     8   8   8   8   8   8
#     4  12  27  45  74 105 141 185 242 298 358 430
#     4  12  27  44  71 102 142 189 239 293 354 425
#     4  10  23  46  68 100 141 184 228 290 357 424
#     4  12  23  47  71 102 139 183 236 291 358 426
#     4  11  26  44  68 100 141 182 235 289 353 427
#     4  11  25  43  71 101 140 186 228 291 359 421
#
# _framework density 21.461427
#
# number of rings (size 3 to 8) (size 9 to 14) (size 15 to 20)
#    0.000    0.667    3.333    3.500   11.667    0.000 
#    0.000    1.667    0.000    0.000    0.000    0.000 
#    0.000    0.000    0.000    0.000    0.000    0.000 
#
# Total GULP energy -297582.489095 kJ/mol
# GULP energy per Si atom -12399.270379 kJ/mol
# Density = 2.141258 g / cm^3
# Si number density = 21.461427 Si / 1000 Ang^3
#
#
#
# Elastic Constant Matrix: (Units=GPa)
#
#
# Indices 1 2 3 4 5 6 
#
# 1 70.0758 21.6332 41.2445 0.0000 12.1127 0.0000
# 2 21.6332 191.8106 100.8653 0.0000 27.9156 0.0000
# 3 41.2445 100.8653 166.6317 -0.0001 32.5568 -0.0001
# 4 0.0000 0.0000 -0.0001 34.8035 0.0000 5.7595
# 5 12.1127 27.9156 32.5568 0.0000 41.2342 0.0000
# 6 0.0000 0.0000 -0.0001 5.7595 0.0000 33.3279
#
#
#
# Elastic Compliance Matrix: (Units=1/GPa)
#
#
# Indices 1 2 3 4 5 6 
#
# 1 0.016877 0.000562 -0.004108 0.000000 -0.002094 0.000000
# 2 0.000562 0.007781 -0.004479 0.000000 -0.001897 0.000000
# 3 -0.004108 -0.004479 0.010524 0.000000 -0.004071 0.000000
# 4 0.000000 0.000000 0.000000 0.029579 0.000000 -0.005112
# 5 -0.002094 -0.001897 -0.004071 0.000000 0.029365 0.000000
# 6 0.000000 0.000000 0.000000 -0.005112 0.000000 0.030888
#
#
# Mechanical properties :
#
#
# Convention : Reuss Voigt Hill
#
# Bulk Modulus (GPa) = 52.26732 84.00045 68.13388
# Shear Modulus (GPa) = 33.91160 39.52481 36.71820
#
# Velocity S-wave (km/s) = 3.97938 4.29612 4.14078
# Velocity P-wave (km/s) = 6.74692 7.98962 7.39442
#
# Compressibility (1/GPa) = 0.01913242
#
# Stress axis : x y z
#
# Youngs Moduli (GPa) = 59.25296 128.51344 95.01697
#
# Poissons Ratio (x) = -0.07218 0.39034
# Poissons Ratio (y) = -0.03328 0.42554
# Poissons Ratio (z) = 0.24342 0.57556
#
# Static dielectric constant tensor:
#      x y z
#    x 3.657430 0.000000 0.171190 
#    y 0.000000 3.064350 0.000000 
#    z 0.171190 0.000000 4.013490 
# 
# 
# High freq. dielectric constant tensor:
#      x y z
#    x 1.827840 0.000000 0.006550 
#    y 0.000000 1.873810 0.000000 
#    z 0.006550 0.000000 1.854480 
# 
# From -- ./inp_files/289072.got.cif
#   From: 2010.06.25/outbox.cif.g09.slc.cpg/sg15_145_cif.got.tgz:289072.got - 2010.06.28 07:06:18.
