data_PCOD8149264
_publ_section_title
;
Structure prediction by ZEFSAII (Michael W. Deem and Ramdas Pophale) SiO2 
 PCOD8149264
Probable space group: C 2/C
;
_chemical_formula_sum "Si O2"
_cell_formula_units_Z 56
_cell_length_a 28.674574
_cell_length_b 14.347229
_cell_length_c 10.928614
_cell_angle_alpha 90.000000
_cell_angle_beta 30.384951
_cell_angle_gamma 90.000000
_cell_volume 2274.129028
_symmetry_space_group_name_H-M "C 2/C"
_symmetry_group_IT_number 15
_symmetry_cell_setting 'monoclinic'
loop_
_space_group_symop_operation_xyz
x,y,z
-x,y,1/2-z
-x,-y,-z
x,-y,1/2+z
1/2+x,1/2+y,z
1/2-x,1/2+y,1/2-z
1/2-x,1/2-y,-z
1/2+x,1/2-y,1/2+z
loop_
_atom_site_type_symbol
_atom_site_label
_atom_site_fract_x
_atom_site_fract_y
_atom_site_fract_z
Si Si1 0.023276 0.693554 0.447533
Si Si2 0.250569 0.645975 0.543230
Si Si3 0.155325 0.382584 0.025458
Si Si4 0.174428 0.235123 0.773802
Si Si5 0.449645 0.619145 0.062175
Si Si6 0.074286 0.062261 0.990243
Si Si7 0.396316 0.921673 0.937462
O O1 0.074585 0.736851 0.447909
O O2 0.097375 0.629149 0.208382
O O3 0.941196 0.633688 0.688595
O O4 0.979322 0.774986 0.459324
O O5 0.250000 0.750000 0.500000
O O6 0.226739 0.590195 0.471741
O O7 0.174137 0.635768 0.820391
O O8 0.353455 0.620833 0.358774
O O9 0.143207 0.473917 0.970753
O O10 0.191000 0.295130 0.860645
O O11 0.250000 0.250000 0.500000
O O12 0.167604 0.121692 0.808818
O O13 0.421932 0.551599 0.009391
O O14 0.537773 0.579091 0.934817
O O15 0.000000 0.103813 0.250000
O O16 0.500000 0.920277 0.750000
#
# Coordination Sequence:
#
# PCOD8149264 Si02
#       7
#     8   8   8   8   8   8   8
#     4  11  23  46  73 100 146 189 235 299 367 433
#     4  12  27  46  69 104 148 188 238 300 367 435
#     4  12  26  46  72 101 147 195 233 303 366 429
#     4  11  26  43  72 105 140 188 247 294 365 430
#     4  10  23  45  69 101 137 182 237 290 365 420
#     4  10  23  44  73  97 137 182 236 301 353 428
#     4  12  26  44  74 105 143 188 247 294 366 442
#
# _framework density 24.62481
#
# number of rings (size 3 to 8) (size 9 to 14) (size 15 to 20)
#    0.000    0.857    2.857    3.429    6.000    2.857 
#    2.571    0.000    0.000    0.000    0.000    0.000 
#    0.000    0.000    0.000    0.000    0.000    0.000 
#
# Total GULP energy -346875.703018 kJ/mol
# GULP energy per Si atom -12388.417965 kJ/mol
# Density = 2.456876 g / cm^3
# Si number density = 24.624810 Si / 1000 Ang^3
#
#
#
# Elastic Constant Matrix: (Units=GPa)
#
#
# Indices 1 2 3 4 5 6 
#
# 1 37.5181 1.3480 7.3240 0.0000 8.5322 0.0000
# 2 1.3480 127.8041 35.0154 0.0000 14.8105 0.0000
# 3 7.3240 35.0154 122.1353 0.0000 16.7014 0.0000
# 4 0.0000 0.0000 0.0000 34.0557 0.0000 7.2108
# 5 8.5322 14.8105 16.7014 0.0000 42.5025 0.0000
# 6 0.0000 0.0000 0.0000 7.2108 0.0000 26.6601
#
#
#
# Elastic Compliance Matrix: (Units=1/GPa)
#
#
# Indices 1 2 3 4 5 6 
#
# 1 0.028083 0.000640 -0.001127 0.000000 -0.005418 0.000000
# 2 0.000640 0.008690 -0.002217 0.000000 -0.002285 0.000000
# 3 -0.001127 -0.002217 0.009251 0.000000 -0.002637 0.000000
# 4 0.000000 0.000000 0.000000 0.031147 0.000000 -0.008424
# 5 -0.005418 -0.002285 -0.002637 0.000000 0.026448 0.000000
# 6 0.000000 0.000000 0.000000 -0.008424 0.000000 0.039788
#
#
# Mechanical properties :
#
#
# Convention : Reuss Voigt Hill
#
# Bulk Modulus (GPa) = 24.62024 41.64805 33.13415
# Shear Modulus (GPa) = 30.79693 36.89501 33.84597
#
# Velocity S-wave (km/s) = 3.54028 3.87497 3.71140
# Velocity P-wave (km/s) = 5.17024 6.08032 5.64365
#
# Compressibility (1/GPa) = 0.04061698
#
# Stress axis : x y z
#
# Youngs Moduli (GPa) = 35.60892 115.07427 108.09162
#
# Poissons Ratio (x) = -0.07369 0.12179
# Poissons Ratio (y) = -0.02280 0.23967
# Poissons Ratio (z) = 0.04012 0.25515
#
# Static dielectric constant tensor:
#      x y z
#    x 0.770390 0.000000 2.984370 
#    y 0.000000 4.677060 0.000000 
#    z 2.984370 0.000000 1.918300 
# 
# 
# High freq. dielectric constant tensor:
#      x y z
#    x 1.964640 0.000000 -0.009860 
#    y 0.000000 1.992890 0.000000 
#    z -0.009860 0.000000 1.977500 
# 
# From -- ./inp_files/126969.got.cif
#   From: 2010.06.25/outbox.cif.g09.slc.cpg/sg15_64_cif.got.tgz:126969.got - 2010.06.28 07:06:18.
