data_PCOD8149591
_publ_section_title
;
Structure prediction by ZEFSAII (Michael W. Deem and Ramdas Pophale) SiO2 
 PCOD8149591
Probable space group: C 2/C
;
_chemical_formula_sum "Si O2"
_cell_formula_units_Z 44
_cell_length_a 16.145576
_cell_length_b 13.835859
_cell_length_c 7.888488
_cell_angle_alpha 90.000000
_cell_angle_beta 68.068979
_cell_angle_gamma 90.000000
_cell_volume 1634.670331
_symmetry_space_group_name_H-M "C 2/C"
_symmetry_group_IT_number 15
_symmetry_cell_setting 'monoclinic'
loop_
_space_group_symop_operation_xyz
x,y,z
-x,y,1/2-z
-x,-y,-z
x,-y,1/2+z
1/2+x,1/2+y,z
1/2-x,1/2+y,1/2-z
1/2-x,1/2-y,-z
1/2+x,1/2-y,1/2+z
loop_
_atom_site_type_symbol
_atom_site_label
_atom_site_fract_x
_atom_site_fract_y
_atom_site_fract_z
Si Si1 0.587103 0.815079 0.001871
Si Si2 0.241096 0.039983 0.619109
Si Si3 0.613285 0.155749 0.848466
Si Si4 0.103418 0.104086 0.981040
Si Si5 0.500000 0.455279 0.250000
Si Si6 0.767218 0.151821 0.212895
O O1 0.595679 0.707373 0.075304
O O2 0.660962 0.823579 0.796240
O O3 0.488038 0.832678 0.004689
O O4 0.609114 0.877130 0.153837
O O5 0.345081 0.066170 0.577042
O O6 0.197137 0.088969 0.817721
O O7 0.208318 0.090992 0.472855
O O8 0.220994 0.923049 0.635561
O O9 0.671704 0.253793 0.830298
O O10 0.025914 0.105695 0.894646
O O11 0.085042 0.022699 0.138140
#
# Coordination Sequence:
#
# PCOD8149591 Si02
#       6
#     8   8   8   8   4   8
#     4  11  26  45  74 100 147 191 231 299 353 423
#     4  12  27  45  75 104 143 191 234 298 357 419
#     4  11  26  49  71 108 142 187 243 288 361 422
#     4  11  24  42  65 104 138 194 227 302 357 412
#     4  10  24  38  64 100 148 180 246 282 358 436
#     4  12  27  48  73 108 145 187 242 293 356 426
#
# _framework density 26.916743
#
# number of rings (size 3 to 8) (size 9 to 14) (size 15 to 20)
#    0.000    0.727    1.818    4.364   12.727    1.455 
#    0.000    0.000    0.000    0.000    0.000    0.000 
#    0.000    0.000    0.000    0.000    0.000    0.000 
#
# Total GULP energy -272707.548530 kJ/mol
# GULP energy per Si atom -12395.797660 kJ/mol
# Density = 2.685548 g / cm^3
# Si number density = 26.916743 Si / 1000 Ang^3
#
#
#
# Elastic Constant Matrix: (Units=GPa)
#
#
# Indices 1 2 3 4 5 6 
#
# 1 104.4918 9.9522 7.9708 0.0000 -28.5642 0.0000
# 2 9.9522 67.4856 -6.0671 0.0000 0.8663 0.0000
# 3 7.9708 -6.0671 107.1055 0.0000 -15.6706 0.0000
# 4 0.0000 0.0000 0.0000 34.5512 0.0000 3.1251
# 5 -28.5642 0.8663 -15.6706 0.0000 50.8732 0.0000
# 6 0.0000 0.0000 0.0000 3.1251 0.0000 41.3778
#
#
#
# Elastic Compliance Matrix: (Units=1/GPa)
#
#
# Indices 1 2 3 4 5 6 
#
# 1 0.011516 -0.001782 -0.000008 0.000000 0.006494 0.000000
# 2 -0.001782 0.015170 0.000846 0.000000 -0.000998 0.000000
# 3 -0.000008 0.000846 0.009825 0.000000 0.003008 0.000000
# 4 0.000000 0.000000 0.000000 0.029142 0.000000 -0.002201
# 5 0.006494 -0.000998 0.003008 0.000000 0.024246 0.000000
# 6 0.000000 0.000000 0.000000 -0.002201 0.000000 0.024334
#
#
# Mechanical properties :
#
#
# Convention : Reuss Voigt Hill
#
# Bulk Modulus (GPa) = 28.88352 33.64386 31.26369
# Shear Modulus (GPa) = 39.16612 43.17555 41.17083
#
# Velocity S-wave (km/s) = 3.81869 4.00939 3.91520
# Velocity P-wave (km/s) = 5.49520 5.82752 5.66380
#
# Compressibility (1/GPa) = 0.03462182
#
# Stress axis : x y z
#
# Youngs Moduli (GPa) = 86.83858 65.92096 101.77977
#
# Poissons Ratio (x) = 0.11749 0.00080
# Poissons Ratio (y) = 0.15477 -0.08609
# Poissons Ratio (z) = 0.00068 -0.05576
#
# Static dielectric constant tensor:
#      x y z
#    x 5.009480 0.000000 -0.226520 
#    y 0.000000 4.773330 0.000000 
#    z -0.226520 0.000000 4.711590 
# 
# 
# High freq. dielectric constant tensor:
#      x y z
#    x 2.105660 0.000000 -0.008880 
#    y 0.000000 2.068270 0.000000 
#    z -0.008880 0.000000 2.079850 
# 
# From -- ./inp_files/47399.got.cif
#   From: 2010.06.25/outbox.cif.g09.slc.cpg/sg15_24_cif.got.tgz:47399.got - 2010.06.28 07:06:18.
