data_PCOD8149455
_publ_section_title
;
Structure prediction by ZEFSAII (Michael W. Deem and Ramdas Pophale) SiO2 
 PCOD8149455
Probable space group: C 2/C
;
_chemical_formula_sum "Si O2"
_cell_formula_units_Z 56
_cell_length_a 13.852518
_cell_length_b 14.815196
_cell_length_c 12.913826
_cell_angle_alpha 90.000000
_cell_angle_beta 84.039026
_cell_angle_gamma 90.000000
_cell_volume 2635.945297
_symmetry_space_group_name_H-M "C 2/C"
_symmetry_group_IT_number 15
_symmetry_cell_setting 'monoclinic'
loop_
_space_group_symop_operation_xyz
x,y,z
-x,y,1/2-z
-x,-y,-z
x,-y,1/2+z
1/2+x,1/2+y,z
1/2-x,1/2+y,1/2-z
1/2-x,1/2-y,-z
1/2+x,1/2-y,1/2+z
loop_
_atom_site_type_symbol
_atom_site_label
_atom_site_fract_x
_atom_site_fract_y
_atom_site_fract_z
Si Si1 0.000000 0.831319 0.250000
Si Si2 0.624570 0.242505 0.413252
Si Si3 0.500000 0.053216 0.750000
Si Si4 0.207139 0.503591 0.648222
Si Si5 0.828327 0.048074 0.828763
Si Si6 0.010379 0.395296 0.469591
Si Si7 0.286649 0.150054 0.493268
Si Si8 0.782157 0.119512 0.459132
O O1 0.933256 0.766845 0.185135
O O2 0.929425 0.897287 0.322580
O O3 0.578395 0.162915 0.483809
O O4 0.730630 0.194088 0.388771
O O5 0.635700 0.332438 0.480334
O O6 0.598072 0.996045 0.709732
O O7 0.474909 0.115600 0.655207
O O8 0.288117 0.540677 0.717093
O O9 0.243703 0.404371 0.607330
O O10 0.206800 0.568072 0.546270
O O11 0.840095 0.949863 0.879254
O O12 0.747823 0.102353 0.899213
O O13 0.098144 0.349626 0.520060
O O14 0.000000 0.500000 0.500000
O O15 0.250000 0.250000 0.500000
#
# Coordination Sequence:
#
# PCOD8149455 Si02
#       8
#     4   8   4   8   8   8   8   8
#     4  12  26  45  73 106 140 182 246 283 352 423
#     4  11  24  43  69 102 135 183 234 290 340 422
#     4  12  22  39  71  96 132 180 230 271 338 427
#     4  11  22  44  70  98 132 187 228 281 355 419
#     4  11  24  45  69  97 134 189 229 283 350 424
#     4  12  23  42  66 100 136 174 224 282 353 408
#     4  11  24  43  64  99 139 168 221 298 345 399
#     4  10  23  46  71  91 141 185 233 284 350 410
#
# _framework density 21.24475
#
# number of rings (size 3 to 8) (size 9 to 14) (size 15 to 20)
#    0.000    0.857    5.714    1.714    0.000    3.429 
#    5.143    0.000    0.000    0.000    0.000    0.000 
#    0.000    0.000    0.000    0.000    0.000    0.000 
#
# Total GULP energy -346985.971267 kJ/mol
# GULP energy per Si atom -12392.356117 kJ/mol
# Density = 2.119640 g / cm^3
# Si number density = 21.244750 Si / 1000 Ang^3
#
#
#
# Elastic Constant Matrix: (Units=GPa)
#
#
# Indices 1 2 3 4 5 6 
#
# 1 74.7558 39.5096 28.1545 0.0000 9.4973 0.0000
# 2 39.5096 138.4567 46.4179 0.0000 12.6020 0.0000
# 3 28.1545 46.4179 110.1173 0.0000 18.8432 0.0000
# 4 0.0000 0.0000 0.0000 27.6793 0.0000 -4.2865
# 5 9.4973 12.6020 18.8432 0.0000 34.2172 0.0000
# 6 0.0000 0.0000 0.0000 -4.2865 0.0000 39.5965
#
#
#
# Elastic Compliance Matrix: (Units=1/GPa)
#
#
# Indices 1 2 3 4 5 6 
#
# 1 0.016472 -0.003754 -0.002300 0.000000 -0.001923 0.000000
# 2 -0.003754 0.009317 -0.002825 0.000000 -0.000834 0.000000
# 3 -0.002300 -0.002825 0.011673 0.000000 -0.004749 0.000000
# 4 0.000000 0.000000 0.000000 0.036744 0.000000 0.003978
# 5 -0.001923 -0.000834 -0.004749 0.000000 0.032681 0.000000
# 6 0.000000 0.000000 0.000000 0.003978 0.000000 0.025685
#
#
# Mechanical properties :
#
#
# Convention : Reuss Voigt Hill
#
# Bulk Modulus (GPa) = 50.75326 61.27709 56.01517
# Shear Modulus (GPa) = 31.86806 34.24844 33.05825
#
# Velocity S-wave (km/s) = 3.87724 4.01944 3.94898
# Velocity P-wave (km/s) = 6.63217 7.10262 6.87142
#
# Compressibility (1/GPa) = 0.01970317
#
# Stress axis : x y z
#
# Youngs Moduli (GPa) = 60.71092 107.33471 85.67014
#
# Poissons Ratio (x) = 0.40296 0.19703
# Poissons Ratio (y) = 0.22792 0.24199
# Poissons Ratio (z) = 0.13963 0.30319
#
# Static dielectric constant tensor:
#      x y z
#    x 4.027180 0.000000 0.078970 
#    y 0.000000 4.020540 0.000000 
#    z 0.078970 0.000000 3.939080 
# 
# 
# High freq. dielectric constant tensor:
#      x y z
#    x 1.830400 0.000000 0.009380 
#    y 0.000000 1.832970 0.000000 
#    z 0.009380 0.000000 1.834210 
# 
# From -- ./inp_files/97083.got.cif
#   From: 2010.06.25/outbox.cif.g09.slc.cpg/sg15_49_cif.got.tgz:97083.got - 2010.06.28 07:06:18.
