data_PCOD8149486
_publ_section_title
;
Structure prediction by ZEFSAII (Michael W. Deem and Ramdas Pophale) SiO2 
 PCOD8149486
Probable space group: C 2/C
;
_chemical_formula_sum "Si O2"
_cell_formula_units_Z 64
_cell_length_a 16.238847
_cell_length_b 12.394589
_cell_length_c 27.778236
_cell_angle_alpha 90.000000
_cell_angle_beta 148.167714
_cell_angle_gamma 90.000000
_cell_volume 2948.903898
_symmetry_space_group_name_H-M "C 2/C"
_symmetry_group_IT_number 15
_symmetry_cell_setting 'monoclinic'
loop_
_space_group_symop_operation_xyz
x,y,z
-x,y,1/2-z
-x,-y,-z
x,-y,1/2+z
1/2+x,1/2+y,z
1/2-x,1/2+y,1/2-z
1/2-x,1/2-y,-z
1/2+x,1/2-y,1/2+z
loop_
_atom_site_type_symbol
_atom_site_label
_atom_site_fract_x
_atom_site_fract_y
_atom_site_fract_z
Si Si1 0.649303 0.316509 0.583201
Si Si2 0.823424 0.903793 0.175331
Si Si3 0.391384 0.050150 0.597648
Si Si4 0.946396 0.998066 0.327173
Si Si5 0.321504 0.349998 0.009938
Si Si6 0.269957 0.014512 0.692957
Si Si7 0.199235 0.182628 0.578059
Si Si8 0.235424 0.090124 0.425093
O O1 0.723065 0.202679 0.633873
O O2 0.608434 0.317400 0.506542
O O3 0.769464 0.413872 0.655555
O O4 0.482370 0.331385 0.526588
O O5 0.821544 0.970915 0.223924
O O6 0.000000 0.871140 0.250000
O O7 0.749201 0.979333 0.097337
O O8 0.306472 0.133493 0.590207
O O9 0.372586 0.092197 0.533333
O O10 0.314571 0.934912 0.565977
O O11 0.570206 0.036930 0.700550
O O12 0.045744 0.891460 0.388365
O O13 0.856299 0.027336 0.331023
O O14 0.066008 0.091831 0.368322
O O15 0.250000 0.250000 0.000000
O O16 0.229375 0.124700 0.644359
O O17 0.245888 0.309452 0.602231
#
# Coordination Sequence:
#
# PCOD8149486 Si02
#       8
#     8   8   8   8   8   8   8   8
#     4  12  24  42  72 101 140 183 234 296 353 423
#     4  10  24  45  71 101 139 183 236 290 354 419
#     4  11  25  43  70 103 138 183 237 285 350 424
#     4  10  23  47  66 102 139 178 237 285 354 417
#     4  11  22  42  69  96 136 179 228 286 355 410
#     4  12  26  44  70 107 142 179 239 295 347 422
#     4  12  25  46  72 101 144 191 232 288 360 425
#     4  10  24  49  73  97 143 193 230 289 359 425
#
# _framework density 21.702978999999999
#
# number of rings (size 3 to 8) (size 9 to 14) (size 15 to 20)
#    0.000    1.000    2.500    4.875    5.250    3.500 
#    4.500    0.000    0.000    0.000    0.000    0.000 
#    0.000    0.000    0.000    0.000    0.000    0.000 
#
# Total GULP energy -396756.231241 kJ/mol
# GULP energy per Si atom -12398.632226 kJ/mol
# Density = 2.165358 g / cm^3
# Si number density = 21.702979 Si / 1000 Ang^3
#
#
#
# Elastic Constant Matrix: (Units=GPa)
#
#
# Indices 1 2 3 4 5 6 
#
# 1 81.5986 18.4395 35.1725 0.0000 -7.0852 0.0000
# 2 18.4395 83.8692 34.6319 -0.0002 11.6214 0.0000
# 3 35.1725 34.6319 125.3184 -0.0002 -1.8642 0.0000
# 4 0.0000 -0.0002 -0.0002 18.7472 0.0000 -1.5538
# 5 -7.0852 11.6214 -1.8642 0.0000 32.9435 0.0000
# 6 0.0000 0.0000 0.0000 -1.5538 0.0000 28.3869
#
#
#
# Elastic Compliance Matrix: (Units=1/GPa)
#
#
# Indices 1 2 3 4 5 6 
#
# 1 0.014568 -0.002324 -0.003391 0.000000 0.003761 0.000000
# 2 -0.002324 0.014693 -0.003495 0.000000 -0.005881 0.000000
# 3 -0.003391 -0.003495 0.009913 0.000000 0.001065 0.000000
# 4 0.000000 0.000000 0.000000 0.053584 0.000000 0.002933
# 5 0.003761 -0.005881 0.001065 0.000000 0.033299 0.000000
# 6 0.000000 0.000000 0.000000 0.002933 0.000000 0.035388
#
#
# Mechanical properties :
#
#
# Convention : Reuss Voigt Hill
#
# Bulk Modulus (GPa) = 48.18431 51.91934 50.05182
# Shear Modulus (GPa) = 26.76896 29.51834 28.14365
#
# Velocity S-wave (km/s) = 3.51582 3.69196 3.60497
# Velocity P-wave (km/s) = 6.22344 6.49220 6.35924
#
# Compressibility (1/GPa) = 0.02075364
#
# Stress axis : x y z
#
# Youngs Moduli (GPa) = 68.64169 68.06170 100.87633
#
# Poissons Ratio (x) = 0.15818 0.34203
# Poissons Ratio (y) = 0.15953 0.35261
# Poissons Ratio (z) = 0.23274 0.23791
#
# Static dielectric constant tensor:
#      x y z
#    x 4.113950 0.000000 -0.251520 
#    y 0.000000 4.019780 0.000000 
#    z -0.251520 0.000000 4.301530 
# 
# 
# High freq. dielectric constant tensor:
#      x y z
#    x 1.858850 0.000000 -0.011210 
#    y 0.000000 1.847280 0.000000 
#    z -0.011210 0.000000 1.854650 
# 
# From -- ./inp_files/316231.got.cif
#   From: 2010.06.25/outbox.cif.g09.slc.cpg/sg15_159_cif.got.tgz:316231.got - 2010.06.28 07:06:18.
