data_PCOD8149211
_publ_section_title
;
Structure prediction by ZEFSAII (Michael W. Deem and Ramdas Pophale) SiO2 
 PCOD8149211
Probable space group: C 2/C
;
_chemical_formula_sum "Si O2"
_cell_formula_units_Z 36
_cell_length_a 9.583983
_cell_length_b 25.949063
_cell_length_c 8.884708
_cell_angle_alpha 90.000000
_cell_angle_beta 46.856516
_cell_angle_gamma 90.000000
_cell_volume 1612.209939
_symmetry_space_group_name_H-M "C 2/C"
_symmetry_group_IT_number 15
_symmetry_cell_setting 'monoclinic'
loop_
_space_group_symop_operation_xyz
x,y,z
-x,y,1/2-z
-x,-y,-z
x,-y,1/2+z
1/2+x,1/2+y,z
1/2-x,1/2+y,1/2-z
1/2-x,1/2-y,-z
1/2+x,1/2-y,1/2+z
loop_
_atom_site_type_symbol
_atom_site_label
_atom_site_fract_x
_atom_site_fract_y
_atom_site_fract_z
Si Si1 0.000000 0.150365 0.750000
Si Si2 0.500000 0.900156 0.250000
Si Si3 0.000000 0.225645 0.250000
Si Si4 0.257279 0.187619 0.812562
Si Si5 0.209728 0.969310 0.648021
Si Si6 0.717960 0.068012 0.078523
O O1 0.880955 0.187617 0.728499
O O2 0.144138 0.116643 0.543216
O O3 0.619066 0.864606 0.278104
O O4 0.365216 0.934807 0.450748
O O5 0.857461 0.188851 0.445138
O O6 0.890992 0.261770 0.208342
O O7 0.222015 0.963242 0.817507
O O8 0.000000 0.952649 0.750000
O O9 0.253518 0.029301 0.582736
O O10 0.500000 0.087535 0.250000
#
# Coordination Sequence:
#
# PCOD8149211 Si02
#       6
#     4   4   4   8   8   8
#     4  12  26  42  65 104 136 166 225 272 326 380
#     4  11  24  40  70  98 128 180 232 262 316 397
#     4   9  22  48  73  94 126 168 211 268 356 399
#     4  10  23  44  70  99 128 165 218 276 328 410
#     4  12  25  41  65  92 136 186 226 266 321 369
#     4  12  26  42  62  96 138 184 224 271 315 375
#
# _framework density 22.329598000000001
#
# number of rings (size 3 to 8) (size 9 to 14) (size 15 to 20)
#    0.000    0.889    2.222    4.000    7.778    0.889 
#    4.000    0.000    0.000    0.000    0.000    0.000 
#    0.000    0.000    0.000    0.000    0.000    0.000 
#
# Total GULP energy -223340.667411 kJ/mol
# GULP energy per Si atom -12407.814856 kJ/mol
# Density = 2.227878 g / cm^3
# Si number density = 22.329598 Si / 1000 Ang^3
#
#
#
# Elastic Constant Matrix: (Units=GPa)
#
#
# Indices 1 2 3 4 5 6 
#
# 1 151.6924 35.6096 31.0356 0.0000 -9.4575 0.0000
# 2 35.6096 72.6970 27.9531 0.0000 -7.1368 0.0000
# 3 31.0356 27.9531 99.0249 0.0000 -19.8063 0.0000
# 4 0.0000 0.0000 0.0000 14.0479 0.0000 2.2532
# 5 -9.4575 -7.1368 -19.8063 0.0000 40.6865 0.0000
# 6 0.0000 0.0000 0.0000 2.2532 0.0000 15.6368
#
#
#
# Elastic Compliance Matrix: (Units=1/GPa)
#
#
# Indices 1 2 3 4 5 6 
#
# 1 0.007654 -0.003158 -0.001398 0.000000 0.000544 0.000000
# 2 -0.003158 0.016749 -0.003653 0.000000 0.000426 0.000000
# 3 -0.001398 -0.003653 0.012602 0.000000 0.005169 0.000000
# 4 0.000000 0.000000 0.000000 0.072869 0.000000 -0.010500
# 5 0.000544 0.000426 0.005169 0.000000 0.027296 0.000000
# 6 0.000000 0.000000 0.000000 -0.010500 0.000000 0.065465
#
#
# Mechanical properties :
#
#
# Convention : Reuss Voigt Hill
#
# Bulk Modulus (GPa) = 48.57775 56.95677 52.76726
# Shear Modulus (GPa) = 22.13227 29.32863 25.73045
#
# Velocity S-wave (km/s) = 3.15169 3.62808 3.39824
# Velocity P-wave (km/s) = 5.91999 6.56607 6.25138
#
# Compressibility (1/GPa) = 0.02058555
#
# Stress axis : x y z
#
# Youngs Moduli (GPa) = 130.65653 59.70491 79.35372
#
# Poissons Ratio (x) = 0.18854 0.11097
# Poissons Ratio (y) = 0.41260 0.28989
# Poissons Ratio (z) = 0.18272 0.21811
#
# Static dielectric constant tensor:
#      x y z
#    x 4.236850 0.000000 -0.258680 
#    y 0.000000 3.815420 0.000000 
#    z -0.258680 0.000000 4.149170 
# 
# 
# High freq. dielectric constant tensor:
#      x y z
#    x 1.891540 0.000000 -0.018440 
#    y 0.000000 1.866610 0.000000 
#    z -0.018440 0.000000 1.888970 
# 
# From -- ./inp_files/24362.got.cif
#   From: 2010.06.25/outbox.cif.g09.slc.cpg/sg15_13_cif.got.tgz:24362.got - 2010.06.28 07:06:18.
