data_PCOD8150292
_publ_section_title
;
Structure prediction by ZEFSAII (Michael W. Deem and Ramdas Pophale) SiO2 
 PCOD8150292
Probable space group: C 2/C
;
_chemical_formula_sum "Si O2"
_cell_formula_units_Z 56
_cell_length_a 15.341997
_cell_length_b 23.404805
_cell_length_c 8.792255
_cell_angle_alpha 90.000000
_cell_angle_beta 123.146669
_cell_angle_gamma 90.000000
_cell_volume 2643.349604
_symmetry_space_group_name_H-M "C 2/C"
_symmetry_group_IT_number 15
_symmetry_cell_setting 'monoclinic'
loop_
_space_group_symop_operation_xyz
x,y,z
-x,y,1/2-z
-x,-y,-z
x,-y,1/2+z
1/2+x,1/2+y,z
1/2-x,1/2+y,1/2-z
1/2-x,1/2-y,-z
1/2+x,1/2-y,1/2+z
loop_
_atom_site_type_symbol
_atom_site_label
_atom_site_fract_x
_atom_site_fract_y
_atom_site_fract_z
Si Si1 0.151461 0.199834 0.281023
Si Si2 0.746172 0.213885 0.650190
Si Si3 0.940040 0.173190 0.981993
Si Si4 0.382319 0.881583 0.608688
Si Si5 0.027441 0.059751 0.954352
Si Si6 0.579879 0.009053 0.945231
Si Si7 0.752635 0.593614 0.263993
O O1 0.219020 0.252957 0.282694
O O2 0.106951 0.199994 0.408268
O O3 0.219310 0.142327 0.349185
O O4 0.055254 0.199291 0.069447
O O5 0.750000 0.250000 0.500000
O O6 0.863875 0.190899 0.774055
O O7 0.667233 0.160196 0.564803
O O8 0.959881 0.104891 0.990036
O O9 0.500000 0.862398 0.750000
O O10 0.319697 0.872929 0.703623
O O11 0.372955 0.948219 0.558035
O O12 0.000000 0.063949 0.750000
O O13 0.151820 0.065675 0.090379
O O14 0.000000 0.000000 0.000000
O O15 0.500000 0.038078 0.750000
O O16 0.677983 0.048019 0.078612
O O17 0.500000 0.000000 0.000000
#
# Coordination Sequence:
#
# PCOD8150292 Si02
#       7
#     8   8   8   8   8   8   8
#     4  10  24  45  71  99 137 185 226 290 341 417
#     4  12  25  41  75 101 134 185 231 290 347 409
#     4  10  25  47  66  99 145 175 230 286 348 411
#     4  11  24  43  66 102 137 175 235 284 347 413
#     4  11  27  42  71 106 140 185 235 287 355 423
#     4  11  23  42  66  97 138 178 223 287 345 413
#     4  11  23  43  70  97 142 179 231 284 353 410
#
# _framework density 21.18524
#
# number of rings (size 3 to 8) (size 9 to 14) (size 15 to 20)
#    0.000    1.143    4.286    1.286   12.000    1.143 
#    0.000    0.000    0.000    0.000    0.000    0.000 
#    0.000    0.000    0.000    0.000    0.000    0.000 
#
# Total GULP energy -346941.411895 kJ/mol
# GULP energy per Si atom -12390.764711 kJ/mol
# Density = 2.113702 g / cm^3
# Si number density = 21.185240 Si / 1000 Ang^3
#
#
#
# Elastic Constant Matrix: (Units=GPa)
#
#
# Indices 1 2 3 4 5 6 
#
# 1 101.4497 32.7019 43.4223 0.0000 17.9381 0.0000
# 2 32.7019 96.9207 52.7112 0.0000 25.5234 0.0000
# 3 43.4223 52.7112 133.7717 0.0000 34.7682 0.0000
# 4 0.0000 0.0000 0.0000 39.8862 0.0000 0.9456
# 5 17.9381 25.5234 34.7682 0.0000 49.1401 0.0000
# 6 0.0000 0.0000 0.0000 0.9456 0.0000 37.9134
#
#
#
# Elastic Compliance Matrix: (Units=1/GPa)
#
#
# Indices 1 2 3 4 5 6 
#
# 1 0.011948 -0.002241 -0.002652 0.000000 -0.001321 0.000000
# 2 -0.002241 0.014182 -0.003871 0.000000 -0.003809 0.000000
# 3 -0.002652 -0.003871 0.011135 0.000000 -0.004900 0.000000
# 4 0.000000 0.000000 0.000000 0.025086 0.000000 -0.000626
# 5 -0.001321 -0.003809 -0.004900 0.000000 0.026278 0.000000
# 6 0.000000 0.000000 0.000000 -0.000626 0.000000 0.026391
#
#
# Mechanical properties :
#
#
# Convention : Reuss Voigt Hill
#
# Bulk Modulus (GPa) = 50.66454 65.53477 58.09966
# Shear Modulus (GPa) = 35.93820 38.94172 37.43996
#
# Velocity S-wave (km/s) = 4.12318 4.29202 4.20845
# Velocity P-wave (km/s) = 6.82894 7.45408 7.14834
#
# Compressibility (1/GPa) = 0.01973767
#
# Stress axis : x y z
#
# Youngs Moduli (GPa) = 83.69448 70.51064 89.80739
#
# Poissons Ratio (x) = 0.15803 0.23816
# Poissons Ratio (y) = 0.18758 0.34762
# Poissons Ratio (z) = 0.22195 0.27293
#
# Static dielectric constant tensor:
#      x y z
#    x 3.442310 0.000000 -0.099440 
#    y 0.000000 4.324000 0.000000 
#    z -0.099440 0.000000 3.724230 
# 
# 
# High freq. dielectric constant tensor:
#      x y z
#    x 1.845150 0.000000 0.013280 
#    y 0.000000 1.827910 0.000000 
#    z 0.013280 0.000000 1.838640 
# 
# From -- ./inp_files/42728.got.cif
#   From: 2010.06.25/outbox.cif.g09.slc.cpg/sg15_22_cif.got.tgz:42728.got - 2010.06.28 07:06:18.
