data_PCOD8150302
_publ_section_title
;
Structure prediction by ZEFSAII (Michael W. Deem and Ramdas Pophale) SiO2 
 PCOD8150302
Probable space group: C 2/C
;
_chemical_formula_sum "Si O2"
_cell_formula_units_Z 48
_cell_length_a 9.079683
_cell_length_b 25.286930
_cell_length_c 10.844415
_cell_angle_alpha 90.000000
_cell_angle_beta 120.802731
_cell_angle_gamma 90.000000
_cell_volume 2138.619236
_symmetry_space_group_name_H-M "C 2/C"
_symmetry_group_IT_number 15
_symmetry_cell_setting 'monoclinic'
loop_
_space_group_symop_operation_xyz
x,y,z
-x,y,1/2-z
-x,-y,-z
x,-y,1/2+z
1/2+x,1/2+y,z
1/2-x,1/2+y,1/2-z
1/2-x,1/2-y,-z
1/2+x,1/2-y,1/2+z
loop_
_atom_site_type_symbol
_atom_site_label
_atom_site_fract_x
_atom_site_fract_y
_atom_site_fract_z
Si Si1 0.794264 0.469602 0.755611
Si Si2 0.983796 0.604475 0.009204
Si Si3 0.500000 0.476266 0.250000
Si Si4 0.138043 0.897003 0.489475
Si Si5 0.000000 0.560281 0.750000
Si Si6 0.011900 0.202831 0.453503
Si Si7 0.784824 0.701597 0.360846
O O1 0.967233 0.449554 0.897882
O O2 0.663981 0.486164 0.807229
O O3 0.715595 0.421135 0.646588
O O4 0.836073 0.521265 0.691532
O O5 0.106435 0.649271 0.117397
O O6 0.011483 0.598077 0.874329
O O7 0.786701 0.618059 0.955028
O O8 0.513407 0.440357 0.377111
O O9 0.022881 0.846065 0.470665
O O10 0.835232 0.216724 0.306478
O O11 0.075237 0.252434 0.560437
O O12 0.165812 0.189262 0.426953
#
# Coordination Sequence:
#
# PCOD8150302 Si02
#       7
#     8   8   4   8   4   8   8
#     4  12  24  45  68 100 142 186 234 280 342 412
#     4  12  25  43  71 100 136 185 235 282 352 405
#     4  12  28  40  64 108 144 186 232 280 344 408
#     4  12  25  44  67 102 141 181 231 290 342 413
#     4  12  24  42  68 100 144 186 230 284 334 426
#     4  10  24  46  73 100 139 177 232 291 349 421
#     4  10  24  45  73 104 133 183 229 286 357 416
#
# _framework density 22.444388
#
# number of rings (size 3 to 8) (size 9 to 14) (size 15 to 20)
#    0.000    0.667    5.000    2.000    4.667    4.667 
#    0.000    0.000    0.000    0.000    0.000    0.000 
#    0.000    0.000    0.000    0.000    0.000    0.000 
#
# Total GULP energy -297666.297492 kJ/mol
# GULP energy per Si atom -12402.762395 kJ/mol
# Density = 2.239330 g / cm^3
# Si number density = 22.444388 Si / 1000 Ang^3
#
#
#
# Elastic Constant Matrix: (Units=GPa)
#
#
# Indices 1 2 3 4 5 6 
#
# 1 102.0321 55.4499 17.8525 0.0000 4.2261 0.0000
# 2 55.4499 105.9949 35.1950 0.0000 3.3952 0.0000
# 3 17.8525 35.1950 85.6738 0.0000 -2.9900 0.0000
# 4 0.0000 0.0000 0.0000 34.2040 0.0000 6.4970
# 5 4.2261 3.3952 -2.9900 0.0000 33.4679 0.0000
# 6 0.0000 0.0000 0.0000 6.4970 0.0000 50.5304
#
#
#
# Elastic Compliance Matrix: (Units=1/GPa)
#
#
# Indices 1 2 3 4 5 6 
#
# 1 0.013728 -0.007166 0.000048 0.000000 -0.001002 0.000000
# 2 -0.007166 0.014742 -0.004598 0.000000 -0.001001 0.000000
# 3 0.000048 -0.004598 0.013609 0.000000 0.001676 0.000000
# 4 0.000000 0.000000 0.000000 0.029968 0.000000 -0.003853
# 5 -0.001002 -0.001001 0.001676 0.000000 0.030257 0.000000
# 6 0.000000 0.000000 0.000000 -0.003853 0.000000 0.020285
#
#
# Mechanical properties :
#
#
# Convention : Reuss Voigt Hill
#
# Bulk Modulus (GPa) = 53.62297 56.74396 55.18346
# Shear Modulus (GPa) = 32.84352 35.98735 34.41543
#
# Velocity S-wave (km/s) = 3.82950 4.00859 3.92007
# Velocity P-wave (km/s) = 6.59521 6.83827 6.71784
#
# Compressibility (1/GPa) = 0.01864873
#
# Stress axis : x y z
#
# Youngs Moduli (GPa) = 72.84340 67.83476 73.47833
#
# Poissons Ratio (x) = 0.48607 -0.00353
# Poissons Ratio (y) = 0.52196 0.33784
# Poissons Ratio (z) = -0.00350 0.31189
#
# Static dielectric constant tensor:
#      x y z
#    x 4.056040 0.000000 0.082480 
#    y 0.000000 3.916100 0.000000 
#    z 0.082480 0.000000 3.980870 
# 
# 
# High freq. dielectric constant tensor:
#      x y z
#    x 1.891960 0.000000 0.005630 
#    y 0.000000 1.878980 0.000000 
#    z 0.005630 0.000000 1.882270 
# 
# From -- ./inp_files/80965.got.cif
#   From: 2010.06.25/outbox.cif.g09.slc.cpg/sg15_41_cif.got.tgz:80965.got - 2010.06.28 07:06:18.
