data_PCOD8150762
_publ_section_title
;
Structure prediction by ZEFSAII (Michael W. Deem and Ramdas Pophale) SiO2 
 PCOD8150762
Probable space group: C 2/C
;
_chemical_formula_sum "Si O2"
_cell_formula_units_Z 28
_cell_length_a 4.846469
_cell_length_b 29.451152
_cell_length_c 8.647593
_cell_angle_alpha 90.000000
_cell_angle_beta 81.808634
_cell_angle_gamma 90.000000
_cell_volume 1221.713614
_symmetry_space_group_name_H-M "C 2/C"
_symmetry_group_IT_number 15
_symmetry_cell_setting 'monoclinic'
loop_
_space_group_symop_operation_xyz
x,y,z
-x,y,1/2-z
-x,-y,-z
x,-y,1/2+z
1/2+x,1/2+y,z
1/2-x,1/2+y,1/2-z
1/2-x,1/2-y,-z
1/2+x,1/2-y,1/2+z
loop_
_atom_site_type_symbol
_atom_site_label
_atom_site_fract_x
_atom_site_fract_y
_atom_site_fract_z
Si Si1 0.312728 0.116043 0.917546
Si Si2 0.279192 0.285157 0.136180
Si Si3 0.500000 0.998969 0.250000
Si Si4 0.742640 0.438866 0.004278
O O1 0.500000 0.113322 0.750000
O O2 0.166418 0.165363 0.944773
O O3 0.536266 0.103371 0.033577
O O4 0.069883 0.078470 0.942282
O O5 0.500000 0.271067 0.250000
O O6 0.000000 0.287460 0.250000
O O7 0.250000 0.250000 0.000000
O O8 0.263108 0.030088 0.350737
O O9 0.335029 0.968046 0.143859
#
# Coordination Sequence:
#
# PCOD8150762 Si02
#       4
#     8   8   4   8
#     4  11  23  43  69  95 130 180 220 270 337 418
#     4  11  24  45  73 103 137 180 227 280 348 414
#     4  10  26  42  66  94 132 176 222 288 326 392
#     4  11  24  43  65  92 134 171 229 271 342 386
#
# _framework density 22.918624999999999
#
# number of rings (size 3 to 8) (size 9 to 14) (size 15 to 20)
#    0.000    1.143    1.429    5.143    0.000    8.000 
#    7.714    0.000    0.000    0.000    0.000    0.000 
#    0.000    0.000    0.000    0.000    0.000    0.000 
#
# Total GULP energy -173472.171982 kJ/mol
# GULP energy per Si atom -12390.869427 kJ/mol
# Density = 2.286646 g / cm^3
# Si number density = 22.918625 Si / 1000 Ang^3
#
#
#
# Elastic Constant Matrix: (Units=GPa)
#
#
# Indices 1 2 3 4 5 6 
#
# 1 131.4135 29.0121 21.1082 0.0000 -2.8931 0.0000
# 2 29.0121 132.7515 54.1026 0.0000 -6.1807 0.0000
# 3 21.1082 54.1026 82.2090 0.0000 0.5584 0.0000
# 4 0.0000 0.0000 0.0000 32.5749 0.0000 -11.2887
# 5 -2.8931 -6.1807 0.5584 0.0000 34.7205 0.0000
# 6 0.0000 0.0000 0.0000 -11.2887 0.0000 33.3884
#
#
#
# Elastic Compliance Matrix: (Units=1/GPa)
#
#
# Indices 1 2 3 4 5 6 
#
# 1 0.008096 -0.001228 -0.001274 0.000000 0.000476 0.000000
# 2 -0.001228 0.010613 -0.006682 0.000000 0.001894 0.000000
# 3 -0.001274 -0.006682 0.016899 0.000000 -0.001567 0.000000
# 4 0.000000 0.000000 0.000000 0.034773 0.000000 0.011757
# 5 0.000476 0.001894 -0.001567 0.000000 0.029204 0.000000
# 6 0.000000 0.000000 0.000000 0.011757 0.000000 0.033926
#
#
# Mechanical properties :
#
#
# Convention : Reuss Voigt Hill
#
# Bulk Modulus (GPa) = 58.00329 61.64661 59.82495
# Shear Modulus (GPa) = 31.72120 36.28018 34.00069
#
# Velocity S-wave (km/s) = 3.72436 3.98301 3.85585
# Velocity P-wave (km/s) = 6.62252 6.93606 6.78110
#
# Compressibility (1/GPa) = 0.01724040
#
# Stress axis : x y z
#
# Youngs Moduli (GPa) = 123.52150 94.22765 59.17438
#
# Poissons Ratio (x) = 0.11571 0.07538
# Poissons Ratio (y) = 0.15168 0.39539
# Poissons Ratio (z) = 0.15734 0.62961
#
# Static dielectric constant tensor:
#      x y z
#    x 4.380920 0.000000 0.062000 
#    y 0.000000 6.831010 0.000000 
#    z 0.062000 0.000000 4.123040 
# 
# 
# High freq. dielectric constant tensor:
#      x y z
#    x 1.922440 0.000000 -0.005760 
#    y 0.000000 1.915310 0.000000 
#    z -0.005760 0.000000 1.884260 
# 
# From -- ./inp_files/19658.got.cif
#   From: 2010.06.25/outbox.cif.g09.slc.cpg/sg15_10_cif.got.tgz:19658.got - 2010.06.28 07:06:18.
