data_PCOD8150686
_publ_section_title
;
Structure prediction by ZEFSAII (Michael W. Deem and Ramdas Pophale) SiO2 
 PCOD8150686
Probable space group: C 2/C
;
_chemical_formula_sum "Si O2"
_cell_formula_units_Z 56
_cell_length_a 10.384141
_cell_length_b 21.071139
_cell_length_c 26.886081
_cell_angle_alpha 90.000000
_cell_angle_beta 154.427759
_cell_angle_gamma 90.000000
_cell_volume 2539.315139
_symmetry_space_group_name_H-M "C 2/C"
_symmetry_group_IT_number 15
_symmetry_cell_setting 'monoclinic'
loop_
_space_group_symop_operation_xyz
x,y,z
-x,y,1/2-z
-x,-y,-z
x,-y,1/2+z
1/2+x,1/2+y,z
1/2-x,1/2+y,1/2-z
1/2-x,1/2-y,-z
1/2+x,1/2-y,1/2+z
loop_
_atom_site_type_symbol
_atom_site_label
_atom_site_fract_x
_atom_site_fract_y
_atom_site_fract_z
Si Si1 0.759162 0.326776 0.494545
Si Si2 0.723680 0.977702 0.435835
Si Si3 0.234790 0.835394 0.373060
Si Si4 0.875018 0.893400 0.571827
Si Si5 0.273614 0.858437 0.128264
Si Si6 0.747224 0.416857 0.797475
Si Si7 0.038740 0.215257 0.463391
O O1 0.750000 0.250000 0.500000
O O2 0.647705 0.346800 0.400249
O O3 0.550402 0.367353 0.459141
O O4 0.085851 0.356486 0.619289
O O5 0.832928 0.960929 0.529895
O O6 0.606302 0.916612 0.363680
O O7 0.461638 0.027888 0.352129
O O8 0.000000 0.000000 0.500000
O O9 0.549522 0.867250 0.471507
O O10 0.253552 0.758734 0.375327
O O11 0.000000 0.861273 0.250000
O O12 0.055324 0.851319 0.593903
O O13 0.072953 0.893201 0.688992
O O14 0.500000 0.840565 0.250000
O O15 0.237048 0.796038 0.081688
O O16 0.500000 0.443973 0.750000
O O17 0.250000 0.250000 0.500000
#
# Coordination Sequence:
#
# PCOD8150686 Si02
#       7
#     8   8   8   8   8   8   8
#     4  12  26  44  73 111 144 193 244 302 378 448
#     4  11  26  49  71 104 141 191 253 305 369 441
#     4  11  24  43  68 103 147 191 240 296 367 453
#     4  10  25  46  71 101 142 191 241 298 378 434
#     4  11  25  44  71 105 145 191 247 310 371 440
#     4  12  27  50  76 107 149 195 250 319 369 447
#     4   9  21  42  63 100 141 189 236 288 368 446
#
# _framework density 22.053191000000002
#
# number of rings (size 3 to 8) (size 9 to 14) (size 15 to 20)
#    0.000    1.143    4.286    0.000   10.000    2.857 
#    0.000    0.000    0.000    0.000    0.000    0.000 
#    0.000    0.000    0.000    0.000    0.000    0.000 
#
# Total GULP energy -346943.770529 kJ/mol
# GULP energy per Si atom -12390.848947 kJ/mol
# Density = 2.200300 g / cm^3
# Si number density = 22.053191 Si / 1000 Ang^3
#
#
#
# Elastic Constant Matrix: (Units=GPa)
#
#
# Indices 1 2 3 4 5 6 
#
# 1 143.0570 45.5248 63.5617 0.0098 -15.4810 0.0074
# 2 45.5248 78.9351 44.7273 -0.0062 5.3246 -0.0047
# 3 63.5617 44.7273 145.6583 0.0534 -27.6618 0.0183
# 4 0.0098 -0.0062 0.0534 16.9347 0.0378 1.4170
# 5 -15.4810 5.3246 -27.6618 0.0378 52.6396 0.0080
# 6 0.0074 -0.0047 0.0183 1.4170 0.0080 35.6113
#
#
#
# Elastic Compliance Matrix: (Units=1/GPa)
#
#
# Indices 1 2 3 4 5 6 
#
# 1 0.009694 -0.004279 -0.002547 -0.000003 0.001945 -0.000002
# 2 -0.004279 0.018236 -0.004801 0.000036 -0.005626 0.000006
# 3 -0.002547 -0.004801 0.010443 -0.000044 0.005225 -0.000005
# 4 -0.000003 0.000036 -0.000044 0.059248 -0.000070 -0.002358
# 5 0.001945 -0.005626 0.005225 -0.000070 0.022884 -0.000006
# 6 -0.000002 0.000006 -0.000005 -0.002358 -0.000006 0.028175
#
#
# Mechanical properties :
#
#
# Convention : Reuss Voigt Hill
#
# Bulk Modulus (GPa) = 66.13799 75.03088 70.58444
# Shear Modulus (GPa) = 28.25275 35.29292 31.77284
#
# Velocity S-wave (km/s) = 3.58315 4.00478 3.79982
# Velocity P-wave (km/s) = 6.86833 7.44855 7.16432
#
# Compressibility (1/GPa) = 0.01511990
#
# Stress axis : x y z
#
# Youngs Moduli (GPa) = 103.15629 54.83519 95.75602
#
# Poissons Ratio (x) = 0.23464 0.24387
# Poissons Ratio (y) = 0.44141 0.45973
# Poissons Ratio (z) = 0.26272 0.26327
#
# Static dielectric constant tensor:
#      x y z
#    x 4.691880 0.000040 0.143110 
#    y 0.000040 4.793350 0.000160 
#    z 0.143110 0.000160 4.110000 
# 
# 
# High freq. dielectric constant tensor:
#      x y z
#    x 1.894270 0.000000 -0.011490 
#    y 0.000000 1.860910 -0.000010 
#    z -0.011490 -0.000010 1.857050 
# 
# From -- ./inp_files/311817.got.cif
#   From: 2010.06.25/outbox.cif.g09.slc.cpg/sg15_156_cif.got.tgz:311817.got - 2010.06.28 07:06:18.
