data_PCOD8150870
_publ_section_title
;
Structure prediction by ZEFSAII (Michael W. Deem and Ramdas Pophale) SiO2 
 PCOD8150870
Probable space group: C 2/C
;
_chemical_formula_sum "Si O2"
_cell_formula_units_Z 28
_cell_length_a 14.663992
_cell_length_b 17.385211
_cell_length_c 9.461471
_cell_angle_alpha 90.000000
_cell_angle_beta 27.763355
_cell_angle_gamma 90.000000
_cell_volume 1123.594771
_symmetry_space_group_name_H-M "C 2/C"
_symmetry_group_IT_number 15
_symmetry_cell_setting 'monoclinic'
loop_
_space_group_symop_operation_xyz
x,y,z
-x,y,1/2-z
-x,-y,-z
x,-y,1/2+z
1/2+x,1/2+y,z
1/2-x,1/2+y,1/2-z
1/2-x,1/2-y,-z
1/2+x,1/2-y,1/2+z
loop_
_atom_site_type_symbol
_atom_site_label
_atom_site_fract_x
_atom_site_fract_y
_atom_site_fract_z
Si Si1 0.541501 0.828753 0.541038
Si Si2 0.196237 0.302288 0.891376
Si Si3 0.000000 0.525677 0.250000
Si Si4 0.388846 0.442670 0.755769
O O1 0.718780 0.784636 0.219599
O O2 0.348844 0.826337 0.707899
O O3 0.593277 0.918719 0.499553
O O4 0.500000 0.788021 0.750000
O O5 0.366595 0.358578 0.715368
O O6 0.000000 0.305638 0.250000
O O7 0.831722 0.472929 0.414648
O O8 0.500000 0.435222 0.750000
O O9 0.500000 0.500000 0.500000
#
# Coordination Sequence:
#
# PCOD8150870 Si02
#       4
#     8   8   4   8
#     4  10  26  47  78 103 156 212 255 304 392 471
#     4  12  26  46  76 118 158 193 261 334 387 444
#     4  10  26  54  78 106 160 202 266 308 380 474
#     4  12  29  49  83 114 155 207 262 317 396 462
#
# _framework density 24.920016
#
# number of rings (size 3 to 8) (size 9 to 14) (size 15 to 20)
#    0.857    0.000    1.429    3.429    8.000    4.571 
#    0.000    0.000    0.000    0.000    0.000    0.000 
#    0.000    0.000    0.000    0.000    0.000    0.000 
#
# Total GULP energy -173576.814232 kJ/mol
# GULP energy per Si atom -12398.343874 kJ/mol
# Density = 2.486330 g / cm^3
# Si number density = 24.920016 Si / 1000 Ang^3
#
#
#
# Elastic Constant Matrix: (Units=GPa)
#
#
# Indices 1 2 3 4 5 6 
#
# 1 256.5573 53.4522 44.2868 0.0548 -6.4620 -0.0883
# 2 53.4522 88.8985 34.4033 0.0485 -6.8612 -0.0933
# 3 44.2868 34.4033 90.3400 0.0495 -4.4390 -0.1017
# 4 0.0548 0.0485 0.0495 51.0452 -0.0548 -5.5799
# 5 -6.4620 -6.8612 -4.4390 -0.0548 35.4327 0.1035
# 6 -0.0883 -0.0933 -0.1017 -5.5799 0.1035 31.1425
#
#
#
# Elastic Compliance Matrix: (Units=1/GPa)
#
#
# Indices 1 2 3 4 5 6 
#
# 1 0.004606 -0.002207 -0.001406 -0.000001 0.000237 0.000001
# 2 -0.002207 0.014384 -0.004305 -0.000003 0.001843 0.000016
# 3 -0.001406 -0.004305 0.013427 -0.000004 0.000592 0.000024
# 4 -0.000001 -0.000003 -0.000004 0.019982 0.000019 0.003580
# 5 0.000237 0.001843 0.000592 0.000019 0.028697 -0.000084
# 6 0.000001 0.000016 0.000024 0.003580 -0.000084 0.032752
#
#
# Mechanical properties :
#
#
# Convention : Reuss Voigt Hill
#
# Bulk Modulus (GPa) = 60.31003 77.78671 69.04837
# Shear Modulus (GPa) = 36.97878 43.76766 40.37322
#
# Velocity S-wave (km/s) = 3.85632 4.19540 4.02943
# Velocity P-wave (km/s) = 6.63945 7.39938 7.02969
#
# Compressibility (1/GPa) = 0.01658099
#
# Stress axis : x y z
#
# Youngs Moduli (GPa) = 217.09459 69.52004 74.47617
#
# Poissons Ratio (x) = 0.15345 0.10471
# Poissons Ratio (y) = 0.47919 0.32063
# Poissons Ratio (z) = 0.30521 0.29930
#
# Static dielectric constant tensor:
#      x y z
#    x 4.978790 -0.000010 0.044510 
#    y -0.000010 4.534190 0.000050 
#    z 0.044510 0.000050 4.330060 
# 
# 
# High freq. dielectric constant tensor:
#      x y z
#    x 2.019560 0.000000 0.000120 
#    y 0.000000 1.998720 0.000000 
#    z 0.000120 0.000000 1.972100 
# 
# From -- ./inp_files/40495.got.cif
#   From: 2010.06.25/outbox.cif.g09.slc.cpg/sg15_21_cif.got.tgz:40495.got - 2010.06.28 07:06:18.
