data_PCOD8150051
_publ_section_title
;
Structure prediction by ZEFSAII (Michael W. Deem and Ramdas Pophale) SiO2 
 PCOD8150051
Probable space group: C 2/C
;
_chemical_formula_sum "Si O2"
_cell_formula_units_Z 36
_cell_length_a 10.273124
_cell_length_b 9.268934
_cell_length_c 17.725665
_cell_angle_alpha 90.000000
_cell_angle_beta 82.225840
_cell_angle_gamma 90.000000
_cell_volume 1672.340766
_symmetry_space_group_name_H-M "C 2/C"
_symmetry_group_IT_number 15
_symmetry_cell_setting 'monoclinic'
loop_
_space_group_symop_operation_xyz
x,y,z
-x,y,1/2-z
-x,-y,-z
x,-y,1/2+z
1/2+x,1/2+y,z
1/2-x,1/2+y,1/2-z
1/2-x,1/2-y,-z
1/2+x,1/2-y,1/2+z
loop_
_atom_site_type_symbol
_atom_site_label
_atom_site_fract_x
_atom_site_fract_y
_atom_site_fract_z
Si Si1 0.046596 0.157942 0.017682
Si Si2 0.644925 0.797726 0.732986
Si Si3 0.500000 0.926424 0.250000
Si Si4 0.717098 0.836365 0.891747
Si Si5 0.639768 0.841190 0.378720
O O1 0.139310 0.157271 0.083726
O O2 0.916779 0.250915 0.046837
O O3 0.121876 0.225799 0.941476
O O4 0.000000 0.000000 0.000000
O O5 0.500000 0.723356 0.750000
O O6 0.726577 0.781240 0.804624
O O7 0.720847 0.724862 0.657809
O O8 0.624158 0.969104 0.718588
O O9 0.536705 0.827486 0.317855
O O10 0.652522 0.993852 0.902561
#
# Coordination Sequence:
#
# PCOD8150051 Si02
#       5
#     8   8   4   8   8
#     4  11  26  41  62  93 128 167 209 252 306 372
#     4   9  21  40  63  96 122 154 208 260 308 368
#     4   8  20  38  60  94 124 154 200 260 312 362
#     4  10  24  44  60  94 128 162 206 258 308 371
#     4  11  21  41  68  90 122 168 200 259 312 361
#
# _framework density 21.526713000000001
#
# number of rings (size 3 to 8) (size 9 to 14) (size 15 to 20)
#    0.667    1.333    0.000    2.000    3.111    8.000 
#    0.000    0.000    0.000    0.000    0.000    0.000 
#    0.000    0.000    0.000    0.000    0.000    0.000 
#
# Total GULP energy -223177.526280 kJ/mol
# GULP energy per Si atom -12398.751460 kJ/mol
# Density = 2.147772 g / cm^3
# Si number density = 21.526713 Si / 1000 Ang^3
#
#
#
# Elastic Constant Matrix: (Units=GPa)
#
#
# Indices 1 2 3 4 5 6 
#
# 1 84.5879 19.1436 28.9831 0.0000 -12.3994 0.0000
# 2 19.1436 107.1043 26.7043 0.0000 -15.7139 0.0000
# 3 28.9831 26.7043 50.2071 0.0000 -13.4512 0.0000
# 4 0.0000 0.0000 0.0000 28.2889 0.0000 -8.1869
# 5 -12.3994 -15.7139 -13.4512 0.0000 21.3519 0.0000
# 6 0.0000 0.0000 0.0000 -8.1869 0.0000 27.2970
#
#
#
# Elastic Compliance Matrix: (Units=1/GPa)
#
#
# Indices 1 2 3 4 5 6 
#
# 1 0.015010 -0.000252 -0.007513 0.000000 0.003798 0.000000
# 2 -0.000252 0.011269 -0.004410 0.000000 0.005369 0.000000
# 3 -0.007513 -0.004410 0.029549 0.000000 0.011007 0.000000
# 4 0.000000 0.000000 0.000000 0.038709 0.000000 0.011610
# 5 0.003798 0.005369 0.011007 0.000000 0.059925 0.000000
# 6 0.000000 0.000000 0.000000 0.011610 0.000000 0.040116
#
#
# Mechanical properties :
#
#
# Convention : Reuss Voigt Hill
#
# Bulk Modulus (GPa) = 31.76869 43.50681 37.63775
# Shear Modulus (GPa) = 21.79392 26.52544 24.15968
#
# Velocity S-wave (km/s) = 3.18530 3.51409 3.35373
# Velocity P-wave (km/s) = 5.32146 6.05967 5.70253
#
# Compressibility (1/GPa) = 0.03147753
#
# Stress axis : x y z
#
# Youngs Moduli (GPa) = 66.62160 88.73927 33.84207
#
# Poissons Ratio (x) = 0.02240 0.25426
# Poissons Ratio (y) = 0.01682 0.14923
# Poissons Ratio (z) = 0.50054 0.39131
#
# Static dielectric constant tensor:
#      x y z
#    x 3.878170 0.000000 0.162280 
#    y 0.000000 3.690710 0.000000 
#    z 0.162280 0.000000 3.712130 
# 
# 
# High freq. dielectric constant tensor:
#      x y z
#    x 1.848840 0.000000 0.006440 
#    y 0.000000 1.840090 0.000000 
#    z 0.006440 0.000000 1.836480 
# 
# From -- ./inp_files/194908.got.cif
#   From: 2010.06.25/outbox.cif.g09.slc.cpg/sg15_98_cif.got.tgz:194908.got - 2010.06.28 07:06:18.
