data_PCOD8150200
_publ_section_title
;
Structure prediction by ZEFSAII (Michael W. Deem and Ramdas Pophale) SiO2 
 PCOD8150200
Probable space group: C 2/C
;
_chemical_formula_sum "Si O2"
_cell_formula_units_Z 60
_cell_length_a 17.520717
_cell_length_b 18.280393
_cell_length_c 8.775555
_cell_angle_alpha 90.000000
_cell_angle_beta 83.486223
_cell_angle_gamma 90.000000
_cell_volume 2792.539762
_symmetry_space_group_name_H-M "C 2/C"
_symmetry_group_IT_number 15
_symmetry_cell_setting 'monoclinic'
loop_
_space_group_symop_operation_xyz
x,y,z
-x,y,1/2-z
-x,-y,-z
x,-y,1/2+z
1/2+x,1/2+y,z
1/2-x,1/2+y,1/2-z
1/2-x,1/2-y,-z
1/2+x,1/2-y,1/2+z
loop_
_atom_site_type_symbol
_atom_site_label
_atom_site_fract_x
_atom_site_fract_y
_atom_site_fract_z
Si Si1 0.515355 0.240071 0.923397
Si Si2 0.491128 0.618427 0.572811
Si Si3 0.844712 0.947400 0.982880
Si Si4 0.500000 0.987902 0.750000
Si Si5 0.852107 0.085966 0.138953
Si Si6 0.810530 0.243386 0.119499
Si Si7 0.570435 0.903049 0.001905
Si Si8 0.776557 0.673809 0.925155
O O1 0.500000 0.257938 0.750000
O O2 0.603109 0.246429 0.958069
O O3 0.493873 0.158095 0.967071
O O4 0.465260 0.298946 0.030739
O O5 0.500000 0.613704 0.750000
O O6 0.427436 0.559560 0.543301
O O7 0.567328 0.603456 0.458514
O O8 0.860809 0.950062 0.801235
O O9 0.792671 0.882409 0.056589
O O10 0.809159 0.025799 0.042660
O O11 0.441814 0.939302 0.660999
O O12 0.442619 0.036287 0.865305
O O13 0.802042 0.159337 0.178611
O O14 0.797985 0.306554 0.247156
O O15 0.750000 0.250000 0.000000
O O16 0.653047 0.864107 0.000587
O O17 0.750000 0.750000 0.000000
#
# Coordination Sequence:
#
# PCOD8150200 Si02
#       8
#     8   8   8   4   8   8   8   8
#     4  11  21  43  72  96 135 183 228 285 346 413
#     4  11  24  41  69 101 133 173 231 279 338 417
#     4  12  25  43  68  97 139 177 225 280 353 407
#     4  10  24  44  72  98 138 182 240 296 346 428
#     4  11  25  46  66  98 133 182 221 281 343 422
#     4  11  25  44  69 101 140 179 232 287 354 414
#     4  11  23  46  68 104 135 184 238 288 360 413
#     4  12  25  45  71  99 141 182 230 292 350 424
#
# _framework density 21.485816
#
# number of rings (size 3 to 8) (size 9 to 14) (size 15 to 20)
#    0.000    0.800    3.333    4.000    6.533    2.133 
#    4.800    0.000    0.000    0.000    0.000    0.000 
#    0.000    0.000    0.000    0.000    0.000    0.000 
#
# Total GULP energy -371938.946738 kJ/mol
# GULP energy per Si atom -12397.964891 kJ/mol
# Density = 2.143691 g / cm^3
# Si number density = 21.485816 Si / 1000 Ang^3
#
#
#
# Elastic Constant Matrix: (Units=GPa)
#
#
# Indices 1 2 3 4 5 6 
#
# 1 94.3444 36.5674 32.8857 0.0000 14.6855 0.0000
# 2 36.5674 127.1929 56.6166 0.0000 5.2491 0.0000
# 3 32.8857 56.6166 139.6692 0.0000 13.6638 0.0000
# 4 0.0000 0.0000 0.0000 48.3867 0.0000 1.6494
# 5 14.6855 5.2491 13.6638 0.0000 33.6510 0.0000
# 6 0.0000 0.0000 0.0000 1.6494 0.0000 35.6320
#
#
#
# Elastic Compliance Matrix: (Units=1/GPa)
#
#
# Indices 1 2 3 4 5 6 
#
# 1 0.012936 -0.002896 -0.001420 0.000000 -0.004617 0.000000
# 2 -0.002896 0.010242 -0.003579 0.000000 0.001120 0.000000
# 3 -0.001420 -0.003579 0.009195 0.000000 -0.002556 0.000000
# 4 0.000000 0.000000 0.000000 0.020700 0.000000 -0.000958
# 5 -0.004617 0.001120 -0.002556 0.000000 0.032595 0.000000
# 6 0.000000 0.000000 0.000000 -0.000958 0.000000 0.028109
#
#
# Mechanical properties :
#
#
# Convention : Reuss Voigt Hill
#
# Bulk Modulus (GPa) = 60.30889 68.14954 64.22922
# Shear Modulus (GPa) = 37.01131 39.20972 38.11051
#
# Velocity S-wave (km/s) = 4.15492 4.27653 4.21616
# Velocity P-wave (km/s) = 7.15177 7.49481 7.32530
#
# Compressibility (1/GPa) = 0.01658130
#
# Stress axis : x y z
#
# Youngs Moduli (GPa) = 77.30546 97.63971 108.75468
#
# Poissons Ratio (x) = 0.28280 0.15443
# Poissons Ratio (y) = 0.22390 0.38925
# Poissons Ratio (z) = 0.10978 0.34947
#
# Static dielectric constant tensor:
#      x y z
#    x 3.745600 0.000000 -0.118760 
#    y 0.000000 4.660720 0.000000 
#    z -0.118760 0.000000 4.038450 
# 
# 
# High freq. dielectric constant tensor:
#      x y z
#    x 1.827920 0.000000 0.000870 
#    y 0.000000 1.871480 0.000000 
#    z 0.000870 0.000000 1.847510 
# 
# From -- ./inp_files/49077.got.cif
#   From: 2010.06.25/outbox.cif.g09.slc.cpg/sg15_25_cif.got.tgz:49077.got - 2010.06.28 07:06:18.
