data_PCOD8150907
_publ_section_title
;
Structure prediction by ZEFSAII (Michael W. Deem and Ramdas Pophale) SiO2 
 PCOD8150907
Probable space group: C 2/C
;
_chemical_formula_sum "Si O2"
_cell_formula_units_Z 60
_cell_length_a 17.103565
_cell_length_b 20.296263
_cell_length_c 9.834384
_cell_angle_alpha 90.000000
_cell_angle_beta 122.076341
_cell_angle_gamma 90.000000
_cell_volume 2892.732333
_symmetry_space_group_name_H-M "C 2/C"
_symmetry_group_IT_number 15
_symmetry_cell_setting 'monoclinic'
loop_
_space_group_symop_operation_xyz
x,y,z
-x,y,1/2-z
-x,-y,-z
x,-y,1/2+z
1/2+x,1/2+y,z
1/2-x,1/2+y,1/2-z
1/2-x,1/2-y,-z
1/2+x,1/2-y,1/2+z
loop_
_atom_site_type_symbol
_atom_site_label
_atom_site_fract_x
_atom_site_fract_y
_atom_site_fract_z
Si Si1 0.139060 0.840664 0.666038
Si Si2 0.286093 0.380497 0.288620
Si Si3 0.000000 0.495170 0.750000
Si Si4 0.208316 0.743482 0.112125
Si Si5 0.994928 0.717349 0.899427
Si Si6 0.608606 0.438582 0.866711
Si Si7 0.583919 0.919722 0.083387
Si Si8 0.105940 0.915744 0.368620
O O1 0.244790 0.817696 0.769387
O O2 0.068741 0.782615 0.646362
O O3 0.142001 0.906158 0.759022
O O4 0.116956 0.863240 0.496096
O O5 0.252481 0.306391 0.273878
O O6 0.354785 0.396041 0.475399
O O7 0.194650 0.424038 0.192178
O O8 0.348706 0.382043 0.216131
O O9 0.056282 0.540625 0.695183
O O10 0.941654 0.450247 0.588949
O O11 0.250000 0.750000 0.000000
O O12 0.099235 0.736671 0.033543
O O13 0.957513 0.654839 0.951328
O O14 0.000000 0.693260 0.750000
O O15 0.500000 0.437114 0.750000
O O16 0.649900 0.511684 0.929195
O O17 0.000000 0.929640 0.250000
#
# Coordination Sequence:
#
# PCOD8150907 Si02
#       8
#     8   8   4   8   8   8   8   8
#     4  12  24  43  71 101 133 186 233 284 350 409
#     4  12  24  44  69 104 137 181 234 286 346 421
#     4  10  26  50  72 102 144 186 232 290 358 410
#     4  12  23  41  69 100 132 174 234 285 345 408
#     4  12  22  43  72 102 137 180 233 294 343 415
#     4  11  23  43  70  98 136 185 233 275 340 423
#     4  11  25  47  75 103 140 184 236 292 351 415
#     4  11  26  45  65 101 145 183 223 289 356 412
#
# _framework density 20.741634999999999
#
# number of rings (size 3 to 8) (size 9 to 14) (size 15 to 20)
#    0.000    0.533    4.667    3.600    1.867    3.733 
#    8.400    0.000    0.000    0.000    0.000    0.000 
#    0.000    0.000    0.000    0.000    0.000    0.000 
#
# Total GULP energy -371713.209711 kJ/mol
# GULP energy per Si atom -12390.440324 kJ/mol
# Density = 2.069443 g / cm^3
# Si number density = 20.741635 Si / 1000 Ang^3
#
#
#
# Elastic Constant Matrix: (Units=GPa)
#
#
# Indices 1 2 3 4 5 6 
#
# 1 103.9826 33.2510 46.1652 0.0000 -1.1939 0.0000
# 2 33.2510 112.0965 39.7908 0.0000 -8.5089 0.0000
# 3 46.1652 39.7908 120.4323 0.0000 -5.6678 0.0000
# 4 0.0000 0.0000 0.0000 50.9017 0.0000 -6.4126
# 5 -1.1939 -8.5089 -5.6678 0.0000 44.4171 0.0000
# 6 0.0000 0.0000 0.0000 -6.4126 0.0000 21.4857
#
#
#
# Elastic Compliance Matrix: (Units=1/GPa)
#
#
# Indices 1 2 3 4 5 6 
#
# 1 0.012062 -0.002234 -0.003914 0.000000 -0.000603 0.000000
# 2 -0.002234 0.010623 -0.002576 0.000000 0.001646 0.000000
# 3 -0.003914 -0.002576 0.010691 0.000000 0.000766 0.000000
# 4 0.000000 0.000000 0.000000 0.020413 0.000000 0.006093
# 5 -0.000603 0.001646 0.000766 0.000000 0.022911 0.000000
# 6 0.000000 0.000000 0.000000 0.006093 0.000000 0.048361
#
#
# Mechanical properties :
#
#
# Convention : Reuss Voigt Hill
#
# Bulk Modulus (GPa) = 62.78401 63.88060 63.33231
# Shear Modulus (GPa) = 33.82526 37.84788 35.83657
#
# Velocity S-wave (km/s) = 4.04269 4.27632 4.16114
# Velocity P-wave (km/s) = 7.21986 7.43288 7.32714
#
# Compressibility (1/GPa) = 0.01592762
#
# Stress axis : x y z
#
# Youngs Moduli (GPa) = 82.90317 94.13549 93.53816
#
# Poissons Ratio (x) = 0.21034 0.36610
# Poissons Ratio (y) = 0.18524 0.24094
# Poissons Ratio (z) = 0.32448 0.24248
#
# Static dielectric constant tensor:
#      x y z
#    x 3.713710 0.000000 0.058000 
#    y 0.000000 4.287050 0.000000 
#    z 0.058000 0.000000 3.833750 
# 
# 
# High freq. dielectric constant tensor:
#      x y z
#    x 1.815530 0.000000 0.006240 
#    y 0.000000 1.829200 0.000000 
#    z 0.006240 0.000000 1.813950 
# 
# From -- ./inp_files/50686.got.cif
#   From: 2010.06.25/outbox.cif.g09.slc.cpg/sg15_26_cif.got.tgz:50686.got - 2010.06.28 07:06:18.
