data_PCOD8150746
_publ_section_title
;
Structure prediction by ZEFSAII (Michael W. Deem and Ramdas Pophale) SiO2 
 PCOD8150746
Probable space group: C 2/C
;
_chemical_formula_sum "Si O2"
_cell_formula_units_Z 44
_cell_length_a 17.766343
_cell_length_b 5.385067
_cell_length_c 19.546059
_cell_angle_alpha 90.000000
_cell_angle_beta 103.857509
_cell_angle_gamma 90.000000
_cell_volume 1815.600700
_symmetry_space_group_name_H-M "C 2/C"
_symmetry_group_IT_number 15
_symmetry_cell_setting 'monoclinic'
loop_
_space_group_symop_operation_xyz
x,y,z
-x,y,1/2-z
-x,-y,-z
x,-y,1/2+z
1/2+x,1/2+y,z
1/2-x,1/2+y,1/2-z
1/2-x,1/2-y,-z
1/2+x,1/2-y,1/2+z
loop_
_atom_site_type_symbol
_atom_site_label
_atom_site_fract_x
_atom_site_fract_y
_atom_site_fract_z
Si Si1 0.000000 0.074406 0.250000
Si Si2 0.722587 0.791511 0.106200
Si Si3 0.825217 0.002716 0.022312
Si Si4 0.409120 0.994881 0.080570
Si Si5 0.873702 0.302664 0.708554
Si Si6 0.572592 0.926331 0.153817
O O1 0.932523 0.914633 0.198361
O O2 0.958164 0.218040 0.301765
O O3 0.755816 0.010168 0.063539
O O4 0.783010 0.764512 0.182051
O O5 0.638216 0.842307 0.116386
O O6 0.715533 0.533974 0.060822
O O7 0.874330 0.750914 0.044970
O O8 0.875743 0.252184 0.034993
O O9 0.392379 0.972727 0.159239
O O10 0.501883 0.012923 0.090280
O O11 0.891413 0.357567 0.791365
#
# Coordination Sequence:
#
# PCOD8150746 Si02
#       6
#     4   8   8   8   8   8
#     4  12  22  46  64  98 142 182 222 280 362 408
#     4  10  26  44  66 104 139 179 236 283 346 411
#     4  10  25  50  69 100 140 193 222 290 338 404
#     4  11  22  46  76  94 142 185 236 275 346 411
#     4  11  24  42  66 102 135 185 220 296 348 414
#     4  12  24  41  70 104 132 188 227 292 343 418
#
# _framework density 24.234406
#
# number of rings (size 3 to 8) (size 9 to 14) (size 15 to 20)
#    0.000    1.091    3.636    2.182    2.545    8.000 
#    6.545    0.000    0.000    0.000    0.000    0.000 
#    0.000    0.000    0.000    0.000    0.000    0.000 
#
# Total GULP energy -272669.141145 kJ/mol
# GULP energy per Si atom -12394.051870 kJ/mol
# Density = 2.417925 g / cm^3
# Si number density = 24.234406 Si / 1000 Ang^3
#
#
#
# Elastic Constant Matrix: (Units=GPa)
#
#
# Indices 1 2 3 4 5 6 
#
# 1 190.4710 49.2790 48.4861 0.0000 4.1063 0.0000
# 2 49.2790 94.6644 25.2724 0.0000 10.3410 0.0000
# 3 48.4861 25.2724 74.7074 0.0000 16.2036 0.0000
# 4 0.0000 0.0000 0.0000 28.0379 0.0000 14.3017
# 5 4.1063 10.3410 16.2036 0.0000 44.6987 0.0000
# 6 0.0000 0.0000 0.0000 14.3017 0.0000 24.1620
#
#
#
# Elastic Compliance Matrix: (Units=1/GPa)
#
#
# Indices 1 2 3 4 5 6 
#
# 1 0.006907 -0.002716 -0.003867 0.000000 0.001395 0.000000
# 2 -0.002716 0.012758 -0.002135 0.000000 -0.001928 0.000000
# 3 -0.003867 -0.002135 0.017836 0.000000 -0.005616 0.000000
# 4 0.000000 0.000000 0.000000 0.051092 0.000000 -0.030242
# 5 0.001395 -0.001928 -0.005616 0.000000 0.024726 0.000000
# 6 0.000000 0.000000 0.000000 -0.030242 0.000000 0.059288
#
#
# Mechanical properties :
#
#
# Convention : Reuss Voigt Hill
#
# Bulk Modulus (GPa) = 49.83696 67.32420 58.58058
# Shear Modulus (GPa) = 25.41567 35.16676 30.29122
#
# Velocity S-wave (km/s) = 3.24194 3.81347 3.53926
# Velocity P-wave (km/s) = 5.88411 6.87247 6.39741
#
# Compressibility (1/GPa) = 0.02006543
#
# Stress axis : x y z
#
# Youngs Moduli (GPa) = 144.78119 78.38251 56.06783
#
# Poissons Ratio (x) = 0.21286 0.21680
# Poissons Ratio (y) = 0.39318 0.11971
# Poissons Ratio (z) = 0.55983 0.16736
#
# Static dielectric constant tensor:
#      x y z
#    x 4.578630 0.000000 0.525110 
#    y 0.000000 4.161020 0.000000 
#    z 0.525110 0.000000 4.757760 
# 
# 
# High freq. dielectric constant tensor:
#      x y z
#    x 1.974590 0.000000 0.032300 
#    y 0.000000 1.945810 0.000000 
#    z 0.032300 0.000000 1.964610 
# 
# From -- ./inp_files/246516.got.cif
#   From: 2010.06.25/outbox.cif.g09.slc.cpg/sg15_124_cif.got.tgz:246516.got - 2010.06.28 07:06:18.
