data_PCOD8150541
_publ_section_title
;
Structure prediction by ZEFSAII (Michael W. Deem and Ramdas Pophale) SiO2 
 PCOD8150541
Probable space group: C 2/C
;
_chemical_formula_sum "Si O2"
_cell_formula_units_Z 64
_cell_length_a 26.148749
_cell_length_b 15.135540
_cell_length_c 12.213677
_cell_angle_alpha 90.000000
_cell_angle_beta 40.171263
_cell_angle_gamma 90.000000
_cell_volume 3118.208531
_symmetry_space_group_name_H-M "C 2/C"
_symmetry_group_IT_number 15
_symmetry_cell_setting 'monoclinic'
loop_
_space_group_symop_operation_xyz
x,y,z
-x,y,1/2-z
-x,-y,-z
x,-y,1/2+z
1/2+x,1/2+y,z
1/2-x,1/2+y,1/2-z
1/2-x,1/2-y,-z
1/2+x,1/2-y,1/2+z
loop_
_atom_site_type_symbol
_atom_site_label
_atom_site_fract_x
_atom_site_fract_y
_atom_site_fract_z
Si Si1 0.491794 0.270581 0.893266
Si Si2 0.217122 0.711454 0.668822
Si Si3 0.618526 0.629031 0.324555
Si Si4 0.637074 0.977707 0.274719
Si Si5 0.011513 0.427042 0.105471
Si Si6 0.701773 0.463542 0.084466
Si Si7 0.333415 0.361271 0.149694
Si Si8 0.588159 0.524349 0.582408
O O1 0.500000 0.272726 0.750000
O O2 0.558283 0.335278 0.832379
O O3 0.494725 0.171216 0.937165
O O4 0.408524 0.308266 0.069202
O O5 0.250000 0.750000 0.500000
O O6 0.163460 0.788825 0.804312
O O7 0.165234 0.622740 0.744713
O O8 0.283330 0.701600 0.652882
O O9 0.678021 0.560664 0.167806
O O10 0.574860 0.586688 0.499537
O O11 0.563383 0.984648 0.311550
O O12 0.597013 0.024516 0.446664
O O13 0.712282 0.034443 0.112904
O O14 0.000000 0.413097 0.250000
O O15 0.711500 0.394659 0.168115
O O16 0.632987 0.430385 0.112537
O O17 0.355195 0.443872 0.039028
O O18 0.500000 0.489331 0.750000
#
# Coordination Sequence:
#
# PCOD8150541 Si02
#       8
#     8   8   8   8   8   8   8   8
#     4  11  21  39  63  94 130 163 219 263 311 377
#     4  12  22  41  66  95 124 162 223 266 314 373
#     4  11  23  39  65  93 122 170 214 263 315 381
#     4  11  23  43  65  93 128 166 220 262 325 374
#     4  10  25  41  67  93 126 173 214 268 315 381
#     4  11  23  41  64  94 130 166 212 267 326 392
#     4  11  24  37  64  98 126 168 210 270 321 379
#     4  11  22  40  61  92 130 170 204 256 326 390
#
# _framework density 20.524605999999999
#
# number of rings (size 3 to 8) (size 9 to 14) (size 15 to 20)
#    0.000    1.000    3.750    3.375    3.500    3.000 
#    0.000    4.375    0.000    0.000    0.000    0.000 
#    0.000    0.000    0.000    0.000    0.000    0.000 
#
# Total GULP energy -396665.941718 kJ/mol
# GULP energy per Si atom -12395.810679 kJ/mol
# Density = 2.047789 g / cm^3
# Si number density = 20.524606 Si / 1000 Ang^3
#
#
#
# Elastic Constant Matrix: (Units=GPa)
#
#
# Indices 1 2 3 4 5 6 
#
# 1 110.4793 34.9716 41.7010 0.0000 -5.4408 0.0000
# 2 34.9716 77.9894 39.1636 0.0000 1.6023 0.0000
# 3 41.7010 39.1636 109.9543 0.0000 -11.6100 0.0000
# 4 0.0000 0.0000 0.0000 21.4105 0.0000 -4.6824
# 5 -5.4408 1.6023 -11.6100 0.0000 34.6247 0.0000
# 6 0.0000 0.0000 0.0000 -4.6824 0.0000 38.2168
#
#
#
# Elastic Compliance Matrix: (Units=1/GPa)
#
#
# Indices 1 2 3 4 5 6 
#
# 1 0.011351 -0.003654 -0.002900 0.000000 0.000980 0.000000
# 2 -0.003654 0.017035 -0.005003 0.000000 -0.003040 0.000000
# 3 -0.002900 -0.005003 0.012392 0.000000 0.003931 0.000000
# 4 0.000000 0.000000 0.000000 0.047992 0.000000 0.005880
# 5 0.000980 -0.003040 0.003931 0.000000 0.030494 0.000000
# 6 0.000000 0.000000 0.000000 0.005880 0.000000 0.026887
#
#
# Mechanical properties :
#
#
# Convention : Reuss Voigt Hill
#
# Bulk Modulus (GPa) = 56.61096 58.89947 57.75521
# Shear Modulus (GPa) = 28.54657 31.02287 29.78472
#
# Velocity S-wave (km/s) = 3.73345 3.89201 3.81356
# Velocity P-wave (km/s) = 6.79903 6.99688 6.89866
#
# Compressibility (1/GPa) = 0.01766442
#
# Stress axis : x y z
#
# Youngs Moduli (GPa) = 88.09824 58.70116 80.70016
#
# Poissons Ratio (x) = 0.21448 0.23403
# Poissons Ratio (y) = 0.32189 0.40374
# Poissons Ratio (z) = 0.25549 0.29368
#
# Static dielectric constant tensor:
#      x y z
#    x 3.725330 0.000000 -0.086540 
#    y 0.000000 3.983510 0.000000 
#    z -0.086540 0.000000 3.800970 
# 
# 
# High freq. dielectric constant tensor:
#      x y z
#    x 1.809560 0.000000 -0.008010 
#    y 0.000000 1.798620 0.000000 
#    z -0.008010 0.000000 1.799560 
# 
# From -- ./inp_files/123502.got.cif
#   From: 2010.06.25/outbox.cif.g09.slc.cpg/sg15_62_cif.got.tgz:123502.got - 2010.06.28 07:06:18.
