data_PCOD8150288
_publ_section_title
;
Structure prediction by ZEFSAII (Michael W. Deem and Ramdas Pophale) SiO2 
 PCOD8150288
Probable space group: C 2/C
;
_chemical_formula_sum "Si O2"
_cell_formula_units_Z 64
_cell_length_a 22.637484
_cell_length_b 8.277356
_cell_length_c 30.024108
_cell_angle_alpha 90.000000
_cell_angle_beta 148.093515
_cell_angle_gamma 90.000000
_cell_volume 2973.467397
_symmetry_space_group_name_H-M "C 2/C"
_symmetry_group_IT_number 15
_symmetry_cell_setting 'monoclinic'
loop_
_space_group_symop_operation_xyz
x,y,z
-x,y,1/2-z
-x,-y,-z
x,-y,1/2+z
1/2+x,1/2+y,z
1/2-x,1/2+y,1/2-z
1/2-x,1/2-y,-z
1/2+x,1/2-y,1/2+z
loop_
_atom_site_type_symbol
_atom_site_label
_atom_site_fract_x
_atom_site_fract_y
_atom_site_fract_z
Si Si1 0.912988 0.860544 0.911755
Si Si2 0.404831 0.069392 0.301490
Si Si3 0.935891 0.060425 0.842470
Si Si4 0.265276 0.530839 0.880282
Si Si5 0.320233 0.436409 0.010938
Si Si6 0.800940 0.551845 0.823314
Si Si7 0.131340 0.355809 0.553840
Si Si8 0.149482 0.445482 0.975586
O O1 0.883200 0.946252 0.939779
O O2 0.805635 0.747192 0.831735
O O3 0.925632 0.011782 0.887324
O O4 0.015903 0.738679 0.974272
O O5 0.425925 0.249397 0.331434
O O6 0.341688 0.043438 0.213986
O O7 0.335138 0.977944 0.294490
O O8 0.531151 0.999619 0.378419
O O9 0.825734 0.989797 0.747322
O O10 0.054362 0.992501 0.900408
O O11 0.256213 0.503678 0.926945
O O12 0.270970 0.723780 0.876674
O O13 0.249636 0.501275 0.007454
O O14 0.333500 0.246457 0.010983
O O15 0.881271 0.464373 0.910046
O O16 0.160580 0.471907 0.531031
#
# Coordination Sequence:
#
# PCOD8150288 Si02
#       8
#     8   8   8   8   8   8   8   8
#     4  12  23  39  63 100 133 173 214 269 336 404
#     4  11  24  40  67  97 133 167 216 276 330 395
#     4  11  22  42  64  95 130 174 211 273 332 390
#     4  12  24  40  65 101 131 173 215 271 336 401
#     4  10  24  45  71  90 125 178 230 272 325 394
#     4  12  23  38  63 101 135 170 207 273 338 396
#     4  12  26  39  66  99 137 175 216 273 330 405
#     4  10  24  47  67  93 126 177 228 274 325 394
#
# _framework density 21.523695
#
# number of rings (size 3 to 8) (size 9 to 14) (size 15 to 20)
#    0.000    0.750    5.000    2.250    5.250    1.000 
#    0.000    0.625    2.750    0.000    0.000    0.000 
#    0.000    0.000    0.000    0.000    0.000    0.000 
#
# Total GULP energy -396556.491946 kJ/mol
# GULP energy per Si atom -12392.390373 kJ/mol
# Density = 2.147471 g / cm^3
# Si number density = 21.523695 Si / 1000 Ang^3
#
#
#
# Elastic Constant Matrix: (Units=GPa)
#
#
# Indices 1 2 3 4 5 6 
#
# 1 95.9678 8.1728 44.0742 0.0001 17.6033 -0.0013
# 2 8.1728 48.1395 22.2012 0.0004 2.3081 -0.0030
# 3 44.0742 22.2012 110.9443 0.0000 15.1927 -0.0007
# 4 0.0001 0.0004 0.0000 30.3032 0.0001 -5.8894
# 5 17.6033 2.3081 15.1927 0.0001 30.0736 0.0004
# 6 -0.0013 -0.0030 -0.0007 -5.8894 0.0004 31.7416
#
#
#
# Elastic Compliance Matrix: (Units=1/GPa)
#
#
# Indices 1 2 3 4 5 6 
#
# 1 0.013573 0.000107 -0.004646 0.000000 -0.005606 0.000001
# 2 0.000107 0.022896 -0.004700 0.000000 0.000555 0.000002
# 3 -0.004646 -0.004700 0.012224 0.000000 -0.003095 0.000000
# 4 0.000000 0.000000 0.000000 0.034234 0.000000 0.006352
# 5 -0.005606 0.000555 -0.003095 0.000000 0.038054 -0.000001
# 6 0.000001 0.000002 0.000000 0.006352 -0.000001 0.032683
#
#
# Mechanical properties :
#
#
# Convention : Reuss Voigt Hill
#
# Bulk Modulus (GPa) = 33.09672 44.88311 38.98992
# Shear Modulus (GPa) = 27.44040 30.46393 28.95216
#
# Velocity S-wave (km/s) = 3.57444 3.76622 3.67158
# Velocity P-wave (km/s) = 5.69612 6.30957 6.01067
#
# Compressibility (1/GPa) = 0.03021447
#
# Stress axis : x y z
#
# Youngs Moduli (GPa) = 73.67572 43.67608 81.80942
#
# Poissons Ratio (x) = -0.00467 0.38007
# Poissons Ratio (y) = -0.00789 0.38452
# Poissons Ratio (z) = 0.34228 0.20529
#
# Static dielectric constant tensor:
#      x y z
#    x 3.847820 0.000000 0.345970 
#    y 0.000000 4.046030 0.000000 
#    z 0.345970 0.000000 4.176170 
# 
# 
# High freq. dielectric constant tensor:
#      x y z
#    x 1.823270 0.000000 0.010520 
#    y 0.000000 1.849950 0.000000 
#    z 0.010520 0.000000 1.856970 
# 
# From -- ./inp_files/318630.got.cif
#   From: 2010.06.25/outbox.cif.g09.slc.cpg/sg15_160_cif.got.tgz:318630.got - 2010.06.28 07:06:18.
