data_PCOD8150919
_publ_section_title
;
Structure prediction by ZEFSAII (Michael W. Deem and Ramdas Pophale) SiO2 
 PCOD8150919
Probable space group: C 2/C
;
_chemical_formula_sum "Si O2"
_cell_formula_units_Z 64
_cell_length_a 26.295196
_cell_length_b 14.390636
_cell_length_c 11.529558
_cell_angle_alpha 90.000000
_cell_angle_beta 138.495756
_cell_angle_gamma 90.000000
_cell_volume 2891.145765
_symmetry_space_group_name_H-M "C 2/C"
_symmetry_group_IT_number 15
_symmetry_cell_setting 'monoclinic'
loop_
_space_group_symop_operation_xyz
x,y,z
-x,y,1/2-z
-x,-y,-z
x,-y,1/2+z
1/2+x,1/2+y,z
1/2-x,1/2+y,1/2-z
1/2-x,1/2-y,-z
1/2+x,1/2-y,1/2+z
loop_
_atom_site_type_symbol
_atom_site_label
_atom_site_fract_x
_atom_site_fract_y
_atom_site_fract_z
Si Si1 0.158360 0.858462 0.165763
Si Si2 0.554461 0.828075 0.146802
Si Si3 0.326581 0.864856 0.528373
Si Si4 0.076636 0.222384 0.945314
Si Si5 0.674150 0.927342 0.496673
Si Si6 0.352789 0.565947 0.291096
Si Si7 0.573002 0.643430 0.303903
Si Si8 0.885789 0.338764 0.873692
O O1 0.242695 0.831447 0.349458
O O2 0.104608 0.773981 0.118691
O O3 0.130982 0.957390 0.165839
O O4 0.150359 0.862609 0.012868
O O5 0.622673 0.898804 0.297566
O O6 0.554974 0.749830 0.245913
O O7 0.566482 0.787338 0.039815
O O8 0.472062 0.880201 0.012588
O O9 0.382116 0.785042 0.579597
O O10 0.333970 0.875621 0.679621
O O11 0.343298 0.965510 0.500862
O O12 0.000000 0.189400 0.750000
O O13 0.123213 0.128806 0.057244
O O14 0.763143 0.914295 0.612716
O O15 0.655759 0.867363 0.578811
O O16 0.409343 0.588696 0.282587
O O17 0.500000 0.601107 0.250000
#
# Coordination Sequence:
#
# PCOD8150919 Si02
#       8
#     8   8   8   8   8   8   8   8
#     4  11  24  44  70  98 134 178 232 274 342 412
#     4  11  23  43  69  94 135 179 232 276 333 410
#     4  11  27  42  69 103 136 183 223 289 346 401
#     4  11  24  45  65 100 141 176 226 286 347 394
#     4  11  25  44  69 103 134 179 235 281 337 410
#     4  10  27  43  68 106 136 179 227 285 340 406
#     4  11  22  43  68  98 131 181 226 276 337 406
#     4  12  23  46  69  97 140 185 227 279 344 405
#
# _framework density 22.136551999999998
#
# number of rings (size 3 to 8) (size 9 to 14) (size 15 to 20)
#    0.000    1.000    3.750    1.500    3.500    7.500 
#    0.000    0.000    0.000    0.000    0.000    0.000 
#    0.000    0.000    0.000    0.000    0.000    0.000 
#
# Total GULP energy -396788.193280 kJ/mol
# GULP energy per Si atom -12399.631040 kJ/mol
# Density = 2.208617 g / cm^3
# Si number density = 22.136552 Si / 1000 Ang^3
#
#
#
# Elastic Constant Matrix: (Units=GPa)
#
#
# Indices 1 2 3 4 5 6 
#
# 1 79.3898 25.5765 23.1721 0.0000 -0.0926 0.0000
# 2 25.5765 98.3356 31.5249 0.0000 9.6818 0.0000
# 3 23.1721 31.5249 158.3545 0.0000 3.7039 0.0000
# 4 0.0000 0.0000 0.0000 -34.1710 0.0000 -23.6100
# 5 -0.0926 9.6818 3.7039 0.0000 33.8501 0.0000
# 6 0.0000 0.0000 0.0000 -23.6100 0.0000 8.0556
#
#
#
# Elastic Compliance Matrix: (Units=1/GPa)
#
#
# Indices 1 2 3 4 5 6 
#
# 1 0.014083 -0.003318 -0.001427 0.000000 0.001144 0.000000
# 2 -0.003318 0.011931 -0.001814 0.000000 -0.003223 0.000000
# 3 -0.001427 -0.001814 0.006891 0.000000 -0.000239 0.000000
# 4 0.000000 0.000000 0.000000 -0.009674 0.000000 -0.028354
# 5 0.001144 -0.003223 -0.000239 0.000000 0.030493 0.000000
# 6 0.000000 0.000000 0.000000 -0.028354 0.000000 0.041036
#
#
# Mechanical properties :
#
#
# Convention : Reuss Voigt Hill
#
# Bulk Modulus (GPa) = 50.54071 55.18075 52.86073
# Shear Modulus (GPa) = 43.67802 18.60070 31.13936
#
# Velocity S-wave (km/s) = 4.44680 2.90189 3.75466
# Velocity P-wave (km/s) = 7.01757 6.01743 6.53666
#
# Compressibility (1/GPa) = 0.01978603
#
# Stress axis : x y z
#
# Youngs Moduli (GPa) = 71.00842 83.81363 145.12657
#
# Poissons Ratio (x) = 0.27809 0.20709
# Poissons Ratio (y) = 0.23561 0.26331
# Poissons Ratio (z) = 0.10133 0.15207
#
# Static dielectric constant tensor:
#      x y z
#    x 3.725070 0.000000 0.001840 
#    y 0.000000 3.978320 0.000000 
#    z 0.001840 0.000000 4.347020 
# 
# 
# High freq. dielectric constant tensor:
#      x y z
#    x 1.855850 0.000000 -0.003160 
#    y 0.000000 1.869480 0.000000 
#    z -0.003160 0.000000 1.897310 
# 
# From -- ./inp_files/123537.got.cif
#   From: 2010.06.25/outbox.cif.g09.slc.cpg/sg15_62_cif.got.tgz:123537.got - 2010.06.28 07:06:18.
