data_PCOD8150478
_publ_section_title
;
Structure prediction by ZEFSAII (Michael W. Deem and Ramdas Pophale) SiO2 
 PCOD8150478
Probable space group: C 2/C
;
_chemical_formula_sum "Si O2"
_cell_formula_units_Z 60
_cell_length_a 16.777382
_cell_length_b 11.311927
_cell_length_c 16.076147
_cell_angle_alpha 90.000000
_cell_angle_beta 65.689516
_cell_angle_gamma 90.000000
_cell_volume 2780.465121
_symmetry_space_group_name_H-M "C 2/C"
_symmetry_group_IT_number 15
_symmetry_cell_setting 'monoclinic'
loop_
_space_group_symop_operation_xyz
x,y,z
-x,y,1/2-z
-x,-y,-z
x,-y,1/2+z
1/2+x,1/2+y,z
1/2-x,1/2+y,1/2-z
1/2-x,1/2-y,-z
1/2+x,1/2-y,1/2+z
loop_
_atom_site_type_symbol
_atom_site_label
_atom_site_fract_x
_atom_site_fract_y
_atom_site_fract_z
Si Si1 0.253435 0.157345 0.618451
Si Si2 0.038723 0.104970 0.093997
Si Si3 0.652830 0.933531 0.121616
Si Si4 0.000000 0.268230 0.250000
Si Si5 0.731735 0.680567 0.810619
Si Si6 0.382314 0.192651 0.416242
Si Si7 0.232226 0.106993 0.081059
Si Si8 0.469073 0.649417 0.593701
O O1 0.278607 0.193800 0.701288
O O2 0.333025 0.195307 0.525549
O O3 0.165495 0.222719 0.628121
O O4 0.236649 0.018323 0.623684
O O5 0.978027 0.183133 0.181287
O O6 0.139901 0.121393 0.074797
O O7 0.010881 0.968912 0.113644
O O8 0.022781 0.152774 0.008818
O O9 0.581253 0.848746 0.191839
O O10 0.731814 0.934666 0.155209
O O11 0.613213 0.062471 0.124807
O O12 0.689945 0.879826 0.019693
O O13 0.753391 0.795712 0.855088
O O14 0.630304 0.660953 0.835633
O O15 0.480145 0.238480 0.389677
#
# Coordination Sequence:
#
# PCOD8150478 Si02
#       8
#     8   8   8   4   8   8   8   8
#     4  10  25  43  71 103 135 190 235 284 348 421
#     4  11  24  43  74 102 141 177 242 286 349 408
#     4  11  25  45  71 100 146 188 223 292 358 414
#     4  12  26  44  72 104 138 186 238 286 340 426
#     4  12  25  41  72 102 138 179 245 282 346 418
#     4  10  24  48  69  96 151 183 225 290 363 414
#     4  11  22  50  70 100 144 190 224 293 359 413
#     4  11  25  43  72 107 136 184 232 295 347 417
#
# _framework density 21.579124
#
# number of rings (size 3 to 8) (size 9 to 14) (size 15 to 20)
#    0.000    1.067    4.000    1.200    5.600    1.600 
#    0.000    2.000    0.000    0.000    0.000    0.000 
#    0.000    0.000    0.000    0.000    0.000    0.000 
#
# Total GULP energy -372083.054167 kJ/mol
# GULP energy per Si atom -12402.768472 kJ/mol
# Density = 2.153001 g / cm^3
# Si number density = 21.579124 Si / 1000 Ang^3
#
#
#
# Elastic Constant Matrix: (Units=GPa)
#
#
# Indices 1 2 3 4 5 6 
#
# 1 103.6719 65.7503 34.8370 0.0000 -2.5019 0.0000
# 2 65.7503 119.5634 72.7304 0.0000 2.7983 0.0000
# 3 34.8370 72.7304 130.5831 0.0000 10.7250 0.0000
# 4 0.0000 0.0000 0.0000 23.1388 0.0000 -2.7547
# 5 -2.5019 2.7983 10.7250 0.0000 27.5934 0.0000
# 6 0.0000 0.0000 0.0000 -2.7547 0.0000 40.9581
#
#
#
# Elastic Compliance Matrix: (Units=1/GPa)
#
#
# Indices 1 2 3 4 5 6 
#
# 1 0.014982 -0.008704 0.000689 0.000000 0.001973 0.000000
# 2 -0.008704 0.017767 -0.007603 0.000000 0.000364 0.000000
# 3 0.000689 -0.007603 0.012024 0.000000 -0.003840 0.000000
# 4 0.000000 0.000000 0.000000 0.043566 0.000000 0.002930
# 5 0.001973 0.000364 -0.003840 0.000000 0.037875 0.000000
# 6 0.000000 0.000000 0.000000 0.002930 0.000000 0.024612
#
#
# Mechanical properties :
#
#
# Convention : Reuss Voigt Hill
#
# Bulk Modulus (GPa) = 73.87608 77.82819 75.85214
# Shear Modulus (GPa) = 26.79852 30.37144 28.58498
#
# Velocity S-wave (km/s) = 3.52784 3.75566 3.64353
# Velocity P-wave (km/s) = 7.13467 7.41292 7.27513
#
# Compressibility (1/GPa) = 0.01353618
#
# Stress axis : x y z
#
# Youngs Moduli (GPa) = 66.74499 56.28367 83.16411
#
# Poissons Ratio (x) = 0.48992 -0.05730
# Poissons Ratio (y) = 0.58098 0.63233
# Poissons Ratio (z) = -0.04599 0.42795
#
# Static dielectric constant tensor:
#      x y z
#    x 3.956450 0.000000 0.037640 
#    y 0.000000 4.043930 0.000000 
#    z 0.037640 0.000000 4.069510 
# 
# 
# High freq. dielectric constant tensor:
#      x y z
#    x 1.844680 0.000000 0.002680 
#    y 0.000000 1.855400 0.000000 
#    z 0.002680 0.000000 1.859520 
# 
# From -- ./inp_files/161318.got.cif
#   From: 2010.06.25/outbox.cif.g09.slc.cpg/sg15_81_cif.got.tgz:161318.got - 2010.06.28 07:06:18.
