data_PCOD8150757
_publ_section_title
;
Structure prediction by ZEFSAII (Michael W. Deem and Ramdas Pophale) SiO2 
 PCOD8150757
Probable space group: C 2/C
;
_chemical_formula_sum "Si O2"
_cell_formula_units_Z 52
_cell_length_a 27.191421
_cell_length_b 9.068200
_cell_length_c 18.083135
_cell_angle_alpha 90.000000
_cell_angle_beta 148.347532
_cell_angle_gamma 90.000000
_cell_volume 2339.872076
_symmetry_space_group_name_H-M "C 2/C"
_symmetry_group_IT_number 15
_symmetry_cell_setting 'monoclinic'
loop_
_space_group_symop_operation_xyz
x,y,z
-x,y,1/2-z
-x,-y,-z
x,-y,1/2+z
1/2+x,1/2+y,z
1/2-x,1/2+y,1/2-z
1/2-x,1/2-y,-z
1/2+x,1/2-y,1/2+z
loop_
_atom_site_type_symbol
_atom_site_label
_atom_site_fract_x
_atom_site_fract_y
_atom_site_fract_z
Si Si1 0.500000 0.779936 0.250000
Si Si2 0.950553 0.350687 0.907059
Si Si3 0.698105 0.898699 0.909632
Si Si4 0.298425 0.197940 0.330412
Si Si5 0.380559 0.011731 0.039168
Si Si6 0.404204 0.305742 0.996404
Si Si7 0.851604 0.071663 0.016680
O O1 0.588636 0.672498 0.349588
O O2 0.466246 0.891381 0.141562
O O3 0.890992 0.375231 0.756548
O O4 0.884909 0.281613 0.885330
O O5 0.000000 0.500000 0.000000
O O6 0.027826 0.223836 0.986504
O O7 0.665111 0.991570 0.938384
O O8 0.773806 0.993179 0.964011
O O9 0.750000 0.750000 0.000000
O O10 0.203771 0.195131 0.163967
O O11 0.298039 0.331313 0.387415
O O12 0.305090 0.039979 0.381337
O O13 0.421878 0.171584 0.075756
O O14 0.421664 0.457464 0.063452
#
# Coordination Sequence:
#
# PCOD8150757 Si02
#       7
#     4   8   8   8   8   8   8
#     4  10  26  42  62 104 144 182 236 304 368 424
#     4  12  25  44  77 107 141 201 256 294 376 455
#     4  12  25  46  77 111 142 197 254 306 371 453
#     4  11  24  47  67 111 149 188 245 311 373 439
#     4  11  23  45  72 102 144 194 245 297 376 442
#     4  12  23  44  77 101 144 195 243 311 361 449
#     4  11  25  44  68 106 150 181 241 315 363 436
#
# _framework density 22.223438000000002
#
# number of rings (size 3 to 8) (size 9 to 14) (size 15 to 20)
#    0.000    0.615    4.615    2.769    4.308    3.692 
#    5.538    0.000    0.000    0.000    0.000    0.000 
#    0.000    0.000    0.000    0.000    0.000    0.000 
#
# Total GULP energy -322259.773314 kJ/mol
# GULP energy per Si atom -12394.606666 kJ/mol
# Density = 2.217286 g / cm^3
# Si number density = 22.223438 Si / 1000 Ang^3
#
#
#
# Elastic Constant Matrix: (Units=GPa)
#
#
# Indices 1 2 3 4 5 6 
#
# 1 134.3739 19.0752 32.1058 0.0000 2.6924 0.0000
# 2 19.0752 100.0392 40.9792 0.0000 -5.7943 0.0000
# 3 32.1058 40.9792 112.0404 0.0000 4.4130 0.0000
# 4 0.0000 0.0000 0.0000 35.7479 0.0000 -3.0528
# 5 2.6924 -5.7943 4.4130 0.0000 29.6950 0.0000
# 6 0.0000 0.0000 0.0000 -3.0528 0.0000 42.2871
#
#
#
# Elastic Compliance Matrix: (Units=1/GPa)
#
#
# Indices 1 2 3 4 5 6 
#
# 1 0.008039 -0.000743 -0.002009 0.000000 -0.000575 0.000000
# 2 -0.000743 0.012089 -0.004330 0.000000 0.003070 0.000000
# 3 -0.002009 -0.004330 0.011176 0.000000 -0.002324 0.000000
# 4 0.000000 0.000000 0.000000 0.028147 0.000000 0.002032
# 5 -0.000575 0.003070 -0.002324 0.000000 0.034672 0.000000
# 6 0.000000 0.000000 0.000000 0.002032 0.000000 0.023795
#
#
# Mechanical properties :
#
#
# Convention : Reuss Voigt Hill
#
# Bulk Modulus (GPa) = 58.34144 58.97489 58.65816
# Shear Modulus (GPa) = 36.28564 38.49887 37.39225
#
# Velocity S-wave (km/s) = 4.04513 4.16667 4.10635
# Velocity P-wave (km/s) = 6.93734 7.05288 6.99535
#
# Compressibility (1/GPa) = 0.01714047
#
# Stress axis : x y z
#
# Youngs Moduli (GPa) = 124.39375 82.71897 89.47617
#
# Poissons Ratio (x) = 0.06147 0.17977
# Poissons Ratio (y) = 0.09245 0.38740
# Poissons Ratio (z) = 0.24992 0.35814
#
# Static dielectric constant tensor:
#      x y z
#    x 4.648240 0.000000 -0.824890 
#    y 0.000000 4.530800 0.000000 
#    z -0.824890 0.000000 5.239570 
# 
# 
# High freq. dielectric constant tensor:
#      x y z
#    x 1.867530 0.000000 -0.004400 
#    y 0.000000 1.886470 0.000000 
#    z -0.004400 0.000000 1.887820 
# 
# From -- ./inp_files/258874.got.cif
#   From: 2010.06.25/outbox.cif.g09.slc.cpg/sg15_130_cif.got.tgz:258874.got - 2010.06.28 07:06:18.
