data_PCOD8150902
_publ_section_title
;
Structure prediction by ZEFSAII (Michael W. Deem and Ramdas Pophale) SiO2 
 PCOD8150902
Probable space group: C 2/C
;
_chemical_formula_sum "Si O2"
_cell_formula_units_Z 52
_cell_length_a 21.367361
_cell_length_b 8.234385
_cell_length_c 14.832972
_cell_angle_alpha 90.000000
_cell_angle_beta 109.716757
_cell_angle_gamma 90.000000
_cell_volume 2456.809433
_symmetry_space_group_name_H-M "C 2/C"
_symmetry_group_IT_number 15
_symmetry_cell_setting 'monoclinic'
loop_
_space_group_symop_operation_xyz
x,y,z
-x,y,1/2-z
-x,-y,-z
x,-y,1/2+z
1/2+x,1/2+y,z
1/2-x,1/2+y,1/2-z
1/2-x,1/2-y,-z
1/2+x,1/2-y,1/2+z
loop_
_atom_site_type_symbol
_atom_site_label
_atom_site_fract_x
_atom_site_fract_y
_atom_site_fract_z
Si Si1 0.301499 0.421413 0.071088
Si Si2 0.392799 0.872484 0.617105
Si Si3 0.000000 0.852065 0.250000
Si Si4 0.336550 0.034520 0.430940
Si Si5 0.650185 0.101478 0.752496
Si Si6 0.383357 0.457017 0.768448
Si Si7 0.199915 0.891838 0.111178
O O1 0.325580 0.235345 0.092065
O O2 0.227790 0.430015 0.073945
O O3 0.348195 0.535282 0.154216
O O4 0.305361 0.473937 0.968872
O O5 0.456687 0.759091 0.661728
O O6 0.396050 0.963453 0.522029
O O7 0.391674 0.011888 0.691519
O O8 0.043729 0.964594 0.205096
O O9 0.326163 0.224614 0.444952
O O10 0.352232 0.016543 0.333983
O O11 0.613189 0.267290 0.705642
O O12 0.724966 0.136545 0.820434
O O13 0.343605 0.555312 0.824919
#
# Coordination Sequence:
#
# PCOD8150902 Si02
#       7
#     8   8   4   8   8   8   8
#     4  11  21  37  63  97 135 167 201 265 332 384
#     4  11  25  42  64  94 131 172 221 264 317 389
#     4  10  26  50  64  82 130 186 220 266 316 378
#     4  12  22  36  63 102 134 164 211 263 331 388
#     4  12  23  38  68 102 132 165 211 273 332 385
#     4  11  24  43  64  91 132 174 217 263 321 384
#     4  12  22  39  65 105 139 162 207 267 337 390
#
# _framework density 21.165662999999999
#
# number of rings (size 3 to 8) (size 9 to 14) (size 15 to 20)
#    0.000    0.615    4.615    4.615    2.154    0.615 
#    0.000   10.000    0.000    0.000    0.000    0.000 
#    0.000    0.000    0.000    0.000    0.000    0.000 
#
# Total GULP energy -322505.579019 kJ/mol
# GULP energy per Si atom -12404.060731 kJ/mol
# Density = 2.111749 g / cm^3
# Si number density = 21.165663 Si / 1000 Ang^3
#
#
#
# Elastic Constant Matrix: (Units=GPa)
#
#
# Indices 1 2 3 4 5 6 
#
# 1 93.4772 29.7493 32.8853 0.0000 2.2256 0.0000
# 2 29.7493 90.4755 27.1107 0.0000 12.9959 0.0000
# 3 32.8853 27.1107 106.1010 0.0000 -9.8904 0.0000
# 4 0.0000 0.0000 0.0000 43.2763 0.0000 1.0635
# 5 2.2256 12.9959 -9.8904 0.0000 22.4204 0.0000
# 6 0.0000 0.0000 0.0000 1.0635 0.0000 21.1695
#
#
#
# Elastic Compliance Matrix: (Units=1/GPa)
#
#
# Indices 1 2 3 4 5 6 
#
# 1 0.012864 -0.003117 -0.003276 0.000000 -0.000916 0.000000
# 2 -0.003117 0.014579 -0.003669 0.000000 -0.009760 0.000000
# 3 -0.003276 -0.003669 0.012104 0.000000 0.007791 0.000000
# 4 0.000000 0.000000 0.000000 0.023136 0.000000 -0.001162
# 5 -0.000916 -0.009760 0.007791 0.000000 0.053787 0.000000
# 6 0.000000 0.000000 0.000000 -0.001162 0.000000 0.047296
#
#
# Mechanical properties :
#
#
# Convention : Reuss Voigt Hill
#
# Bulk Modulus (GPa) = 51.48375 52.17160 51.82768
# Shear Modulus (GPa) = 26.26544 30.72713 28.49628
#
# Velocity S-wave (km/s) = 3.52653 3.81431 3.67324
# Velocity P-wave (km/s) = 6.39991 6.64088 6.52151
#
# Compressibility (1/GPa) = 0.01942360
#
# Stress axis : x y z
#
# Youngs Moduli (GPa) = 77.73623 68.59299 82.61616
#
# Poissons Ratio (x) = 0.21378 0.27066
# Poissons Ratio (y) = 0.24228 0.30311
# Poissons Ratio (z) = 0.25467 0.25166
#
# Static dielectric constant tensor:
#      x y z
#    x 3.596950 0.000000 -0.007450 
#    y 0.000000 3.892490 0.000000 
#    z -0.007450 0.000000 3.999530 
# 
# 
# High freq. dielectric constant tensor:
#      x y z
#    x 1.800910 0.000000 -0.010790 
#    y 0.000000 1.848570 0.000000 
#    z -0.010790 0.000000 1.836950 
# 
# From -- ./inp_files/172057.got.cif
#   From: 2010.06.25/outbox.cif.g09.slc.cpg/sg15_87_cif.got.tgz:172057.got - 2010.06.28 07:06:18.
