data_PCOD8150245
_publ_section_title
;
Structure prediction by ZEFSAII (Michael W. Deem and Ramdas Pophale) SiO2 
 PCOD8150245
Probable space group: C 2/C
;
_chemical_formula_sum "Si O2"
_cell_formula_units_Z 64
_cell_length_a 9.793733
_cell_length_b 26.999393
_cell_length_c 18.478622
_cell_angle_alpha 90.000000
_cell_angle_beta 40.347232
_cell_angle_gamma 90.000000
_cell_volume 3163.419532
_symmetry_space_group_name_H-M "C 2/C"
_symmetry_group_IT_number 15
_symmetry_cell_setting 'monoclinic'
loop_
_space_group_symop_operation_xyz
x,y,z
-x,y,1/2-z
-x,-y,-z
x,-y,1/2+z
1/2+x,1/2+y,z
1/2-x,1/2+y,1/2-z
1/2-x,1/2-y,-z
1/2+x,1/2-y,1/2+z
loop_
_atom_site_type_symbol
_atom_site_label
_atom_site_fract_x
_atom_site_fract_y
_atom_site_fract_z
Si Si1 0.054901 0.366415 0.070395
Si Si2 0.695497 0.952480 0.121126
Si Si3 0.310877 0.613075 0.881067
Si Si4 0.871087 0.282201 0.233284
Si Si5 0.144639 0.946286 0.997599
Si Si6 0.394057 0.296969 0.450248
Si Si7 0.986882 0.172777 0.339383
Si Si8 0.760698 0.359198 0.855488
O O1 0.916919 0.392385 0.064448
O O2 0.894536 0.325507 0.165937
O O3 0.133313 0.405975 0.097177
O O4 0.250306 0.337141 0.958903
O O5 0.500000 0.968057 0.250000
O O6 0.772255 0.997839 0.040573
O O7 0.892738 0.938721 0.092151
O O8 0.500000 0.601706 0.750000
O O9 0.343257 0.666226 0.905163
O O10 0.298681 0.570518 0.945471
O O11 0.629141 0.276267 0.352022
O O12 0.000000 0.300676 0.250000
O O13 0.959937 0.230190 0.168637
O O14 0.258599 0.914439 0.888875
O O15 0.250000 0.250000 0.500000
O O16 0.361182 0.322410 0.541245
O O17 0.000000 0.157659 0.250000
O O18 0.148095 0.140431 0.322562
O O19 0.000000 0.340902 0.750000
#
# Coordination Sequence:
#
# PCOD8150245 Si02
#       8
#     8   8   8   8   8   8   8   8
#     4  12  24  42  68  95 135 175 222 277 334 393
#     4  11  23  44  75  98 127 171 223 276 335 406
#     4  11  24  42  66  99 136 172 218 277 337 400
#     4  11  24  40  66  94 133 179 230 275 327 394
#     4  10  24  45  68 102 130 167 223 272 337 407
#     4  11  25  40  64  98 133 180 230 275 328 397
#     4  11  26  42  61  97 137 180 222 278 332 391
#     4  11  23  42  68  93 133 176 220 276 330 401
#
# _framework density 20.231273000000002
#
# number of rings (size 3 to 8) (size 9 to 14) (size 15 to 20)
#    0.000    1.000    2.500    3.375   12.250    1.000 
#    0.000    0.625    0.000    0.000    0.000    0.000 
#    0.000    0.000    0.000    0.000    0.000    0.000 
#
# Total GULP energy -396955.707903 kJ/mol
# GULP energy per Si atom -12404.865872 kJ/mol
# Density = 2.018523 g / cm^3
# Si number density = 20.231273 Si / 1000 Ang^3
#
#
#
# Elastic Constant Matrix: (Units=GPa)
#
#
# Indices 1 2 3 4 5 6 
#
# 1 117.0364 27.0159 68.9760 0.0000 -11.6087 0.0000
# 2 27.0159 77.9806 50.7040 0.0000 -1.9369 0.0000
# 3 68.9760 50.7040 130.2280 0.0000 -19.7986 -0.0001
# 4 0.0000 0.0000 0.0000 18.8286 0.0000 -5.4135
# 5 -11.6087 -1.9369 -19.7986 0.0000 42.4771 0.0000
# 6 0.0000 0.0000 -0.0001 -5.4135 0.0000 18.9872
#
#
#
# Elastic Compliance Matrix: (Units=1/GPa)
#
#
# Indices 1 2 3 4 5 6 
#
# 1 0.012427 -0.000070 -0.006499 0.000000 0.000364 0.000000
# 2 -0.000070 0.017424 -0.007134 0.000000 -0.002550 0.000000
# 3 -0.006499 -0.007134 0.014615 0.000000 0.004711 0.000000
# 4 0.000000 0.000000 0.000000 0.057853 0.000000 0.016495
# 5 0.000364 -0.002550 0.004711 0.000000 0.025721 0.000000
# 6 0.000000 0.000000 0.000000 0.016495 0.000000 0.057370
#
#
# Mechanical properties :
#
#
# Convention : Reuss Voigt Hill
#
# Bulk Modulus (GPa) = 58.62407 68.73744 63.68075
# Shear Modulus (GPa) = 22.88290 27.96185 25.42237
#
# Velocity S-wave (km/s) = 3.36678 3.72171 3.54868
# Velocity P-wave (km/s) = 6.64481 7.24691 6.95238
#
# Compressibility (1/GPa) = 0.01705784
#
# Stress axis : x y z
#
# Youngs Moduli (GPa) = 80.46909 57.39375 68.42191
#
# Poissons Ratio (x) = 0.00403 0.44471
# Poissons Ratio (y) = 0.00565 0.48814
# Poissons Ratio (z) = 0.52301 0.40946
#
# Static dielectric constant tensor:
#      x y z
#    x 3.862130 0.000000 -0.132010 
#    y 0.000000 3.619770 0.000000 
#    z -0.132010 0.000000 4.132160 
# 
# 
# High freq. dielectric constant tensor:
#      x y z
#    x 1.803230 0.000000 -0.006770 
#    y 0.000000 1.786190 0.000000 
#    z -0.006770 0.000000 1.802080 
# 
# From -- ./inp_files/194226.got.cif
#   From: 2010.06.25/outbox.cif.g09.slc.cpg/sg15_98_cif.got.tgz:194226.got - 2010.06.28 07:06:18.
