data_PCOD8150857
_publ_section_title
;
Structure prediction by ZEFSAII (Michael W. Deem and Ramdas Pophale) SiO2 
 PCOD8150857
Probable space group: C 2/C
;
_chemical_formula_sum "Si O2"
_cell_formula_units_Z 44
_cell_length_a 13.719672
_cell_length_b 13.673875
_cell_length_c 10.312091
_cell_angle_alpha 90.000000
_cell_angle_beta 78.161516
_cell_angle_gamma 90.000000
_cell_volume 1893.410969
_symmetry_space_group_name_H-M "C 2/C"
_symmetry_group_IT_number 15
_symmetry_cell_setting 'monoclinic'
loop_
_space_group_symop_operation_xyz
x,y,z
-x,y,1/2-z
-x,-y,-z
x,-y,1/2+z
1/2+x,1/2+y,z
1/2-x,1/2+y,1/2-z
1/2-x,1/2-y,-z
1/2+x,1/2-y,1/2+z
loop_
_atom_site_type_symbol
_atom_site_label
_atom_site_fract_x
_atom_site_fract_y
_atom_site_fract_z
Si Si1 0.868857 0.841602 0.221924
Si Si2 0.569359 0.001755 0.104486
Si Si3 0.815556 0.690353 0.879549
Si Si4 0.000000 0.014232 0.250000
Si Si5 0.139299 0.712712 0.044335
Si Si6 0.981555 0.808623 0.926370
O O1 0.748449 0.832203 0.233503
O O2 0.907936 0.766643 0.318605
O O3 0.918687 0.814854 0.073853
O O4 0.900236 0.948472 0.267138
O O5 0.500000 0.998081 0.250000
O O6 0.636689 0.098413 0.077005
O O7 0.647241 0.912924 0.074290
O O8 0.500000 0.000000 0.000000
O O9 0.915018 0.756966 0.830048
O O10 0.750000 0.750000 0.000000
O O11 0.996624 0.081095 0.122809
O O12 0.250000 0.750000 0.000000
O O13 0.078526 0.742887 0.931090
#
# Coordination Sequence:
#
# PCOD8150857 Si02
#       6
#     8   8   8   4   8   8
#     4  11  25  47  71 107 146 196 243 308 371 451
#     4  12  28  50  79 109 151 207 253 314 385 454
#     4  10  26  46  76 105 152 188 251 304 377 441
#     4  12  26  40  78 100 152 186 248 300 382 436
#     4  12  28  46  77 106 151 194 258 303 375 452
#     4  11  24  47  70 107 149 194 240 314 372 442
#
# _framework density 23.238484
#
# number of rings (size 3 to 8) (size 9 to 14) (size 15 to 20)
#    0.000    0.727    3.636    1.636   11.455    1.455 
#    0.000    0.000    0.000    0.000    0.000    0.000 
#    0.000    0.000    0.000    0.000    0.000    0.000 
#
# Total GULP energy -272751.351319 kJ/mol
# GULP energy per Si atom -12397.788696 kJ/mol
# Density = 2.318559 g / cm^3
# Si number density = 23.238484 Si / 1000 Ang^3
#
#
#
# Elastic Constant Matrix: (Units=GPa)
#
#
# Indices 1 2 3 4 5 6 
#
# 1 159.2646 73.5451 31.0228 0.0000 21.6330 0.0000
# 2 73.5451 204.0267 27.9752 0.0000 4.6287 0.0000
# 3 31.0228 27.9752 78.2081 0.0000 14.3565 0.0000
# 4 0.0000 0.0000 0.0000 35.3285 0.0000 -0.7532
# 5 21.6330 4.6287 14.3565 0.0000 43.1069 0.0000
# 6 0.0000 0.0000 0.0000 -0.7532 0.0000 56.2640
#
#
#
# Elastic Compliance Matrix: (Units=1/GPa)
#
#
# Indices 1 2 3 4 5 6 
#
# 1 0.008302 -0.002681 -0.001728 0.000000 -0.003303 0.000000
# 2 -0.002681 0.006020 -0.001298 0.000000 0.001131 0.000000
# 3 -0.001728 -0.001298 0.014647 0.000000 -0.003871 0.000000
# 4 0.000000 0.000000 0.000000 0.028314 0.000000 0.000379
# 5 -0.003303 0.001131 -0.003871 0.000000 0.026024 0.000000
# 6 0.000000 0.000000 0.000000 0.000379 0.000000 0.017778
#
#
# Mechanical properties :
#
#
# Convention : Reuss Voigt Hill
#
# Bulk Modulus (GPa) = 56.96047 78.50952 67.73500
# Shear Modulus (GPa) = 42.24792 47.53696 44.89244
#
# Velocity S-wave (km/s) = 4.26844 4.52775 4.40001
# Velocity P-wave (km/s) = 6.98980 7.82251 7.41785
#
# Compressibility (1/GPa) = 0.01755604
#
# Stress axis : x y z
#
# Youngs Moduli (GPa) = 120.45292 166.11570 68.27500
#
# Poissons Ratio (x) = 0.44531 0.11797
# Poissons Ratio (y) = 0.32290 0.08859
# Poissons Ratio (z) = 0.20813 0.21555
#
# Static dielectric constant tensor:
#      x y z
#    x 4.876900 0.000000 0.452210 
#    y 0.000000 4.524630 0.000000 
#    z 0.452210 0.000000 4.242570 
# 
# 
# High freq. dielectric constant tensor:
#      x y z
#    x 1.938050 0.000000 0.011500 
#    y 0.000000 1.925800 0.000000 
#    z 0.011500 0.000000 1.927120 
# 
# From -- ./inp_files/95020.got.cif
#   From: 2010.06.25/outbox.cif.g09.slc.cpg/sg15_48_cif.got.tgz:95020.got - 2010.06.28 07:06:18.
