data_PCOD8150965
_publ_section_title
;
Structure prediction by ZEFSAII (Michael W. Deem and Ramdas Pophale) SiO2 
 PCOD8150965
Probable space group: C 2/C
;
_chemical_formula_sum "Si O2"
_cell_formula_units_Z 56
_cell_length_a 13.059949
_cell_length_b 23.732378
_cell_length_c 16.338614
_cell_angle_alpha 90.000000
_cell_angle_beta 142.457922
_cell_angle_gamma 90.000000
_cell_volume 3085.747749
_symmetry_space_group_name_H-M "C 2/C"
_symmetry_group_IT_number 15
_symmetry_cell_setting 'monoclinic'
loop_
_space_group_symop_operation_xyz
x,y,z
-x,y,1/2-z
-x,-y,-z
x,-y,1/2+z
1/2+x,1/2+y,z
1/2-x,1/2+y,1/2-z
1/2-x,1/2-y,-z
1/2+x,1/2-y,1/2+z
loop_
_atom_site_type_symbol
_atom_site_label
_atom_site_fract_x
_atom_site_fract_y
_atom_site_fract_z
Si Si1 0.332260 0.805152 0.589707
Si Si2 0.897195 0.108243 0.472998
Si Si3 0.268136 0.922706 0.245825
Si Si4 0.500000 0.539739 0.250000
Si Si5 0.247715 0.020522 0.006172
Si Si6 0.500000 0.057789 0.750000
Si Si7 0.727112 0.556109 0.258768
Si Si8 0.089436 0.394998 0.998081
O O1 0.500000 0.793390 0.750000
O O2 0.250000 0.750000 0.500000
O O3 0.190445 0.832713 0.559045
O O4 0.372768 0.841729 0.534893
O O5 0.772323 0.061001 0.429874
O O6 0.900407 0.091166 0.379982
O O7 0.085347 0.106053 0.626408
O O8 0.367523 0.908722 0.223644
O O9 0.367709 0.887886 0.379027
O O10 0.251244 0.990004 0.250993
O O11 0.432622 0.506566 0.127538
O O12 0.658897 0.569839 0.308107
O O13 0.291987 0.053255 0.951685
O O14 0.395766 0.977758 0.118511
O O15 0.900190 0.588304 0.362405
#
# Coordination Sequence:
#
# PCOD8150965 Si02
#       8
#     8   8   8   4   8   4   8   8
#     4  11  26  46  71  94 116 152 206 271 325 368
#     4  11  22  37  58  84 124 158 203 253 312 357
#     4  12  22  34  54  87 124 176 205 243 289 369
#     4  12  22  28  50  78 118 160 212 224 274 352
#     4  11  18  31  49  78 111 166 198 240 277 354
#     4  12  22  30  52  78 122 170 210 222 278 350
#     4  12  20  36  50  83 122 172 203 241 291 361
#     4  11  22  37  58  84 124 158 203 253 312 357
#
# _framework density 18.147950999999999
#
# number of rings (size 3 to 8) (size 9 to 14) (size 15 to 20)
#    0.000    0.571    7.143    2.571    4.000    1.143 
#    0.000    0.000    0.000    0.000    0.000    6.000 
#    0.000    0.000    0.000    0.000    0.000    0.000 
#
# Total GULP energy -346941.243659 kJ/mol
# GULP energy per Si atom -12390.758702 kJ/mol
# Density = 1.810665 g / cm^3
# Si number density = 18.147951 Si / 1000 Ang^3
#
#
#
# Elastic Constant Matrix: (Units=GPa)
#
#
# Indices 1 2 3 4 5 6 
#
# 1 111.3805 30.7720 15.1256 -0.0001 -5.9358 -0.0001
# 2 30.7720 64.5186 41.8259 0.0000 -3.9409 0.0000
# 3 15.1256 41.8259 120.0650 -0.0001 -2.4036 -0.0002
# 4 -0.0001 0.0000 -0.0001 25.6516 -0.0001 1.7916
# 5 -5.9358 -3.9409 -2.4036 -0.0001 32.3508 -0.0002
# 6 -0.0001 0.0000 -0.0002 1.7916 -0.0002 18.5931
#
#
#
# Elastic Compliance Matrix: (Units=1/GPa)
#
#
# Indices 1 2 3 4 5 6 
#
# 1 0.010423 -0.005240 0.000539 0.000000 0.001314 0.000000
# 2 -0.005240 0.022775 -0.007248 0.000000 0.001274 0.000000
# 3 0.000539 -0.007248 0.010786 0.000000 0.000017 0.000000
# 4 0.000000 0.000000 0.000000 0.039248 0.000000 -0.003782
# 5 0.001314 0.001274 0.000017 0.000000 0.031309 0.000000
# 6 0.000000 0.000000 0.000000 -0.003782 0.000000 0.054148
#
#
# Mechanical properties :
#
#
# Convention : Reuss Voigt Hill
#
# Bulk Modulus (GPa) = 49.78835 52.37903 51.08369
# Shear Modulus (GPa) = 25.08983 29.20181 27.14582
#
# Velocity S-wave (km/s) = 3.72225 4.01571 3.87176
# Velocity P-wave (km/s) = 6.77996 7.10113 6.94240
#
# Compressibility (1/GPa) = 0.02008502
#
# Stress axis : x y z
#
# Youngs Moduli (GPa) = 95.94315 43.90685 92.70959
#
# Poissons Ratio (x) = 0.23008 -0.04994
# Poissons Ratio (y) = 0.50275 0.67200
# Poissons Ratio (z) = -0.05168 0.31826
#
# Static dielectric constant tensor:
#      x y z
#    x 4.150930 0.000000 -0.106310 
#    y 0.000000 2.899920 0.000000 
#    z -0.106310 0.000000 3.441420 
# 
# 
# High freq. dielectric constant tensor:
#      x y z
#    x 1.721270 0.000000 0.003290 
#    y 0.000000 1.631600 0.000000 
#    z 0.003290 0.000000 1.729980 
# 
# From -- ./inp_files/148605.got.cif
#   From: 2010.06.25/outbox.cif.g09.slc.cpg/sg15_75_cif.got.tgz:148605.got - 2010.06.28 07:06:18.
