data_PCOD8150748
_publ_section_title
;
Structure prediction by ZEFSAII (Michael W. Deem and Ramdas Pophale) SiO2 
 PCOD8150748
Probable space group: C 2/C
;
_chemical_formula_sum "Si O2"
_cell_formula_units_Z 48
_cell_length_a 17.777142
_cell_length_b 27.806025
_cell_length_c 9.282998
_cell_angle_alpha 90.000000
_cell_angle_beta 152.043845
_cell_angle_gamma 90.000000
_cell_volume 2151.160335
_symmetry_space_group_name_H-M "C 2/C"
_symmetry_group_IT_number 15
_symmetry_cell_setting 'monoclinic'
loop_
_space_group_symop_operation_xyz
x,y,z
-x,y,1/2-z
-x,-y,-z
x,-y,1/2+z
1/2+x,1/2+y,z
1/2-x,1/2+y,1/2-z
1/2-x,1/2-y,-z
1/2+x,1/2-y,1/2+z
loop_
_atom_site_type_symbol
_atom_site_label
_atom_site_fract_x
_atom_site_fract_y
_atom_site_fract_z
Si Si1 0.326533 0.943984 0.211990
Si Si2 0.000000 0.495996 0.250000
Si Si3 0.500000 0.414536 0.750000
Si Si4 0.500000 0.684509 0.750000
Si Si5 0.500000 0.207292 0.750000
Si Si6 0.336358 0.347842 0.239064
Si Si7 0.723870 0.764805 0.222697
Si Si8 0.497254 0.845534 0.964981
O O1 0.383654 0.964043 0.153979
O O2 0.378607 0.888700 0.311277
O O3 0.393141 0.972565 0.461951
O O4 0.131974 0.946776 0.889223
O O5 0.398406 0.383198 0.466189
O O6 0.537022 0.649885 0.677512
O O7 0.346906 0.718089 0.472733
O O8 0.352561 0.241953 0.553358
O O9 0.438034 0.172339 0.519526
O O10 0.331315 0.293195 0.287425
O O11 0.155361 0.363160 0.886237
O O12 0.587756 0.799967 0.050230
#
# Coordination Sequence:
#
# PCOD8150748 Si02
#       8
#     8   4   4   4   4   8   8   8
#     4  11  25  47  76 110 135 182 224 287 357 434
#     4  10  25  51  80 103 144 170 223 286 366 438
#     4  12  27  44  76 104 140 176 235 277 352 425
#     4  12  24  39  62  87 141 191 242 291 341 378
#     4  12  26  38  62 106 139 191 248 290 325 399
#     4  12  25  44  61  97 137 189 234 294 338 402
#     4  12  23  41  62  94 140 191 241 289 334 396
#     4  12  24  43  70  96 142 187 235 283 349 409
#
# _framework density 22.313538999999999
#
# number of rings (size 3 to 8) (size 9 to 14) (size 15 to 20)
#    0.000    0.333    5.000    4.000    2.333    2.000 
#    0.000    0.000    0.000    0.000    0.000    0.000 
#    0.000    0.000    0.000    0.000    0.000    0.000 
#
# Total GULP energy -297525.097379 kJ/mol
# GULP energy per Si atom -12396.879057 kJ/mol
# Density = 2.226275 g / cm^3
# Si number density = 22.313539 Si / 1000 Ang^3
#
#
#
# Elastic Constant Matrix: (Units=GPa)
#
#
# Indices 1 2 3 4 5 6 
#
# 1 149.3435 52.0709 60.5457 0.0000 5.7772 0.0000
# 2 52.0709 54.6007 34.4164 0.0000 8.2080 0.0000
# 3 60.5457 34.4164 133.9269 0.0000 10.6803 0.0000
# 4 0.0000 0.0000 0.0000 91.6511 0.0000 -19.9327
# 5 5.7772 8.2080 10.6803 0.0000 34.1582 0.0000
# 6 0.0000 0.0000 0.0000 -19.9327 0.0000 34.4213
#
#
#
# Elastic Compliance Matrix: (Units=1/GPa)
#
#
# Indices 1 2 3 4 5 6 
#
# 1 0.010813 -0.008763 -0.002726 0.000000 0.001129 0.000000
# 2 -0.008763 0.029394 -0.003227 0.000000 -0.004572 0.000000
# 3 -0.002726 -0.003227 0.009671 0.000000 -0.001787 0.000000
# 4 0.000000 0.000000 0.000000 0.012483 0.000000 0.007229
# 5 0.001129 -0.004572 -0.001787 0.000000 0.030742 0.000000
# 6 0.000000 0.000000 0.000000 0.007229 0.000000 0.033238
#
#
# Mechanical properties :
#
#
# Convention : Reuss Voigt Hill
#
# Bulk Modulus (GPa) = 48.91441 70.21523 59.56482
# Shear Modulus (GPa) = 30.75233 44.76866 37.76049
#
# Velocity S-wave (km/s) = 3.71643 4.48408 4.11818
# Velocity P-wave (km/s) = 6.35490 7.63840 7.02602
#
# Compressibility (1/GPa) = 0.02044387
#
# Stress axis : x y z
#
# Youngs Moduli (GPa) = 92.48053 34.02104 103.39981
#
# Poissons Ratio (x) = 0.29814 0.28192
# Poissons Ratio (y) = 0.81044 0.33369
# Poissons Ratio (z) = 0.25214 0.10979
#
# Static dielectric constant tensor:
#      x y z
#    x 4.234420 0.000000 -0.022070 
#    y 0.000000 3.821080 0.000000 
#    z -0.022070 0.000000 4.201870 
# 
# 
# High freq. dielectric constant tensor:
#      x y z
#    x 1.893790 0.000000 0.004560 
#    y 0.000000 1.855150 0.000000 
#    z 0.004560 0.000000 1.889860 
# 
# From -- ./inp_files/52775.got.cif
#   From: 2010.06.25/outbox.cif.g09.slc.cpg/sg15_27_cif.got.tgz:52775.got - 2010.06.28 07:06:18.
