data_PCOD8150513
_publ_section_title
;
Structure prediction by ZEFSAII (Michael W. Deem and Ramdas Pophale) SiO2 
 PCOD8150513
Probable space group: C 2/C
;
_chemical_formula_sum "Si O2"
_cell_formula_units_Z 44
_cell_length_a 23.630239
_cell_length_b 12.133588
_cell_length_c 8.633507
_cell_angle_alpha 90.000000
_cell_angle_beta 129.113271
_cell_angle_gamma 90.000000
_cell_volume 1920.660160
_symmetry_space_group_name_H-M "C 2/C"
_symmetry_group_IT_number 15
_symmetry_cell_setting 'monoclinic'
loop_
_space_group_symop_operation_xyz
x,y,z
-x,y,1/2-z
-x,-y,-z
x,-y,1/2+z
1/2+x,1/2+y,z
1/2-x,1/2+y,1/2-z
1/2-x,1/2-y,-z
1/2+x,1/2-y,1/2+z
loop_
_atom_site_type_symbol
_atom_site_label
_atom_site_fract_x
_atom_site_fract_y
_atom_site_fract_z
Si Si1 0.500000 0.334053 0.750000
Si Si2 0.830377 0.342308 0.874609
Si Si3 0.326948 0.581779 0.405951
Si Si4 0.122984 0.882220 0.174486
Si Si5 0.056253 0.463267 0.971733
Si Si6 0.878426 0.738006 0.755521
O O1 0.454700 0.405597 0.545498
O O2 0.447256 0.257799 0.761253
O O3 0.753770 0.386064 0.677399
O O4 0.855647 0.245959 0.801847
O O5 0.891468 0.437137 0.990006
O O6 0.815592 0.295739 0.023274
O O7 0.321052 0.459271 0.324534
O O8 0.379230 0.586303 0.647620
O O9 0.358357 0.656988 0.322671
O O10 0.108107 0.363186 0.107642
O O11 0.000000 0.417336 0.750000
O O12 0.000000 0.500000 0.000000
#
# Coordination Sequence:
#
# PCOD8150513 Si02
#       6
#     4   8   8   8   8   8
#     4  10  24  50  68 100 142 182 232 296 342 412
#     4  11  26  46  72  97 149 179 233 291 339 423
#     4  12  28  44  72 105 135 191 232 285 356 414
#     4  11  26  46  71  99 140 180 237 286 347 418
#     4  12  25  43  71 106 138 181 228 288 354 408
#     4  11  25  44  74 101 142 182 232 288 350 418
#
# _framework density 22.90879
#
# number of rings (size 3 to 8) (size 9 to 14) (size 15 to 20)
#    0.000    0.727    1.818    5.455   11.455    2.909 
#    0.000    0.000    0.000    0.000    0.000    0.000 
#    0.000    0.000    0.000    0.000    0.000    0.000 
#
# Total GULP energy -272717.060517 kJ/mol
# GULP energy per Si atom -12396.230024 kJ/mol
# Density = 2.285665 g / cm^3
# Si number density = 22.908790 Si / 1000 Ang^3
#
#
#
# Elastic Constant Matrix: (Units=GPa)
#
#
# Indices 1 2 3 4 5 6 
#
# 1 70.0580 14.8592 28.5034 0.0000 -0.8305 0.0000
# 2 14.8592 87.2000 21.0873 0.0000 -0.0926 0.0000
# 3 28.5034 21.0873 140.9387 0.0000 -14.2104 0.0000
# 4 0.0000 0.0000 0.0000 36.6904 0.0000 -5.6534
# 5 -0.8305 -0.0926 -14.2104 0.0000 36.9327 0.0000
# 6 0.0000 0.0000 0.0000 -5.6534 0.0000 29.1924
#
#
#
# Elastic Compliance Matrix: (Units=1/GPa)
#
#
# Indices 1 2 3 4 5 6 
#
# 1 0.015906 -0.001986 -0.003001 0.000000 -0.000802 0.000000
# 2 -0.001986 0.012163 -0.001477 0.000000 -0.000582 0.000000
# 3 -0.003001 -0.001477 0.008235 0.000000 0.003098 0.000000
# 4 0.000000 0.000000 0.000000 0.028093 0.000000 0.005441
# 5 -0.000802 -0.000582 0.003098 0.000000 0.028249 0.000000
# 6 0.000000 0.000000 0.000000 0.005441 0.000000 0.035309
#
#
# Mechanical properties :
#
#
# Convention : Reuss Voigt Hill
#
# Bulk Modulus (GPa) = 42.77525 47.45518 45.11521
# Shear Modulus (GPa) = 33.63039 36.14621 34.88830
#
# Velocity S-wave (km/s) = 3.83562 3.97650 3.90670
# Velocity P-wave (km/s) = 6.19100 6.46863 6.33134
#
# Compressibility (1/GPa) = 0.02337800
#
# Stress axis : x y z
#
# Youngs Moduli (GPa) = 62.86781 82.21781 121.42659
#
# Poissons Ratio (x) = 0.16326 0.36436
# Poissons Ratio (y) = 0.12484 0.17934
# Poissons Ratio (z) = 0.18864 0.12143
#
# Static dielectric constant tensor:
#      x y z
#    x 3.926280 0.000000 -0.072310 
#    y 0.000000 3.271020 0.000000 
#    z -0.072310 0.000000 4.628150 
# 
# 
# High freq. dielectric constant tensor:
#      x y z
#    x 1.891460 0.000000 -0.005670 
#    y 0.000000 1.910270 0.000000 
#    z -0.005670 0.000000 1.925690 
# 
# From -- ./inp_files/65659.got.cif
#   From: 2010.06.25/outbox.cif.g09.slc.cpg/sg15_33_cif.got.tgz:65659.got - 2010.06.28 07:06:18.
