data_PCOD8150183
_publ_section_title
;
Structure prediction by ZEFSAII (Michael W. Deem and Ramdas Pophale) SiO2 
 PCOD8150183
Probable space group: C 2/C
;
_chemical_formula_sum "Si O2"
_cell_formula_units_Z 56
_cell_length_a 18.630825
_cell_length_b 5.489839
_cell_length_c 22.628315
_cell_angle_alpha 90.000000
_cell_angle_beta 67.400875
_cell_angle_gamma 90.000000
_cell_volume 2136.718318
_symmetry_space_group_name_H-M "C 2/C"
_symmetry_group_IT_number 15
_symmetry_cell_setting 'monoclinic'
loop_
_space_group_symop_operation_xyz
x,y,z
-x,y,1/2-z
-x,-y,-z
x,-y,1/2+z
1/2+x,1/2+y,z
1/2-x,1/2+y,1/2-z
1/2-x,1/2-y,-z
1/2+x,1/2-y,1/2+z
loop_
_atom_site_type_symbol
_atom_site_label
_atom_site_fract_x
_atom_site_fract_y
_atom_site_fract_z
Si Si1 0.183961 0.271642 0.472287
Si Si2 0.622488 0.312013 0.707085
Si Si3 0.934431 0.308374 0.819581
Si Si4 0.917794 0.220131 0.153591
Si Si5 0.530608 0.069723 0.063425
Si Si6 0.284069 0.993529 0.648910
Si Si7 0.106452 0.141102 0.937217
O O1 0.250000 0.250000 0.500000
O O2 0.118636 0.477470 0.511288
O O3 0.229237 0.287918 0.394965
O O4 0.123706 0.041351 0.486256
O O5 0.609779 0.551651 0.671658
O O6 0.564099 0.318680 0.782384
O O7 0.710456 0.365876 0.703026
O O8 0.617384 0.057045 0.672823
O O9 0.968042 0.285532 0.874776
O O10 0.000000 0.328592 0.750000
O O11 0.847661 0.422356 0.176879
O O12 0.992223 0.312557 0.093499
O O13 0.892053 0.978030 0.128890
O O14 0.475916 0.209769 0.031408
O O15 0.319607 0.813540 0.588866
#
# Coordination Sequence:
#
# PCOD8150183 Si02
#       7
#     8   8   8   8   8   8   8
#     4  11  25  47  71 105 146 193 253 312 379 444
#     4  12  27  44  75 106 157 189 250 313 376 441
#     4  12  26  46  71 109 146 196 248 313 375 445
#     4  10  24  44  71 105 142 194 242 303 376 450
#     4  11  24  45  73 103 146 196 253 306 374 453
#     4  10  26  44  69 108 142 194 246 304 378 452
#     4  10  24  45  70 103 144 190 252 302 378 447
#
# _framework density 26.208413
#
# number of rings (size 3 to 8) (size 9 to 14) (size 15 to 20)
#    0.000    1.143    1.429    2.571   12.000    6.857 
#    0.000    0.000    0.000    0.000    0.000    0.000 
#    0.000    0.000    0.000    0.000    0.000    0.000 
#
# Total GULP energy -346882.691091 kJ/mol
# GULP energy per Si atom -12388.667539 kJ/mol
# Density = 2.614876 g / cm^3
# Si number density = 26.208413 Si / 1000 Ang^3
#
#
#
# Elastic Constant Matrix: (Units=GPa)
#
#
# Indices 1 2 3 4 5 6 
#
# 1 100.0670 23.7554 4.6718 -0.0056 -3.3624 -0.0134
# 2 23.7554 107.9803 -1.1457 -0.0102 -3.6649 -0.0158
# 3 4.6718 -1.1457 85.2914 -0.0020 -0.6294 -0.0081
# 4 -0.0056 -0.0102 -0.0020 29.4141 -0.0025 3.1114
# 5 -3.3624 -3.6649 -0.6294 -0.0025 49.0451 -0.0052
# 6 -0.0134 -0.0158 -0.0081 3.1114 -0.0052 26.4973
#
#
#
# Elastic Compliance Matrix: (Units=1/GPa)
#
#
# Indices 1 2 3 4 5 6 
#
# 1 0.010590 -0.002318 -0.000607 0.000001 0.000545 0.000004
# 2 -0.002318 0.009793 0.000263 0.000003 0.000576 0.000005
# 3 -0.000607 0.000263 0.011762 0.000000 0.000129 0.000003
# 4 0.000001 0.000003 0.000000 0.034425 0.000002 -0.004042
# 5 0.000545 0.000576 0.000129 0.000002 0.020471 0.000005
# 6 0.000004 0.000005 0.000003 -0.004042 0.000005 0.038214
#
#
# Mechanical properties :
#
#
# Convention : Reuss Voigt Hill
#
# Bulk Modulus (GPa) = 37.28383 38.65573 37.96978
# Shear Modulus (GPa) = 35.83686 38.72845 37.28266
#
# Velocity S-wave (km/s) = 3.70182 3.84827 3.77576
# Velocity P-wave (km/s) = 5.70334 5.87596 5.79030
#
# Compressibility (1/GPa) = 0.02682128
#
# Stress axis : x y z
#
# Youngs Moduli (GPa) = 94.42700 102.11169 85.01770
#
# Poissons Ratio (x) = 0.23667 0.05162
# Poissons Ratio (y) = 0.21886 -0.02234
# Poissons Ratio (z) = 0.05733 -0.02683
#
# Static dielectric constant tensor:
#      x y z
#    x 4.720120 -0.000060 0.027660 
#    y -0.000060 4.988780 -0.000090 
#    z 0.027660 -0.000090 4.478450 
# 
# 
# High freq. dielectric constant tensor:
#      x y z
#    x 2.046520 0.000000 0.002410 
#    y 0.000000 2.058340 0.000000 
#    z 0.002410 0.000000 2.046530 
# 
# From -- ./inp_files/278905.got.cif
#   From: 2010.06.25/outbox.cif.g09.slc.cpg/sg15_140_cif.got.tgz:278905.got - 2010.06.28 07:06:18.
