data_PCOD8150213
_publ_section_title
;
Structure prediction by ZEFSAII (Michael W. Deem and Ramdas Pophale) SiO2 
 PCOD8150213
Probable space group: C 2/C
;
_chemical_formula_sum "Si O2"
_cell_formula_units_Z 36
_cell_length_a 14.244591
_cell_length_b 18.586534
_cell_length_c 9.376478
_cell_angle_alpha 90.000000
_cell_angle_beta 139.044029
_cell_angle_gamma 90.000000
_cell_volume 1627.222104
_symmetry_space_group_name_H-M "C 2/C"
_symmetry_group_IT_number 15
_symmetry_cell_setting 'monoclinic'
loop_
_space_group_symop_operation_xyz
x,y,z
-x,y,1/2-z
-x,-y,-z
x,-y,1/2+z
1/2+x,1/2+y,z
1/2-x,1/2+y,1/2-z
1/2-x,1/2-y,-z
1/2+x,1/2-y,1/2+z
loop_
_atom_site_type_symbol
_atom_site_label
_atom_site_fract_x
_atom_site_fract_y
_atom_site_fract_z
Si Si1 0.500000 0.694321 0.750000
Si Si2 0.708491 0.417864 0.620680
Si Si3 0.657042 0.449990 0.872164
Si Si4 0.971002 0.671481 0.369278
Si Si5 0.649192 0.184293 0.838455
O O1 0.395299 0.646295 0.538671
O O2 0.584543 0.747352 0.735265
O O3 0.651250 0.458631 0.694721
O O4 0.715110 0.475112 0.500998
O O5 0.859653 0.378951 0.825832
O O6 0.500000 0.430759 0.750000
O O7 0.768626 0.388627 0.036619
O O8 0.000000 0.631848 0.250000
O O9 0.113191 0.682201 0.628416
O O10 0.500000 0.190801 0.750000
O O11 0.750000 0.250000 0.000000
#
# Coordination Sequence:
#
# PCOD8150213 Si02
#       5
#     4   8   8   8   8
#     4  10  24  44  76 102 150 190 254 298 380 432
#     4  12  25  48  73 110 149 196 256 302 375 447
#     4  12  28  47  75 108 153 199 249 306 375 445
#     4  10  26  44  75 107 141 197 245 317 367 440
#     4  12  26  49  76 108 150 193 251 310 376 444
#
# _framework density 22.123591999999999
#
# number of rings (size 3 to 8) (size 9 to 14) (size 15 to 20)
#    0.667    0.000    3.333    3.333    3.111    1.778 
#    0.000    0.000    0.000    0.000    0.000    0.000 
#    0.000    0.000    0.000    0.000    0.000    0.000 
#
# Total GULP energy -223097.150413 kJ/mol
# GULP energy per Si atom -12394.286134 kJ/mol
# Density = 2.207324 g / cm^3
# Si number density = 22.123592 Si / 1000 Ang^3
#
#
#
# Elastic Constant Matrix: (Units=GPa)
#
#
# Indices 1 2 3 4 5 6 
#
# 1 106.6640 62.4774 59.7403 0.0000 0.1087 0.0000
# 2 62.4774 132.7527 34.8555 0.0000 11.4427 0.0000
# 3 59.7403 34.8555 127.3936 0.0000 0.0618 0.0000
# 4 0.0000 0.0000 0.0000 114.5462 0.0000 -3.8352
# 5 0.1087 11.4427 0.0618 0.0000 41.9425 0.0000
# 6 0.0000 0.0000 0.0000 -3.8352 0.0000 37.3080
#
#
#
# Elastic Compliance Matrix: (Units=1/GPa)
#
#
# Indices 1 2 3 4 5 6 
#
# 1 0.016408 -0.006299 -0.005972 0.000000 0.001685 0.000000
# 2 -0.006299 0.010745 0.000016 0.000000 -0.002915 0.000000
# 3 -0.005972 0.000016 0.010646 0.000000 -0.000004 0.000000
# 4 0.000000 0.000000 0.000000 0.008760 0.000000 0.000901
# 5 0.001685 -0.002915 -0.000004 0.000000 0.024633 0.000000
# 6 0.000000 0.000000 0.000000 0.000901 0.000000 0.026897
#
#
# Mechanical properties :
#
#
# Convention : Reuss Voigt Hill
#
# Bulk Modulus (GPa) = 75.25805 75.66183 75.45994
# Shear Modulus (GPa) = 39.36140 52.74180 46.05160
#
# Velocity S-wave (km/s) = 4.22258 4.88788 4.56736
# Velocity P-wave (km/s) = 7.60688 8.13198 7.87380
#
# Compressibility (1/GPa) = 0.01328761
#
# Stress axis : x y z
#
# Youngs Moduli (GPa) = 60.94621 93.06985 93.93404
#
# Poissons Ratio (x) = 0.58628 0.56094
# Poissons Ratio (y) = 0.38392 -0.00147
# Poissons Ratio (z) = 0.36395 -0.00146
#
# Static dielectric constant tensor:
#      x y z
#    x 4.315390 0.000000 0.079090 
#    y 0.000000 4.169090 0.000000 
#    z 0.079090 0.000000 4.563730 
# 
# 
# High freq. dielectric constant tensor:
#      x y z
#    x 1.860270 0.000000 -0.012720 
#    y 0.000000 1.877550 0.000000 
#    z -0.012720 0.000000 1.892620 
# 
# From -- ./inp_files/41322.got.cif
#   From: 2010.06.25/outbox.cif.g09.slc.cpg/sg15_21_cif.got.tgz:41322.got - 2010.06.28 07:06:18.
