data_PCOD8150094
_publ_section_title
;
Structure prediction by ZEFSAII (Michael W. Deem and Ramdas Pophale) SiO2 
 PCOD8150094
Probable space group: C 2/C
;
_chemical_formula_sum "Si O2"
_cell_formula_units_Z 36
_cell_length_a 18.900382
_cell_length_b 6.949599
_cell_length_c 20.648408
_cell_angle_alpha 90.000000
_cell_angle_beta 147.724301
_cell_angle_gamma 90.000000
_cell_volume 1448.281937
_symmetry_space_group_name_H-M "C 2/C"
_symmetry_group_IT_number 15
_symmetry_cell_setting 'monoclinic'
loop_
_space_group_symop_operation_xyz
x,y,z
-x,y,1/2-z
-x,-y,-z
x,-y,1/2+z
1/2+x,1/2+y,z
1/2-x,1/2+y,1/2-z
1/2-x,1/2-y,-z
1/2+x,1/2-y,1/2+z
loop_
_atom_site_type_symbol
_atom_site_label
_atom_site_fract_x
_atom_site_fract_y
_atom_site_fract_z
Si Si1 0.364124 0.341642 0.798923
Si Si2 0.500000 0.689426 0.750000
Si Si3 0.111768 0.448640 0.289412
Si Si4 0.887655 0.926298 0.036239
Si Si5 0.133904 0.396504 0.079528
O O1 0.406638 0.148080 0.794232
O O2 0.487978 0.481344 0.903864
O O3 0.248516 0.443165 0.668250
O O4 0.320578 0.275062 0.836461
O O5 0.592440 0.569086 0.870078
O O6 0.412992 0.820567 0.732052
O O7 0.262888 0.431855 0.430506
O O8 0.000000 0.353251 0.250000
O O9 0.874387 0.707936 0.997083
O O10 0.000000 0.500000 0.000000
#
# Coordination Sequence:
#
# PCOD8150094 Si02
#       5
#     8   4   8   8   8
#     4  12  25  45  73 104 138 183 233 287 358 411
#     4  10  24  44  66 104 140 184 228 276 348 408
#     4  10  25  44  68 102 143 178 233 277 350 411
#     4  12  24  46  71 103 142 184 231 290 348 414
#     4  12  25  45  72 103 141 181 236 291 348 416
#
# _framework density 24.857037999999999
#
# number of rings (size 3 to 8) (size 9 to 14) (size 15 to 20)
#    0.667    0.000    0.000    8.000    1.556    0.889 
#    0.000    0.000    0.000    0.000    0.000    0.000 
#    0.000    0.000    0.000    0.000    0.000    0.000 
#
# Total GULP energy -223128.090728 kJ/mol
# GULP energy per Si atom -12396.005040 kJ/mol
# Density = 2.480046 g / cm^3
# Si number density = 24.857038 Si / 1000 Ang^3
#
#
#
# Elastic Constant Matrix: (Units=GPa)
#
#
# Indices 1 2 3 4 5 6 
#
# 1 77.4222 17.6626 37.9431 0.0000 3.8001 0.0000
# 2 17.6626 70.3614 20.8251 0.0000 -2.0987 0.0002
# 3 37.9431 20.8251 115.1265 0.0000 8.4874 0.0000
# 4 0.0000 0.0000 0.0000 54.3973 0.0000 -7.8452
# 5 3.8001 -2.0987 8.4874 0.0000 59.0258 0.0000
# 6 0.0000 0.0002 0.0000 -7.8452 0.0000 35.6946
#
#
#
# Elastic Compliance Matrix: (Units=1/GPa)
#
#
# Indices 1 2 3 4 5 6 
#
# 1 0.015842 -0.002593 -0.004720 0.000000 -0.000433 0.000000
# 2 -0.002593 0.015492 -0.002022 0.000000 0.001009 0.000000
# 3 -0.004720 -0.002022 0.010704 0.000000 -0.001307 0.000000
# 4 0.000000 0.000000 0.000000 0.018985 0.000000 0.004173
# 5 -0.000433 0.001009 -0.001307 0.000000 0.017193 0.000000
# 6 0.000000 0.000000 0.000000 0.004173 0.000000 0.028933
#
#
# Mechanical properties :
#
#
# Convention : Reuss Voigt Hill
#
# Bulk Modulus (GPa) = 42.79410 46.19685 44.49547
# Shear Modulus (GPa) = 37.42275 42.25549 39.83912
#
# Velocity S-wave (km/s) = 3.88431 4.12751 4.00775
# Velocity P-wave (km/s) = 6.11315 6.42965 6.27340
#
# Compressibility (1/GPa) = 0.02336771
#
# Stress axis : x y z
#
# Youngs Moduli (GPa) = 63.12227 64.55047 93.42331
#
# Poissons Ratio (x) = 0.16736 0.44099
# Poissons Ratio (y) = 0.16365 0.18892
# Poissons Ratio (z) = 0.29796 0.13053
#
# Static dielectric constant tensor:
#      x y z
#    x 4.266080 0.000000 0.121600 
#    y 0.000000 4.273330 0.000000 
#    z 0.121600 0.000000 4.530890 
# 
# 
# High freq. dielectric constant tensor:
#      x y z
#    x 1.985120 0.000000 0.008110 
#    y 0.000000 1.980690 0.000000 
#    z 0.008110 0.000000 2.000590 
# 
# From -- ./inp_files/252076.got.cif
#   From: 2010.06.25/outbox.cif.g09.slc.cpg/sg15_127_cif.got.tgz:252076.got - 2010.06.28 07:06:18.
