data_PCOD8150915
_publ_section_title
;
Structure prediction by ZEFSAII (Michael W. Deem and Ramdas Pophale) SiO2 
 PCOD8150915
Probable space group: C 2/C
;
_chemical_formula_sum "Si O2"
_cell_formula_units_Z 60
_cell_length_a 5.021796
_cell_length_b 15.692747
_cell_length_c 31.728592
_cell_angle_alpha 90.000000
_cell_angle_beta 69.090571
_cell_angle_gamma 90.000000
_cell_volume 2335.734545
_symmetry_space_group_name_H-M "C 2/C"
_symmetry_group_IT_number 15
_symmetry_cell_setting 'monoclinic'
loop_
_space_group_symop_operation_xyz
x,y,z
-x,y,1/2-z
-x,-y,-z
x,-y,1/2+z
1/2+x,1/2+y,z
1/2-x,1/2+y,1/2-z
1/2-x,1/2-y,-z
1/2+x,1/2-y,1/2+z
loop_
_atom_site_type_symbol
_atom_site_label
_atom_site_fract_x
_atom_site_fract_y
_atom_site_fract_z
Si Si1 0.987760 0.012223 0.921996
Si Si2 0.500000 0.274233 0.750000
Si Si3 0.173028 0.703471 0.820038
Si Si4 0.414406 0.332651 0.962130
Si Si5 0.168190 0.244892 0.900574
Si Si6 0.398692 0.033015 0.636559
Si Si7 0.555494 0.147888 0.335477
Si Si8 0.273935 0.156327 0.521401
O O1 0.040406 0.916301 0.934069
O O2 0.810691 0.006297 0.888982
O O3 0.817370 0.057410 0.970172
O O4 0.292621 0.060670 0.899769
O O5 0.697914 0.212565 0.767744
O O6 0.668189 0.334372 0.708510
O O7 0.309041 0.788796 0.832635
O O8 0.840186 0.700057 0.852846
O O9 0.272647 0.609611 0.829545
O O10 0.372228 0.260103 0.929344
O O11 0.649569 0.301482 0.984149
O O12 0.115292 0.341778 0.003675
O O13 0.077048 0.334747 0.884612
O O14 0.879618 0.193517 0.927805
O O15 0.480836 0.954684 0.663977
#
# Coordination Sequence:
#
# PCOD8150915 Si02
#       8
#     8   4   8   8   8   8   8   8
#     4  12  24  47  67 106 146 194 260 316 369 439
#     4  10  26  52  72 122 142 180 242 296 382 458
#     4  11  25  49  80 108 151 195 239 313 376 461
#     4  12  25  41  65 100 145 198 255 313 372 427
#     4  11  24  43  68 100 146 192 256 303 372 443
#     4  12  26  47  81 110 146 198 258 298 379 463
#     4  11  25  49  80 108 151 195 239 313 376 461
#     4  12  25  41  65 100 145 198 255 313 372 427
#
# _framework density 25.687851999999999
#
# number of rings (size 3 to 8) (size 9 to 14) (size 15 to 20)
#    0.000    0.533    2.667    5.200    7.467    0.000 
#    4.800    0.000    0.000    0.000    0.000    0.000 
#    0.000    0.000    0.000    0.000    0.000    0.000 
#
# Total GULP energy -371784.902278 kJ/mol
# GULP energy per Si atom -12392.830076 kJ/mol
# Density = 2.562939 g / cm^3
# Si number density = 25.687852 Si / 1000 Ang^3
#
#
#
# Elastic Constant Matrix: (Units=GPa)
#
#
# Indices 1 2 3 4 5 6 
#
# 1 113.3370 11.9614 22.3332 0.0000 13.7074 0.0000
# 2 11.9614 92.7164 12.8494 0.0000 18.5939 0.0000
# 3 22.3332 12.8494 86.2814 0.0000 26.4391 0.0000
# 4 0.0000 0.0000 0.0000 33.8553 0.0000 -3.6313
# 5 13.7074 18.5939 26.4391 0.0000 35.2183 0.0000
# 6 0.0000 0.0000 0.0000 -3.6313 0.0000 40.4370
#
#
#
# Elastic Compliance Matrix: (Units=1/GPa)
#
#
# Indices 1 2 3 4 5 6 
#
# 1 0.009476 -0.000563 -0.001727 0.000000 -0.002094 0.000000
# 2 -0.000563 0.012099 0.000304 0.000000 -0.006397 0.000000
# 3 -0.001727 0.000304 0.015371 0.000000 -0.011028 0.000000
# 4 0.000000 0.000000 0.000000 0.029825 0.000000 0.002678
# 5 -0.002094 -0.006397 -0.011028 0.000000 0.040865 0.000000
# 6 0.000000 0.000000 0.000000 0.002678 0.000000 0.024970
#
#
# Mechanical properties :
#
#
# Convention : Reuss Voigt Hill
#
# Bulk Modulus (GPa) = 30.32720 42.95807 36.64264
# Shear Modulus (GPa) = 33.88210 38.24817 36.06513
#
# Velocity S-wave (km/s) = 3.63573 3.86289 3.75103
# Velocity P-wave (km/s) = 5.42738 6.05436 5.74942
#
# Compressibility (1/GPa) = 0.03297370
#
# Stress axis : x y z
#
# Youngs Moduli (GPa) = 105.52617 82.65168 65.05788
#
# Poissons Ratio (x) = 0.04655 0.11237
# Poissons Ratio (y) = 0.05943 -0.01979
# Poissons Ratio (z) = 0.18227 -0.02514
#
# Static dielectric constant tensor:
#      x y z
#    x 4.594350 0.000000 -0.006050 
#    y 0.000000 5.057670 0.000000 
#    z -0.006050 0.000000 4.711970 
# 
# 
# High freq. dielectric constant tensor:
#      x y z
#    x 2.030660 0.000000 -0.005790 
#    y 0.000000 2.043140 0.000000 
#    z -0.005790 0.000000 2.022370 
# 
# From -- ./inp_files/305777.got.cif
#   From: 2010.06.25/outbox.cif.g09.slc.cpg/sg15_153_cif.got.tgz:305777.got - 2010.06.28 07:06:18.
