data_PCOD8150016
_publ_section_title
;
Structure prediction by ZEFSAII (Michael W. Deem and Ramdas Pophale) SiO2 
 PCOD8150016
Probable space group: C 2/C
;
_chemical_formula_sum "Si O2"
_cell_formula_units_Z 56
_cell_length_a 13.875944
_cell_length_b 24.549993
_cell_length_c 13.094606
_cell_angle_alpha 90.000000
_cell_angle_beta 34.211119
_cell_angle_gamma 90.000000
_cell_volume 2508.020478
_symmetry_space_group_name_H-M "C 2/C"
_symmetry_group_IT_number 15
_symmetry_cell_setting 'monoclinic'
loop_
_space_group_symop_operation_xyz
x,y,z
-x,y,1/2-z
-x,-y,-z
x,-y,1/2+z
1/2+x,1/2+y,z
1/2-x,1/2+y,1/2-z
1/2-x,1/2-y,-z
1/2+x,1/2-y,1/2+z
loop_
_atom_site_type_symbol
_atom_site_label
_atom_site_fract_x
_atom_site_fract_y
_atom_site_fract_z
Si Si1 0.239387 0.303037 0.745886
Si Si2 0.500000 0.432533 0.250000
Si Si3 0.740644 0.077106 0.696552
Si Si4 0.071656 0.893053 0.800195
Si Si5 0.804458 0.352975 0.931247
Si Si6 0.000000 0.531668 0.750000
Si Si7 0.240997 0.498563 0.870652
Si Si8 0.648748 0.185627 0.890204
O O1 0.376356 0.336454 0.692654
O O2 0.250936 0.316841 0.616197
O O3 0.274082 0.239163 0.729609
O O4 0.052990 0.316125 0.951993
O O5 0.340755 0.399129 0.435363
O O6 0.576780 0.471781 0.269271
O O7 0.621221 0.073862 0.702899
O O8 0.727479 0.133178 0.768343
O O9 0.934707 0.074173 0.488130
O O10 0.677552 0.025985 0.821339
O O11 0.235514 0.933365 0.657398
O O12 0.000000 0.880643 0.750000
O O13 0.000000 0.376547 0.750000
O O14 0.798658 0.315248 0.036762
O O15 0.106638 0.491763 0.580811
#
# Coordination Sequence:
#
# PCOD8150016 Si02
#       8
#     8   4   8   8   8   4   8   8
#     4  11  25  44  72 101 143 185 236 298 356 421
#     4  12  22  40  70 100 144 182 234 280 358 420
#     4  12  25  46  72  99 146 183 237 293 356 424
#     4  12  25  49  70 103 140 186 245 290 354 421
#     4  10  24  43  70 105 148 183 234 295 358 433
#     4  12  26  44  70 102 148 184 236 292 350 428
#     4  12  25  45  71 105 140 193 230 290 354 427
#     4  11  24  45  70 107 137 185 237 289 363 423
#
# _framework density 22.328365999999999
#
# number of rings (size 3 to 8) (size 9 to 14) (size 15 to 20)
#    0.000    0.571    3.571    3.857    3.000    1.143 
#    1.286    1.429    0.000    0.000    0.000    0.000 
#    0.000    0.000    0.000    0.000    0.000    0.000 
#
# Total GULP energy -347232.222374 kJ/mol
# GULP energy per Si atom -12401.150799 kJ/mol
# Density = 2.227755 g / cm^3
# Si number density = 22.328366 Si / 1000 Ang^3
#
#
#
# Elastic Constant Matrix: (Units=GPa)
#
#
# Indices 1 2 3 4 5 6 
#
# 1 115.8484 47.4295 32.7739 -0.0008 11.6073 -0.0005
# 2 47.4295 105.2805 27.1736 0.0006 2.8449 -0.0020
# 3 32.7739 27.1736 111.5400 -0.0031 7.4239 0.0018
# 4 -0.0008 0.0006 -0.0031 33.6769 0.0016 -7.5581
# 5 11.6073 2.8449 7.4239 0.0016 29.5712 -0.0009
# 6 -0.0005 -0.0020 0.0018 -7.5581 -0.0009 27.9929
#
#
#
# Elastic Compliance Matrix: (Units=1/GPa)
#
#
# Indices 1 2 3 4 5 6 
#
# 1 0.011408 -0.004524 -0.002015 0.000000 -0.003537 0.000000
# 2 -0.004524 0.011934 -0.001647 0.000000 0.001041 0.000001
# 3 -0.002015 -0.001647 0.010064 0.000001 -0.001577 -0.000001
# 4 0.000000 0.000000 0.000001 0.031609 -0.000002 0.008534
# 5 -0.003537 0.001041 -0.001577 -0.000002 0.035501 0.000001
# 6 0.000000 0.000001 -0.000001 0.008534 0.000001 0.038028
#
#
# Mechanical properties :
#
#
# Convention : Reuss Voigt Hill
#
# Bulk Modulus (GPa) = 58.70657 60.82479 59.76568
# Shear Modulus (GPa) = 31.13456 33.26767 32.20111
#
# Velocity S-wave (km/s) = 3.73821 3.86415 3.80170
# Velocity P-wave (km/s) = 6.70684 6.87088 6.78936
#
# Compressibility (1/GPa) = 0.01703387
#
# Stress axis : x y z
#
# Youngs Moduli (GPa) = 87.65411 83.79722 99.36768
#
# Poissons Ratio (x) = 0.37910 0.20019
# Poissons Ratio (y) = 0.39655 0.16369
# Poissons Ratio (z) = 0.17659 0.13804
#
# Static dielectric constant tensor:
#      x y z
#    x 4.105280 -0.000010 -0.012300 
#    y -0.000010 3.836320 0.000010 
#    z -0.012300 0.000010 4.197850 
# 
# 
# High freq. dielectric constant tensor:
#      x y z
#    x 1.883350 0.000000 -0.005280 
#    y 0.000000 1.869670 0.000000 
#    z -0.005280 0.000000 1.894110 
# 
# From -- ./inp_files/156930.got.cif
#   From: 2010.06.25/outbox.cif.g09.slc.cpg/sg15_79_cif.got.tgz:156930.got - 2010.06.28 07:06:18.
