data_PCOD8150436
_publ_section_title
;
Structure prediction by ZEFSAII (Michael W. Deem and Ramdas Pophale) SiO2 
 PCOD8150436
Probable space group: C 2/C
;
_chemical_formula_sum "Si O2"
_cell_formula_units_Z 64
_cell_length_a 18.731038
_cell_length_b 26.828939
_cell_length_c 8.612085
_cell_angle_alpha 90.000000
_cell_angle_beta 41.914881
_cell_angle_gamma 90.000000
_cell_volume 2891.125320
_symmetry_space_group_name_H-M "C 2/C"
_symmetry_group_IT_number 15
_symmetry_cell_setting 'monoclinic'
loop_
_space_group_symop_operation_xyz
x,y,z
-x,y,1/2-z
-x,-y,-z
x,-y,1/2+z
1/2+x,1/2+y,z
1/2-x,1/2+y,1/2-z
1/2-x,1/2-y,-z
1/2+x,1/2-y,1/2+z
loop_
_atom_site_type_symbol
_atom_site_label
_atom_site_fract_x
_atom_site_fract_y
_atom_site_fract_z
Si Si1 0.230393 0.709023 0.402142
Si Si2 0.302656 0.553769 0.280948
Si Si3 0.448939 0.184693 0.048314
Si Si4 0.650055 0.879260 0.192774
Si Si5 0.498153 0.384987 0.935263
Si Si6 0.809482 0.946485 0.401356
Si Si7 0.880293 0.388919 0.910383
Si Si8 0.957314 0.785742 0.481681
O O1 0.250000 0.750000 0.500000
O O2 0.123039 0.709172 0.470906
O O3 0.236518 0.657733 0.483242
O O4 0.333858 0.711643 0.129687
O O5 0.186369 0.569380 0.546444
O O6 0.394735 0.592116 0.171787
O O7 0.336979 0.500436 0.290968
O O8 0.303368 0.552008 0.095439
O O9 0.379516 0.160043 0.299836
O O10 0.518422 0.229523 0.004082
O O11 0.528755 0.140939 0.854985
O O12 0.673397 0.877860 0.337615
O O13 0.500000 0.396161 0.750000
O O14 0.394764 0.407744 0.191205
O O15 0.501653 0.325213 0.957055
O O16 0.688416 0.932499 0.552758
O O17 0.000000 0.408585 0.750000
O O18 0.000000 0.802209 0.250000
#
# Coordination Sequence:
#
# PCOD8150436 Si02
#       8
#     8   8   8   8   8   8   8   8
#     4  12  26  42  68 100 141 187 240 286 348 420
#     4  12  25  47  74 109 138 182 234 285 357 421
#     4  11  26  46  71  99 143 190 231 293 353 407
#     4  11  22  44  70  98 141 179 232 288 347 416
#     4  12  27  45  71 104 145 187 232 288 350 418
#     4  12  26  47  75 103 142 183 229 294 350 419
#     4  10  24  47  71 100 138 184 237 289 353 413
#     4  12  27  46  66 104 144 184 239 288 345 423
#
# _framework density 22.136710000000001
#
# number of rings (size 3 to 8) (size 9 to 14) (size 15 to 20)
#    0.000    0.500    2.500    6.000    3.500    1.500 
#    0.000    6.875    0.000    0.000    0.000    0.000 
#    0.000    0.000    0.000    0.000    0.000    0.000 
#
# Total GULP energy -396461.008543 kJ/mol
# GULP energy per Si atom -12389.406517 kJ/mol
# Density = 2.208633 g / cm^3
# Si number density = 22.136710 Si / 1000 Ang^3
#
#
#
# Elastic Constant Matrix: (Units=GPa)
#
#
# Indices 1 2 3 4 5 6 
#
# 1 138.9617 24.2379 60.8673 0.0000 15.2398 0.0000
# 2 24.2379 80.4989 32.7093 0.0000 -3.4166 0.0000
# 3 60.8673 32.7093 129.3011 0.0000 8.5904 0.0000
# 4 0.0000 0.0000 0.0000 39.5344 0.0000 2.1808
# 5 15.2398 -3.4166 8.5904 0.0000 41.4083 0.0000
# 6 0.0000 0.0000 0.0000 2.1808 0.0000 30.0407
#
#
#
# Elastic Compliance Matrix: (Units=1/GPa)
#
#
# Indices 1 2 3 4 5 6 
#
# 1 0.009458 -0.001373 -0.003920 0.000000 -0.002781 0.000000
# 2 -0.001373 0.014193 -0.003098 0.000000 0.002319 0.000000
# 3 -0.003920 -0.003098 0.010428 0.000000 -0.000976 0.000000
# 4 0.000000 0.000000 0.000000 0.025396 0.000000 -0.001844
# 5 -0.002781 0.002319 -0.000976 0.000000 0.025567 0.000000
# 6 0.000000 0.000000 0.000000 -0.001844 0.000000 0.033422
#
#
# Mechanical properties :
#
#
# Convention : Reuss Voigt Hill
#
# Bulk Modulus (GPa) = 57.81559 64.93231 61.37395
# Shear Modulus (GPa) = 35.45800 37.59316 36.52558
#
# Velocity S-wave (km/s) = 4.00656 4.12543 4.06643
# Velocity P-wave (km/s) = 6.89765 7.21722 7.05924
#
# Compressibility (1/GPa) = 0.01729637
#
# Stress axis : x y z
#
# Youngs Moduli (GPa) = 105.73390 70.45606 95.89697
#
# Poissons Ratio (x) = 0.09673 0.37592
# Poissons Ratio (y) = 0.14516 0.29712
# Poissons Ratio (z) = 0.41449 0.21829
#
# Static dielectric constant tensor:
#      x y z
#    x 3.706810 0.000000 0.287370 
#    y 0.000000 4.032700 0.000000 
#    z 0.287370 0.000000 4.753160 
# 
# 
# High freq. dielectric constant tensor:
#      x y z
#    x 1.876130 0.000000 0.008430 
#    y 0.000000 1.866770 0.000000 
#    z 0.008430 0.000000 1.896150 
# 
# From -- ./inp_files/52793.got.cif
#   From: 2010.06.25/outbox.cif.g09.slc.cpg/sg15_27_cif.got.tgz:52793.got - 2010.06.28 07:06:18.
