data_PCOD8150197
_publ_section_title
;
Structure prediction by ZEFSAII (Michael W. Deem and Ramdas Pophale) SiO2 
 PCOD8150197
Probable space group: C 2/C
;
_chemical_formula_sum "Si O2"
_cell_formula_units_Z 36
_cell_length_a 14.046078
_cell_length_b 4.851613
_cell_length_c 19.985449
_cell_angle_alpha 90.000000
_cell_angle_beta 79.815693
_cell_angle_gamma 90.000000
_cell_volume 1340.472612
_symmetry_space_group_name_H-M "C 2/C"
_symmetry_group_IT_number 15
_symmetry_cell_setting 'monoclinic'
loop_
_space_group_symop_operation_xyz
x,y,z
-x,y,1/2-z
-x,-y,-z
x,-y,1/2+z
1/2+x,1/2+y,z
1/2-x,1/2+y,1/2-z
1/2-x,1/2-y,-z
1/2+x,1/2-y,1/2+z
loop_
_atom_site_type_symbol
_atom_site_label
_atom_site_fract_x
_atom_site_fract_y
_atom_site_fract_z
Si Si1 0.500000 0.222057 0.250000
Si Si2 0.262741 0.902107 0.927757
Si Si3 0.944095 0.885688 0.069839
Si Si4 0.534212 0.118724 0.617138
Si Si5 0.706617 0.673587 0.718845
O O1 0.469369 0.009201 0.310401
O O2 0.404735 0.409958 0.250284
O O3 0.170351 0.089041 0.922766
O O4 0.354644 0.108027 0.922705
O O5 0.276263 0.691478 0.863464
O O6 0.250000 0.750000 0.000000
O O7 0.991191 0.069820 0.124339
O O8 0.966291 0.564245 0.076625
O O9 0.000000 0.000000 0.000000
O O10 0.778188 0.459951 0.744160
#
# Coordination Sequence:
#
# PCOD8150197 Si02
#       5
#     4   8   8   8   8
#     4  10  24  44  72  96 134 174 228 274 330 404
#     4  11  25  44  71 104 134 177 229 280 333 400
#     4  12  25  44  67  96 138 173 217 273 340 392
#     4  11  26  45  67 101 132 178 222 276 336 398
#     4  11  25  47  69  99 137 180 223 277 338 403
#
# _framework density 26.856199
#
# number of rings (size 3 to 8) (size 9 to 14) (size 15 to 20)
#    0.000    0.889    2.222    3.333    0.000   11.556 
#    0.000    0.000    0.000    0.000    0.000    0.000 
#    0.000    0.000    0.000    0.000    0.000    0.000 
#
# Total GULP energy -223205.517245 kJ/mol
# GULP energy per Si atom -12400.306514 kJ/mol
# Density = 2.679507 g / cm^3
# Si number density = 26.856199 Si / 1000 Ang^3
#
#
#
# Elastic Constant Matrix: (Units=GPa)
#
#
# Indices 1 2 3 4 5 6 
#
# 1 227.1061 10.8543 31.9583 0.0000 -19.5569 0.0000
# 2 10.8543 56.2922 8.2550 0.0000 4.2087 0.0000
# 3 31.9583 8.2550 127.4904 0.0000 -7.3628 0.0000
# 4 0.0000 0.0000 0.0000 17.3288 0.0000 -4.8534
# 5 -19.5569 4.2087 -7.3628 0.0000 42.8321 0.0000
# 6 0.0000 0.0000 0.0000 -4.8534 0.0000 16.8622
#
#
#
# Elastic Compliance Matrix: (Units=1/GPa)
#
#
# Indices 1 2 3 4 5 6 
#
# 1 0.004771 -0.000928 -0.001015 0.000000 0.002095 0.000000
# 2 -0.000928 0.018283 -0.001090 0.000000 -0.002408 0.000000
# 3 -0.001015 -0.001090 0.008230 0.000000 0.001058 0.000000
# 4 0.000000 0.000000 0.000000 0.062767 0.000000 0.018066
# 5 0.002095 -0.002408 0.001058 0.000000 0.024722 0.000000
# 6 0.000000 0.000000 0.000000 0.018066 0.000000 0.064504
#
#
# Mechanical properties :
#
#
# Convention : Reuss Voigt Hill
#
# Bulk Modulus (GPa) = 39.65405 57.00263 48.32834
# Shear Modulus (GPa) = 25.28450 39.39269 32.33860
#
# Velocity S-wave (km/s) = 3.07168 3.83404 3.47384
# Velocity P-wave (km/s) = 5.23237 6.39304 5.84160
#
# Compressibility (1/GPa) = 0.02521811
#
# Stress axis : x y z
#
# Youngs Moduli (GPa) = 209.60911 54.69492 121.50891
#
# Poissons Ratio (x) = 0.05074 0.12331
# Poissons Ratio (y) = 0.19446 0.13248
# Poissons Ratio (z) = 0.21272 0.05964
#
# Static dielectric constant tensor:
#      x y z
#    x 6.106700 0.000000 -0.137690 
#    y 0.000000 3.370240 0.000000 
#    z -0.137690 0.000000 5.395270 
# 
# 
# High freq. dielectric constant tensor:
#      x y z
#    x 2.102750 0.000000 -0.002440 
#    y 0.000000 2.058550 0.000000 
#    z -0.002440 0.000000 2.104050 
# 
# From -- ./inp_files/241444.got.cif
#   From: 2010.06.25/outbox.cif.g09.slc.cpg/sg15_121_cif.got.tgz:241444.got - 2010.06.28 07:06:18.
