data_PCOD8150235
_publ_section_title
;
Structure prediction by ZEFSAII (Michael W. Deem and Ramdas Pophale) SiO2 
 PCOD8150235
Probable space group: C 2/C
;
_chemical_formula_sum "Si O2"
_cell_formula_units_Z 60
_cell_length_a 11.484880
_cell_length_b 9.046637
_cell_length_c 28.863756
_cell_angle_alpha 90.000000
_cell_angle_beta 73.946464
_cell_angle_gamma 90.000000
_cell_volume 2881.983848
_symmetry_space_group_name_H-M "C 2/C"
_symmetry_group_IT_number 15
_symmetry_cell_setting 'monoclinic'
loop_
_space_group_symop_operation_xyz
x,y,z
-x,y,1/2-z
-x,-y,-z
x,-y,1/2+z
1/2+x,1/2+y,z
1/2-x,1/2+y,1/2-z
1/2-x,1/2-y,-z
1/2+x,1/2-y,1/2+z
loop_
_atom_site_type_symbol
_atom_site_label
_atom_site_fract_x
_atom_site_fract_y
_atom_site_fract_z
Si Si1 0.443927 0.088665 0.079334
Si Si2 0.156628 0.593668 0.984074
Si Si3 0.307712 0.381220 0.114776
Si Si4 0.373084 0.426039 0.524924
Si Si5 0.673400 0.605417 0.784985
Si Si6 0.890198 0.218171 0.231287
Si Si7 0.465360 0.051858 0.837142
Si Si8 0.500000 0.827390 0.750000
O O1 0.379803 0.247014 0.083642
O O2 0.344326 0.994202 0.063620
O O3 0.473660 0.039034 0.127846
O O4 0.563932 0.064433 0.035833
O O5 0.124471 0.753236 0.968559
O O6 0.286876 0.550334 0.990091
O O7 0.324886 0.519381 0.079467
O O8 0.374056 0.396136 0.157163
O O9 0.162203 0.370198 0.136455
O O10 0.500000 0.500000 0.500000
O O11 0.809432 0.668455 0.769831
O O12 0.681204 0.432663 0.771127
O O13 0.600359 0.713783 0.758721
O O14 0.000000 0.162665 0.250000
O O15 0.941579 0.313060 0.182559
O O16 0.450082 0.934426 0.796352
#
# Coordination Sequence:
#
# PCOD8150235 Si02
#       8
#     8   8   8   8   8   8   8   4
#     4  11  24  43  68  99 132 178 235 281 347 421
#     4  10  24  45  66  96 136 177 228 290 350 408
#     4  12  24  42  68  99 135 181 232 280 346 423
#     4  11  23  43  66  96 135 180 224 287 350 412
#     4  12  26  46  72 103 139 185 236 287 351 422
#     4  12  25  46  69 100 139 185 232 286 351 415
#     4  12  24  45  68 102 141 185 229 292 351 415
#     4  12  24  48  76  98 150 186 224 298 356 410
#
# _framework density 20.818992000000001
#
# number of rings (size 3 to 8) (size 9 to 14) (size 15 to 20)
#    0.000    0.533    6.667    1.600    1.867    1.600 
#    0.000    0.000    0.000    0.000    0.000    0.000 
#    0.000    0.000    0.000    0.000    0.000    0.000 
#
# Total GULP energy -371645.827735 kJ/mol
# GULP energy per Si atom -12388.194258 kJ/mol
# Density = 2.077161 g / cm^3
# Si number density = 20.818992 Si / 1000 Ang^3
#
#
#
# Elastic Constant Matrix: (Units=GPa)
#
#
# Indices 1 2 3 4 5 6 
#
# 1 124.8964 33.4236 50.6872 0.0000 20.8158 0.0000
# 2 33.4236 115.9511 39.8435 0.0000 10.9678 0.0000
# 3 50.6872 39.8435 115.9534 0.0000 25.6917 0.0000
# 4 0.0000 0.0000 0.0000 40.7909 0.0000 1.4703
# 5 20.8158 10.9678 25.6917 0.0000 40.4881 0.0000
# 6 0.0000 0.0000 0.0000 1.4703 0.0000 41.5463
#
#
#
# Elastic Compliance Matrix: (Units=1/GPa)
#
#
# Indices 1 2 3 4 5 6 
#
# 1 0.010228 -0.001544 -0.003337 0.000000 -0.002723 0.000000
# 2 -0.001544 0.010025 -0.002727 0.000000 -0.000191 0.000000
# 3 -0.003337 -0.002727 0.012190 0.000000 -0.005281 0.000000
# 4 0.000000 0.000000 0.000000 0.024547 0.000000 -0.000869
# 5 -0.002723 -0.000191 -0.005281 0.000000 0.029501 0.000000
# 6 0.000000 0.000000 0.000000 -0.000869 0.000000 0.024100
#
#
# Mechanical properties :
#
#
# Convention : Reuss Voigt Hill
#
# Bulk Modulus (GPa) = 58.05302 67.18993 62.62147
# Shear Modulus (GPa) = 38.00850 40.08819 39.04835
#
# Velocity S-wave (km/s) = 4.27742 4.39288 4.33553
# Velocity P-wave (km/s) = 7.23465 7.62058 7.43013
#
# Compressibility (1/GPa) = 0.01722563
#
# Stress axis : x y z
#
# Youngs Moduli (GPa) = 97.77157 99.75407 82.03328
#
# Poissons Ratio (x) = 0.15402 0.27376
# Poissons Ratio (y) = 0.15096 0.22373
# Poissons Ratio (z) = 0.32628 0.27206
#
# Static dielectric constant tensor:
#      x y z
#    x 3.894160 0.000000 0.125630 
#    y 0.000000 3.739620 0.000000 
#    z 0.125630 0.000000 3.726820 
# 
# 
# High freq. dielectric constant tensor:
#      x y z
#    x 1.823790 0.000000 0.007250 
#    y 0.000000 1.826550 0.000000 
#    z 0.007250 0.000000 1.821020 
# 
# From -- ./inp_files/310275.got.cif
#   From: 2010.06.25/outbox.cif.g09.slc.cpg/sg15_156_cif.got.tgz:310275.got - 2010.06.28 07:06:18.
