data_PCOD8150954
_publ_section_title
;
Structure prediction by ZEFSAII (Michael W. Deem and Ramdas Pophale) SiO2 
 PCOD8150954
Probable space group: C 2/C
;
_chemical_formula_sum "Si O2"
_cell_formula_units_Z 32
_cell_length_a 14.736338
_cell_length_b 19.259658
_cell_length_c 7.389340
_cell_angle_alpha 90.000000
_cell_angle_beta 145.089369
_cell_angle_gamma 90.000000
_cell_volume 1200.234353
_symmetry_space_group_name_H-M "C 2/C"
_symmetry_group_IT_number 15
_symmetry_cell_setting 'monoclinic'
loop_
_space_group_symop_operation_xyz
x,y,z
-x,y,1/2-z
-x,-y,-z
x,-y,1/2+z
1/2+x,1/2+y,z
1/2-x,1/2+y,1/2-z
1/2-x,1/2-y,-z
1/2+x,1/2-y,1/2+z
loop_
_atom_site_type_symbol
_atom_site_label
_atom_site_fract_x
_atom_site_fract_y
_atom_site_fract_z
Si Si1 0.316846 0.480175 0.198643
Si Si2 0.668520 0.100174 0.128231
Si Si3 0.374045 0.114403 0.883242
Si Si4 0.678088 0.738280 0.076982
O O1 0.500000 0.500000 0.500000
O O2 0.211240 0.550806 0.025281
O O3 0.274387 0.428293 0.967358
O O4 0.267453 0.441176 0.308687
O O5 0.479551 0.102143 0.870738
O O6 0.727965 0.176583 0.170017
O O7 0.500000 0.105217 0.250000
O O8 0.306665 0.192657 0.775411
O O9 0.500000 0.714680 0.750000
O O10 0.750000 0.750000 0.000000
#
# Coordination Sequence:
#
# PCOD8150954 Si02
#       4
#     8   8   8   8
#     4  11  21  34  53  81 114 145 185 224 276 328
#     4  11  22  36  56  84 114 147 179 229 279 329
#     4   9  19  34  52  80 110 143 180 230 270 318
#     4  11  17  32  55  81 109 135 191 234 270 309
#
# _framework density 26.661460000000002
#
# number of rings (size 3 to 8) (size 9 to 14) (size 15 to 20)
#    0.000    1.500    7.500    3.000    0.000    0.000 
#    0.000    0.000    0.000    1.500    0.000    7.000 
#    0.000    0.000    0.000    0.000    0.000    0.000 
#
# Total GULP energy -198420.582722 kJ/mol
# GULP energy per Si atom -12401.286420 kJ/mol
# Density = 2.660078 g / cm^3
# Si number density = 26.661460 Si / 1000 Ang^3
#
#
#
# Elastic Constant Matrix: (Units=GPa)
#
#
# Indices 1 2 3 4 5 6 
#
# 1 193.1542 42.6517 61.5760 0.0000 32.9204 0.0000
# 2 42.6517 201.6598 87.4645 0.0000 45.9797 0.0000
# 3 61.5760 87.4645 169.0230 0.0000 51.5439 0.0000
# 4 0.0000 0.0000 0.0000 54.6464 0.0000 17.6603
# 5 32.9204 45.9797 51.5439 0.0000 40.8497 0.0000
# 6 0.0000 0.0000 0.0000 17.6603 0.0000 46.5575
#
#
#
# Elastic Compliance Matrix: (Units=1/GPa)
#
#
# Indices 1 2 3 4 5 6 
#
# 1 0.006144 0.000003 -0.001185 0.000000 -0.003460 0.000000
# 2 0.000003 0.007064 -0.002001 0.000000 -0.005429 0.000000
# 3 -0.001185 -0.002001 0.010412 0.000000 -0.009930 0.000000
# 4 0.000000 0.000000 0.000000 0.020856 0.000000 -0.007911
# 5 -0.003460 -0.005429 -0.009930 0.000000 0.045909 0.000000
# 6 0.000000 0.000000 0.000000 -0.007911 0.000000 0.024480
#
#
# Mechanical properties :
#
#
# Convention : Reuss Voigt Hill
#
# Bulk Modulus (GPa) = 57.95625 105.24684 81.60154
# Shear Modulus (GPa) = 39.37605 53.22037 46.29821
#
# Velocity S-wave (km/s) = 3.84720 4.47268 4.17168
# Velocity P-wave (km/s) = 6.44357 8.13844 7.34009
#
# Compressibility (1/GPa) = 0.01725439
#
# Stress axis : x y z
#
# Youngs Moduli (GPa) = 162.76280 141.56651 96.04542
#
# Poissons Ratio (x) = -0.00047 0.11380
# Poissons Ratio (y) = -0.00055 0.19219
# Poissons Ratio (z) = 0.19285 0.28328
#
# Static dielectric constant tensor:
#      x y z
#    x 5.723540 0.000000 0.157770 
#    y 0.000000 6.079670 0.000000 
#    z 0.157770 0.000000 4.592440 
# 
# 
# High freq. dielectric constant tensor:
#      x y z
#    x 2.115660 0.000000 -0.001580 
#    y 0.000000 2.085170 0.000000 
#    z -0.001580 0.000000 2.080250 
# 
# From -- ./inp_files/28893.got.cif
#   From: 2010.06.25/outbox.cif.g09.slc.cpg/sg15_15_cif.got.tgz:28893.got - 2010.06.28 07:06:18.
