data_PCOD8150107
_publ_section_title
;
Structure prediction by ZEFSAII (Michael W. Deem and Ramdas Pophale) SiO2 
 PCOD8150107
Probable space group: C 2/C
;
_chemical_formula_sum "Si O2"
_cell_formula_units_Z 48
_cell_length_a 13.172255
_cell_length_b 5.680537
_cell_length_c 29.625600
_cell_angle_alpha 90.000000
_cell_angle_beta 112.990165
_cell_angle_gamma 90.000000
_cell_volume 2040.677595
_symmetry_space_group_name_H-M "C 2/C"
_symmetry_group_IT_number 15
_symmetry_cell_setting 'monoclinic'
loop_
_space_group_symop_operation_xyz
x,y,z
-x,y,1/2-z
-x,-y,-z
x,-y,1/2+z
1/2+x,1/2+y,z
1/2-x,1/2+y,1/2-z
1/2-x,1/2-y,-z
1/2+x,1/2-y,1/2+z
loop_
_atom_site_type_symbol
_atom_site_label
_atom_site_fract_x
_atom_site_fract_y
_atom_site_fract_z
Si Si1 0.013068 0.672930 0.064967
Si Si2 0.325447 0.904477 0.981009
Si Si3 0.619957 0.514646 0.895482
Si Si4 0.239393 0.099942 0.222040
Si Si5 0.934422 0.309298 0.697745
Si Si6 0.961351 0.646288 0.850882
O O1 0.973904 0.896307 0.086259
O O2 0.098655 0.747626 0.040465
O O3 0.074244 0.493176 0.110071
O O4 0.902529 0.569068 0.023734
O O5 0.241542 0.056429 0.936071
O O6 0.250000 0.750000 0.000000
O O7 0.616644 0.628846 0.845992
O O8 0.584924 0.243736 0.882549
O O9 0.269223 0.356155 0.250890
O O10 0.332070 0.045774 0.200716
O O11 0.122724 0.143881 0.176433
O O12 0.000000 0.179561 0.750000
O O13 0.025608 0.476217 0.689956
#
# Coordination Sequence:
#
# PCOD8150107 Si02
#       6
#     8   8   8   8   8   8
#     4  10  24  44  67 102 142 177 236 294 353 442
#     4  11  22  45  69 101 139 184 232 293 369 431
#     4  11  24  42  71 100 143 186 238 295 364 435
#     4  12  27  46  71 105 145 193 248 308 369 437
#     4  11  24  45  69 100 140 188 240 303 359 438
#     4  11  24  44  68 104 139 186 239 301 363 436
#
# _framework density 23.521597
#
# number of rings (size 3 to 8) (size 9 to 14) (size 15 to 20)
#    0.000    1.000    3.333    2.500    4.667    2.667 
#    3.000    0.000    0.000    0.000    0.000    0.000 
#    0.000    0.000    0.000    0.000    0.000    0.000 
#
# Total GULP energy -297399.482881 kJ/mol
# GULP energy per Si atom -12391.645120 kJ/mol
# Density = 2.346806 g / cm^3
# Si number density = 23.521597 Si / 1000 Ang^3
#
#
#
# Elastic Constant Matrix: (Units=GPa)
#
#
# Indices 1 2 3 4 5 6 
#
# 1 115.6322 14.0491 51.4066 0.0000 -16.1706 0.0000
# 2 14.0491 67.6221 36.0662 0.0000 -4.0676 0.0000
# 3 51.4066 36.0662 156.7888 0.0000 -3.4900 0.0000
# 4 0.0000 0.0000 0.0000 22.7840 0.0000 0.3805
# 5 -16.1706 -4.0676 -3.4900 0.0000 40.1265 0.0000
# 6 0.0000 0.0000 0.0000 0.3805 0.0000 14.6594
#
#
#
# Elastic Compliance Matrix: (Units=1/GPa)
#
#
# Indices 1 2 3 4 5 6 
#
# 1 0.010739 -0.000182 -0.003390 0.000000 0.004014 0.000000
# 2 -0.000182 0.016935 -0.003807 0.000000 0.001312 0.000000
# 3 -0.003390 -0.003807 0.008342 0.000000 -0.001026 0.000000
# 4 0.000000 0.000000 0.000000 0.043909 0.000000 -0.001140
# 5 0.004014 0.001312 -0.001026 0.000000 0.026583 0.000000
# 6 0.000000 0.000000 0.000000 -0.001140 0.000000 0.068245
#
#
# Mechanical properties :
#
#
# Convention : Reuss Voigt Hill
#
# Bulk Modulus (GPa) = 47.03782 60.34300 53.69041
# Shear Modulus (GPa) = 25.43283 31.41538 28.42410
#
# Velocity S-wave (km/s) = 3.29181 3.65855 3.48001
# Velocity P-wave (km/s) = 5.87275 6.59974 6.24683
#
# Compressibility (1/GPa) = 0.02125949
#
# Stress axis : x y z
#
# Youngs Moduli (GPa) = 93.12262 59.04891 119.87189
#
# Poissons Ratio (x) = 0.01073 0.40633
# Poissons Ratio (y) = 0.01692 0.45633
# Poissons Ratio (z) = 0.31566 0.22479
#
# Static dielectric constant tensor:
#      x y z
#    x 4.468060 0.000000 0.088680 
#    y 0.000000 3.848760 0.000000 
#    z 0.088680 0.000000 4.698510 
# 
# 
# High freq. dielectric constant tensor:
#      x y z
#    x 1.941630 0.000000 0.000710 
#    y 0.000000 1.899590 0.000000 
#    z 0.000710 0.000000 1.960710 
# 
# From -- ./inp_files/312263.got.cif
#   From: 2010.06.25/outbox.cif.g09.slc.cpg/sg15_157_cif.got.tgz:312263.got - 2010.06.28 07:06:18.
