data_PCOD8151388
_publ_section_title
;
Structure prediction by ZEFSAII (Michael W. Deem and Ramdas Pophale) SiO2 
 PCOD8151388
Probable space group: C 2/C
;
_chemical_formula_sum "Si O2"
_cell_formula_units_Z 44
_cell_length_a 7.679424
_cell_length_b 12.368683
_cell_length_c 23.671160
_cell_angle_alpha 90.000000
_cell_angle_beta 61.767794
_cell_angle_gamma 90.000000
_cell_volume 1980.916343
_symmetry_space_group_name_H-M "C 2/C"
_symmetry_group_IT_number 15
_symmetry_cell_setting 'monoclinic'
loop_
_space_group_symop_operation_xyz
x,y,z
-x,y,1/2-z
-x,-y,-z
x,-y,1/2+z
1/2+x,1/2+y,z
1/2-x,1/2+y,1/2-z
1/2-x,1/2-y,-z
1/2+x,1/2-y,1/2+z
loop_
_atom_site_type_symbol
_atom_site_label
_atom_site_fract_x
_atom_site_fract_y
_atom_site_fract_z
Si Si1 0.211654 0.870843 0.337320
Si Si2 0.400082 0.463859 0.854533
Si Si3 0.000000 0.790304 0.750000
Si Si4 0.785513 0.372439 0.513386
Si Si5 0.559801 0.791545 0.559657
Si Si6 0.040895 0.500515 0.115159
O O1 0.306721 0.786139 0.278916
O O2 0.387655 0.943135 0.338122
O O3 0.087690 0.806133 0.403938
O O4 0.059968 0.941777 0.324672
O O5 0.488890 0.361890 0.807744
O O6 0.389556 0.426403 0.922109
O O7 0.196278 0.508677 0.857861
O O8 0.750000 0.250000 0.500000
O O9 0.967259 0.374305 0.528818
O O10 0.831215 0.444690 0.453098
O O11 0.750000 0.750000 0.500000
O O12 0.600585 0.870961 0.607051
#
# Coordination Sequence:
#
# PCOD8151388 Si02
#       6
#     8   8   4   8   8   8
#     4  12  26  46  73  99 137 189 228 288 352 408
#     4  11  26  47  69 101 141 181 231 291 339 413
#     4  12  26  52  66 102 142 176 252 286 328 430
#     4  11  20  40  68 101 143 173 216 290 345 405
#     4  11  22  39  65 105 139 175 229 279 347 421
#     4  11  23  45  70 104 141 176 231 286 353 418
#
# _framework density 22.211943000000002
#
# number of rings (size 3 to 8) (size 9 to 14) (size 15 to 20)
#    0.000    0.727    5.455    4.364    5.091    1.455 
#    3.273    1.818    0.000    0.000    0.000    0.000 
#    0.000    0.000    0.000    0.000    0.000    0.000 
#
# Total GULP energy -272667.084651 kJ/mol
# GULP energy per Si atom -12393.958393 kJ/mol
# Density = 2.216139 g / cm^3
# Si number density = 22.211943 Si / 1000 Ang^3
#
#
#
# Elastic Constant Matrix: (Units=GPa)
#
#
# Indices 1 2 3 4 5 6 
#
# 1 93.7454 58.0953 41.4823 0.0000 -19.9095 0.0000
# 2 58.0953 136.0451 46.0538 0.0000 -16.4772 0.0000
# 3 41.4823 46.0538 105.9099 -0.0001 -23.9535 0.0000
# 4 0.0000 0.0000 -0.0001 49.4428 0.0001 -8.2477
# 5 -19.9095 -16.4772 -23.9535 0.0001 27.8337 0.0000
# 6 0.0000 0.0000 0.0000 -8.2477 0.0000 46.0876
#
#
#
# Elastic Compliance Matrix: (Units=1/GPa)
#
#
# Indices 1 2 3 4 5 6 
#
# 1 0.016543 -0.005382 -0.002711 0.000000 0.006314 0.000000
# 2 -0.005382 0.010494 -0.002385 0.000000 0.000310 0.000000
# 3 -0.002711 -0.002385 0.013389 0.000000 0.008171 0.000000
# 4 0.000000 0.000000 0.000000 0.020848 0.000000 0.003731
# 5 0.006314 0.000310 0.008171 0.000000 0.047660 0.000000
# 6 0.000000 0.000000 0.000000 0.003731 0.000000 0.022365
#
#
# Mechanical properties :
#
#
# Convention : Reuss Voigt Hill
#
# Bulk Modulus (GPa) = 51.36203 69.66257 60.51230
# Shear Modulus (GPa) = 31.49706 37.34408 34.42057
#
# Velocity S-wave (km/s) = 3.76975 4.10477 3.94082
# Velocity P-wave (km/s) = 6.49013 7.34141 6.92886
#
# Compressibility (1/GPa) = 0.01946963
#
# Stress axis : x y z
#
# Youngs Moduli (GPa) = 60.44821 95.29602 74.68747
#
# Poissons Ratio (x) = 0.51287 0.20250
# Poissons Ratio (y) = 0.32532 0.17813
# Poissons Ratio (z) = 0.16389 0.22728
#
# Static dielectric constant tensor:
#      x y z
#    x 3.923800 0.000000 -0.182020 
#    y 0.000000 4.267550 0.000000 
#    z -0.182020 0.000000 4.064650 
# 
# 
# High freq. dielectric constant tensor:
#      x y z
#    x 1.848870 0.000000 -0.015850 
#    y 0.000000 1.897630 0.000000 
#    z -0.015850 0.000000 1.874800 
# 
# From -- ./inp_files/263438.got.cif
#   From: 2010.06.25/outbox.cif.g09.slc.cpg/sg15_132_cif.got.tgz:263438.got - 2010.06.28 07:06:18.
