data_PCOD8151974
_publ_section_title
;
Structure prediction by ZEFSAII (Michael W. Deem and Ramdas Pophale) SiO2 
 PCOD8151974
Probable space group: C 2/C
;
_chemical_formula_sum "Si O2"
_cell_formula_units_Z 56
_cell_length_a 17.747779
_cell_length_b 7.924980
_cell_length_c 19.904917
_cell_angle_alpha 90.000000
_cell_angle_beta 62.060770
_cell_angle_gamma 90.000000
_cell_volume 2473.330154
_symmetry_space_group_name_H-M "C 2/C"
_symmetry_group_IT_number 15
_symmetry_cell_setting 'monoclinic'
loop_
_space_group_symop_operation_xyz
x,y,z
-x,y,1/2-z
-x,-y,-z
x,-y,1/2+z
1/2+x,1/2+y,z
1/2-x,1/2+y,1/2-z
1/2-x,1/2-y,-z
1/2+x,1/2-y,1/2+z
loop_
_atom_site_type_symbol
_atom_site_label
_atom_site_fract_x
_atom_site_fract_y
_atom_site_fract_z
Si Si1 0.656427 0.186227 0.844837
Si Si2 0.694755 0.703591 0.958439
Si Si3 0.243359 0.159717 0.431419
Si Si4 0.039957 0.672906 0.585311
Si Si5 0.074185 0.975479 0.669604
Si Si6 0.728191 0.609709 0.192446
Si Si7 0.064814 0.645985 0.162002
O O1 0.696140 0.218586 0.900542
O O2 0.555851 0.203185 0.896741
O O3 0.681754 0.316441 0.776682
O O4 0.693360 0.001619 0.811580
O O5 0.683198 0.502875 0.965578
O O6 0.738471 0.742232 0.869128
O O7 0.750000 0.750000 0.000000
O O8 0.605148 0.808112 0.995621
O O9 0.250000 0.250000 0.500000
O O10 0.336138 0.110227 0.362087
O O11 0.078797 0.819917 0.616735
O O12 0.041785 0.483819 0.613012
O O13 0.160965 0.998817 0.676269
O O14 0.000000 0.921064 0.750000
O O15 0.054679 0.157756 0.643237
O O16 0.000000 0.606719 0.250000
#
# Coordination Sequence:
#
# PCOD8151974 Si02
#       7
#     8   8   8   8   8   8   8
#     4  12  29  46  74 109 149 191 241 319 370 427
#     4  12  24  44  75 105 144 198 246 299 367 452
#     4  12  25  50  75 104 148 201 249 299 381 455
#     4  12  26  45  73 111 148 187 248 309 367 425
#     4  11  21  43  73 104 148 195 244 297 359 446
#     4  12  25  46  71 108 151 191 247 299 378 440
#     4  11  25  41  76 111 143 195 254 292 363 447
#
# _framework density 22.641538000000001
#
# number of rings (size 3 to 8) (size 9 to 14) (size 15 to 20)
#    0.000    0.286    5.714    3.000    4.000    1.143 
#    2.571    0.000    0.000    0.000    0.000    0.000 
#    0.000    0.000    0.000    0.000    0.000    0.000 
#
# Total GULP energy -347139.829553 kJ/mol
# GULP energy per Si atom -12397.851055 kJ/mol
# Density = 2.259000 g / cm^3
# Si number density = 22.641538 Si / 1000 Ang^3
#
#
#
# Elastic Constant Matrix: (Units=GPa)
#
#
# Indices 1 2 3 4 5 6 
#
# 1 144.4008 21.6206 55.9878 -0.0001 -20.8380 0.0002
# 2 21.6206 112.6450 32.8763 -0.0003 2.0946 0.0008
# 3 55.9878 32.8763 94.8154 -0.0003 -9.5350 -0.0001
# 4 -0.0001 -0.0003 -0.0003 25.8121 0.0001 -6.5521
# 5 -20.8380 2.0946 -9.5350 0.0001 39.8411 0.0000
# 6 0.0002 0.0008 -0.0001 -6.5521 0.0000 31.3788
#
#
#
# Elastic Compliance Matrix: (Units=1/GPa)
#
#
# Indices 1 2 3 4 5 6 
#
# 1 0.009505 -0.000409 -0.005091 0.000000 0.003774 0.000000
# 2 -0.000409 0.009968 -0.003370 0.000000 -0.001544 0.000000
# 3 -0.005091 -0.003370 0.014829 0.000000 0.001063 0.000000
# 4 0.000000 0.000000 0.000000 0.040910 0.000000 0.008542
# 5 0.003774 -0.001544 0.001063 0.000000 0.027409 0.000000
# 6 0.000000 0.000000 0.000000 0.008542 0.000000 0.033652
#
#
# Mechanical properties :
#
#
# Convention : Reuss Voigt Hill
#
# Bulk Modulus (GPa) = 60.38179 63.64783 62.01481
# Shear Modulus (GPa) = 31.34102 35.49816 33.41959
#
# Velocity S-wave (km/s) = 3.72456 3.96388 3.84608
# Velocity P-wave (km/s) = 6.72480 7.00870 6.86822
#
# Compressibility (1/GPa) = 0.01656129
#
# Stress axis : x y z
#
# Youngs Moduli (GPa) = 105.20668 100.31822 67.43601
#
# Poissons Ratio (x) = 0.04099 0.34335
# Poissons Ratio (y) = 0.04298 0.22729
# Poissons Ratio (z) = 0.53566 0.33812
#
# Static dielectric constant tensor:
#      x y z
#    x 4.407710 0.000020 -0.720920 
#    y 0.000020 4.395900 -0.000030 
#    z -0.720920 -0.000030 4.695370 
# 
# 
# High freq. dielectric constant tensor:
#      x y z
#    x 1.885680 0.000000 -0.027560 
#    y 0.000000 1.906200 0.000000 
#    z -0.027560 0.000000 1.897990 
# 
# From -- ./inp_files/209515.got.cif
#   From: 2010.06.25/outbox.cif.g09.slc.cpg/sg15_105_cif.got.tgz:209515.got - 2010.06.28 07:06:18.
