data_PCOD8151929
_publ_section_title
;
Structure prediction by ZEFSAII (Michael W. Deem and Ramdas Pophale) SiO2 
 PCOD8151929
Probable space group: C 2/C
;
_chemical_formula_sum "Si O2"
_cell_formula_units_Z 44
_cell_length_a 9.160923
_cell_length_b 11.434081
_cell_length_c 20.237339
_cell_angle_alpha 90.000000
_cell_angle_beta 127.859414
_cell_angle_gamma 90.000000
_cell_volume 1673.618630
_symmetry_space_group_name_H-M "C 2/C"
_symmetry_group_IT_number 15
_symmetry_cell_setting 'monoclinic'
loop_
_space_group_symop_operation_xyz
x,y,z
-x,y,1/2-z
-x,-y,-z
x,-y,1/2+z
1/2+x,1/2+y,z
1/2-x,1/2+y,1/2-z
1/2-x,1/2-y,-z
1/2+x,1/2-y,1/2+z
loop_
_atom_site_type_symbol
_atom_site_label
_atom_site_fract_x
_atom_site_fract_y
_atom_site_fract_z
Si Si1 0.840440 0.509988 0.602742
Si Si2 0.835257 0.756929 0.418681
Si Si3 0.875032 0.100000 0.563937
Si Si4 0.094630 0.651769 0.594532
Si Si5 0.500000 0.357182 0.750000
Si Si6 0.651498 0.592366 0.162765
O O1 0.709339 0.622797 0.556132
O O2 0.769415 0.401978 0.537378
O O3 0.834388 0.462956 0.677559
O O4 0.043552 0.550154 0.633747
O O5 0.640898 0.716777 0.334112
O O6 0.989794 0.787635 0.405913
O O7 0.922982 0.665654 0.495255
O O8 0.776242 0.107737 0.607223
O O9 0.979092 0.977180 0.585076
O O10 0.139020 0.770480 0.644971
O O11 0.364016 0.428877 0.762043
#
# Coordination Sequence:
#
# PCOD8151929 Si02
#       6
#     8   8   8   8   4   8
#     4  11  21  42  74 105 133 178 235 295 346 417
#     4  11  22  43  73 102 145 189 231 289 362 420
#     4  11  23  43  76 112 137 173 247 305 345 414
#     4  12  22  44  80 106 138 180 238 300 354 407
#     4  12  26  46  70  94 152 206 222 294 376 418
#     4  11  24  47  68 101 143 185 236 294 349 421
#
# _framework density 26.290337000000001
#
# number of rings (size 3 to 8) (size 9 to 14) (size 15 to 20)
#    0.000    0.727    5.455    3.818    0.000    0.000 
#    6.545    3.636    0.000    0.000    0.000    0.000 
#    0.000    0.000    0.000    0.000    0.000    0.000 
#
# Total GULP energy -272566.774102 kJ/mol
# GULP energy per Si atom -12389.398823 kJ/mol
# Density = 2.623050 g / cm^3
# Si number density = 26.290337 Si / 1000 Ang^3
#
#
#
# Elastic Constant Matrix: (Units=GPa)
#
#
# Indices 1 2 3 4 5 6 
#
# 1 225.1347 40.6206 21.3711 0.0000 -44.6255 0.0000
# 2 40.6206 41.0876 15.4047 0.0000 -1.4180 0.0000
# 3 21.3711 15.4047 44.4326 0.0000 -11.4472 0.0000
# 4 0.0000 0.0000 0.0000 6.7893 0.0000 -12.2470
# 5 -44.6255 -1.4180 -11.4472 0.0000 48.1546 0.0000
# 6 0.0000 0.0000 0.0000 -12.2470 0.0000 47.8230
#
#
#
# Elastic Compliance Matrix: (Units=1/GPa)
#
#
# Indices 1 2 3 4 5 6 
#
# 1 0.006860 -0.006825 0.000695 0.000000 0.006322 0.000000
# 2 -0.006825 0.034877 -0.010838 0.000000 -0.007874 0.000000
# 3 0.000695 -0.010838 0.027710 0.000000 0.006912 0.000000
# 4 0.000000 0.000000 0.000000 0.273748 0.000000 0.070104
# 5 0.006322 -0.007874 0.006912 0.000000 0.028036 0.000000
# 6 0.000000 0.000000 0.000000 0.070104 0.000000 0.038863
#
#
# Mechanical properties :
#
#
# Convention : Reuss Voigt Hill
#
# Bulk Modulus (GPa) = 28.15918 51.71641 39.93780
# Shear Modulus (GPa) = 10.96812 36.10397 23.53605
#
# Velocity S-wave (km/s) = 2.04474 3.70980 2.99529
# Velocity P-wave (km/s) = 4.03841 6.16961 5.21406
#
# Compressibility (1/GPa) = 0.03551240
#
# Stress axis : x y z
#
# Youngs Moduli (GPa) = 145.76725 28.67222 36.08822
#
# Poissons Ratio (x) = 0.19568 -0.02509
# Poissons Ratio (y) = 0.99482 0.39112
# Poissons Ratio (z) = -0.10133 0.31074
#
# Static dielectric constant tensor:
#      x y z
#    x 5.529980 0.000000 -0.371610 
#    y 0.000000 4.528340 0.000000 
#    z -0.371610 0.000000 4.157820 
# 
# 
# High freq. dielectric constant tensor:
#      x y z
#    x 2.089730 0.000000 -0.018210 
#    y 0.000000 2.044320 0.000000 
#    z -0.018210 0.000000 2.002350 
# 
# From -- ./inp_files/263613.got.cif
#   From: 2010.06.25/outbox.cif.g09.slc.cpg/sg15_132_cif.got.tgz:263613.got - 2010.06.28 07:06:18.
