data_PCOD8151077
_publ_section_title
;
Structure prediction by ZEFSAII (Michael W. Deem and Ramdas Pophale) SiO2 
 PCOD8151077
Probable space group: C 2/C
;
_chemical_formula_sum "Si O2"
_cell_formula_units_Z 64
_cell_length_a 11.581613
_cell_length_b 21.868271
_cell_length_c 19.614056
_cell_angle_alpha 90.000000
_cell_angle_beta 140.928248
_cell_angle_gamma 90.000000
_cell_volume 3131.075041
_symmetry_space_group_name_H-M "C 2/C"
_symmetry_group_IT_number 15
_symmetry_cell_setting 'monoclinic'
loop_
_space_group_symop_operation_xyz
x,y,z
-x,y,1/2-z
-x,-y,-z
x,-y,1/2+z
1/2+x,1/2+y,z
1/2-x,1/2+y,1/2-z
1/2-x,1/2-y,-z
1/2+x,1/2-y,1/2+z
loop_
_atom_site_type_symbol
_atom_site_label
_atom_site_fract_x
_atom_site_fract_y
_atom_site_fract_z
Si Si1 0.122599 0.280658 0.740033
Si Si2 0.155577 0.054474 0.467729
Si Si3 0.087562 0.364184 0.953720
Si Si4 0.567406 0.349877 0.561447
Si Si5 0.018755 0.165966 0.890726
Si Si6 0.913829 0.041477 0.783807
Si Si7 0.020978 0.440002 0.052040
Si Si8 0.830991 0.452053 0.626038
O O1 0.334295 0.294823 0.852923
O O2 0.000000 0.297242 0.750000
O O3 0.068977 0.321784 0.650294
O O4 0.107702 0.209243 0.713612
O O5 0.336249 0.071345 0.508584
O O6 0.088413 0.119903 0.463905
O O7 0.206245 0.011446 0.555076
O O8 0.993437 0.022807 0.348489
O O9 0.103910 0.426709 0.917568
O O10 0.270590 0.322779 0.033930
O O11 0.049304 0.382118 0.014568
O O12 0.484427 0.320419 0.454733
O O13 0.719160 0.400987 0.614845
O O14 0.979854 0.094486 0.864028
O O15 0.693891 0.046657 0.680740
O O16 0.000000 0.054503 0.750000
O O17 0.000000 0.500000 0.000000
O O18 0.000000 0.472764 0.750000
#
# Coordination Sequence:
#
# PCOD8151077 Si02
#       8
#     8   8   8   8   8   8   8   8
#     4  12  23  38  70  97 122 164 215 287 333 376
#     4  12  26  40  63  93 140 182 208 259 326 404
#     4  11  20  39  59  96 134 157 216 266 325 381
#     4  11  24  41  59  97 133 168 218 263 336 394
#     4  11  23  40  64  98 124 161 219 277 332 373
#     4  12  22  39  64  94 132 170 214 267 323 383
#     4  12  24  39  60  96 136 171 214 261 312 393
#     4  11  19  37  63  92 131 173 208 269 318 390
#
# _framework density 20.440263000000002
#
# number of rings (size 3 to 8) (size 9 to 14) (size 15 to 20)
#    0.000    0.500   10.000    1.125    3.500    0.000 
#    0.000    0.000    0.000    4.500    0.000    0.000 
#    0.000    0.000    0.000    0.000    0.000    0.000 
#
# Total GULP energy -396857.622769 kJ/mol
# GULP energy per Si atom -12401.800712 kJ/mol
# Density = 2.039374 g / cm^3
# Si number density = 20.440263 Si / 1000 Ang^3
#
#
#
# Elastic Constant Matrix: (Units=GPa)
#
#
# Indices 1 2 3 4 5 6 
#
# 1 104.5959 34.5960 45.7046 -0.0002 7.6973 -0.0001
# 2 34.5960 64.5987 26.1210 -0.0001 -2.1681 0.0000
# 3 45.7046 26.1210 111.8571 -0.0006 -6.8365 -0.0007
# 4 -0.0002 -0.0001 -0.0006 42.0692 -0.0002 -2.3218
# 5 7.6973 -2.1681 -6.8365 -0.0002 18.2905 -0.0003
# 6 -0.0001 0.0000 -0.0007 -2.3218 -0.0003 20.6673
#
#
#
# Elastic Compliance Matrix: (Units=1/GPa)
#
#
# Indices 1 2 3 4 5 6 
#
# 1 0.014347 -0.005951 -0.004999 0.000000 -0.008612 0.000000
# 2 -0.005951 0.019568 -0.001886 0.000000 0.004119 0.000000
# 3 -0.004999 -0.001886 0.011808 0.000000 0.006293 0.000000
# 4 0.000000 0.000000 0.000000 0.023919 0.000000 0.002687
# 5 -0.008612 0.004119 0.006293 0.000000 0.061138 0.000001
# 6 0.000000 0.000000 0.000000 0.002687 0.000001 0.048688
#
#
# Mechanical properties :
#
#
# Convention : Reuss Voigt Hill
#
# Bulk Modulus (GPa) = 49.87411 54.87722 52.37567
# Shear Modulus (GPa) = 23.60460 27.84741 25.72600
#
# Velocity S-wave (km/s) = 3.40193 3.69505 3.55152
# Velocity P-wave (km/s) = 6.31536 6.71643 6.51898
#
# Compressibility (1/GPa) = 0.02005048
#
# Stress axis : x y z
#
# Youngs Moduli (GPa) = 69.70057 51.10280 84.69151
#
# Poissons Ratio (x) = 0.30413 0.42335
# Poissons Ratio (y) = 0.41481 0.15974
# Poissons Ratio (z) = 0.34842 0.09639
#
# Static dielectric constant tensor:
#      x y z
#    x 3.657090 0.000000 -0.223850 
#    y 0.000000 3.500630 0.000000 
#    z -0.223850 0.000000 4.023350 
# 
# 
# High freq. dielectric constant tensor:
#      x y z
#    x 1.769550 0.000000 -0.013790 
#    y 0.000000 1.779220 0.000000 
#    z -0.013790 0.000000 1.815380 
# 
# From -- ./inp_files/240452.got.cif
#   From: 2010.06.25/outbox.cif.g09.slc.cpg/sg15_121_cif.got.tgz:240452.got - 2010.06.28 07:06:18.
