data_PCOD8151772
_publ_section_title
;
Structure prediction by ZEFSAII (Michael W. Deem and Ramdas Pophale) SiO2 
 PCOD8151772
Probable space group: C 2/C
;
_chemical_formula_sum "Si O2"
_cell_formula_units_Z 48
_cell_length_a 10.613860
_cell_length_b 24.404677
_cell_length_c 11.308082
_cell_angle_alpha 90.000000
_cell_angle_beta 125.334021
_cell_angle_gamma 90.000000
_cell_volume 2389.549596
_symmetry_space_group_name_H-M "C 2/C"
_symmetry_group_IT_number 15
_symmetry_cell_setting 'monoclinic'
loop_
_space_group_symop_operation_xyz
x,y,z
-x,y,1/2-z
-x,-y,-z
x,-y,1/2+z
1/2+x,1/2+y,z
1/2-x,1/2+y,1/2-z
1/2-x,1/2-y,-z
1/2+x,1/2-y,1/2+z
loop_
_atom_site_type_symbol
_atom_site_label
_atom_site_fract_x
_atom_site_fract_y
_atom_site_fract_z
Si Si1 0.215199 0.057288 0.967878
Si Si2 0.500000 0.465717 0.750000
Si Si3 0.523452 0.604668 0.483641
Si Si4 0.090498 0.701909 0.686036
Si Si5 0.500000 0.006705 0.250000
Si Si6 0.868577 0.225808 0.968013
Si Si7 0.827467 0.583398 0.782595
O O1 0.267804 0.090975 0.882872
O O2 0.140099 0.002059 0.874715
O O3 0.096955 0.096190 0.974630
O O4 0.362585 0.044474 0.128572
O O5 0.549771 0.427630 0.667261
O O6 0.551968 0.667289 0.459152
O O7 0.686664 0.578820 0.613072
O O8 0.067814 0.636990 0.677461
O O9 0.000000 0.726714 0.750000
O O10 0.009011 0.730596 0.528426
O O11 0.272278 0.718087 0.793740
O O12 0.562734 0.968856 0.176862
O O13 0.750000 0.250000 0.000000
#
# Coordination Sequence:
#
# PCOD8151772 Si02
#       7
#     8   4   8   8   4   8   8
#     4  12  24  42  61  88 130 167 205 255 311 376
#     4  12  22  38  67  84 123 164 210 252 290 378
#     4  11  23  40  65  94 120 164 212 253 313 371
#     4   9  18  36  58  87 116 150 197 254 303 358
#     4  12  24  40  57  98 127 162 220 256 306 358
#     4   9  20  36  60  90 120 146 200 261 301 362
#     4  11  21  40  64  89 124 167 206 254 313 369
#
# _framework density 20.087468000000001
#
# number of rings (size 3 to 8) (size 9 to 14) (size 15 to 20)
#    0.000    1.333    4.167    2.000    3.500    0.000 
#    3.000    0.833    0.000    0.000    0.000    0.000 
#    0.000    0.000    0.000    0.000    0.000    0.000 
#
# Total GULP energy -297401.311570 kJ/mol
# GULP energy per Si atom -12391.721315 kJ/mol
# Density = 2.004175 g / cm^3
# Si number density = 20.087468 Si / 1000 Ang^3
#
#
#
# Elastic Constant Matrix: (Units=GPa)
#
#
# Indices 1 2 3 4 5 6 
#
# 1 89.3978 39.5976 25.3799 0.0000 -5.6732 0.0000
# 2 39.5976 93.2764 49.9659 0.0000 12.5607 0.0000
# 3 25.3799 49.9659 88.0696 0.0000 13.3538 0.0000
# 4 0.0000 0.0000 0.0000 31.9875 0.0000 14.1254
# 5 -5.6732 12.5607 13.3538 0.0000 35.5051 0.0000
# 6 0.0000 0.0000 0.0000 14.1254 0.0000 13.8290
#
#
#
# Elastic Compliance Matrix: (Units=1/GPa)
#
#
# Indices 1 2 3 4 5 6 
#
# 1 0.014633 -0.006068 -0.001542 0.000000 0.005065 0.000000
# 2 -0.006068 0.018096 -0.007848 0.000000 -0.004420 0.000000
# 3 -0.001542 -0.007848 0.016828 0.000000 -0.003799 0.000000
# 4 0.000000 0.000000 0.000000 0.056950 0.000000 -0.058170
# 5 0.005065 -0.004420 -0.003799 0.000000 0.031967 0.000000
# 6 0.000000 0.000000 0.000000 -0.058170 0.000000 0.131729
#
#
# Mechanical properties :
#
#
# Convention : Reuss Voigt Hill
#
# Bulk Modulus (GPa) = 53.64690 55.62562 54.63626
# Shear Modulus (GPa) = 16.26913 26.65102 21.46007
#
# Velocity S-wave (km/s) = 2.84899 3.64641 3.27208
# Velocity P-wave (km/s) = 6.13082 6.74390 6.44465
#
# Compressibility (1/GPa) = 0.01864041
#
# Stress axis : x y z
#
# Youngs Moduli (GPa) = 68.33936 55.26170 59.42622
#
# Poissons Ratio (x) = 0.33531 0.09166
# Poissons Ratio (y) = 0.41467 0.46636
# Poissons Ratio (z) = 0.10540 0.43368
#
# Static dielectric constant tensor:
#      x y z
#    x 3.591130 0.000000 0.255480 
#    y 0.000000 3.607440 0.000000 
#    z 0.255480 0.000000 4.041420 
# 
# 
# High freq. dielectric constant tensor:
#      x y z
#    x 1.763370 0.000000 0.021210 
#    y 0.000000 1.778230 0.000000 
#    z 0.021210 0.000000 1.787610 
# 
# From -- ./inp_files/32169.got.cif
#   From: 2010.06.25/outbox.cif.g09.slc.cpg/sg15_17_cif.got.tgz:32169.got - 2010.06.28 07:06:18.
