data_PCOD8151698
_publ_section_title
;
Structure prediction by ZEFSAII (Michael W. Deem and Ramdas Pophale) SiO2 
 PCOD8151698
Probable space group: C 2/C
;
_chemical_formula_sum "Si O2"
_cell_formula_units_Z 64
_cell_length_a 16.084992
_cell_length_b 9.404161
_cell_length_c 28.079031
_cell_angle_alpha 90.000000
_cell_angle_beta 134.696875
_cell_angle_gamma 90.000000
_cell_volume 3019.211646
_symmetry_space_group_name_H-M "C 2/C"
_symmetry_group_IT_number 15
_symmetry_cell_setting 'monoclinic'
loop_
_space_group_symop_operation_xyz
x,y,z
-x,y,1/2-z
-x,-y,-z
x,-y,1/2+z
1/2+x,1/2+y,z
1/2-x,1/2+y,1/2-z
1/2-x,1/2-y,-z
1/2+x,1/2-y,1/2+z
loop_
_atom_site_type_symbol
_atom_site_label
_atom_site_fract_x
_atom_site_fract_y
_atom_site_fract_z
Si Si1 0.086364 0.913913 0.393610
Si Si2 0.084392 0.591773 0.723941
Si Si3 0.934520 0.361830 0.554779
Si Si4 0.069816 0.911223 0.731329
Si Si5 0.837769 0.502482 0.147431
Si Si6 0.253495 0.089519 0.518661
Si Si7 0.276115 0.193944 0.905634
Si Si8 0.327451 0.003069 0.841176
O O1 0.071906 0.752920 0.405528
O O2 0.181353 0.914768 0.389345
O O3 0.133500 0.012781 0.455269
O O4 0.965975 0.979584 0.325224
O O5 0.034494 0.751816 0.702366
O O6 0.169345 0.571300 0.803666
O O7 0.155246 0.558503 0.705173
O O8 0.972719 0.487662 0.683950
O O9 0.864230 0.503198 0.541877
O O10 0.882735 0.292071 0.485973
O O11 0.069038 0.400054 0.599849
O O12 0.207978 0.915430 0.795302
O O13 0.000000 0.957638 0.750000
O O14 0.762496 0.409908 0.079625
O O15 0.784346 0.657720 0.129562
O O16 0.250000 0.250000 0.500000
O O17 0.323737 0.137021 0.874833
#
# Coordination Sequence:
#
# PCOD8151698 Si02
#       8
#     8   8   8   8   8   8   8   8
#     4  11  22  43  72 100 139 183 242 293 341 439
#     4  11  26  43  66 103 147 186 236 294 361 425
#     4  11  23  45  68 108 143 182 236 303 358 425
#     4  12  26  46  67 101 140 190 241 287 357 437
#     4  11  21  44  71  99 142 192 238 287 349 435
#     4  11  21  38  75 106 137 187 242 291 351 423
#     4  11  22  42  71 104 133 184 244 284 352 427
#     4  12  27  43  71  99 147 186 234 303 363 416
#
# _framework density 21.197586000000001
#
# number of rings (size 3 to 8) (size 9 to 14) (size 15 to 20)
#    0.000    0.750    6.250    1.875    3.500    2.000 
#    0.000    0.000    0.000    3.000    0.000    0.000 
#    0.000    0.000    0.000    0.000    0.000    0.000 
#
# Total GULP energy -396904.136973 kJ/mol
# GULP energy per Si atom -12403.254280 kJ/mol
# Density = 2.114934 g / cm^3
# Si number density = 21.197586 Si / 1000 Ang^3
#
#
#
# Elastic Constant Matrix: (Units=GPa)
#
#
# Indices 1 2 3 4 5 6 
#
# 1 116.8505 45.0072 58.8161 0.0000 -9.4758 0.0000
# 2 45.0072 136.2381 63.7682 0.0000 -1.6377 0.0000
# 3 58.8161 63.7682 130.3431 0.0000 2.7870 0.0000
# 4 0.0000 0.0000 0.0000 38.6596 0.0000 -3.5661
# 5 -9.4758 -1.6377 2.7870 0.0000 46.1190 0.0000
# 6 0.0000 0.0000 0.0000 -3.5661 0.0000 28.5038
#
#
#
# Elastic Compliance Matrix: (Units=1/GPa)
#
#
# Indices 1 2 3 4 5 6 
#
# 1 0.011695 -0.001733 -0.004485 0.000000 0.002612 0.000000
# 2 -0.001733 0.009795 -0.004015 0.000000 0.000234 0.000000
# 3 -0.004485 -0.004015 0.011698 0.000000 -0.001771 0.000000
# 4 0.000000 0.000000 0.000000 0.026169 0.000000 0.003274
# 5 0.002612 0.000234 -0.001771 0.000000 0.022335 0.000000
# 6 0.000000 0.000000 0.000000 0.003274 0.000000 0.035493
#
#
# Mechanical properties :
#
#
# Convention : Reuss Voigt Hill
#
# Bulk Modulus (GPa) = 78.60669 79.84608 79.22638
# Shear Modulus (GPa) = 35.23838 37.04584 36.14211
#
# Velocity S-wave (km/s) = 4.08165 4.18502 4.13366
# Velocity P-wave (km/s) = 7.70561 7.81677 7.76139
#
# Compressibility (1/GPa) = 0.01272156
#
# Stress axis : x y z
#
# Youngs Moduli (GPa) = 85.50783 102.09734 85.48325
#
# Poissons Ratio (x) = 0.17690 0.38343
# Poissons Ratio (y) = 0.14815 0.34322
# Poissons Ratio (z) = 0.38354 0.40992
#
# Static dielectric constant tensor:
#      x y z
#    x 3.663160 0.000000 -0.160940 
#    y 0.000000 3.653160 0.000000 
#    z -0.160940 0.000000 4.179710 
# 
# 
# High freq. dielectric constant tensor:
#      x y z
#    x 1.810230 0.000000 -0.012150 
#    y 0.000000 1.829330 0.000000 
#    z -0.012150 0.000000 1.853270 
# 
# From -- ./inp_files/315720.got.cif
#   From: 2010.06.25/outbox.cif.g09.slc.cpg/sg15_158_cif.got.tgz:315720.got - 2010.06.28 07:06:18.
