data_PCOD8151378
_publ_section_title
;
Structure prediction by ZEFSAII (Michael W. Deem and Ramdas Pophale) SiO2 
 PCOD8151378
Probable space group: C 2/C
;
_chemical_formula_sum "Si O2"
_cell_formula_units_Z 64
_cell_length_a 13.140517
_cell_length_b 26.520966
_cell_length_c 13.713716
_cell_angle_alpha 90.000000
_cell_angle_beta 137.087588
_cell_angle_gamma 90.000000
_cell_volume 3254.072533
_symmetry_space_group_name_H-M "C 2/C"
_symmetry_group_IT_number 15
_symmetry_cell_setting 'monoclinic'
loop_
_space_group_symop_operation_xyz
x,y,z
-x,y,1/2-z
-x,-y,-z
x,-y,1/2+z
1/2+x,1/2+y,z
1/2-x,1/2+y,1/2-z
1/2-x,1/2-y,-z
1/2+x,1/2-y,1/2+z
loop_
_atom_site_type_symbol
_atom_site_label
_atom_site_fract_x
_atom_site_fract_y
_atom_site_fract_z
Si Si1 0.604503 0.326206 0.742111
Si Si2 0.293207 0.252128 0.284886
Si Si3 0.874982 0.773260 0.020347
Si Si4 0.546958 0.386750 0.393393
Si Si5 0.147807 0.146136 0.582927
Si Si6 0.672152 0.942485 0.380043
Si Si7 0.656951 0.527011 0.101132
Si Si8 0.342247 0.562400 0.181433
O O1 0.500000 0.298786 0.750000
O O2 0.756080 0.293933 0.831865
O O3 0.508152 0.337222 0.576792
O O4 0.660867 0.377643 0.828978
O O5 0.456484 0.251294 0.347695
O O6 0.263417 0.303859 0.322590
O O7 0.164905 0.243841 0.115708
O O8 0.870925 0.832718 0.041433
O O9 0.750000 0.750000 0.000000
O O10 0.500000 0.400486 0.250000
O O11 0.394679 0.384899 0.349384
O O12 0.653671 0.429318 0.516121
O O13 0.243399 0.109909 0.582379
O O14 0.500000 0.931240 0.250000
O O15 0.714046 0.958762 0.519693
O O16 0.715922 0.987194 0.337657
O O17 0.695756 0.547737 0.235029
O O18 0.500000 0.500000 0.000000
O O19 0.500000 0.541006 0.250000
#
# Coordination Sequence:
#
# PCOD8151378 Si02
#       8
#     8   8   8   8   8   8   8   8
#     4  11  20  40  66  92 124 176 228 266 316 398
#     4  11  22  37  64  93 130 170 229 271 316 400
#     4  11  22  42  62  96 135 180 218 275 344 391
#     4  11  22  39  69 100 126 170 236 276 323 411
#     4  11  21  43  61  95 134 172 220 272 329 405
#     4  12  27  43  64 102 139 167 216 286 351 392
#     4  12  22  40  72  96 122 172 233 277 327 403
#     4  11  20  42  70  91 125 180 218 264 335 403
#
# _framework density 19.667663000000001
#
# number of rings (size 3 to 8) (size 9 to 14) (size 15 to 20)
#    0.000    0.750    8.750    1.875    1.750    2.500 
#    0.000    2.500    0.000    0.000    0.000    0.000 
#    0.000    0.000    0.000    0.000    0.000    0.000 
#
# Total GULP energy -396634.610615 kJ/mol
# GULP energy per Si atom -12394.831582 kJ/mol
# Density = 1.962290 g / cm^3
# Si number density = 19.667663 Si / 1000 Ang^3
#
#
#
# Elastic Constant Matrix: (Units=GPa)
#
#
# Indices 1 2 3 4 5 6 
#
# 1 104.1391 50.8319 42.1801 0.0000 -5.3361 0.0000
# 2 50.8319 98.6832 34.6373 0.0000 6.9907 0.0000
# 3 42.1801 34.6373 108.8600 0.0000 -13.0526 0.0000
# 4 0.0000 0.0000 0.0000 23.1998 0.0000 -1.6729
# 5 -5.3361 6.9907 -13.0526 0.0000 40.4856 0.0000
# 6 0.0000 0.0000 0.0000 -1.6729 0.0000 30.1393
#
#
#
# Elastic Compliance Matrix: (Units=1/GPa)
#
#
# Indices 1 2 3 4 5 6 
#
# 1 0.014054 -0.006238 -0.003235 0.000000 0.001887 0.000000
# 2 -0.006238 0.014607 -0.002738 0.000000 -0.004227 0.000000
# 3 -0.003235 -0.002738 0.011771 0.000000 0.003841 0.000000
# 4 0.000000 0.000000 0.000000 0.043277 0.000000 0.002402
# 5 0.001887 -0.004227 0.003841 0.000000 0.026917 0.000000
# 6 0.000000 0.000000 0.000000 0.002402 0.000000 0.033313
#
#
# Mechanical properties :
#
#
# Convention : Reuss Voigt Hill
#
# Bulk Modulus (GPa) = 62.45190 62.99788 62.72489
# Shear Modulus (GPa) = 28.78602 31.03381 29.90992
#
# Velocity S-wave (km/s) = 3.82988 3.97660 3.90393
# Velocity P-wave (km/s) = 7.16797 7.29282 7.23067
#
# Compressibility (1/GPa) = 0.01601232
#
# Stress axis : x y z
#
# Youngs Moduli (GPa) = 71.15416 68.46171 84.95406
#
# Poissons Ratio (x) = 0.42703 0.27480
# Poissons Ratio (y) = 0.44383 0.23257
# Poissons Ratio (z) = 0.23016 0.18742
#
# Static dielectric constant tensor:
#      x y z
#    x 3.729400 0.000000 -0.180460 
#    y 0.000000 3.819970 0.000000 
#    z -0.180460 0.000000 3.413380 
# 
# 
# High freq. dielectric constant tensor:
#      x y z
#    x 1.764400 0.000000 -0.027450 
#    y 0.000000 1.768900 0.000000 
#    z -0.027450 0.000000 1.757340 
# 
# From -- ./inp_files/156823.got.cif
#   From: 2010.06.25/outbox.cif.g09.slc.cpg/sg15_79_cif.got.tgz:156823.got - 2010.06.28 07:06:18.
