data_PCOD8151681
_publ_section_title
;
Structure prediction by ZEFSAII (Michael W. Deem and Ramdas Pophale) SiO2 
 PCOD8151681
Probable space group: C 2/C
;
_chemical_formula_sum "Si O2"
_cell_formula_units_Z 60
_cell_length_a 14.550157
_cell_length_b 11.525066
_cell_length_c 18.293145
_cell_angle_alpha 90.000000
_cell_angle_beta 114.425581
_cell_angle_gamma 90.000000
_cell_volume 2793.051945
_symmetry_space_group_name_H-M "C 2/C"
_symmetry_group_IT_number 15
_symmetry_cell_setting 'monoclinic'
loop_
_space_group_symop_operation_xyz
x,y,z
-x,y,1/2-z
-x,-y,-z
x,-y,1/2+z
1/2+x,1/2+y,z
1/2-x,1/2+y,1/2-z
1/2-x,1/2-y,-z
1/2+x,1/2-y,1/2+z
loop_
_atom_site_type_symbol
_atom_site_label
_atom_site_fract_x
_atom_site_fract_y
_atom_site_fract_z
Si Si1 0.506174 0.463909 0.586340
Si Si2 0.213267 0.037211 0.450983
Si Si3 0.462750 0.712559 0.851463
Si Si4 0.809109 0.785347 0.089507
Si Si5 0.000000 0.387751 0.750000
Si Si6 0.734098 0.775560 0.641745
Si Si7 0.820087 0.536401 0.636847
Si Si8 0.292660 0.358579 0.818391
O O1 0.500000 0.500000 0.500000
O O2 0.396887 0.410371 0.567829
O O3 0.532002 0.572129 0.650280
O O4 0.587446 0.362168 0.625040
O O5 0.273702 0.130730 0.424577
O O6 0.275495 0.002071 0.543540
O O7 0.197051 0.922115 0.397886
O O8 0.577993 0.757480 0.894616
O O9 0.427303 0.796062 0.771539
O O10 0.383116 0.737243 0.889838
O O11 0.763603 0.730311 0.147085
O O12 0.750000 0.750000 0.000000
O O13 0.069570 0.476866 0.819784
O O14 0.812496 0.674666 0.643941
O O15 0.778791 0.828195 0.729926
O O16 0.749762 0.486889 0.678754
#
# Coordination Sequence:
#
# PCOD8151681 Si02
#       8
#     8   8   8   8   4   8   8   8
#     4  11  22  41  71  99 131 179 230 283 336 396
#     4  11  25  45  71  99 136 175 232 281 339 406
#     4  11  21  38  66  95 127 177 221 267 333 409
#     4  11  21  41  69  99 127 170 228 281 329 398
#     4  12  24  42  70  96 134 188 226 274 350 414
#     4  12  27  42  66 100 140 177 226 277 349 411
#     4  12  24  46  66  95 140 179 216 281 343 403
#     4  12  23  40  70  98 135 173 227 283 338 391
#
# _framework density 21.481877999999998
#
# number of rings (size 3 to 8) (size 9 to 14) (size 15 to 20)
#    0.000    0.533    6.667    1.200    1.867    3.733 
#    0.000    4.000    0.000    0.000    0.000    0.000 
#    0.000    0.000    0.000    0.000    0.000    0.000 
#
# Total GULP energy -371659.075513 kJ/mol
# GULP energy per Si atom -12388.635850 kJ/mol
# Density = 2.143298 g / cm^3
# Si number density = 21.481878 Si / 1000 Ang^3
#
#
#
# Elastic Constant Matrix: (Units=GPa)
#
#
# Indices 1 2 3 4 5 6 
#
# 1 124.2827 40.5854 42.0076 0.0000 12.4528 0.0000
# 2 40.5854 103.8719 35.1023 0.0000 -1.0572 0.0000
# 3 42.0076 35.1023 86.7268 0.0000 12.3786 0.0000
# 4 0.0000 0.0000 0.0000 36.1204 0.0000 -8.9053
# 5 12.4528 -1.0572 12.3786 0.0000 31.3635 0.0000
# 6 0.0000 0.0000 0.0000 -8.9053 0.0000 37.0264
#
#
#
# Elastic Compliance Matrix: (Units=1/GPa)
#
#
# Indices 1 2 3 4 5 6 
#
# 1 0.010470 -0.002949 -0.003465 0.000000 -0.002889 0.000000
# 2 -0.002949 0.012140 -0.003932 0.000000 0.003132 0.000000
# 3 -0.003465 -0.003932 0.015496 0.000000 -0.004873 0.000000
# 4 0.000000 0.000000 0.000000 0.029430 0.000000 0.007078
# 5 -0.002889 0.003132 -0.004873 0.000000 0.035060 0.000000
# 6 0.000000 0.000000 0.000000 0.007078 0.000000 0.028710
#
#
# Mechanical properties :
#
#
# Convention : Reuss Voigt Hill
#
# Bulk Modulus (GPa) = 57.42952 61.14134 59.28543
# Shear Modulus (GPa) = 31.68473 34.04780 32.86626
#
# Velocity S-wave (km/s) = 3.84468 3.98547 3.91570
# Velocity P-wave (km/s) = 6.81914 7.04998 6.93552
#
# Compressibility (1/GPa) = 0.01741265
#
# Stress axis : x y z
#
# Youngs Moduli (GPa) = 95.51104 82.37006 64.53274
#
# Poissons Ratio (x) = 0.24293 0.22363
# Poissons Ratio (y) = 0.28168 0.25376
# Poissons Ratio (z) = 0.33098 0.32390
#
# Static dielectric constant tensor:
#      x y z
#    x 7.659190 0.000000 -3.467760 
#    y 0.000000 3.995940 0.000000 
#    z -3.467760 0.000000 7.434150 
# 
# 
# High freq. dielectric constant tensor:
#      x y z
#    x 1.851410 0.000000 0.011170 
#    y 0.000000 1.842150 0.000000 
#    z 0.011170 0.000000 1.839650 
# 
# From -- ./inp_files/204519.got.cif
#   From: 2010.06.25/outbox.cif.g09.slc.cpg/sg15_103_cif.got.tgz:204519.got - 2010.06.28 07:06:18.
