data_PCOD8151850
_publ_section_title
;
Structure prediction by ZEFSAII (Michael W. Deem and Ramdas Pophale) SiO2 
 PCOD8151850
Probable space group: C 2/C
;
_chemical_formula_sum "Si O2"
_cell_formula_units_Z 36
_cell_length_a 8.831410
_cell_length_b 23.121051
_cell_length_c 7.733096
_cell_angle_alpha 90.000000
_cell_angle_beta 76.542371
_cell_angle_gamma 90.000000
_cell_volume 1535.675714
_symmetry_space_group_name_H-M "C 2/C"
_symmetry_group_IT_number 15
_symmetry_cell_setting 'monoclinic'
loop_
_space_group_symop_operation_xyz
x,y,z
-x,y,1/2-z
-x,-y,-z
x,-y,1/2+z
1/2+x,1/2+y,z
1/2-x,1/2+y,1/2-z
1/2-x,1/2-y,-z
1/2+x,1/2-y,1/2+z
loop_
_atom_site_type_symbol
_atom_site_label
_atom_site_fract_x
_atom_site_fract_y
_atom_site_fract_z
Si Si1 0.171521 0.037704 0.138566
Si Si2 0.285584 0.151817 0.197645
Si Si3 0.000000 0.774805 0.750000
Si Si4 0.397438 0.175786 0.536433
Si Si5 0.176248 0.082257 0.750531
O O1 0.245975 0.084609 0.249882
O O2 0.000000 0.024350 0.250000
O O3 0.245591 0.973385 0.126403
O O4 0.180938 0.066113 0.949645
O O5 0.139648 0.183943 0.143886
O O6 0.321200 0.183989 0.368505
O O7 0.430397 0.149464 0.029041
O O8 0.924436 0.737897 0.616016
O O9 0.290832 0.135816 0.685895
O O10 0.000000 0.100665 0.750000
#
# Coordination Sequence:
#
# PCOD8151850 Si02
#       5
#     8   8   4   8   8
#     4  11  21  41  69 101 136 180 223 273 344 407
#     4  11  24  44  71  97 142 178 228 282 335 408
#     4  12  24  46  70  96 140 182 228 280 338 408
#     4  11  25  44  65 105 135 179 230 279 341 397
#     4  11  23  40  69 100 140 177 225 279 337 410
#
# _framework density 23.442449
#
# number of rings (size 3 to 8) (size 9 to 14) (size 15 to 20)
#    0.000    0.889    1.111    8.000    0.000    0.889 
#    4.000    2.222    0.000    0.000    0.000    0.000 
#    0.000    0.000    0.000    0.000    0.000    0.000 
#
# Total GULP energy -223146.480345 kJ/mol
# GULP energy per Si atom -12397.026686 kJ/mol
# Density = 2.338909 g / cm^3
# Si number density = 23.442449 Si / 1000 Ang^3
#
#
#
# Elastic Constant Matrix: (Units=GPa)
#
#
# Indices 1 2 3 4 5 6 
#
# 1 124.3756 67.6711 38.4319 0.0000 -12.7427 0.0000
# 2 67.6711 116.8121 21.9871 0.0000 -17.5367 0.0000
# 3 38.4319 21.9871 99.4313 0.0000 -8.5269 0.0000
# 4 0.0000 0.0000 0.0000 37.2850 0.0000 29.7689
# 5 -12.7427 -17.5367 -8.5269 0.0000 35.4689 0.0000
# 6 0.0000 0.0000 0.0000 29.7689 0.0000 2.8075
#
#
#
# Elastic Compliance Matrix: (Units=1/GPa)
#
#
# Indices 1 2 3 4 5 6 
#
# 1 0.012787 -0.006694 -0.003423 0.000000 0.000461 0.000000
# 2 -0.006694 0.013038 0.000052 0.000000 0.004054 0.000000
# 3 -0.003423 0.000052 0.011502 0.000000 0.001561 0.000000
# 4 0.000000 0.000000 0.000000 -0.003592 0.000000 0.038092
# 5 0.000461 0.004054 0.001561 0.000000 0.030739 0.000000
# 6 0.000000 0.000000 0.000000 0.038092 0.000000 -0.047709
#
#
# Mechanical properties :
#
#
# Convention : Reuss Voigt Hill
#
# Bulk Modulus (GPa) = 58.14747 66.31101 62.22924
# Shear Modulus (GPa) = 117.29456 29.28085 73.28771
#
# Velocity S-wave (km/s) = 7.08122 3.53803 5.59738
# Velocity P-wave (km/s) = 9.57687 6.71106 8.26906
#
# Compressibility (1/GPa) = 0.01719765
#
# Stress axis : x y z
#
# Youngs Moduli (GPa) = 78.20202 76.70056 86.93774
#
# Poissons Ratio (x) = 0.51347 0.29756
# Poissons Ratio (y) = 0.52352 -0.00453
# Poissons Ratio (z) = 0.26766 -0.00400
#
# Static dielectric constant tensor:
#      x y z
#    x 4.363100 0.000000 0.014330 
#    y 0.000000 4.536490 0.000000 
#    z 0.014330 0.000000 4.093610 
# 
# 
# High freq. dielectric constant tensor:
#      x y z
#    x 1.928470 0.000000 0.002080 
#    y 0.000000 1.940380 0.000000 
#    z 0.002080 0.000000 1.924730 
# 
# From -- ./inp_files/23327.got.cif
#   From: 2010.06.25/outbox.cif.g09.slc.cpg/sg15_12_cif.got.tgz:23327.got - 2010.06.28 07:06:18.
