data_PCOD8151186
_publ_section_title
;
Structure prediction by ZEFSAII (Michael W. Deem and Ramdas Pophale) SiO2 
 PCOD8151186
Probable space group: C 2/C
;
_chemical_formula_sum "Si O2"
_cell_formula_units_Z 52
_cell_length_a 17.491488
_cell_length_b 8.400730
_cell_length_c 34.102958
_cell_angle_alpha 90.000000
_cell_angle_beta 148.182720
_cell_angle_gamma 90.000000
_cell_volume 2641.929333
_symmetry_space_group_name_H-M "C 2/C"
_symmetry_group_IT_number 15
_symmetry_cell_setting 'monoclinic'
loop_
_space_group_symop_operation_xyz
x,y,z
-x,y,1/2-z
-x,-y,-z
x,-y,1/2+z
1/2+x,1/2+y,z
1/2-x,1/2+y,1/2-z
1/2-x,1/2-y,-z
1/2+x,1/2-y,1/2+z
loop_
_atom_site_type_symbol
_atom_site_label
_atom_site_fract_x
_atom_site_fract_y
_atom_site_fract_z
Si Si1 0.826947 0.321988 0.607223
Si Si2 0.377510 0.507381 0.589108
Si Si3 0.625063 0.280559 0.686078
Si Si4 0.576284 0.008779 0.927336
Si Si5 0.500000 0.963928 0.750000
Si Si6 0.027381 0.192459 0.945814
Si Si7 0.256311 0.933379 0.197016
O O1 0.900167 0.433419 0.605767
O O2 0.651874 0.346533 0.531928
O O3 0.887490 0.358697 0.676429
O O4 0.857398 0.134643 0.614874
O O5 0.499628 0.379473 0.654160
O O6 0.226429 0.422428 0.510985
O O7 0.429338 0.607537 0.575079
O O8 0.722623 0.392147 0.700482
O O9 0.543363 0.146680 0.625035
O O10 0.733193 0.197484 0.763848
O O11 0.517679 0.879537 0.932696
O O12 0.593189 0.069941 0.760757
O O13 0.869644 0.122393 0.888327
#
# Coordination Sequence:
#
# PCOD8151186 Si02
#       7
#     8   8   8   8   4   8   8
#     4   9  18  36  58  82 117 150 185 235 293 346
#     4   8  17  31  60  89 108 145 192 243 286 327
#     4  11  20  34  58  85 117 146 200 236 277 341
#     4   9  15  33  61  89 111 139 193 247 279 333
#     4  12  24  38  56  84 122 154 192 226 304 342
#     4   8  17  35  58  85 112 147 193 237 286 333
#     4  11  24  36  58  86 116 157 192 241 286 336
#
# _framework density 19.682586000000001
#
# number of rings (size 3 to 8) (size 9 to 14) (size 15 to 20)
#    0.000    2.462    1.538    3.231    4.308    0.615 
#    0.000    0.769    0.000    1.846    0.000    0.000 
#    0.000    0.000    0.000    0.000    0.000    0.000 
#
# Total GULP energy -322228.931964 kJ/mol
# GULP energy per Si atom -12393.420460 kJ/mol
# Density = 1.963779 g / cm^3
# Si number density = 19.682586 Si / 1000 Ang^3
#
#
#
# Elastic Constant Matrix: (Units=GPa)
#
#
# Indices 1 2 3 4 5 6 
#
# 1 57.4198 23.8629 34.5558 0.0002 15.5209 0.0000
# 2 23.8629 88.3741 43.9651 0.0006 9.7866 -0.0002
# 3 34.5558 43.9651 129.9013 0.0006 13.6957 -0.0006
# 4 0.0002 0.0006 0.0006 39.5981 -0.0004 13.0381
# 5 15.5209 9.7866 13.6957 -0.0004 27.1477 0.0003
# 6 0.0000 -0.0002 -0.0006 13.0381 0.0003 10.2334
#
#
#
# Elastic Compliance Matrix: (Units=1/GPa)
#
#
# Indices 1 2 3 4 5 6 
#
# 1 0.024145 -0.003261 -0.004212 0.000000 -0.010504 0.000000
# 2 -0.003261 0.014241 -0.003810 0.000000 -0.001347 0.000001
# 3 -0.004212 -0.003810 0.010255 0.000000 -0.001392 0.000001
# 4 0.000000 0.000000 0.000000 0.043504 0.000002 -0.055427
# 5 -0.010504 -0.001347 -0.001392 0.000002 0.044029 -0.000003
# 6 0.000000 0.000001 0.000001 -0.055427 -0.000003 0.168338
#
#
# Mechanical properties :
#
#
# Convention : Reuss Voigt Hill
#
# Bulk Modulus (GPa) = 38.35211 53.38476 45.86843
# Shear Modulus (GPa) = 14.89123 26.94992 20.92057
#
# Velocity S-wave (km/s) = 2.75356 3.70432 3.26375
# Velocity P-wave (km/s) = 5.44400 6.74372 6.12841
#
# Compressibility (1/GPa) = 0.02607419
#
# Stress axis : x y z
#
# Youngs Moduli (GPa) = 41.41690 70.22051 97.51442
#
# Poissons Ratio (x) = 0.22900 0.41071
# Poissons Ratio (y) = 0.13507 0.37156
# Poissons Ratio (z) = 0.17444 0.26756
#
# Static dielectric constant tensor:
#      x y z
#    x 3.399890 0.000000 0.810250 
#    y 0.000000 4.089180 0.000000 
#    z 0.810250 0.000000 4.646140 
# 
# 
# High freq. dielectric constant tensor:
#      x y z
#    x 1.712390 0.000000 0.027370 
#    y 0.000000 1.762540 0.000000 
#    z 0.027370 0.000000 1.787940 
# 
# From -- ./inp_files/313197.got.cif
#   From: 2010.06.25/outbox.cif.g09.slc.cpg/sg15_157_cif.got.tgz:313197.got - 2010.06.28 07:06:18.
