data_PCOD8151445
_publ_section_title
;
Structure prediction by ZEFSAII (Michael W. Deem and Ramdas Pophale) SiO2 
 PCOD8151445
Probable space group: C 2/C
;
_chemical_formula_sum "Si O2"
_cell_formula_units_Z 60
_cell_length_a 19.093968
_cell_length_b 31.085978
_cell_length_c 14.289563
_cell_angle_alpha 90.000000
_cell_angle_beta 159.725717
_cell_angle_gamma 90.000000
_cell_volume 2939.011409
_symmetry_space_group_name_H-M "C 2/C"
_symmetry_group_IT_number 15
_symmetry_cell_setting 'monoclinic'
loop_
_space_group_symop_operation_xyz
x,y,z
-x,y,1/2-z
-x,-y,-z
x,-y,1/2+z
1/2+x,1/2+y,z
1/2-x,1/2+y,1/2-z
1/2-x,1/2-y,-z
1/2+x,1/2-y,1/2+z
loop_
_atom_site_type_symbol
_atom_site_label
_atom_site_fract_x
_atom_site_fract_y
_atom_site_fract_z
Si Si1 0.066168 0.297961 0.437225
Si Si2 0.500000 0.022482 0.250000
Si Si3 0.159734 0.204678 0.534831
Si Si4 0.057178 0.142949 0.097465
Si Si5 0.010107 0.450776 0.552305
Si Si6 0.438629 0.406282 0.073986
Si Si7 0.579924 0.504759 0.703364
Si Si8 0.594802 0.576439 0.461813
O O1 0.879839 0.308640 0.272119
O O2 0.000000 0.289455 0.250000
O O3 0.168375 0.252187 0.591960
O O4 0.220396 0.337166 0.627613
O O5 0.506799 0.050269 0.355553
O O6 0.688915 0.989944 0.493061
O O7 0.103125 0.172928 0.549007
O O8 0.000000 0.200508 0.250000
O O9 0.006500 0.132992 0.926283
O O10 0.045366 0.096365 0.132145
O O11 0.000000 0.500000 0.500000
O O12 0.214174 0.425890 0.779314
O O13 0.833631 0.420696 0.284210
O O14 0.500000 0.386165 0.250000
O O15 0.588491 0.446194 0.247184
O O16 0.500000 0.500000 0.500000
O O17 0.442607 0.474621 0.595156
O O18 0.500000 0.599073 0.250000
#
# Coordination Sequence:
#
# PCOD8151445 Si02
#       8
#     8   4   8   8   8   8   8   8
#     4  11  21  40  70 100 138 180 217 262 345 432
#     4  12  22  38  68  84 114 178 246 274 328 408
#     4  11  20  42  68 100 137 178 219 267 340 431
#     4  12  26  40  63 100 136 173 221 284 336 406
#     4  12  24  42  67  92 120 183 242 279 344 401
#     4  12  25  45  65  91 133 176 240 290 333 399
#     4  12  21  43  61  86 125 176 227 283 335 398
#     4  12  26  42  61  96 141 173 218 287 345 400
#
# _framework density 20.415028
#
# number of rings (size 3 to 8) (size 9 to 14) (size 15 to 20)
#    0.000    0.267    8.000    2.400    1.867    0.000 
#    1.200    0.000    0.000    0.800    0.000    0.000 
#    0.000    0.000    0.000    0.000    0.000    0.000 
#
# Total GULP energy -371651.479209 kJ/mol
# GULP energy per Si atom -12388.382640 kJ/mol
# Density = 2.036856 g / cm^3
# Si number density = 20.415028 Si / 1000 Ang^3
#
#
#
# Elastic Constant Matrix: (Units=GPa)
#
#
# Indices 1 2 3 4 5 6 
#
# 1 138.4126 40.5094 57.3572 -0.0007 -1.8269 -0.0015
# 2 40.5094 80.9101 31.1197 0.0003 2.1522 0.0000
# 3 57.3572 31.1197 134.4952 -0.0035 8.2517 -0.0062
# 4 -0.0007 0.0003 -0.0035 39.3473 -0.0018 16.5344
# 5 -1.8269 2.1522 8.2517 -0.0018 47.6911 -0.0031
# 6 -0.0015 0.0000 -0.0062 16.5344 -0.0031 49.3223
#
#
#
# Elastic Compliance Matrix: (Units=1/GPa)
#
#
# Indices 1 2 3 4 5 6 
#
# 1 0.009684 -0.003582 -0.003370 0.000000 0.001116 0.000000
# 2 -0.003582 0.014892 -0.001888 0.000000 -0.000483 0.000000
# 3 -0.003370 -0.001888 0.009412 0.000000 -0.001672 0.000001
# 4 0.000000 0.000000 0.000000 0.029582 0.000000 -0.009917
# 5 0.001116 -0.000483 -0.001672 0.000000 0.021322 0.000001
# 6 0.000000 0.000000 0.000001 -0.009917 0.000001 0.023599
#
#
# Mechanical properties :
#
#
# Convention : Reuss Voigt Hill
#
# Bulk Modulus (GPa) = 61.32132 67.97672 64.64902
# Shear Modulus (GPa) = 37.99167 42.26091 40.12629
#
# Velocity S-wave (km/s) = 4.31857 4.55476 4.43824
# Velocity P-wave (km/s) = 7.41413 7.81222 7.61578
#
# Compressibility (1/GPa) = 0.01630754
#
# Stress axis : x y z
#
# Youngs Moduli (GPa) = 103.26047 67.14964 106.25017
#
# Poissons Ratio (x) = 0.24055 0.35801
# Poissons Ratio (y) = 0.36991 0.20065
# Poissons Ratio (z) = 0.34794 0.12681
#
# Static dielectric constant tensor:
#      x y z
#    x 2.267820 -0.000050 0.787480 
#    y -0.000050 3.904780 0.000010 
#    z 0.787480 0.000010 3.368840 
# 
# 
# High freq. dielectric constant tensor:
#      x y z
#    x 1.811210 0.000000 0.013300 
#    y 0.000000 1.775600 0.000000 
#    z 0.013300 0.000000 1.793010 
# 
# From -- ./inp_files/170045.got.cif
#   From: 2010.06.25/outbox.cif.g09.slc.cpg/sg15_86_cif.got.tgz:170045.got - 2010.06.28 07:06:18.
