data_PCOD8151540
_publ_section_title
;
Structure prediction by ZEFSAII (Michael W. Deem and Ramdas Pophale) SiO2 
 PCOD8151540
Probable space group: C 2/C
;
_chemical_formula_sum "Si O2"
_cell_formula_units_Z 32
_cell_length_a 14.837735
_cell_length_b 9.607764
_cell_length_c 26.540272
_cell_angle_alpha 90.000000
_cell_angle_beta 152.760462
_cell_angle_gamma 90.000000
_cell_volume 1731.758002
_symmetry_space_group_name_H-M "C 2/C"
_symmetry_group_IT_number 15
_symmetry_cell_setting 'monoclinic'
loop_
_space_group_symop_operation_xyz
x,y,z
-x,y,1/2-z
-x,-y,-z
x,-y,1/2+z
1/2+x,1/2+y,z
1/2-x,1/2+y,1/2-z
1/2-x,1/2-y,-z
1/2+x,1/2-y,1/2+z
loop_
_atom_site_type_symbol
_atom_site_label
_atom_site_fract_x
_atom_site_fract_y
_atom_site_fract_z
Si Si1 0.967452 0.012495 0.676808
Si Si2 0.037559 0.170884 0.124676
Si Si3 0.356837 0.950807 0.055052
Si Si4 0.566116 0.168148 0.227615
O O1 0.000000 0.963011 0.750000
O O2 0.029259 0.170669 0.699690
O O3 0.737400 0.997261 0.545724
O O4 0.099480 0.911957 0.706722
O O5 0.200365 0.141145 0.163001
O O6 0.025911 0.335953 0.130439
O O7 0.821412 0.116036 0.999492
O O8 0.443579 0.083931 0.125671
O O9 0.500000 0.119768 0.250000
#
# Coordination Sequence:
#
# PCOD8151540 Si02
#       4
#     8   8   8   8
#     4   9  19  37  58  81 110 145 188 224 274 330
#     4   9  20  38  57  79 116 142 189 227 271 331
#     4   9  20  39  58  81 114 145 186 229 280 320
#     4  11  21  35  57  85 115 146 185 226 276 332
#
# _framework density 18.478332999999999
#
# number of rings (size 3 to 8) (size 9 to 14) (size 15 to 20)
#    1.500    1.000    0.000    2.250    0.000    2.000 
#    0.000   13.750    0.000    0.000    0.000    0.000 
#    0.000    0.000    0.000    0.000    0.000    0.000 
#
# Total GULP energy -198242.143729 kJ/mol
# GULP energy per Si atom -12390.133983 kJ/mol
# Density = 1.843628 g / cm^3
# Si number density = 18.478333 Si / 1000 Ang^3
#
#
#
# Elastic Constant Matrix: (Units=GPa)
#
#
# Indices 1 2 3 4 5 6 
#
# 1 127.8853 32.3621 55.5977 0.0001 10.7153 -0.0001
# 2 32.3621 58.1360 27.6160 -0.0001 -5.5462 -0.0002
# 3 55.5977 27.6160 81.9575 0.0001 -4.3783 -0.0011
# 4 0.0001 -0.0001 0.0001 16.8202 -0.0001 -2.6139
# 5 10.7153 -5.5462 -4.3783 -0.0001 30.3465 -0.0001
# 6 -0.0001 -0.0002 -0.0011 -2.6139 -0.0001 15.0436
#
#
#
# Elastic Compliance Matrix: (Units=1/GPa)
#
#
# Indices 1 2 3 4 5 6 
#
# 1 0.012660 -0.004059 -0.007557 0.000000 -0.006302 -0.000001
# 2 -0.004059 0.022014 -0.004407 0.000000 0.004821 0.000000
# 3 -0.007557 -0.004407 0.019059 0.000000 0.004613 0.000001
# 4 0.000000 0.000000 0.000000 0.061102 0.000000 0.010617
# 5 -0.006302 0.004821 0.004613 0.000000 0.036725 0.000001
# 6 -0.000001 0.000000 0.000001 0.010617 0.000001 0.068318
#
#
# Mechanical properties :
#
#
# Convention : Reuss Voigt Hill
#
# Bulk Modulus (GPa) = 46.10946 55.45893 50.78419
# Shear Modulus (GPa) = 19.29360 22.60226 20.94793
#
# Velocity S-wave (km/s) = 3.23479 3.50119 3.37062
# Velocity P-wave (km/s) = 6.24173 6.81341 6.53383
#
# Compressibility (1/GPa) = 0.02168752
#
# Stress axis : x y z
#
# Youngs Moduli (GPa) = 78.98742 45.42646 52.46737
#
# Poissons Ratio (x) = 0.18438 0.39652
# Poissons Ratio (y) = 0.32059 0.23121
# Poissons Ratio (z) = 0.59694 0.20018
#
# Static dielectric constant tensor:
#      x y z
#    x 3.207240 0.000000 0.070570 
#    y 0.000000 3.394880 0.000000 
#    z 0.070570 0.000000 3.201900 
# 
# 
# High freq. dielectric constant tensor:
#      x y z
#    x 1.694480 0.000000 0.010720 
#    y 0.000000 1.729510 0.000000 
#    z 0.010720 0.000000 1.701290 
# 
# From -- ./inp_files/84276.got.cif
#   From: 2010.06.25/outbox.cif.g09.slc.cpg/sg15_43_cif.got.tgz:84276.got - 2010.06.28 07:06:18.
