data_PCOD8151198
_publ_section_title
;
Structure prediction by ZEFSAII (Michael W. Deem and Ramdas Pophale) SiO2 
 PCOD8151198
Probable space group: C 2/C
;
_chemical_formula_sum "Si O2"
_cell_formula_units_Z 56
_cell_length_a 16.814888
_cell_length_b 17.807611
_cell_length_c 9.694952
_cell_angle_alpha 90.000000
_cell_angle_beta 75.938489
_cell_angle_gamma 90.000000
_cell_volume 2816.001663
_symmetry_space_group_name_H-M "C 2/C"
_symmetry_group_IT_number 15
_symmetry_cell_setting 'monoclinic'
loop_
_space_group_symop_operation_xyz
x,y,z
-x,y,1/2-z
-x,-y,-z
x,-y,1/2+z
1/2+x,1/2+y,z
1/2-x,1/2+y,1/2-z
1/2-x,1/2-y,-z
1/2+x,1/2-y,1/2+z
loop_
_atom_site_type_symbol
_atom_site_label
_atom_site_fract_x
_atom_site_fract_y
_atom_site_fract_z
Si Si1 0.078947 0.090493 0.498876
Si Si2 0.094675 0.423281 0.177530
Si Si3 0.823754 0.488497 0.616432
Si Si4 0.180464 0.123400 0.203408
Si Si5 0.213816 0.716496 0.657752
Si Si6 0.694835 0.610416 0.682792
Si Si7 0.596879 0.425234 0.472779
O O1 0.114309 0.086929 0.330776
O O2 0.135267 0.136950 0.582986
O O3 0.985942 0.121531 0.529894
O O4 0.075185 0.004340 0.554126
O O5 0.127145 0.483492 0.272614
O O6 0.142983 0.344436 0.160065
O O7 0.000000 0.406268 0.250000
O O8 0.109566 0.463373 0.024699
O O9 0.768482 0.416723 0.679683
O O10 0.766935 0.558308 0.588018
O O11 0.181291 0.210187 0.250283
O O12 0.152976 0.121019 0.054899
O O13 0.250000 0.750000 0.500000
O O14 0.278048 0.682735 0.740770
O O15 0.646694 0.558598 0.812127
#
# Coordination Sequence:
#
# PCOD8151198 Si02
#       7
#     8   8   8   8   8   8   8
#     4  11  22  33  56  94 127 153 202 264 312 360
#     4  11  24  41  65  94 124 158 210 272 321 370
#     4  11  20  38  65  90 118 159 214 265 308 369
#     4  12  21  38  62  89 119 171 214 252 311 391
#     4  11  23  41  64  87 120 170 216 248 316 394
#     4  11  21  38  61  89 122 165 210 258 310 381
#     4  11  20  35  58  90 126 161 200 253 315 374
#
# _framework density 19.886351000000001
#
# number of rings (size 3 to 8) (size 9 to 14) (size 15 to 20)
#    0.000    0.857    5.714    3.000    0.000    4.000 
#    0.000    0.000    0.000    3.429    0.000    0.000 
#    0.000    0.000    0.000    0.000    0.000    0.000 
#
# Total GULP energy -347063.066533 kJ/mol
# GULP energy per Si atom -12395.109519 kJ/mol
# Density = 1.984109 g / cm^3
# Si number density = 19.886351 Si / 1000 Ang^3
#
#
#
# Elastic Constant Matrix: (Units=GPa)
#
#
# Indices 1 2 3 4 5 6 
#
# 1 110.4082 38.7544 37.3676 0.0000 -6.8422 0.0000
# 2 38.7544 107.7574 30.7483 0.0000 0.5694 0.0000
# 3 37.3676 30.7483 92.0482 0.0000 -8.7960 0.0000
# 4 0.0000 0.0000 0.0000 27.9743 0.0000 2.9821
# 5 -6.8422 0.5694 -8.7960 0.0000 33.0722 0.0000
# 6 0.0000 0.0000 0.0000 2.9821 0.0000 18.4145
#
#
#
# Elastic Compliance Matrix: (Units=1/GPa)
#
#
# Indices 1 2 3 4 5 6 
#
# 1 0.011415 -0.003130 -0.003445 0.000000 0.001499 0.000000
# 2 -0.003130 0.011157 -0.002602 0.000000 -0.001532 0.000000
# 3 -0.003445 -0.002602 0.013409 0.000000 0.002898 0.000000
# 4 0.000000 0.000000 0.000000 0.036375 0.000000 -0.005891
# 5 0.001499 -0.001532 0.002898 0.000000 0.031344 0.000000
# 6 0.000000 0.000000 0.000000 -0.005891 0.000000 0.055259
#
#
# Mechanical properties :
#
#
# Convention : Reuss Voigt Hill
#
# Bulk Modulus (GPa) = 56.73839 58.21716 57.47777
# Shear Modulus (GPa) = 27.29424 29.44844 28.37134
#
# Velocity S-wave (km/s) = 3.70876 3.85234 3.78123
# Velocity P-wave (km/s) = 6.85078 7.00898 6.93033
#
# Compressibility (1/GPa) = 0.01762475
#
# Stress axis : x y z
#
# Youngs Moduli (GPa) = 87.60462 89.63335 74.57826
#
# Poissons Ratio (x) = 0.28057 0.25693
# Poissons Ratio (y) = 0.27422 0.19409
# Poissons Ratio (z) = 0.30180 0.23327
#
# Static dielectric constant tensor:
#      x y z
#    x 3.715740 0.000000 -0.013350 
#    y 0.000000 3.712710 0.000000 
#    z -0.013350 0.000000 3.569050 
# 
# 
# High freq. dielectric constant tensor:
#      x y z
#    x 1.773290 0.000000 0.000490 
#    y 0.000000 1.757140 0.000000 
#    z 0.000490 0.000000 1.782180 
# 
# From -- ./inp_files/49044.got.cif
#   From: 2010.06.25/outbox.cif.g09.slc.cpg/sg15_25_cif.got.tgz:49044.got - 2010.06.28 07:06:18.
