data_PCOD8151508
_publ_section_title
;
Structure prediction by ZEFSAII (Michael W. Deem and Ramdas Pophale) SiO2 
 PCOD8151508
Probable space group: C 2/C
;
_chemical_formula_sum "Si O2"
_cell_formula_units_Z 44
_cell_length_a 15.228204
_cell_length_b 16.562253
_cell_length_c 8.796406
_cell_angle_alpha 90.000000
_cell_angle_beta 63.710524
_cell_angle_gamma 90.000000
_cell_volume 1989.099476
_symmetry_space_group_name_H-M "C 2/C"
_symmetry_group_IT_number 15
_symmetry_cell_setting 'monoclinic'
loop_
_space_group_symop_operation_xyz
x,y,z
-x,y,1/2-z
-x,-y,-z
x,-y,1/2+z
1/2+x,1/2+y,z
1/2-x,1/2+y,1/2-z
1/2-x,1/2-y,-z
1/2+x,1/2-y,1/2+z
loop_
_atom_site_type_symbol
_atom_site_label
_atom_site_fract_x
_atom_site_fract_y
_atom_site_fract_z
Si Si1 0.000000 0.750793 0.750000
Si Si2 0.880265 0.816140 0.110920
Si Si3 0.164372 0.282812 0.327466
Si Si4 0.393247 0.472412 0.289660
Si Si5 0.894099 0.662674 0.304251
Si Si6 0.796383 0.900950 0.660373
O O1 0.928089 0.692614 0.706923
O O2 0.065526 0.806798 0.590722
O O3 0.763795 0.811255 0.170414
O O4 0.909586 0.903372 0.151052
O O5 0.913678 0.747225 0.203693
O O6 0.160930 0.323673 0.494515
O O7 0.157364 0.186726 0.351493
O O8 0.500000 0.507059 0.250000
O O9 0.338783 0.437556 0.475470
O O10 0.324458 0.543726 0.280843
O O11 0.822446 0.605818 0.259903
O O12 0.000000 0.621099 0.250000
#
# Coordination Sequence:
#
# PCOD8151508 Si02
#       6
#     4   8   8   8   8   8
#     4  12  24  34  62 106 128 162 210 278 318 370
#     4  11  22  41  67  96 132 167 217 262 323 376
#     4  11  22  42  67  93 132 170 218 266 316 382
#     4  12  24  42  64  97 135 174 203 262 329 393
#     4  11  20  46  74  89 118 179 225 264 313 385
#     4  11  25  41  64  96 132 170 213 262 321 388
#
# _framework density 22.120562
#
# number of rings (size 3 to 8) (size 9 to 14) (size 15 to 20)
#    0.000    0.727    5.455    3.818    3.818    0.000 
#    0.000    0.909    2.000    0.000    0.000    0.000 
#    0.000    0.000    0.000    0.000    0.000    0.000 
#
# Total GULP energy -272893.113748 kJ/mol
# GULP energy per Si atom -12404.232443 kJ/mol
# Density = 2.207021 g / cm^3
# Si number density = 22.120562 Si / 1000 Ang^3
#
#
#
# Elastic Constant Matrix: (Units=GPa)
#
#
# Indices 1 2 3 4 5 6 
#
# 1 198.5992 52.8620 38.0007 0.0000 -13.6494 0.0000
# 2 52.8620 66.3923 17.4734 0.0000 -1.1262 0.0000
# 3 38.0007 17.4734 112.9843 0.0000 -12.1126 0.0000
# 4 0.0000 0.0000 0.0000 10.3236 0.0000 -1.2649
# 5 -13.6494 -1.1262 -12.1126 0.0000 35.6629 0.0000
# 6 0.0000 0.0000 0.0000 -1.2649 0.0000 24.7065
#
#
#
# Elastic Compliance Matrix: (Units=1/GPa)
#
#
# Indices 1 2 3 4 5 6 
#
# 1 0.006749 -0.005002 -0.001283 0.000000 0.001989 0.000000
# 2 -0.005002 0.019413 -0.001514 0.000000 -0.001816 0.000000
# 3 -0.001283 -0.001514 0.009816 0.000000 0.002795 0.000000
# 4 0.000000 0.000000 0.000000 0.097477 0.000000 0.004990
# 5 0.001989 -0.001816 0.002795 0.000000 0.029694 0.000000
# 6 0.000000 0.000000 0.000000 0.004990 0.000000 0.040731
#
#
# Mechanical properties :
#
#
# Convention : Reuss Voigt Hill
#
# Bulk Modulus (GPa) = 49.07174 66.07199 57.57187
# Shear Modulus (GPa) = 22.09741 32.11459 27.10600
#
# Velocity S-wave (km/s) = 3.16405 3.81438 3.50433
# Velocity P-wave (km/s) = 5.96492 7.02376 6.51588
#
# Compressibility (1/GPa) = 0.02037833
#
# Stress axis : x y z
#
# Youngs Moduli (GPa) = 148.17164 51.51316 101.87247
#
# Poissons Ratio (x) = 0.25768 0.13071
# Poissons Ratio (y) = 0.74117 0.15428
# Poissons Ratio (z) = 0.19011 0.07802
#
# Static dielectric constant tensor:
#      x y z
#    x 4.504890 0.000000 0.009150 
#    y 0.000000 3.696270 0.000000 
#    z 0.009150 0.000000 4.016960 
# 
# 
# High freq. dielectric constant tensor:
#      x y z
#    x 1.897140 0.000000 0.001080 
#    y 0.000000 1.826020 0.000000 
#    z 0.001080 0.000000 1.877840 
# 
# From -- ./inp_files/48875.got.cif
#   From: 2010.06.25/outbox.cif.g09.slc.cpg/sg15_25_cif.got.tgz:48875.got - 2010.06.28 07:06:18.
