data_PCOD8151309
_publ_section_title
;
Structure prediction by ZEFSAII (Michael W. Deem and Ramdas Pophale) SiO2 
 PCOD8151309
Probable space group: C 2/C
;
_chemical_formula_sum "Si O2"
_cell_formula_units_Z 64
_cell_length_a 20.049021
_cell_length_b 8.763124
_cell_length_c 27.955947
_cell_angle_alpha 90.000000
_cell_angle_beta 36.121456
_cell_angle_gamma 90.000000
_cell_volume 2895.405054
_symmetry_space_group_name_H-M "C 2/C"
_symmetry_group_IT_number 15
_symmetry_cell_setting 'monoclinic'
loop_
_space_group_symop_operation_xyz
x,y,z
-x,y,1/2-z
-x,-y,-z
x,-y,1/2+z
1/2+x,1/2+y,z
1/2-x,1/2+y,1/2-z
1/2-x,1/2-y,-z
1/2+x,1/2-y,1/2+z
loop_
_atom_site_type_symbol
_atom_site_label
_atom_site_fract_x
_atom_site_fract_y
_atom_site_fract_z
Si Si1 0.884688 0.628874 0.687040
Si Si2 0.807647 0.988787 0.084263
Si Si3 0.048338 0.936586 0.086299
Si Si4 0.339100 0.518979 0.884230
Si Si5 0.614478 0.759003 0.206970
Si Si6 0.389497 0.148633 0.339726
Si Si7 0.402180 0.922077 0.937804
Si Si8 0.333451 0.560128 0.173977
O O1 0.894600 0.723262 0.730763
O O2 0.794238 0.491925 0.741150
O O3 0.848452 0.756181 0.669133
O O4 0.999993 0.542702 0.605384
O O5 0.722207 0.131596 0.127787
O O6 0.865794 0.004046 0.102042
O O7 0.726972 0.842713 0.123695
O O8 0.904486 0.984009 0.988807
O O9 0.108201 0.029428 0.095005
O O10 0.064549 0.754675 0.074559
O O11 0.915163 0.973196 0.163947
O O12 0.370129 0.412872 0.821447
O O13 0.406980 0.673761 0.836542
O O14 0.204224 0.539382 0.967105
O O15 0.500000 0.827402 0.250000
O O16 0.500000 0.079977 0.250000
O O17 0.369810 0.058541 0.400877
#
# Coordination Sequence:
#
# PCOD8151309 Si02
#       8
#     8   8   8   8   8   8   8   8
#     4  11  25  45  66  93 131 176 224 275 321 395
#     4  11  22  40  62  91 131 170 213 268 321 392
#     4  11  22  42  65  96 132 166 217 269 324 403
#     4  11  23  40  67  99 132 165 214 272 335 385
#     4  11  24  40  63  99 131 166 215 275 336 388
#     4  11  20  38  67  97 129 169 212 265 325 389
#     4  11  22  44  68  96 130 169 216 275 335 384
#     4  11  25  42  64  91 128 179 221 261 329 386
#
# _framework density 22.103988000000001
#
# number of rings (size 3 to 8) (size 9 to 14) (size 15 to 20)
#    0.000    1.000    2.500    5.625    1.750    3.500 
#    0.000    0.625    0.000    0.000    0.000    0.000 
#    0.000    0.000    0.000    0.000    0.000    0.000 
#
# Total GULP energy -396673.911601 kJ/mol
# GULP energy per Si atom -12396.059738 kJ/mol
# Density = 2.205368 g / cm^3
# Si number density = 22.103988 Si / 1000 Ang^3
#
#
#
# Elastic Constant Matrix: (Units=GPa)
#
#
# Indices 1 2 3 4 5 6 
#
# 1 68.2744 22.2615 6.9110 0.0018 -23.0741 -0.0285
# 2 22.2615 80.5320 3.1382 -0.0067 -8.7798 0.0046
# 3 6.9110 3.1382 58.4430 0.0058 -14.8820 -0.0053
# 4 0.0018 -0.0067 0.0058 39.3205 0.0105 -5.7351
# 5 -23.0741 -8.7798 -14.8820 0.0105 27.3491 -0.0210
# 6 -0.0285 0.0046 -0.0053 -5.7351 -0.0210 37.0486
#
#
#
# Elastic Compliance Matrix: (Units=1/GPa)
#
#
# Indices 1 2 3 4 5 6 
#
# 1 0.022025 -0.004161 0.002334 -0.000003 0.018517 0.000028
# 2 -0.004161 0.013663 -0.000022 0.000002 0.000864 -0.000004
# 3 0.002334 -0.000022 0.020124 -0.000005 0.012913 0.000011
# 4 -0.000003 0.000002 -0.000005 0.026020 -0.000012 0.004028
# 5 0.018517 0.000864 0.012913 -0.000012 0.059490 0.000048
# 6 0.000028 -0.000004 0.000011 0.004028 0.000048 0.027615
#
#
# Mechanical properties :
#
#
# Convention : Reuss Voigt Hill
#
# Bulk Modulus (GPa) = 19.18829 30.20786 24.69807
# Shear Modulus (GPa) = 26.31514 32.40622 29.36068
#
# Velocity S-wave (km/s) = 3.45413 3.83310 3.64854
# Velocity P-wave (km/s) = 4.96062 5.76941 5.38023
#
# Compressibility (1/GPa) = 0.05211512
#
# Stress axis : x y z
#
# Youngs Moduli (GPa) = 45.40281 73.19254 49.69212
#
# Poissons Ratio (x) = 0.30453 -0.11598
# Poissons Ratio (y) = 0.18890 0.00107
# Poissons Ratio (z) = -0.10597 0.00158
#
# Static dielectric constant tensor:
#      x y z
#    x 3.977080 -0.000030 -0.062140 
#    y -0.000030 3.836260 0.000030 
#    z -0.062140 0.000030 3.922650 
# 
# 
# High freq. dielectric constant tensor:
#      x y z
#    x 1.864520 0.000000 -0.009820 
#    y 0.000000 1.867960 0.000000 
#    z -0.009820 0.000000 1.875640 
# 
# From -- ./inp_files/315681.got.cif
#   From: 2010.06.25/outbox.cif.g09.slc.cpg/sg15_158_cif.got.tgz:315681.got - 2010.06.28 07:06:18.
