data_PCOD8151806
_publ_section_title
;
Structure prediction by ZEFSAII (Michael W. Deem and Ramdas Pophale) SiO2 
 PCOD8151806
Probable space group: C 2/C
;
_chemical_formula_sum "Si O2"
_cell_formula_units_Z 40
_cell_length_a 30.470434
_cell_length_b 10.356548
_cell_length_c 22.528576
_cell_angle_alpha 90.000000
_cell_angle_beta 165.558089
_cell_angle_gamma 90.000000
_cell_volume 1773.049806
_symmetry_space_group_name_H-M "C 2/C"
_symmetry_group_IT_number 15
_symmetry_cell_setting 'monoclinic'
loop_
_space_group_symop_operation_xyz
x,y,z
-x,y,1/2-z
-x,-y,-z
x,-y,1/2+z
1/2+x,1/2+y,z
1/2-x,1/2+y,1/2-z
1/2-x,1/2-y,-z
1/2+x,1/2-y,1/2+z
loop_
_atom_site_type_symbol
_atom_site_label
_atom_site_fract_x
_atom_site_fract_y
_atom_site_fract_z
Si Si1 0.354728 0.250083 0.429331
Si Si2 0.474187 0.847806 0.958692
Si Si3 0.483182 0.507831 0.577676
Si Si4 0.392577 0.723797 0.549682
Si Si5 0.784969 0.504136 0.882005
O O1 0.418292 0.220230 0.446408
O O2 0.459827 0.378326 0.587565
O O3 0.399669 0.128597 0.531342
O O4 0.144075 0.275882 0.155400
O O5 0.309060 0.817335 0.699521
O O6 0.500000 0.000000 0.000000
O O7 0.474775 0.631496 0.607876
O O8 0.669320 0.508516 0.789467
O O9 0.324501 0.502789 0.322482
O O10 0.500000 0.709500 0.750000
O O11 0.408125 0.870031 0.544287
#
# Coordination Sequence:
#
# PCOD8151806 Si02
#       5
#     8   8   8   8   8
#     4  12  21  42  74 104 130 182 253 293 329 418
#     4  12  24  41  74 108 135 187 245 292 347 424
#     4  11  21  42  68 101 134 187 245 289 335 434
#     4  12  27  43  66 107 152 180 227 303 374 413
#     4  11  21  40  70 101 139 184 238 293 346 422
#
# _framework density 22.559999000000001
#
# number of rings (size 3 to 8) (size 9 to 14) (size 15 to 20)
#    0.000    0.400    8.000    1.200    0.000    0.800 
#    0.000    1.000    0.000    3.600    0.000    0.000 
#    0.000    0.000    0.000    0.000    0.000    0.000 
#
# Total GULP energy -247945.804060 kJ/mol
# GULP energy per Si atom -12397.290203 kJ/mol
# Density = 2.250865 g / cm^3
# Si number density = 22.559999 Si / 1000 Ang^3
#
#
#
# Elastic Constant Matrix: (Units=GPa)
#
#
# Indices 1 2 3 4 5 6 
#
# 1 120.9827 77.1442 47.2654 -0.0011 14.0775 -0.0008
# 2 77.1442 237.5822 51.0775 -0.0004 8.9003 -0.0003
# 3 47.2654 51.0775 57.1023 -0.0026 -3.0162 -0.0017
# 4 -0.0011 -0.0004 -0.0026 23.6791 -0.0016 14.4695
# 5 14.0775 8.9003 -3.0162 -0.0016 30.8136 -0.0010
# 6 -0.0008 -0.0003 -0.0017 14.4695 -0.0010 46.0999
#
#
#
# Elastic Compliance Matrix: (Units=1/GPa)
#
#
# Indices 1 2 3 4 5 6 
#
# 1 0.014591 -0.002225 -0.010459 -0.000001 -0.007047 0.000000
# 2 -0.002225 0.005672 -0.003282 0.000000 -0.000943 0.000000
# 3 -0.010459 -0.003282 0.029561 0.000003 0.008620 0.000000
# 4 -0.000001 0.000000 0.000003 0.052253 0.000003 -0.016401
# 5 -0.007047 -0.000943 0.008620 0.000003 0.036789 0.000000
# 6 0.000000 0.000000 0.000000 -0.016401 0.000000 0.026840
#
#
# Mechanical properties :
#
#
# Convention : Reuss Voigt Hill
#
# Bulk Modulus (GPa) = 55.89225 85.18239 70.53732
# Shear Modulus (GPa) = 24.55774 36.13053 30.34414
#
# Velocity S-wave (km/s) = 3.30290 4.00625 3.67146
# Velocity P-wave (km/s) = 6.27489 7.69677 7.02191
#
# Compressibility (1/GPa) = 0.01789157
#
# Stress axis : x y z
#
# Youngs Moduli (GPa) = 68.53760 176.28916 33.82868
#
# Poissons Ratio (x) = 0.39226 0.35381
# Poissons Ratio (y) = 0.15250 0.11103
# Poissons Ratio (z) = 0.71683 0.57859
#
# Static dielectric constant tensor:
#      x y z
#    x 4.078290 0.000000 0.517330 
#    y 0.000000 5.273130 0.000000 
#    z 0.517330 0.000000 3.887260 
# 
# 
# High freq. dielectric constant tensor:
#      x y z
#    x 1.880370 0.000000 0.043800 
#    y 0.000000 1.937530 0.000000 
#    z 0.043800 0.000000 1.834660 
# 
# From -- ./inp_files/257446.got.cif
#   From: 2010.06.25/outbox.cif.g09.slc.cpg/sg15_129_cif.got.tgz:257446.got - 2010.06.28 07:06:18.
