data_PCOD8151379
_publ_section_title
;
Structure prediction by ZEFSAII (Michael W. Deem and Ramdas Pophale) SiO2 
 PCOD8151379
Probable space group: C 2/C
;
_chemical_formula_sum "Si O2"
_cell_formula_units_Z 56
_cell_length_a 12.343826
_cell_length_b 12.678558
_cell_length_c 20.574114
_cell_angle_alpha 90.000000
_cell_angle_beta 58.814891
_cell_angle_gamma 90.000000
_cell_volume 2754.610715
_symmetry_space_group_name_H-M "C 2/C"
_symmetry_group_IT_number 15
_symmetry_cell_setting 'monoclinic'
loop_
_space_group_symop_operation_xyz
x,y,z
-x,y,1/2-z
-x,-y,-z
x,-y,1/2+z
1/2+x,1/2+y,z
1/2-x,1/2+y,1/2-z
1/2-x,1/2-y,-z
1/2+x,1/2-y,1/2+z
loop_
_atom_site_type_symbol
_atom_site_label
_atom_site_fract_x
_atom_site_fract_y
_atom_site_fract_z
Si Si1 0.135493 0.224464 0.943140
Si Si2 0.142338 0.796475 0.986595
Si Si3 0.831573 0.673546 0.650348
Si Si4 0.828998 0.976820 0.982834
Si Si5 0.369697 0.503795 0.319682
Si Si6 0.429759 0.927463 0.470178
Si Si7 0.354160 0.738348 0.282235
O O1 0.159278 0.335901 0.970989
O O2 0.255445 0.200846 0.859868
O O3 0.121906 0.129700 0.998884
O O4 0.999346 0.242884 0.949440
O O5 0.176885 0.759834 0.903568
O O6 0.250000 0.750000 0.000000
O O7 0.125873 0.922101 0.991224
O O8 0.735389 0.580032 0.666446
O O9 0.807789 0.731724 0.725019
O O10 0.971307 0.622902 0.610180
O O11 0.676475 0.994036 0.033724
O O12 0.882648 0.981447 0.892921
O O13 0.500000 0.459622 0.250000
O O14 0.336122 0.613784 0.295666
O O15 0.500000 0.000000 0.500000
O O16 0.500000 0.772394 0.250000
#
# Coordination Sequence:
#
# PCOD8151379 Si02
#       7
#     8   8   8   8   8   8   8
#     4  11  24  39  67  96 129 174 224 271 331 391
#     4  11  24  42  65  97 127 171 224 275 329 399
#     4  11  24  43  66  92 130 174 214 268 336 401
#     4  12  22  41  66  99 129 168 226 278 321 397
#     4  11  25  40  65  94 134 174 212 272 342 393
#     4  11  20  40  66  92 125 174 221 267 331 392
#     4  11  25  43  64  96 134 170 217 272 334 400
#
# _framework density 20.329552
#
# number of rings (size 3 to 8) (size 9 to 14) (size 15 to 20)
#    0.000    0.857    4.286    2.571   10.000    1.143 
#    0.000    0.000    0.000    0.857    0.000    0.000 
#    0.000    0.000    0.000    0.000    0.000    0.000 
#
# Total GULP energy -347131.597453 kJ/mol
# GULP energy per Si atom -12397.557052 kJ/mol
# Density = 2.028328 g / cm^3
# Si number density = 20.329552 Si / 1000 Ang^3
#
#
#
# Elastic Constant Matrix: (Units=GPa)
#
#
# Indices 1 2 3 4 5 6 
#
# 1 102.1198 18.3270 57.5478 0.0000 -9.9881 0.0000
# 2 18.3270 90.1276 47.8582 0.0000 12.1745 0.0000
# 3 57.5478 47.8582 154.6824 0.0000 -5.1548 0.0000
# 4 0.0000 0.0000 0.0000 31.3123 0.0000 1.5879
# 5 -9.9881 12.1745 -5.1548 0.0000 31.4626 0.0000
# 6 0.0000 0.0000 0.0000 1.5879 0.0000 32.3621
#
#
#
# Elastic Compliance Matrix: (Units=1/GPa)
#
#
# Indices 1 2 3 4 5 6 
#
# 1 0.012757 -0.000750 -0.004393 0.000000 0.003620 0.000000
# 2 -0.000750 0.014482 -0.004420 0.000000 -0.006566 0.000000
# 3 -0.004393 -0.004420 0.009530 0.000000 0.001877 0.000000
# 4 0.000000 0.000000 0.000000 0.032016 0.000000 -0.001571
# 5 0.003620 -0.006566 0.001877 0.000000 0.035781 0.000000
# 6 0.000000 0.000000 0.000000 -0.001571 0.000000 0.030977
#
#
# Mechanical properties :
#
#
# Convention : Reuss Voigt Hill
#
# Bulk Modulus (GPa) = 56.68701 66.04397 61.36549
# Shear Modulus (GPa) = 31.14262 33.90719 32.52491
#
# Velocity S-wave (km/s) = 3.91818 4.08840 4.00419
# Velocity P-wave (km/s) = 6.95802 7.40566 7.18533
#
# Compressibility (1/GPa) = 0.01764073
#
# Stress axis : x y z
#
# Youngs Moduli (GPa) = 78.38890 69.05035 104.93670
#
# Poissons Ratio (x) = 0.05180 0.46102
# Poissons Ratio (y) = 0.05881 0.46387
# Poissons Ratio (z) = 0.34439 0.30523
#
# Static dielectric constant tensor:
#      x y z
#    x 3.917250 0.000000 -0.288330 
#    y 0.000000 3.806130 0.000000 
#    z -0.288330 0.000000 3.781610 
# 
# 
# High freq. dielectric constant tensor:
#      x y z
#    x 1.807280 0.000000 -0.015540 
#    y 0.000000 1.802800 0.000000 
#    z -0.015540 0.000000 1.784860 
# 
# From -- ./inp_files/198231.got.cif
#   From: 2010.06.25/outbox.cif.g09.slc.cpg/sg15_100_cif.got.tgz:198231.got - 2010.06.28 07:06:18.
