data_PCOD8151339
_publ_section_title
;
Structure prediction by ZEFSAII (Michael W. Deem and Ramdas Pophale) SiO2 
 PCOD8151339
Probable space group: C 2/C
;
_chemical_formula_sum "Si O2"
_cell_formula_units_Z 64
_cell_length_a 17.857344
_cell_length_b 16.354483
_cell_length_c 15.223483
_cell_angle_alpha 90.000000
_cell_angle_beta 134.837879
_cell_angle_gamma 90.000000
_cell_volume 3152.666984
_symmetry_space_group_name_H-M "C 2/C"
_symmetry_group_IT_number 15
_symmetry_cell_setting 'monoclinic'
loop_
_space_group_symop_operation_xyz
x,y,z
-x,y,1/2-z
-x,-y,-z
x,-y,1/2+z
1/2+x,1/2+y,z
1/2-x,1/2+y,1/2-z
1/2-x,1/2-y,-z
1/2+x,1/2-y,1/2+z
loop_
_atom_site_type_symbol
_atom_site_label
_atom_site_fract_x
_atom_site_fract_y
_atom_site_fract_z
Si Si1 0.176282 0.578486 0.786727
Si Si2 0.723466 0.158778 0.005371
Si Si3 0.837852 0.894175 0.270809
Si Si4 0.361167 0.099111 0.292011
Si Si5 0.166769 0.074821 0.257330
Si Si6 0.959500 0.829825 0.979845
Si Si7 0.979159 0.336130 0.042426
Si Si8 0.750766 0.262333 0.604343
O O1 0.210739 0.600480 0.912204
O O2 0.281571 0.587077 0.816516
O O3 0.128609 0.486798 0.749708
O O4 0.088302 0.639096 0.677115
O O5 0.615268 0.149778 0.968624
O O6 0.750000 0.250000 0.000000
O O7 0.822764 0.126809 0.144616
O O8 0.773206 0.825863 0.164974
O O9 0.958672 0.868125 0.383867
O O10 0.839799 0.979819 0.219863
O O11 0.267353 0.096473 0.282918
O O12 0.464957 0.115853 0.437569
O O13 0.342048 0.172766 0.206826
O O14 0.067859 0.102323 0.116353
O O15 0.860967 0.795820 0.953872
O O16 0.018634 0.759301 0.975976
O O17 0.750000 0.250000 0.500000
#
# Coordination Sequence:
#
# PCOD8151339 Si02
#       8
#     8   8   8   8   8   8   8   8
#     4  11  22  38  62  91 126 162 205 257 311 363
#     4  11  23  38  62  94 129 161 208 258 305 367
#     4  11  22  42  65  89 123 168 206 252 317 369
#     4   9  21  40  60  88 122 162 206 255 309 368
#     4   9  22  39  63  90 124 164 207 255 306 368
#     4  11  21  41  68  89 124 165 207 250 313 374
#     4  11  20  39  64  92 122 165 208 249 311 376
#     4  11  24  41  66  91 121 161 208 259 306 365
#
# _framework density 20.300273000000001
#
# number of rings (size 3 to 8) (size 9 to 14) (size 15 to 20)
#    0.000    1.500    2.500    2.625    3.500    0.500 
#    0.000    3.125    5.500    0.000    0.000    0.000 
#    0.000    0.000    0.000    0.000    0.000    0.000 
#
# Total GULP energy -396819.261743 kJ/mol
# GULP energy per Si atom -12400.601929 kJ/mol
# Density = 2.025407 g / cm^3
# Si number density = 20.300273 Si / 1000 Ang^3
#
#
#
# Elastic Constant Matrix: (Units=GPa)
#
#
# Indices 1 2 3 4 5 6 
#
# 1 51.4739 26.4090 40.8435 0.0000 -8.3046 0.0000
# 2 26.4090 142.2419 45.1823 0.0000 -16.7984 0.0000
# 3 40.8435 45.1823 118.1736 0.0000 -10.4467 0.0000
# 4 0.0000 0.0000 0.0000 38.6934 0.0000 -2.0631
# 5 -8.3046 -16.7984 -10.4467 0.0000 32.4717 0.0000
# 6 0.0000 0.0000 0.0000 -2.0631 0.0000 26.9170
#
#
#
# Elastic Compliance Matrix: (Units=1/GPa)
#
#
# Indices 1 2 3 4 5 6 
#
# 1 0.027778 -0.002061 -0.008521 0.000000 0.003296 0.000000
# 2 -0.002061 0.008502 -0.002260 0.000000 0.003144 0.000000
# 3 -0.008521 -0.002260 0.012326 0.000000 0.000617 0.000000
# 4 0.000000 0.000000 0.000000 0.025950 0.000000 0.001989
# 5 0.003296 0.003144 0.000617 0.000000 0.033464 0.000000
# 6 0.000000 0.000000 0.000000 0.001989 0.000000 0.037304
#
#
# Mechanical properties :
#
#
# Convention : Reuss Voigt Hill
#
# Bulk Modulus (GPa) = 43.62893 59.63989 51.63441
# Shear Modulus (GPa) = 27.98762 32.91340 30.45051
#
# Velocity S-wave (km/s) = 3.71709 4.03094 3.87719
# Velocity P-wave (km/s) = 6.32145 7.14894 6.74789
#
# Compressibility (1/GPa) = 0.02292057
#
# Stress axis : x y z
#
# Youngs Moduli (GPa) = 35.99956 117.61542 81.12928
#
# Poissons Ratio (x) = 0.24245 0.69132
# Poissons Ratio (y) = 0.07421 0.18338
# Poissons Ratio (z) = 0.30676 0.26585
#
# Static dielectric constant tensor:
#      x y z
#    x 3.441140 0.000000 0.039280 
#    y 0.000000 3.914700 0.000000 
#    z 0.039280 0.000000 4.087270 
# 
# 
# High freq. dielectric constant tensor:
#      x y z
#    x 1.767560 0.000000 0.003040 
#    y 0.000000 1.809400 0.000000 
#    z 0.003040 0.000000 1.805230 
# 
# From -- ./inp_files/162598.got.cif
#   From: 2010.06.25/outbox.cif.g09.slc.cpg/sg15_82_cif.got.tgz:162598.got - 2010.06.28 07:06:18.
