data_PCOD8152096
_publ_section_title
;
Structure prediction by ZEFSAII (Michael W. Deem and Ramdas Pophale) SiO2 
 PCOD8152096
Probable space group: C 2/C
;
_chemical_formula_sum "Si O2"
_cell_formula_units_Z 44
_cell_length_a 10.272742
_cell_length_b 20.358835
_cell_length_c 10.310031
_cell_angle_alpha 90.000000
_cell_angle_beta 96.489718
_cell_angle_gamma 90.000000
_cell_volume 2142.433884
_symmetry_space_group_name_H-M "C 2/C"
_symmetry_group_IT_number 15
_symmetry_cell_setting 'monoclinic'
loop_
_space_group_symop_operation_xyz
x,y,z
-x,y,1/2-z
-x,-y,-z
x,-y,1/2+z
1/2+x,1/2+y,z
1/2-x,1/2+y,1/2-z
1/2-x,1/2-y,-z
1/2+x,1/2-y,1/2+z
loop_
_atom_site_type_symbol
_atom_site_label
_atom_site_fract_x
_atom_site_fract_y
_atom_site_fract_z
Si Si1 0.212855 0.823198 0.961627
Si Si2 0.859339 0.108996 0.777971
Si Si3 0.167512 0.553431 0.572327
Si Si4 0.116176 0.023933 0.103954
Si Si5 0.000000 0.137032 0.250000
Si Si6 0.069308 0.583714 0.124941
O O1 0.325712 0.860641 0.897206
O O2 0.087785 0.818019 0.853138
O O3 0.250000 0.750000 0.000000
O O4 0.180377 0.861235 0.089924
O O5 0.742694 0.112920 0.657924
O O6 0.000000 0.139579 0.750000
O O7 0.871046 0.030282 0.783795
O O8 0.250206 0.529621 0.459059
O O9 0.136387 0.487847 0.653194
O O10 0.031807 0.583461 0.506253
O O11 0.090838 0.093132 0.168131
O O12 0.000000 0.000000 0.000000
O O13 0.000000 0.605152 0.250000
#
# Coordination Sequence:
#
# PCOD8152096 Si02
#       6
#     8   8   8   8   4   8
#     4  12  28  45  64  90 131 181 222 259 316 402
#     4  12  22  38  64  98 126 159 216 272 324 384
#     4  11  22  36  64  97 133 160 203 272 340 389
#     4  12  18  36  66 103 132 159 206 281 341 376
#     4  12  22  42  70  96 130 164 220 278 332 372
#     4  11  24  41  61  93 132 170 209 264 335 392
#
# _framework density 20.537389999999998
#
# number of rings (size 3 to 8) (size 9 to 14) (size 15 to 20)
#    0.000    0.364    6.364    3.273    2.545    2.182 
#    0.000    0.000    0.000    6.545    0.000    0.000 
#    0.000    0.000    0.000    0.000    0.000    0.000 
#
# Total GULP energy -272807.081597 kJ/mol
# GULP energy per Si atom -12400.321891 kJ/mol
# Density = 2.049065 g / cm^3
# Si number density = 20.537390 Si / 1000 Ang^3
#
#
#
# Elastic Constant Matrix: (Units=GPa)
#
#
# Indices 1 2 3 4 5 6 
#
# 1 116.8294 42.1530 49.2727 0.0000 -7.9029 0.0000
# 2 42.1530 93.1600 46.7315 0.0000 8.8784 0.0000
# 3 49.2727 46.7315 107.7331 0.0000 -1.9451 0.0000
# 4 0.0000 0.0000 0.0000 14.8998 0.0000 12.1120
# 5 -7.9029 8.8784 -1.9451 0.0000 50.6120 0.0000
# 6 0.0000 0.0000 0.0000 12.1120 0.0000 17.6589
#
#
#
# Elastic Compliance Matrix: (Units=1/GPa)
#
#
# Indices 1 2 3 4 5 6 
#
# 1 0.011570 -0.003605 -0.003687 0.000000 0.002297 0.000000
# 2 -0.003605 0.015204 -0.005008 0.000000 -0.003422 0.000000
# 3 -0.003687 -0.005008 0.013155 0.000000 0.000808 0.000000
# 4 0.000000 0.000000 0.000000 0.151692 0.000000 -0.104044
# 5 0.002297 -0.003422 0.000808 0.000000 0.020748 0.000000
# 6 0.000000 0.000000 0.000000 -0.104044 0.000000 0.127991
#
#
# Mechanical properties :
#
#
# Convention : Reuss Voigt Hill
#
# Bulk Modulus (GPa) = 65.23072 66.00410 65.61741
# Shear Modulus (GPa) = 13.51097 28.60516 21.05806
#
# Velocity S-wave (km/s) = 2.56768 3.73612 3.20559
# Velocity P-wave (km/s) = 6.37350 7.12879 6.76170
#
# Compressibility (1/GPa) = 0.01533020
#
# Stress axis : x y z
#
# Youngs Moduli (GPa) = 86.42707 65.77348 76.01564
#
# Poissons Ratio (x) = 0.23712 0.28024
# Poissons Ratio (y) = 0.31157 0.38068
# Poissons Ratio (z) = 0.31862 0.32939
#
# Static dielectric constant tensor:
#      x y z
#    x 1.956660 0.000000 1.471310 
#    y 0.000000 3.326690 0.000000 
#    z 1.471310 0.000000 2.880650 
# 
# 
# High freq. dielectric constant tensor:
#      x y z
#    x 1.827350 0.000000 0.005820 
#    y 0.000000 1.751170 0.000000 
#    z 0.005820 0.000000 1.823800 
# 
# From -- ./inp_files/78298.got.cif
#   From: 2010.06.25/outbox.cif.g09.slc.cpg/sg15_40_cif.got.tgz:78298.got - 2010.06.28 07:06:18.
