data_PCOD8152608
_publ_section_title
;
Structure prediction by ZEFSAII (Michael W. Deem and Ramdas Pophale) SiO2 
 PCOD8152608
Probable space group: C 2/C
;
_chemical_formula_sum "Si O2"
_cell_formula_units_Z 44
_cell_length_a 17.763647
_cell_length_b 9.830708
_cell_length_c 13.350475
_cell_angle_alpha 90.000000
_cell_angle_beta 119.245272
_cell_angle_gamma 90.000000
_cell_volume 2034.216463
_symmetry_space_group_name_H-M "C 2/C"
_symmetry_group_IT_number 15
_symmetry_cell_setting 'monoclinic'
loop_
_space_group_symop_operation_xyz
x,y,z
-x,y,1/2-z
-x,-y,-z
x,-y,1/2+z
1/2+x,1/2+y,z
1/2-x,1/2+y,1/2-z
1/2-x,1/2-y,-z
1/2+x,1/2-y,1/2+z
loop_
_atom_site_type_symbol
_atom_site_label
_atom_site_fract_x
_atom_site_fract_y
_atom_site_fract_z
Si Si1 0.855920 0.461742 0.658559
Si Si2 0.090763 0.703656 0.123853
Si Si3 0.693611 0.467951 0.182870
Si Si4 0.933849 0.210246 0.406174
Si Si5 0.500000 0.816799 0.250000
Si Si6 0.666736 0.049985 0.579662
O O1 0.904744 0.349972 0.758618
O O2 0.763854 0.499766 0.644394
O O3 0.914656 0.593421 0.682176
O O4 0.835792 0.400207 0.536126
O O5 0.103261 0.577747 0.055737
O O6 0.165001 0.812854 0.151983
O O7 0.997326 0.769223 0.042589
O O8 0.610630 0.563829 0.117075
O O9 0.736764 0.489509 0.320886
O O10 0.861922 0.328050 0.365158
O O11 0.988670 0.220696 0.339438
#
# Coordination Sequence:
#
# PCOD8152608 Si02
#       6
#     8   8   8   8   4   8
#     4  11  24  41  73 100 131 182 235 278 337 408
#     4  11  23  43  68  98 137 181 228 283 338 407
#     4  11  26  42  65 104 146 173 222 293 352 397
#     4  12  24  44  68 100 139 181 232 280 341 411
#     4  12  22  42  70 102 126 182 230 274 332 410
#     4  11  22  43  71  97 132 182 236 278 328 419
#
# _framework density 21.629949
#
# number of rings (size 3 to 8) (size 9 to 14) (size 15 to 20)
#    0.000    0.727    5.455    4.364    0.000    5.091 
#    0.000    2.727    0.000    0.000    0.000    0.000 
#    0.000    0.000    0.000    0.000    0.000    0.000 
#
# Total GULP energy -272861.586979 kJ/mol
# GULP energy per Si atom -12402.799408 kJ/mol
# Density = 2.158072 g / cm^3
# Si number density = 21.629949 Si / 1000 Ang^3
#
#
#
# Elastic Constant Matrix: (Units=GPa)
#
#
# Indices 1 2 3 4 5 6 
#
# 1 100.0678 36.6356 49.0725 0.0000 -13.4824 0.0000
# 2 36.6356 81.3081 28.6638 0.0000 -10.9794 0.0000
# 3 49.0725 28.6638 139.7215 0.0000 -19.3598 0.0000
# 4 0.0000 0.0000 0.0000 24.9702 0.0000 12.6631
# 5 -13.4824 -10.9794 -19.3598 0.0000 41.6089 0.0000
# 6 0.0000 0.0000 0.0000 12.6631 0.0000 26.7801
#
#
#
# Elastic Compliance Matrix: (Units=1/GPa)
#
#
# Indices 1 2 3 4 5 6 
#
# 1 0.013697 -0.004684 -0.003641 0.000000 0.001508 0.000000
# 2 -0.004684 0.015085 -0.001185 0.000000 0.001912 0.000000
# 3 -0.003641 -0.001185 0.009056 0.000000 0.002721 0.000000
# 4 0.000000 0.000000 0.000000 0.052680 0.000000 -0.024910
# 5 0.001508 0.001912 0.002721 0.000000 0.026293 0.000000
# 6 0.000000 0.000000 0.000000 -0.024910 0.000000 0.049120
#
#
# Mechanical properties :
#
#
# Convention : Reuss Voigt Hill
#
# Bulk Modulus (GPa) = 53.13864 61.09345 57.11605
# Shear Modulus (GPa) = 26.14753 32.45355 29.30054
#
# Velocity S-wave (km/s) = 3.48064 3.87770 3.68452
# Velocity P-wave (km/s) = 6.38542 6.95377 6.67565
#
# Compressibility (1/GPa) = 0.01881870
#
# Stress axis : x y z
#
# Youngs Moduli (GPa) = 73.01036 66.28965 110.42647
#
# Poissons Ratio (x) = 0.31052 0.40201
# Poissons Ratio (y) = 0.34201 0.13082
# Poissons Ratio (z) = 0.26580 0.07853
#
# Static dielectric constant tensor:
#      x y z
#    x 3.851840 0.000000 0.029110 
#    y 0.000000 3.751500 0.000000 
#    z 0.029110 0.000000 4.023050 
# 
# 
# High freq. dielectric constant tensor:
#      x y z
#    x 1.843470 0.000000 0.008810 
#    y 0.000000 1.838230 0.000000 
#    z 0.008810 0.000000 1.860820 
# 
# From -- ./inp_files/159658.got.cif
#   From: 2010.06.25/outbox.cif.g09.slc.cpg/sg15_80_cif.got.tgz:159658.got - 2010.06.28 07:06:18.
