data_PCOD8152141
_publ_section_title
;
Structure prediction by ZEFSAII (Michael W. Deem and Ramdas Pophale) SiO2 
 PCOD8152141
Probable space group: C 2/C
;
_chemical_formula_sum "Si O2"
_cell_formula_units_Z 48
_cell_length_a 12.027808
_cell_length_b 15.062247
_cell_length_c 14.559359
_cell_angle_alpha 90.000000
_cell_angle_beta 65.340449
_cell_angle_gamma 90.000000
_cell_volume 2397.111503
_symmetry_space_group_name_H-M "C 2/C"
_symmetry_group_IT_number 15
_symmetry_cell_setting 'monoclinic'
loop_
_space_group_symop_operation_xyz
x,y,z
-x,y,1/2-z
-x,-y,-z
x,-y,1/2+z
1/2+x,1/2+y,z
1/2-x,1/2+y,1/2-z
1/2-x,1/2-y,-z
1/2+x,1/2-y,1/2+z
loop_
_atom_site_type_symbol
_atom_site_label
_atom_site_fract_x
_atom_site_fract_y
_atom_site_fract_z
Si Si1 0.192638 0.044651 0.834893
Si Si2 0.944066 0.533709 0.668721
Si Si3 0.706886 0.548085 0.515320
Si Si4 0.964812 0.380757 0.977725
Si Si5 0.992571 0.823025 0.034954
Si Si6 0.521504 0.414449 0.644237
O O1 0.299901 0.056203 0.724096
O O2 0.133608 0.140864 0.877347
O O3 0.085262 0.984711 0.833427
O O4 0.248946 0.996757 0.905315
O O5 0.006753 0.595465 0.567904
O O6 0.000000 0.550612 0.750000
O O7 0.960079 0.433017 0.626751
O O8 0.822322 0.593139 0.523077
O O9 0.607783 0.624566 0.534547
O O10 0.649019 0.469082 0.596776
O O11 0.990269 0.279084 0.946893
O O12 0.983455 0.836486 0.928526
O O13 0.500000 0.368473 0.750000
#
# Coordination Sequence:
#
# PCOD8152141 Si02
#       6
#     8   8   8   8   8   8
#     4   9  18  38  58  82 118 159 195 237 292 357
#     4  11  23  40  59  78 118 166 201 233 296 365
#     4   9  17  35  63  84 117 153 190 243 298 358
#     4  11  22  38  61  88 117 154 200 244 297 350
#     4   9  20  36  58  92 120 144 192 260 296 337
#     4   9  17  32  60  88 118 160 197 231 298 364
#
# _framework density 20.024101000000002
#
# number of rings (size 3 to 8) (size 9 to 14) (size 15 to 20)
#    0.000    2.333    1.667    3.500    0.000    0.667 
#    6.000    4.167    0.000    0.000    0.000    0.000 
#    0.000    0.000    0.000    0.000    0.000    0.000 
#
# Total GULP energy -297486.913832 kJ/mol
# GULP energy per Si atom -12395.288076 kJ/mol
# Density = 1.997853 g / cm^3
# Si number density = 20.024101 Si / 1000 Ang^3
#
#
#
# Elastic Constant Matrix: (Units=GPa)
#
#
# Indices 1 2 3 4 5 6 
#
# 1 72.4804 25.3680 37.4282 0.0000 -2.4464 0.0000
# 2 25.3680 78.4348 9.8100 0.0000 -9.1350 0.0000
# 3 37.4282 9.8100 101.5197 0.0000 -4.2083 0.0000
# 4 0.0000 0.0000 0.0000 17.4993 0.0000 -3.0206
# 5 -2.4464 -9.1350 -4.2083 0.0000 34.9085 0.0000
# 6 0.0000 0.0000 0.0000 -3.0206 0.0000 20.4864
#
#
#
# Elastic Compliance Matrix: (Units=1/GPa)
#
#
# Indices 1 2 3 4 5 6 
#
# 1 0.019046 -0.005445 -0.006532 0.000000 -0.000878 0.000000
# 2 -0.005445 0.014838 0.000722 0.000000 0.003588 0.000000
# 3 -0.006532 0.000722 0.012239 0.000000 0.001207 0.000000
# 4 0.000000 0.000000 0.000000 0.058637 0.000000 0.008646
# 5 -0.000878 0.003588 0.001207 0.000000 0.029669 0.000000
# 6 0.000000 0.000000 0.000000 0.008646 0.000000 0.050088
#
#
# Mechanical properties :
#
#
# Convention : Reuss Voigt Hill
#
# Bulk Modulus (GPa) = 42.34912 44.18303 43.26608
# Shear Modulus (GPa) = 23.26680 26.56742 24.91711
#
# Velocity S-wave (km/s) = 3.41242 3.64644 3.53137
# Velocity P-wave (km/s) = 6.05980 6.31201 6.18719
#
# Compressibility (1/GPa) = 0.02361324
#
# Stress axis : x y z
#
# Youngs Moduli (GPa) = 52.50390 67.39368 81.70753
#
# Poissons Ratio (x) = 0.36698 0.53372
# Poissons Ratio (y) = 0.28590 -0.05903
# Poissons Ratio (z) = 0.34296 -0.04869
#
# Static dielectric constant tensor:
#      x y z
#    x 3.637820 0.000000 0.089670 
#    y 0.000000 3.291210 0.000000 
#    z 0.089670 0.000000 4.081150 
# 
# 
# High freq. dielectric constant tensor:
#      x y z
#    x 1.784090 0.000000 0.000090 
#    y 0.000000 1.749580 0.000000 
#    z 0.000090 0.000000 1.791620 
# 
# From -- ./inp_files/143442.got.cif
#   From: 2010.06.25/outbox.cif.g09.slc.cpg/sg15_72_cif.got.tgz:143442.got - 2010.06.28 07:06:18.
