data_PCOD8152809
_publ_section_title
;
Structure prediction by ZEFSAII (Michael W. Deem and Ramdas Pophale) SiO2 
 PCOD8152809
Probable space group: C 2/C
;
_chemical_formula_sum "Si O2"
_cell_formula_units_Z 32
_cell_length_a 11.587552
_cell_length_b 7.994012
_cell_length_c 20.420736
_cell_angle_alpha 90.000000
_cell_angle_beta 121.175128
_cell_angle_gamma 90.000000
_cell_volume 1618.426953
_symmetry_space_group_name_H-M "C 2/C"
_symmetry_group_IT_number 15
_symmetry_cell_setting 'monoclinic'
loop_
_space_group_symop_operation_xyz
x,y,z
-x,y,1/2-z
-x,-y,-z
x,-y,1/2+z
1/2+x,1/2+y,z
1/2-x,1/2+y,1/2-z
1/2-x,1/2-y,-z
1/2+x,1/2-y,1/2+z
loop_
_atom_site_type_symbol
_atom_site_label
_atom_site_fract_x
_atom_site_fract_y
_atom_site_fract_z
Si Si1 0.565166 0.212823 0.572956
Si Si2 0.571458 0.851991 0.339115
Si Si3 0.210360 0.598896 0.066192
Si Si4 0.261781 0.414773 0.959917
O O1 0.534828 0.228342 0.641102
O O2 0.434387 0.178110 0.491032
O O3 0.624850 0.388029 0.562384
O O4 0.681420 0.070852 0.597906
O O5 0.500000 0.885235 0.250000
O O6 0.698102 0.726389 0.365443
O O7 0.622859 0.030772 0.382683
O O8 0.291021 0.563950 0.020866
O O9 0.250000 0.250000 0.000000
#
# Coordination Sequence:
#
# PCOD8152809 Si02
#       4
#     8   8   8   8
#     4   9  18  36  57  77 105 138 179 225 258 308
#     4  11  23  35  51  82 116 141 173 221 277 327
#     4   9  19  35  56  81 104 135 183 224 260 317
#     4   9  18  36  60  79 100 141 187 221 259 313
#
# _framework density 19.772283999999999
#
# number of rings (size 3 to 8) (size 9 to 14) (size 15 to 20)
#    0.000    2.500    0.000    4.500    0.000    6.000 
#    0.000    5.000    0.000    0.000    0.000    0.000 
#    0.000    0.000    0.000    0.000    0.000    0.000 
#
# Total GULP energy -198263.110195 kJ/mol
# GULP energy per Si atom -12391.444387 kJ/mol
# Density = 1.972728 g / cm^3
# Si number density = 19.772284 Si / 1000 Ang^3
#
#
#
# Elastic Constant Matrix: (Units=GPa)
#
#
# Indices 1 2 3 4 5 6 
#
# 1 107.6636 34.9910 30.7560 0.0000 -9.5689 0.0000
# 2 34.9910 78.3169 48.3105 0.0000 8.5426 0.0000
# 3 30.7560 48.3105 130.4535 0.0000 -6.2505 0.0000
# 4 0.0000 0.0000 0.0000 23.3380 0.0000 1.5581
# 5 -9.5689 8.5426 -6.2505 0.0000 17.3587 0.0000
# 6 0.0000 0.0000 0.0000 1.5581 0.0000 40.6657
#
#
#
# Elastic Compliance Matrix: (Units=1/GPa)
#
#
# Indices 1 2 3 4 5 6 
#
# 1 0.012327 -0.006623 0.000029 0.000000 0.010065 0.000000
# 2 -0.006623 0.022244 -0.007505 0.000000 -0.017300 0.000000
# 3 0.000029 -0.007505 0.010802 0.000000 0.007599 0.000000
# 4 0.000000 0.000000 0.000000 0.042958 0.000000 -0.001646
# 5 0.010065 -0.017300 0.007599 0.000000 0.074406 0.000000
# 6 0.000000 0.000000 0.000000 -0.001646 0.000000 0.024654
#
#
# Mechanical properties :
#
#
# Convention : Reuss Voigt Hill
#
# Bulk Modulus (GPa) = 58.22547 60.50544 59.36545
# Shear Modulus (GPa) = 22.59207 29.76426 26.17816
#
# Velocity S-wave (km/s) = 3.38392 3.88410 3.64260
# Velocity P-wave (km/s) = 6.69178 7.12618 6.91239
#
# Compressibility (1/GPa) = 0.01717461
#
# Stress axis : x y z
#
# Youngs Moduli (GPa) = 81.12229 44.95494 92.57323
#
# Poissons Ratio (x) = 0.29774 -0.00266
# Poissons Ratio (y) = 0.53728 0.69478
# Poissons Ratio (z) = -0.00233 0.33740
#
# Static dielectric constant tensor:
#      x y z
#    x 3.961060 0.000000 -0.109420 
#    y 0.000000 3.827140 0.000000 
#    z -0.109420 0.000000 3.140450 
# 
# 
# High freq. dielectric constant tensor:
#      x y z
#    x 1.781700 0.000000 -0.007390 
#    y 0.000000 1.773820 0.000000 
#    z -0.007390 0.000000 1.724010 
# 
# From -- ./inp_files/140530.got.cif
#   From: 2010.06.25/outbox.cif.g09.slc.cpg/sg15_71_cif.got.tgz:140530.got - 2010.06.28 07:06:18.
