data_PCOD8152276
_publ_section_title
;
Structure prediction by ZEFSAII (Michael W. Deem and Ramdas Pophale) SiO2 
 PCOD8152276
Probable space group: C 2/C
;
_chemical_formula_sum "Si O2"
_cell_formula_units_Z 60
_cell_length_a 8.624844
_cell_length_b 22.369734
_cell_length_c 15.672193
_cell_angle_alpha 90.000000
_cell_angle_beta 65.575627
_cell_angle_gamma 90.000000
_cell_volume 2753.122485
_symmetry_space_group_name_H-M "C 2/C"
_symmetry_group_IT_number 15
_symmetry_cell_setting 'monoclinic'
loop_
_space_group_symop_operation_xyz
x,y,z
-x,y,1/2-z
-x,-y,-z
x,-y,1/2+z
1/2+x,1/2+y,z
1/2-x,1/2+y,1/2-z
1/2-x,1/2-y,-z
1/2+x,1/2-y,1/2+z
loop_
_atom_site_type_symbol
_atom_site_label
_atom_site_fract_x
_atom_site_fract_y
_atom_site_fract_z
Si Si1 0.289227 0.120783 0.066989
Si Si2 0.000000 0.453507 0.750000
Si Si3 0.178287 0.644034 0.099648
Si Si4 0.581100 0.766830 0.861471
Si Si5 0.017953 0.804313 0.543309
Si Si6 0.140498 0.603492 0.922847
Si Si7 0.299197 0.509222 0.308005
Si Si8 0.615685 0.792649 0.302822
O O1 0.351221 0.170635 0.118017
O O2 0.192768 0.071954 0.144884
O O3 0.178847 0.154528 0.022222
O O4 0.440209 0.089829 0.979460
O O5 0.920533 0.413239 0.842419
O O6 0.838467 0.489382 0.741835
O O7 0.363820 0.650448 0.097354
O O8 0.091719 0.708524 0.143222
O O9 0.207462 0.635992 0.992222
O O10 0.713014 0.740724 0.764323
O O11 0.531673 0.718587 0.943854
O O12 0.005707 0.748079 0.609888
O O13 0.235803 0.541743 0.886204
O O14 0.175372 0.647684 0.836309
O O15 0.500000 0.494258 0.250000
O O16 0.500000 0.811473 0.250000
#
# Coordination Sequence:
#
# PCOD8152276 Si02
#       8
#     8   4   8   8   8   8   8   8
#     4  11  22  45  73  97 139 190 239 301 362 433
#     4  12  24  48  76 104 134 188 260 304 362 438
#     4  11  24  44  68 103 142 190 235 299 371 447
#     4  11  22  40  64 102 145 180 232 294 370 434
#     4  12  23  41  68 108 140 182 245 292 370 460
#     4  11  26  49  67 100 150 186 235 305 377 427
#     4  12  28  49  74 104 140 193 256 312 361 436
#     4  12  24  39  71 105 143 188 238 301 371 445
#
# _framework density 21.793436
#
# number of rings (size 3 to 8) (size 9 to 14) (size 15 to 20)
#    0.000    0.533    6.667    3.600    2.800    1.067 
#    2.400    1.333    0.000    0.000    0.000    0.000 
#    0.000    0.000    0.000    0.000    0.000    0.000 
#
# Total GULP energy -371824.188771 kJ/mol
# GULP energy per Si atom -12394.139626 kJ/mol
# Density = 2.174383 g / cm^3
# Si number density = 21.793436 Si / 1000 Ang^3
#
#
#
# Elastic Constant Matrix: (Units=GPa)
#
#
# Indices 1 2 3 4 5 6 
#
# 1 64.0679 24.2657 26.7955 0.0000 -8.0592 0.0000
# 2 24.2657 66.7553 20.5980 0.0000 -5.5421 0.0000
# 3 26.7955 20.5980 88.0137 0.0000 -9.5551 0.0000
# 4 0.0000 0.0000 0.0000 40.0456 0.0000 -7.5899
# 5 -8.0592 -5.5421 -9.5551 0.0000 32.6119 0.0000
# 6 0.0000 0.0000 0.0000 -7.5899 0.0000 26.9472
#
#
#
# Elastic Compliance Matrix: (Units=1/GPa)
#
#
# Indices 1 2 3 4 5 6 
#
# 1 0.019951 -0.005655 -0.004462 0.000000 0.002662 0.000000
# 2 -0.005655 0.017839 -0.002351 0.000000 0.000945 0.000000
# 3 -0.004462 -0.002351 0.013538 0.000000 0.002464 0.000000
# 4 0.000000 0.000000 0.000000 0.026380 0.000000 0.007430
# 5 0.002662 0.000945 0.002464 0.000000 0.032204 0.000000
# 6 0.000000 0.000000 0.000000 0.007430 0.000000 0.039202
#
#
# Mechanical properties :
#
#
# Convention : Reuss Voigt Hill
#
# Bulk Modulus (GPa) = 37.88701 40.23947 39.06324
# Shear Modulus (GPa) = 27.34530 29.73280 28.53905
#
# Velocity S-wave (km/s) = 3.54609 3.69765 3.62266
# Velocity P-wave (km/s) = 5.84711 6.06088 5.95495
#
# Compressibility (1/GPa) = 0.02639427
#
# Stress axis : x y z
#
# Youngs Moduli (GPa) = 50.12285 56.05578 73.86662
#
# Poissons Ratio (x) = 0.31697 0.32957
# Poissons Ratio (y) = 0.28342 0.17365
# Poissons Ratio (z) = 0.22363 0.13178
#
# Static dielectric constant tensor:
#      x y z
#    x 4.691830 0.000000 -0.297860 
#    y 0.000000 3.796440 0.000000 
#    z -0.297860 0.000000 4.029730 
# 
# 
# High freq. dielectric constant tensor:
#      x y z
#    x 1.869150 0.000000 -0.005810 
#    y 0.000000 1.845730 0.000000 
#    z -0.005810 0.000000 1.861660 
# 
# From -- ./inp_files/192548.got.cif
#   From: 2010.06.25/outbox.cif.g09.slc.cpg/sg15_97_cif.got.tgz:192548.got - 2010.06.28 07:06:18.
