data_PCOD8152873
_publ_section_title
;
Structure prediction by ZEFSAII (Michael W. Deem and Ramdas Pophale) SiO2 
 PCOD8152873
Probable space group: C 2/C
;
_chemical_formula_sum "Si O2"
_cell_formula_units_Z 60
_cell_length_a 19.935945
_cell_length_b 18.249773
_cell_length_c 12.753728
_cell_angle_alpha 90.000000
_cell_angle_beta 38.798462
_cell_angle_gamma 90.000000
_cell_volume 2907.434748
_symmetry_space_group_name_H-M "C 2/C"
_symmetry_group_IT_number 15
_symmetry_cell_setting 'monoclinic'
loop_
_space_group_symop_operation_xyz
x,y,z
-x,y,1/2-z
-x,-y,-z
x,-y,1/2+z
1/2+x,1/2+y,z
1/2-x,1/2+y,1/2-z
1/2-x,1/2-y,-z
1/2+x,1/2-y,1/2+z
loop_
_atom_site_type_symbol
_atom_site_label
_atom_site_fract_x
_atom_site_fract_y
_atom_site_fract_z
Si Si1 0.839495 0.183350 0.180461
Si Si2 0.057559 0.330114 0.478006
Si Si3 0.256654 0.914175 0.344366
Si Si4 0.390036 0.165317 0.000400
Si Si5 0.000000 0.595790 0.250000
Si Si6 0.122498 0.020272 0.368221
Si Si7 0.819628 0.520975 0.980694
Si Si8 0.614226 0.698001 0.131282
O O1 0.900340 0.248449 0.047300
O O2 0.714147 0.187189 0.305065
O O3 0.882588 0.104931 0.089242
O O4 0.850473 0.191585 0.292484
O O5 0.154170 0.388286 0.347145
O O6 0.991702 0.325535 0.450698
O O7 0.985558 0.354381 0.664003
O O8 0.314156 0.957478 0.366749
O O9 0.201540 0.840602 0.452657
O O10 0.170498 0.968534 0.399031
O O11 0.382399 0.081946 0.971242
O O12 0.397119 0.217355 0.889785
O O13 0.109048 0.551243 0.100981
O O14 0.198626 0.010914 0.172746
O O15 0.000000 0.000000 0.500000
O O16 0.500000 0.658637 0.250000
#
# Coordination Sequence:
#
# PCOD8152873 Si02
#       8
#     8   8   8   8   4   8   8   8
#     4  11  23  43  65 103 136 174 229 287 345 413
#     4  12  26  45  72  99 140 184 230 290 349 423
#     4  12  24  42  70 102 139 180 227 290 351 410
#     4  11  23  39  69 106 135 169 221 294 353 406
#     4  12  28  48  66  98 144 192 240 270 354 428
#     4  11  25  44  68 101 142 181 230 285 351 416
#     4  11  25  42  67 105 139 181 232 287 347 420
#     4  12  21  37  69 103 136 168 217 285 357 409
#
# _framework density 20.636748000000001
#
# number of rings (size 3 to 8) (size 9 to 14) (size 15 to 20)
#    0.000    0.533    6.667    2.800    4.667    1.067 
#    0.000    2.000    0.000    0.000    0.000    0.000 
#    0.000    0.000    0.000    0.000    0.000    0.000 
#
# Total GULP energy -372029.985492 kJ/mol
# GULP energy per Si atom -12400.999516 kJ/mol
# Density = 2.058978 g / cm^3
# Si number density = 20.636748 Si / 1000 Ang^3
#
#
#
# Elastic Constant Matrix: (Units=GPa)
#
#
# Indices 1 2 3 4 5 6 
#
# 1 77.5911 36.2656 21.1930 0.0000 -16.8596 0.0000
# 2 36.2656 122.4570 43.7690 0.0000 -3.6239 0.0000
# 3 21.1930 43.7690 80.6491 0.0000 -8.5777 0.0000
# 4 0.0000 0.0000 0.0000 34.5751 0.0000 -0.9769
# 5 -16.8596 -3.6239 -8.5777 0.0000 36.7534 0.0000
# 6 0.0000 0.0000 0.0000 -0.9769 0.0000 29.3263
#
#
#
# Elastic Compliance Matrix: (Units=1/GPa)
#
#
# Indices 1 2 3 4 5 6 
#
# 1 0.016767 -0.004279 -0.001344 0.000000 0.006956 0.000000
# 2 -0.004279 0.011227 -0.005188 0.000000 -0.002067 0.000000
# 3 -0.001344 -0.005188 0.015841 0.000000 0.002569 0.000000
# 4 0.000000 0.000000 0.000000 0.028950 0.000000 0.000964
# 5 0.006956 -0.002067 0.002569 0.000000 0.030795 0.000000
# 6 0.000000 0.000000 0.000000 0.000964 0.000000 0.034131
#
#
# Mechanical properties :
#
#
# Convention : Reuss Voigt Hill
#
# Bulk Modulus (GPa) = 45.01998 53.68359 49.35179
# Shear Modulus (GPa) = 29.98735 32.09559 31.04147
#
# Velocity S-wave (km/s) = 3.81610 3.94796 3.88259
# Velocity P-wave (km/s) = 6.42492 6.84485 6.63820
#
# Compressibility (1/GPa) = 0.02221236
#
# Stress axis : x y z
#
# Youngs Moduli (GPa) = 59.64243 89.07391 63.12572
#
# Poissons Ratio (x) = 0.38117 0.08482
# Poissons Ratio (y) = 0.25523 0.32750
# Poissons Ratio (z) = 0.08014 0.46213
#
# Static dielectric constant tensor:
#      x y z
#    x 3.717320 0.000000 -0.279580 
#    y 0.000000 3.955270 0.000000 
#    z -0.279580 0.000000 3.802490 
# 
# 
# High freq. dielectric constant tensor:
#      x y z
#    x 1.803360 0.000000 -0.022520 
#    y 0.000000 1.814050 0.000000 
#    z -0.022520 0.000000 1.803240 
# 
# From -- ./inp_files/113778.got.cif
#   From: 2010.06.25/outbox.cif.g09.slc.cpg/sg15_57_cif.got.tgz:113778.got - 2010.06.28 07:06:18.
