data_PCOD8152528
_publ_section_title
;
Structure prediction by ZEFSAII (Michael W. Deem and Ramdas Pophale) SiO2 
 PCOD8152528
Probable space group: C 2/C
;
_chemical_formula_sum "Si O2"
_cell_formula_units_Z 48
_cell_length_a 26.781413
_cell_length_b 14.306520
_cell_length_c 9.537519
_cell_angle_alpha 90.000000
_cell_angle_beta 37.955681
_cell_angle_gamma 90.000000
_cell_volume 2247.576960
_symmetry_space_group_name_H-M "C 2/C"
_symmetry_group_IT_number 15
_symmetry_cell_setting 'monoclinic'
loop_
_space_group_symop_operation_xyz
x,y,z
-x,y,1/2-z
-x,-y,-z
x,-y,1/2+z
1/2+x,1/2+y,z
1/2-x,1/2+y,1/2-z
1/2-x,1/2-y,-z
1/2+x,1/2-y,1/2+z
loop_
_atom_site_type_symbol
_atom_site_label
_atom_site_fract_x
_atom_site_fract_y
_atom_site_fract_z
Si Si1 0.821566 0.073897 0.640251
Si Si2 0.405699 0.623027 0.932801
Si Si3 0.654691 0.722268 0.703613
Si Si4 0.910682 0.403819 0.507204
Si Si5 0.701111 0.341569 0.586901
Si Si6 0.325535 0.017125 0.930137
O O1 0.862864 0.122853 0.682321
O O2 0.832654 0.149893 0.494206
O O3 0.862902 0.976981 0.501607
O O4 0.724486 0.066688 0.885980
O O5 0.500000 0.608276 0.750000
O O6 0.379919 0.700785 0.874619
O O7 0.376434 0.665099 0.143193
O O8 0.750000 0.750000 0.500000
O O9 0.602688 0.802415 0.895420
O O10 0.892850 0.479301 0.671171
O O11 0.857181 0.417475 0.485746
O O12 0.000000 0.418077 0.250000
O O13 0.750000 0.250000 0.500000
O O14 0.757412 0.430193 0.492117
#
# Coordination Sequence:
#
# PCOD8152528 Si02
#       6
#     8   8   8   8   8   8
#     4  11  22  42  71  96 132 186 228 278 343 429
#     4  11  26  43  67 103 142 179 225 298 361 411
#     4  12  24  45  71  99 138 185 237 283 344 422
#     4  12  26  43  68 100 135 181 228 294 356 412
#     4  11  23  40  68 100 130 183 237 279 341 421
#     4  11  22  44  66  96 135 178 234 277 348 417
#
# _framework density 21.356331999999998
#
# number of rings (size 3 to 8) (size 9 to 14) (size 15 to 20)
#    0.000    0.667    3.333    6.500    0.000    6.000 
#    0.000    1.667    0.000    0.000    0.000    0.000 
#    0.000    0.000    0.000    0.000    0.000    0.000 
#
# Total GULP energy -297464.879271 kJ/mol
# GULP energy per Si atom -12394.369970 kJ/mol
# Density = 2.130772 g / cm^3
# Si number density = 21.356332 Si / 1000 Ang^3
#
#
#
# Elastic Constant Matrix: (Units=GPa)
#
#
# Indices 1 2 3 4 5 6 
#
# 1 78.7381 11.0237 48.7922 0.0000 -0.0968 0.0000
# 2 11.0237 70.3958 47.2456 0.0000 -2.6777 0.0000
# 3 48.7922 47.2456 173.0438 0.0000 -2.3019 0.0000
# 4 0.0000 0.0000 0.0000 39.1792 0.0000 10.5918
# 5 -0.0968 -2.6777 -2.3019 0.0000 33.1896 0.0000
# 6 0.0000 0.0000 0.0000 10.5918 0.0000 35.3603
#
#
#
# Elastic Compliance Matrix: (Units=1/GPa)
#
#
# Indices 1 2 3 4 5 6 
#
# 1 0.015413 0.000608 -0.004515 0.000000 -0.000219 0.000000
# 2 0.000608 0.017455 -0.004923 0.000000 0.001069 0.000000
# 3 -0.004515 -0.004923 0.008398 0.000000 0.000172 0.000000
# 4 0.000000 0.000000 0.000000 0.027773 0.000000 -0.008319
# 5 -0.000219 0.001069 0.000172 0.000000 0.030227 0.000000
# 6 0.000000 0.000000 0.000000 -0.008319 0.000000 0.030772
#
#
# Mechanical properties :
#
#
# Convention : Reuss Voigt Hill
#
# Bulk Modulus (GPa) = 42.36096 59.58898 50.97497
# Shear Modulus (GPa) = 32.14074 35.88691 34.01382
#
# Velocity S-wave (km/s) = 3.88361 4.10370 3.99517
# Velocity P-wave (km/s) = 6.32363 7.10047 6.72328
#
# Compressibility (1/GPa) = 0.02360664
#
# Stress axis : x y z
#
# Youngs Moduli (GPa) = 64.88196 57.29093 119.07233
#
# Poissons Ratio (x) = -0.03484 0.53758
# Poissons Ratio (y) = -0.03946 0.58618
# Poissons Ratio (z) = 0.29293 0.28204
#
# Static dielectric constant tensor:
#      x y z
#    x 3.672430 0.000000 0.171160 
#    y 0.000000 3.770970 0.000000 
#    z 0.171160 0.000000 4.045740 
# 
# 
# High freq. dielectric constant tensor:
#      x y z
#    x 1.830560 0.000000 0.020540 
#    y 0.000000 1.840800 0.000000 
#    z 0.020540 0.000000 1.853710 
# 
# From -- ./inp_files/69840.got.cif
#   From: 2010.06.25/outbox.cif.g09.slc.cpg/sg15_35_cif.got.tgz:69840.got - 2010.06.28 07:06:18.
