data_PCOD8152965
_publ_section_title
;
Structure prediction by ZEFSAII (Michael W. Deem and Ramdas Pophale) SiO2 
 PCOD8152965
Probable space group: C 2/C
;
_chemical_formula_sum "Si O2"
_cell_formula_units_Z 64
_cell_length_a 17.322210
_cell_length_b 9.602442
_cell_length_c 28.417637
_cell_angle_alpha 90.000000
_cell_angle_beta 37.274222
_cell_angle_gamma 90.000000
_cell_volume 2862.731749
_symmetry_space_group_name_H-M "C 2/C"
_symmetry_group_IT_number 15
_symmetry_cell_setting 'monoclinic'
loop_
_space_group_symop_operation_xyz
x,y,z
-x,y,1/2-z
-x,-y,-z
x,-y,1/2+z
1/2+x,1/2+y,z
1/2-x,1/2+y,1/2-z
1/2-x,1/2-y,-z
1/2+x,1/2-y,1/2+z
loop_
_atom_site_type_symbol
_atom_site_label
_atom_site_fract_x
_atom_site_fract_y
_atom_site_fract_z
Si Si1 0.730843 0.856011 0.342842
Si Si2 0.135170 0.557063 0.086418
Si Si3 0.095183 0.126269 0.905665
Si Si4 0.137950 0.924188 0.579089
Si Si5 0.537220 0.674522 0.833001
Si Si6 0.317489 0.395687 0.576555
Si Si7 0.808714 0.625550 0.078607
Si Si8 0.983469 0.662988 0.910884
O O1 0.868893 0.810776 0.256653
O O2 0.707155 0.764951 0.400527
O O3 0.632000 0.816541 0.349157
O O4 0.716357 0.013617 0.368024
O O5 0.195007 0.542765 0.109066
O O6 0.026704 0.441656 0.128825
O O7 0.073054 0.709302 0.110871
O O8 0.248825 0.523148 0.994781
O O9 0.120798 0.176941 0.840381
O O10 0.153632 0.231761 0.914714
O O11 0.163524 0.979666 0.883959
O O12 0.943323 0.099392 0.983228
O O13 0.182960 0.856237 0.606852
O O14 0.095174 0.803952 0.563010
O O15 0.018663 0.021118 0.646875
O O16 0.925913 0.591650 0.986309
#
# Coordination Sequence:
#
# PCOD8152965 Si02
#       8
#     8   8   8   8   8   8   8   8
#     4  12  27  44  65  97 141 180 222 276 344 402
#     4  11  23  41  68 101 131 172 225 278 335 396
#     4  11  23  41  68  99 129 171 224 274 333 392
#     4  11  23  42  70 100 136 171 226 282 340 396
#     4  12  27  44  65  97 140 182 219 279 344 407
#     4  11  23  41  68  98 132 170 220 279 326 398
#     4  11  23  41  68 100 130 172 223 277 330 401
#     4  11  23  42  70 102 134 171 226 283 334 400
#
# _framework density 22.356269000000001
#
# number of rings (size 3 to 8) (size 9 to 14) (size 15 to 20)
#    0.000    0.750    2.500    6.000    3.500    6.000 
#    0.000    0.000    0.000    7.500    0.000    0.000 
#    0.000    0.000    0.000    0.000    0.000    0.000 
#
# Total GULP energy -396690.069858 kJ/mol
# GULP energy per Si atom -12396.564683 kJ/mol
# Density = 2.230538 g / cm^3
# Si number density = 22.356269 Si / 1000 Ang^3
#
#
#
# Elastic Constant Matrix: (Units=GPa)
#
#
# Indices 1 2 3 4 5 6 
#
# 1 136.5110 38.7572 32.5221 0.0008 -10.2253 -0.0101
# 2 38.7572 98.9456 27.8837 0.0009 -2.7089 -0.0108
# 3 32.5221 27.8837 56.5789 0.0000 -3.5925 -0.0009
# 4 0.0008 0.0009 0.0000 12.8302 0.0006 0.1799
# 5 -10.2253 -2.7089 -3.5925 0.0006 14.4645 -0.0003
# 6 -0.0101 -0.0108 -0.0009 0.1799 -0.0003 40.6426
#
#
#
# Elastic Compliance Matrix: (Units=1/GPa)
#
#
# Indices 1 2 3 4 5 6 
#
# 1 0.009315 -0.002428 -0.003829 -0.000001 0.005179 0.000002
# 2 -0.002428 0.012378 -0.004741 -0.000001 -0.000576 0.000003
# 3 -0.003829 -0.004741 0.022336 0.000000 0.001953 -0.000002
# 4 -0.000001 -0.000001 0.000000 0.077946 -0.000003 -0.000345
# 5 0.005179 -0.000576 0.001953 -0.000003 0.073173 0.000002
# 6 0.000002 0.000003 -0.000002 -0.000345 0.000002 0.024606
#
#
# Mechanical properties :
#
#
# Convention : Reuss Voigt Hill
#
# Bulk Modulus (GPa) = 45.38688 54.48460 49.93574
# Shear Modulus (GPa) = 20.07270 26.44563 23.25916
#
# Velocity S-wave (km/s) = 2.99967 3.44309 3.22900
# Velocity P-wave (km/s) = 5.68710 6.34275 6.02385
#
# Compressibility (1/GPa) = 0.02203280
#
# Stress axis : x y z
#
# Youngs Moduli (GPa) = 107.35551 80.78918 44.77099
#
# Poissons Ratio (x) = 0.19614 0.17142
# Poissons Ratio (y) = 0.26064 0.21227
# Poissons Ratio (z) = 0.41105 0.38304
#
# Static dielectric constant tensor:
#      x y z
#    x 4.372450 0.000000 -0.106050 
#    y 0.000000 4.066020 0.000000 
#    z -0.106050 0.000000 3.568410 
# 
# 
# High freq. dielectric constant tensor:
#      x y z
#    x 1.906730 0.000000 -0.006110 
#    y 0.000000 1.887520 0.000000 
#    z -0.006110 0.000000 1.835290 
# 
# From -- ./inp_files/315698.got.cif
#   From: 2010.06.25/outbox.cif.g09.slc.cpg/sg15_158_cif.got.tgz:315698.got - 2010.06.28 07:06:18.
