data_PCOD8152887
_publ_section_title
;
Structure prediction by ZEFSAII (Michael W. Deem and Ramdas Pophale) SiO2 
 PCOD8152887
Probable space group: C 2/C
;
_chemical_formula_sum "Si O2"
_cell_formula_units_Z 32
_cell_length_a 12.071477
_cell_length_b 23.763374
_cell_length_c 4.713604
_cell_angle_alpha 90.000000
_cell_angle_beta 94.224798
_cell_angle_gamma 90.000000
_cell_volume 1348.465648
_symmetry_space_group_name_H-M "C 2/C"
_symmetry_group_IT_number 15
_symmetry_cell_setting 'monoclinic'
loop_
_space_group_symop_operation_xyz
x,y,z
-x,y,1/2-z
-x,-y,-z
x,-y,1/2+z
1/2+x,1/2+y,z
1/2-x,1/2+y,1/2-z
1/2-x,1/2-y,-z
1/2+x,1/2-y,1/2+z
loop_
_atom_site_type_symbol
_atom_site_label
_atom_site_fract_x
_atom_site_fract_y
_atom_site_fract_z
Si Si1 0.382301 0.353143 0.362980
Si Si2 0.741266 0.308855 0.659829
Si Si3 0.076488 0.620313 0.019151
Si Si4 0.730303 0.460874 0.107820
O O1 0.500000 0.337597 0.250000
O O2 0.354593 0.309253 0.612764
O O3 0.371303 0.417158 0.476647
O O4 0.289786 0.352149 0.096005
O O5 0.750000 0.250000 0.500000
O O6 0.855018 0.327234 0.833792
O O7 0.000000 0.594186 0.250000
O O8 0.153581 0.570238 0.924369
O O9 0.000000 0.644022 0.750000
O O10 0.720943 0.482136 0.426760
#
# Coordination Sequence:
#
# PCOD8152887 Si02
#       4
#     8   8   8   8
#     4  11  24  44  69  99 135 176 226 281 336 400
#     4  11  24  45  70  99 134 174 226 283 338 401
#     4  11  23  41  66  98 135 175 222 275 333 400
#     4  11  23  40  64  97 135 176 223 274 331 397
#
# _framework density 23.730672999999999
#
# number of rings (size 3 to 8) (size 9 to 14) (size 15 to 20)
#    0.000    1.000    0.000    9.000    0.000    5.000 
#    0.000    5.000    0.000    0.000    0.000    0.000 
#    0.000    0.000    0.000    0.000    0.000    0.000 
#
# Total GULP energy -198356.805236 kJ/mol
# GULP energy per Si atom -12397.300327 kJ/mol
# Density = 2.367666 g / cm^3
# Si number density = 23.730673 Si / 1000 Ang^3
#
#
#
# Elastic Constant Matrix: (Units=GPa)
#
#
# Indices 1 2 3 4 5 6 
#
# 1 89.3486 62.6347 48.2309 0.0000 -20.5279 0.0000
# 2 62.6347 114.1043 57.4861 0.0000 -4.0115 0.0000
# 3 48.2309 57.4861 152.6038 0.0000 -5.7810 0.0000
# 4 0.0000 0.0000 0.0000 53.7726 0.0000 -7.8657
# 5 -20.5279 -4.0115 -5.7810 0.0000 56.5821 0.0000
# 6 0.0000 0.0000 0.0000 -7.8657 0.0000 12.0804
#
#
#
# Elastic Compliance Matrix: (Units=1/GPa)
#
#
# Indices 1 2 3 4 5 6 
#
# 1 0.021240 -0.010083 -0.002660 0.000000 0.006719 0.000000
# 2 -0.010083 0.015610 -0.002801 0.000000 -0.002837 0.000000
# 3 -0.002660 -0.002801 0.008437 0.000000 -0.000302 0.000000
# 4 0.000000 0.000000 0.000000 0.020554 0.000000 0.013383
# 5 0.006719 -0.002837 -0.000302 0.000000 0.019879 0.000000
# 6 0.000000 0.000000 0.000000 0.013383 0.000000 0.091493
#
#
# Mechanical properties :
#
#
# Convention : Reuss Voigt Hill
#
# Bulk Modulus (GPa) = 70.42604 76.97333 73.69968
# Shear Modulus (GPa) = 23.47028 37.00069 30.23548
#
# Velocity S-wave (km/s) = 3.14829 3.95295 3.57334
# Velocity P-wave (km/s) = 6.55418 7.30349 6.93896
#
# Compressibility (1/GPa) = 0.01419929
#
# Stress axis : x y z
#
# Youngs Moduli (GPa) = 47.08099 64.06143 118.51899
#
# Poissons Ratio (x) = 0.64591 0.31529
# Poissons Ratio (y) = 0.47470 0.33199
# Poissons Ratio (z) = 0.12525 0.17945
#
# Static dielectric constant tensor:
#      x y z
#    x 4.269160 0.000000 -0.171370 
#    y 0.000000 3.896190 0.000000 
#    z -0.171370 0.000000 4.823930 
# 
# 
# High freq. dielectric constant tensor:
#      x y z
#    x 1.928890 0.000000 -0.015360 
#    y 0.000000 1.924960 0.000000 
#    z -0.015360 0.000000 1.973410 
# 
# From -- ./inp_files/3687.got.cif
#   From: 2010.06.25/outbox.cif.g09.slc.cpg/sg15_2_cif.got.tgz:3687.got - 2010.06.28 07:06:18.
