data_PCOD8152207
_publ_section_title
;
Structure prediction by ZEFSAII (Michael W. Deem and Ramdas Pophale) SiO2 
 PCOD8152207
Probable space group: C 2/C
;
_chemical_formula_sum "Si O2"
_cell_formula_units_Z 56
_cell_length_a 27.354337
_cell_length_b 12.196810
_cell_length_c 8.867195
_cell_angle_alpha 90.000000
_cell_angle_beta 60.897802
_cell_angle_gamma 90.000000
_cell_volume 2584.923362
_symmetry_space_group_name_H-M "C 2/C"
_symmetry_group_IT_number 15
_symmetry_cell_setting 'monoclinic'
loop_
_space_group_symop_operation_xyz
x,y,z
-x,y,1/2-z
-x,-y,-z
x,-y,1/2+z
1/2+x,1/2+y,z
1/2-x,1/2+y,1/2-z
1/2-x,1/2-y,-z
1/2+x,1/2-y,1/2+z
loop_
_atom_site_type_symbol
_atom_site_label
_atom_site_fract_x
_atom_site_fract_y
_atom_site_fract_z
Si Si1 0.047293 0.429940 0.006396
Si Si2 0.375767 0.210958 0.497103
Si Si3 0.580210 0.616831 0.792567
Si Si4 0.314828 0.767689 0.379766
Si Si5 0.379498 0.012138 0.848194
Si Si6 0.479734 0.728101 0.034018
Si Si7 0.098228 0.886310 0.618493
O O1 0.061383 0.446532 0.163001
O O2 0.031670 0.303685 0.007555
O O3 0.105458 0.462762 0.837396
O O4 0.000000 0.500000 0.000000
O O5 0.383225 0.287473 0.340855
O O6 0.328968 0.254852 0.682637
O O7 0.434889 0.205999 0.500276
O O8 0.355990 0.089565 0.480027
O O9 0.598814 0.508349 0.680402
O O10 0.512460 0.636832 0.883748
O O11 0.593718 0.607274 0.947461
O O12 0.250000 0.750000 0.500000
O O13 0.335035 0.889416 0.401112
O O14 0.343887 0.674682 0.435516
O O15 0.452007 0.678114 0.224397
#
# Coordination Sequence:
#
# PCOD8152207 Si02
#       7
#     8   8   8   8   8   8   8
#     4  12  22  36  63 104 146 182 213 262 345 423
#     4  11  24  44  66 104 136 179 227 285 343 423
#     4  12  24  43  69  97 145 185 229 276 345 417
#     4  11  26  51  73  95 134 179 239 305 357 396
#     4  12  23  43  66 100 140 176 226 283 341 421
#     4  11  22  39  64 103 147 185 221 263 342 423
#     4  11  25  45  66 100 136 185 239 287 334 416
#
# _framework density 21.664085
#
# number of rings (size 3 to 8) (size 9 to 14) (size 15 to 20)
#    0.000    0.571    4.286    5.143    0.000    3.429 
#    5.143    0.714    0.000    0.000    0.000    0.000 
#    0.000    0.000    0.000    0.000    0.000    0.000 
#
# Total GULP energy -347106.330243 kJ/mol
# GULP energy per Si atom -12396.654652 kJ/mol
# Density = 2.161478 g / cm^3
# Si number density = 21.664085 Si / 1000 Ang^3
#
#
#
# Elastic Constant Matrix: (Units=GPa)
#
#
# Indices 1 2 3 4 5 6 
#
# 1 91.7682 57.9299 62.9633 0.0000 -19.5417 0.0000
# 2 57.9299 135.5856 60.1002 0.0000 -1.2751 0.0000
# 3 62.9633 60.1002 155.3209 0.0000 8.9019 0.0000
# 4 0.0000 0.0000 0.0000 38.5040 0.0000 6.8626
# 5 -19.5417 -1.2751 8.9019 0.0000 37.9133 0.0000
# 6 0.0000 0.0000 0.0000 6.8626 0.0000 28.5881
#
#
#
# Elastic Compliance Matrix: (Units=1/GPa)
#
#
# Indices 1 2 3 4 5 6 
#
# 1 0.022983 -0.006304 -0.007647 0.000000 0.013430 0.000000
# 2 -0.006304 0.010679 -0.001430 0.000000 -0.002554 0.000000
# 3 -0.007647 -0.001430 0.010461 0.000000 -0.006446 0.000000
# 4 0.000000 0.000000 0.000000 0.027132 0.000000 -0.006513
# 5 0.013430 -0.002554 -0.006446 0.000000 0.034726 0.000000
# 6 0.000000 0.000000 0.000000 -0.006513 0.000000 0.036543
#
#
# Mechanical properties :
#
#
# Convention : Reuss Voigt Hill
#
# Bulk Modulus (GPa) = 74.84798 82.74017 78.79407
# Shear Modulus (GPa) = 28.13107 34.44652 31.28880
#
# Velocity S-wave (km/s) = 3.60740 3.99184 3.80448
# Velocity P-wave (km/s) = 7.20940 7.71503 7.46649
#
# Compressibility (1/GPa) = 0.01336041
#
# Stress axis : x y z
#
# Youngs Moduli (GPa) = 43.51061 93.64486 95.59129
#
# Poissons Ratio (x) = 0.59029 0.73101
# Poissons Ratio (y) = 0.27427 0.13673
# Poissons Ratio (z) = 0.33274 0.13394
#
# Static dielectric constant tensor:
#      x y z
#    x 3.502430 0.000000 0.253190 
#    y 0.000000 4.356080 0.000000 
#    z 0.253190 0.000000 4.305130 
# 
# 
# High freq. dielectric constant tensor:
#      x y z
#    x 1.798540 0.000000 0.023830 
#    y 0.000000 1.870070 0.000000 
#    z 0.023830 0.000000 1.872380 
# 
# From -- ./inp_files/65442.got.cif
#   From: 2010.06.25/outbox.cif.g09.slc.cpg/sg15_33_cif.got.tgz:65442.got - 2010.06.28 07:06:18.
