data_PCOD8152120
_publ_section_title
;
Structure prediction by ZEFSAII (Michael W. Deem and Ramdas Pophale) SiO2 
 PCOD8152120
Probable space group: C 2/C
;
_chemical_formula_sum "Si O2"
_cell_formula_units_Z 64
_cell_length_a 29.015407
_cell_length_b 9.175267
_cell_length_c 18.061097
_cell_angle_alpha 90.000000
_cell_angle_beta 138.765046
_cell_angle_gamma 90.000000
_cell_volume 3169.382658
_symmetry_space_group_name_H-M "C 2/C"
_symmetry_group_IT_number 15
_symmetry_cell_setting 'monoclinic'
loop_
_space_group_symop_operation_xyz
x,y,z
-x,y,1/2-z
-x,-y,-z
x,-y,1/2+z
1/2+x,1/2+y,z
1/2-x,1/2+y,1/2-z
1/2-x,1/2-y,-z
1/2+x,1/2-y,1/2+z
loop_
_atom_site_type_symbol
_atom_site_label
_atom_site_fract_x
_atom_site_fract_y
_atom_site_fract_z
Si Si1 0.847543 0.977414 0.420926
Si Si2 0.190503 0.069931 0.784884
Si Si3 0.339398 0.825377 0.413465
Si Si4 0.815346 0.199836 0.125820
Si Si5 0.819356 0.695185 0.126525
Si Si6 0.304902 0.942616 0.217507
Si Si7 0.419668 0.967008 0.633659
Si Si8 0.420896 0.307870 0.632630
O O1 0.855864 0.931976 0.345231
O O2 0.776569 0.907002 0.367178
O O3 0.908208 0.901788 0.542739
O O4 0.849378 0.151972 0.422654
O O5 0.265960 0.142245 0.863428
O O6 0.148306 0.158565 0.797745
O O7 0.206583 0.910669 0.836133
O O8 0.345278 0.912598 0.342902
O O9 0.404146 0.888121 0.537934
O O10 0.842296 0.341991 0.201371
O O11 0.873783 0.131031 0.142964
O O12 0.750000 0.250000 0.000000
O O13 0.805317 0.604077 0.184870
O O14 0.871823 0.608647 0.137967
O O15 0.750000 0.750000 0.000000
O O16 0.500000 0.941838 0.750000
O O17 0.402036 0.137308 0.601837
O O18 0.500000 0.333174 0.750000
#
# Coordination Sequence:
#
# PCOD8152120 Si02
#       8
#     8   8   8   8   8   8   8   8
#     4  11  23  40  61  96 131 165 206 259 326 371
#     4  11  24  37  64  99 130 160 208 268 313 375
#     4  11  23  40  61  95 133 163 206 261 323 374
#     4  12  21  39  66  96 122 167 213 260 317 367
#     4  12  22  41  65  99 127 160 217 263 309 373
#     4  11  22  37  64  95 127 162 206 267 316 372
#     4  11  25  44  65  91 125 170 214 261 317 376
#     4  11  26  44  65  91 126 170 216 261 316 378
#
# _framework density 20.193207000000001
#
# number of rings (size 3 to 8) (size 9 to 14) (size 15 to 20)
#    0.000    0.750    6.250    1.500    3.500    0.500 
#    0.000    2.500    0.000    0.000    0.000    0.000 
#    0.000    0.000    0.000    0.000    0.000    0.000 
#
# Total GULP energy -396585.272352 kJ/mol
# GULP energy per Si atom -12393.289761 kJ/mol
# Density = 2.014725 g / cm^3
# Si number density = 20.193207 Si / 1000 Ang^3
#
#
#
# Elastic Constant Matrix: (Units=GPa)
#
#
# Indices 1 2 3 4 5 6 
#
# 1 82.8448 37.5557 62.1817 0.0000 -15.0067 0.0000
# 2 37.5557 111.0317 66.7983 0.0000 -12.1811 0.0000
# 3 62.1817 66.7983 149.3046 0.0000 -24.0569 0.0000
# 4 0.0000 0.0000 0.0000 40.4448 0.0000 -13.7043
# 5 -15.0067 -12.1811 -24.0569 0.0000 34.2029 0.0000
# 6 0.0000 0.0000 0.0000 -13.7043 0.0000 36.7185
#
#
#
# Elastic Compliance Matrix: (Units=1/GPa)
#
#
# Indices 1 2 3 4 5 6 
#
# 1 0.018177 -0.002130 -0.006152 0.000000 0.002890 0.000000
# 2 -0.002130 0.012583 -0.004704 0.000000 0.000238 0.000000
# 3 -0.006152 -0.004704 0.012022 0.000000 0.004081 0.000000
# 4 0.000000 0.000000 0.000000 0.028305 0.000000 0.010564
# 5 0.002890 0.000238 0.004081 0.000000 0.033461 0.000000
# 6 0.000000 0.000000 0.000000 0.010564 0.000000 0.031177
#
#
# Mechanical properties :
#
#
# Convention : Reuss Voigt Hill
#
# Bulk Modulus (GPa) = 59.48764 75.13917 67.31341
# Shear Modulus (GPa) = 29.88641 34.04960 31.96801
#
# Velocity S-wave (km/s) = 3.85128 4.11078 3.98314
# Velocity P-wave (km/s) = 7.02137 7.73448 7.38654
#
# Compressibility (1/GPa) = 0.01681021
#
# Stress axis : x y z
#
# Youngs Moduli (GPa) = 55.01367 79.47123 83.18151
#
# Poissons Ratio (x) = 0.16931 0.51170
# Poissons Ratio (y) = 0.11720 0.39129
# Poissons Ratio (z) = 0.33842 0.37384
#
# Static dielectric constant tensor:
#      x y z
#    x 3.622960 0.000000 -0.228060 
#    y 0.000000 3.850100 0.000000 
#    z -0.228060 0.000000 3.666250 
# 
# 
# High freq. dielectric constant tensor:
#      x y z
#    x 1.772610 0.000000 -0.035640 
#    y 0.000000 1.808700 0.000000 
#    z -0.035640 0.000000 1.781780 
# 
# From -- ./inp_files/224633.got.cif
#   From: 2010.06.25/outbox.cif.g09.slc.cpg/sg15_113_cif.got.tgz:224633.got - 2010.06.28 07:06:18.
