data_PCOD8152599
_publ_section_title
;
Structure prediction by ZEFSAII (Michael W. Deem and Ramdas Pophale) SiO2 
 PCOD8152599
Probable space group: C 2/C
;
_chemical_formula_sum "Si O2"
_cell_formula_units_Z 48
_cell_length_a 9.530787
_cell_length_b 18.181922
_cell_length_c 13.748311
_cell_angle_alpha 90.000000
_cell_angle_beta 81.006241
_cell_angle_gamma 90.000000
_cell_volume 2353.126739
_symmetry_space_group_name_H-M "C 2/C"
_symmetry_group_IT_number 15
_symmetry_cell_setting 'monoclinic'
loop_
_space_group_symop_operation_xyz
x,y,z
-x,y,1/2-z
-x,-y,-z
x,-y,1/2+z
1/2+x,1/2+y,z
1/2-x,1/2+y,1/2-z
1/2-x,1/2-y,-z
1/2+x,1/2-y,1/2+z
loop_
_atom_site_type_symbol
_atom_site_label
_atom_site_fract_x
_atom_site_fract_y
_atom_site_fract_z
Si Si1 0.346218 0.417030 0.250462
Si Si2 0.180753 0.858545 0.673029
Si Si3 0.085785 0.395492 0.989189
Si Si4 0.216224 0.552073 0.973358
Si Si5 0.598403 0.433470 0.865202
Si Si6 0.633938 0.187829 0.674861
O O1 0.500000 0.382561 0.250000
O O2 0.269776 0.446074 0.356705
O O3 0.367572 0.484550 0.174212
O O4 0.267669 0.348205 0.212416
O O5 0.340239 0.869739 0.618349
O O6 0.182995 0.877417 0.786814
O O7 0.134741 0.775054 0.669209
O O8 0.069680 0.912537 0.626007
O O9 0.148930 0.474456 0.011613
O O10 0.129725 0.337751 0.065260
O O11 0.915342 0.392122 0.996896
O O12 0.347017 0.574229 0.029983
O O13 0.500000 0.158821 0.750000
#
# Coordination Sequence:
#
# PCOD8152599 Si02
#       6
#     8   8   8   8   8   8
#     4  12  24  43  67  98 130 171 224 271 326 384
#     4  11  24  46  66  93 130 182 220 259 337 394
#     4  11  23  41  66  98 130 171 220 267 335 387
#     4  11  24  39  67 102 128 164 224 279 320 386
#     4  11  22  43  70  92 128 175 220 274 311 394
#     4  12  24  45  66  93 139 176 211 272 333 396
#
# _framework density 20.398391
#
# number of rings (size 3 to 8) (size 9 to 14) (size 15 to 20)
#    0.000    0.667    8.333    0.500    2.333    2.000 
#    3.000    1.667    0.000    0.000    0.000    0.000 
#    0.000    0.000    0.000    0.000    0.000    0.000 
#
# Total GULP energy -297551.681872 kJ/mol
# GULP energy per Si atom -12397.986745 kJ/mol
# Density = 2.035196 g / cm^3
# Si number density = 20.398391 Si / 1000 Ang^3
#
#
#
# Elastic Constant Matrix: (Units=GPa)
#
#
# Indices 1 2 3 4 5 6 
#
# 1 109.2090 25.1267 17.5716 0.0000 -8.5707 0.0000
# 2 25.1267 67.3525 14.3188 0.0000 8.5645 0.0000
# 3 17.5716 14.3188 60.4539 0.0000 3.0588 0.0000
# 4 0.0000 0.0000 0.0000 31.6343 0.0000 5.9205
# 5 -8.5707 8.5645 3.0588 0.0000 41.8499 0.0000
# 6 0.0000 0.0000 0.0000 5.9205 0.0000 32.1393
#
#
#
# Elastic Compliance Matrix: (Units=1/GPa)
#
#
# Indices 1 2 3 4 5 6 
#
# 1 0.010675 -0.003885 -0.002342 0.000000 0.003153 0.000000
# 2 -0.003885 0.017418 -0.002786 0.000000 -0.004157 0.000000
# 3 -0.002342 -0.002786 0.017944 0.000000 -0.001221 0.000000
# 4 0.000000 0.000000 0.000000 0.032740 0.000000 -0.006031
# 5 0.003153 -0.004157 -0.001221 0.000000 0.025480 0.000000
# 6 0.000000 0.000000 0.000000 -0.006031 0.000000 0.032226
#
#
# Mechanical properties :
#
#
# Convention : Reuss Voigt Hill
#
# Bulk Modulus (GPa) = 35.70159 39.00552 37.35356
# Shear Modulus (GPa) = 30.51655 33.12458 31.82056
#
# Velocity S-wave (km/s) = 3.87205 4.03411 3.95391
# Velocity P-wave (km/s) = 6.12621 6.39235 6.26070
#
# Compressibility (1/GPa) = 0.02800995
#
# Stress axis : x y z
#
# Youngs Moduli (GPa) = 93.67735 57.41331 55.72927
#
# Poissons Ratio (x) = 0.22307 0.13052
# Poissons Ratio (y) = 0.36397 0.15525
# Poissons Ratio (z) = 0.21939 0.15994
#
# Static dielectric constant tensor:
#      x y z
#    x 3.894490 0.000000 -0.176740 
#    y 0.000000 3.570090 0.000000 
#    z -0.176740 0.000000 3.700140 
# 
# 
# High freq. dielectric constant tensor:
#      x y z
#    x 1.803560 0.000000 -0.017890 
#    y 0.000000 1.789210 0.000000 
#    z -0.017890 0.000000 1.798930 
# 
# From -- ./inp_files/134864.got.cif
#   From: 2010.06.25/outbox.cif.g09.slc.cpg/sg15_68_cif.got.tgz:134864.got - 2010.06.28 07:06:18.
