data_PCOD8152482
_publ_section_title
;
Structure prediction by ZEFSAII (Michael W. Deem and Ramdas Pophale) SiO2 
 PCOD8152482
Probable space group: C 2/C
;
_chemical_formula_sum "Si O2"
_cell_formula_units_Z 48
_cell_length_a 17.127827
_cell_length_b 9.563760
_cell_length_c 25.849419
_cell_angle_alpha 90.000000
_cell_angle_beta 33.959014
_cell_angle_gamma 90.000000
_cell_volume 2365.279314
_symmetry_space_group_name_H-M "C 2/C"
_symmetry_group_IT_number 15
_symmetry_cell_setting 'monoclinic'
loop_
_space_group_symop_operation_xyz
x,y,z
-x,y,1/2-z
-x,-y,-z
x,-y,1/2+z
1/2+x,1/2+y,z
1/2-x,1/2+y,1/2-z
1/2-x,1/2-y,-z
1/2+x,1/2-y,1/2+z
loop_
_atom_site_type_symbol
_atom_site_label
_atom_site_fract_x
_atom_site_fract_y
_atom_site_fract_z
Si Si1 0.570042 0.071334 0.765952
Si Si2 0.801226 0.270007 0.661744
Si Si3 0.409983 0.279663 0.923392
Si Si4 0.070359 0.020572 0.264887
Si Si5 0.021329 0.161021 0.473655
Si Si6 0.326153 0.220902 0.269481
O O1 0.500000 0.107769 0.750000
O O2 0.727392 0.130636 0.679505
O O3 0.491928 0.146576 0.856076
O O4 0.569500 0.906703 0.776631
O O5 0.723005 0.408523 0.684629
O O6 0.791913 0.269127 0.728272
O O7 0.959380 0.259778 0.553654
O O8 0.466760 0.422363 0.866136
O O9 0.434881 0.297099 0.970315
O O10 0.250000 0.250000 0.000000
O O11 0.089216 0.855676 0.258812
O O12 0.000000 0.062225 0.250000
O O13 0.183662 0.200148 0.379650
O O14 0.000000 0.000000 0.500000
#
# Coordination Sequence:
#
# PCOD8152482 Si02
#       6
#     8   8   8   8   8   8
#     4  11  22  42  67  93 129 172 213 264 323 383
#     4  11  22  42  68  91 126 169 223 259 315 391
#     4  11  23  42  68  95 126 172 226 261 309 394
#     4  11  23  42  63  93 136 168 211 272 327 375
#     4  12  23  40  70  98 126 171 221 265 323 388
#     4  12  24  43  65  98 135 165 209 277 328 377
#
# _framework density 20.293586999999999
#
# number of rings (size 3 to 8) (size 9 to 14) (size 15 to 20)
#    0.000    0.667    5.000    6.500    0.000    0.667 
#    3.000    0.833    0.000    0.000    0.000    0.000 
#    0.000    0.000    0.000    0.000    0.000    0.000 
#
# Total GULP energy -297658.117949 kJ/mol
# GULP energy per Si atom -12402.421581 kJ/mol
# Density = 2.024740 g / cm^3
# Si number density = 20.293587 Si / 1000 Ang^3
#
#
#
# Elastic Constant Matrix: (Units=GPa)
#
#
# Indices 1 2 3 4 5 6 
#
# 1 65.0413 13.4461 23.3438 0.0000 4.2707 0.0000
# 2 13.4461 135.8259 46.6162 0.0000 -2.2518 0.0000
# 3 23.3438 46.6162 135.1732 0.0000 -6.0042 0.0000
# 4 0.0000 0.0000 0.0000 31.1401 0.0000 4.6747
# 5 4.2707 -2.2518 -6.0042 0.0000 28.3184 0.0000
# 6 0.0000 0.0000 0.0000 4.6747 0.0000 46.0211
#
#
#
# Elastic Compliance Matrix: (Units=1/GPa)
#
#
# Indices 1 2 3 4 5 6 
#
# 1 0.016734 -0.000759 -0.002769 0.000000 -0.003171 0.000000
# 2 -0.000759 0.008385 -0.002752 0.000000 0.000198 0.000000
# 3 -0.002769 -0.002752 0.008918 0.000000 0.002090 0.000000
# 4 0.000000 0.000000 0.000000 0.032610 0.000000 -0.003312
# 5 -0.003171 0.000198 0.002090 0.000000 0.036250 0.000000
# 6 0.000000 0.000000 0.000000 -0.003312 0.000000 0.022066
#
#
# Mechanical properties :
#
#
# Convention : Reuss Voigt Hill
#
# Bulk Modulus (GPa) = 46.56041 55.87251 51.21646
# Shear Modulus (GPa) = 34.55879 37.93823 36.24851
#
# Velocity S-wave (km/s) = 4.13115 4.32843 4.23094
# Velocity P-wave (km/s) = 6.76376 7.25067 7.01144
#
# Compressibility (1/GPa) = 0.02147748
#
# Stress axis : x y z
#
# Youngs Moduli (GPa) = 59.75952 119.25719 112.13312
#
# Poissons Ratio (x) = 0.09049 0.31050
# Poissons Ratio (y) = 0.04534 0.30858
# Poissons Ratio (z) = 0.16548 0.32819
#
# Static dielectric constant tensor:
#      x y z
#    x 3.722050 0.000000 -0.065300 
#    y 0.000000 3.721200 0.000000 
#    z -0.065300 0.000000 3.967370 
# 
# 
# High freq. dielectric constant tensor:
#      x y z
#    x 1.796330 0.000000 0.004540 
#    y 0.000000 1.797130 0.000000 
#    z 0.004540 0.000000 1.797990 
# 
# From -- ./inp_files/300458.got.cif
#   From: 2010.06.25/outbox.cif.g09.slc.cpg/sg15_151_cif.got.tgz:300458.got - 2010.06.28 07:06:18.
