data_PCOD8152053
_publ_section_title
;
Structure prediction by ZEFSAII (Michael W. Deem and Ramdas Pophale) SiO2 
 PCOD8152053
Probable space group: C 2/C
;
_chemical_formula_sum "Si O2"
_cell_formula_units_Z 56
_cell_length_a 14.709661
_cell_length_b 9.032265
_cell_length_c 19.611979
_cell_angle_alpha 90.000000
_cell_angle_beta 90.989313
_cell_angle_gamma 90.000000
_cell_volume 2605.289630
_symmetry_space_group_name_H-M "C 2/C"
_symmetry_group_IT_number 15
_symmetry_cell_setting 'monoclinic'
loop_
_space_group_symop_operation_xyz
x,y,z
-x,y,1/2-z
-x,-y,-z
x,-y,1/2+z
1/2+x,1/2+y,z
1/2-x,1/2+y,1/2-z
1/2-x,1/2-y,-z
1/2+x,1/2-y,1/2+z
loop_
_atom_site_type_symbol
_atom_site_label
_atom_site_fract_x
_atom_site_fract_y
_atom_site_fract_z
Si Si1 0.266324 0.918534 0.519365
Si Si2 0.226259 0.491890 0.329595
Si Si3 0.093190 0.629084 0.227770
Si Si4 0.585689 0.396175 0.992138
Si Si5 0.333195 0.680029 0.137951
Si Si6 0.357699 0.872792 0.923562
Si Si7 0.601757 0.470973 0.248384
O O1 0.250000 0.750000 0.500000
O O2 0.295801 0.931405 0.598737
O O3 0.174366 0.006744 0.506232
O O4 0.348663 0.985294 0.473928
O O5 0.183823 0.576859 0.265639
O O6 0.175067 0.333656 0.321882
O O7 0.336312 0.493542 0.319153
O O8 0.097459 0.590231 0.148105
O O9 0.000000 0.549691 0.250000
O O10 0.088117 0.797426 0.252770
O O11 0.584406 0.330391 0.915123
O O12 0.500000 0.500000 0.000000
O O13 0.581689 0.257423 0.043182
O O14 0.243632 0.683805 0.090177
O O15 0.341353 0.539905 0.188240
O O16 0.500000 0.545243 0.250000
#
# Coordination Sequence:
#
# PCOD8152053 Si02
#       7
#     8   8   8   8   8   8   8
#     4  11  25  42  68  98 133 180 232 281 352 425
#     4  12  22  45  64  98 137 178 221 290 351 409
#     4  11  26  42  68  97 138 179 225 282 351 414
#     4  11  24  42  71  98 132 180 232 286 346 415
#     4  11  22  40  68  96 133 180 220 281 349 411
#     4  11  21  48  66  97 136 185 225 288 354 416
#     4  11  24  40  69 100 129 174 235 280 340 429
#
# _framework density 21.494733
#
# number of rings (size 3 to 8) (size 9 to 14) (size 15 to 20)
#    0.000    0.857    5.714    0.857   10.000    1.714 
#    2.571    1.429    0.000    0.000    0.000    0.000 
#    0.000    0.000    0.000    0.000    0.000    0.000 
#
# Total GULP energy -346971.906827 kJ/mol
# GULP energy per Si atom -12391.853815 kJ/mol
# Density = 2.144581 g / cm^3
# Si number density = 21.494733 Si / 1000 Ang^3
#
#
#
# Elastic Constant Matrix: (Units=GPa)
#
#
# Indices 1 2 3 4 5 6 
#
# 1 109.8748 38.1091 53.8826 0.0000 -27.0473 0.0000
# 2 38.1091 92.8010 54.7090 0.0000 -13.3349 0.0000
# 3 53.8826 54.7090 154.0694 0.0000 -30.0349 0.0000
# 4 0.0000 0.0000 0.0000 29.9883 0.0000 3.7912
# 5 -27.0473 -13.3349 -30.0349 0.0000 33.9538 0.0000
# 6 0.0000 0.0000 0.0000 3.7912 0.0000 32.5587
#
#
#
# Elastic Compliance Matrix: (Units=1/GPa)
#
#
# Indices 1 2 3 4 5 6 
#
# 1 0.012962 -0.003085 -0.002007 0.000000 0.007338 0.000000
# 2 -0.003085 0.014410 -0.004125 0.000000 -0.000447 0.000000
# 3 -0.002007 -0.004125 0.009703 0.000000 0.005364 0.000000
# 4 0.000000 0.000000 0.000000 0.033845 0.000000 -0.003941
# 5 0.007338 -0.000447 0.005364 0.000000 0.039867 0.000000
# 6 0.000000 0.000000 0.000000 -0.003941 0.000000 0.031173
#
#
# Mechanical properties :
#
#
# Convention : Reuss Voigt Hill
#
# Bulk Modulus (GPa) = 53.64684 72.23849 62.94267
# Shear Modulus (GPa) = 30.01057 33.30314 31.65686
#
# Velocity S-wave (km/s) = 3.74061 3.94047 3.84184
# Velocity P-wave (km/s) = 6.60821 7.37452 7.00186
#
# Compressibility (1/GPa) = 0.01864043
#
# Stress axis : x y z
#
# Youngs Moduli (GPa) = 77.14817 69.39450 103.06002
#
# Poissons Ratio (x) = 0.21410 0.20686
# Poissons Ratio (y) = 0.23802 0.42515
# Poissons Ratio (z) = 0.15485 0.28627
#
# Static dielectric constant tensor:
#      x y z
#    x 4.061770 0.000000 -0.267660 
#    y 0.000000 4.094380 0.000000 
#    z -0.267660 0.000000 4.103160 
# 
# 
# High freq. dielectric constant tensor:
#      x y z
#    x 1.836650 0.000000 -0.017190 
#    y 0.000000 1.834100 0.000000 
#    z -0.017190 0.000000 1.857590 
# 
# From -- ./inp_files/242780.got.cif
#   From: 2010.06.25/outbox.cif.g09.slc.cpg/sg15_122_cif.got.tgz:242780.got - 2010.06.28 07:06:18.
