data_PCOD8152856
_publ_section_title
;
Structure prediction by ZEFSAII (Michael W. Deem and Ramdas Pophale) SiO2 
 PCOD8152856
Probable space group: C 2/C
;
_chemical_formula_sum "Si O2"
_cell_formula_units_Z 52
_cell_length_a 15.151977
_cell_length_b 29.031157
_cell_length_c 5.196353
_cell_angle_alpha 90.000000
_cell_angle_beta 101.017788
_cell_angle_gamma 90.000000
_cell_volume 2243.637237
_symmetry_space_group_name_H-M "C 2/C"
_symmetry_group_IT_number 15
_symmetry_cell_setting 'monoclinic'
loop_
_space_group_symop_operation_xyz
x,y,z
-x,y,1/2-z
-x,-y,-z
x,-y,1/2+z
1/2+x,1/2+y,z
1/2-x,1/2+y,1/2-z
1/2-x,1/2-y,-z
1/2+x,1/2-y,1/2+z
loop_
_atom_site_type_symbol
_atom_site_label
_atom_site_fract_x
_atom_site_fract_y
_atom_site_fract_z
Si Si1 0.900518 0.166147 0.750937
Si Si2 0.054859 0.557690 0.045799
Si Si3 0.144289 0.741955 0.458549
Si Si4 0.753431 0.972902 0.622963
Si Si5 0.807172 0.130537 0.189898
Si Si6 0.615518 0.157603 0.150706
Si Si7 0.000000 0.722769 0.750000
O O1 0.896007 0.222169 0.775623
O O2 0.835719 0.149905 0.483393
O O3 0.000000 0.148592 0.750000
O O4 0.876062 0.143728 0.007548
O O5 0.145497 0.529960 0.048865
O O6 0.076966 0.607293 0.183933
O O7 0.000000 0.531985 0.250000
O O8 0.000000 0.563147 0.750000
O O9 0.250000 0.750000 0.500000
O O10 0.132004 0.687017 0.418682
O O11 0.083593 0.753329 0.679950
O O12 0.800383 0.924399 0.700885
O O13 0.785391 0.993333 0.368660
O O14 0.710802 0.152507 0.056363
O O15 0.542226 0.188755 0.977919
#
# Coordination Sequence:
#
# PCOD8152856 Si02
#       7
#     8   8   8   8   8   8   4
#     4  12  26  45  71 102 138 181 233 293 352 411
#     4  11  23  39  63  97 139 182 230 278 330 404
#     4  12  26  42  65  97 143 190 242 295 344 405
#     4  11  24  44  71 100 133 175 220 278 357 430
#     4  11  26  46  73 100 139 180 228 290 352 424
#     4  11  24  41  64  95 141 192 241 281 336 403
#     4  12  24  40  66  92 138 194 242 288 342 400
#
# _framework density 23.176652000000001
#
# number of rings (size 3 to 8) (size 9 to 14) (size 15 to 20)
#    0.000    0.615    2.308    5.538    4.308    5.538 
#    0.000    0.000    0.000    9.231    0.000    0.000 
#    0.000    0.000    0.000    0.000    0.000    0.000 
#
# Total GULP energy -322176.127710 kJ/mol
# GULP energy per Si atom -12391.389527 kJ/mol
# Density = 2.312390 g / cm^3
# Si number density = 23.176652 Si / 1000 Ang^3
#
#
#
# Elastic Constant Matrix: (Units=GPa)
#
#
# Indices 1 2 3 4 5 6 
#
# 1 132.4563 13.8940 9.2060 0.0000 -12.4531 0.0000
# 2 13.8940 99.0497 12.4878 0.0000 -1.5272 0.0000
# 3 9.2060 12.4878 85.8294 0.0000 -11.6012 0.0000
# 4 0.0000 0.0000 0.0000 0.1694 0.0000 -16.0220
# 5 -12.4531 -1.5272 -11.6012 0.0000 34.2798 0.0000
# 6 0.0000 0.0000 0.0000 -16.0220 0.0000 12.0389
#
#
#
# Elastic Compliance Matrix: (Units=1/GPa)
#
#
# Indices 1 2 3 4 5 6 
#
# 1 0.007937 -0.001029 -0.000333 0.000000 0.002725 0.000000
# 2 -0.001029 0.010418 -0.001460 0.000000 -0.000404 0.000000
# 3 -0.000333 -0.001460 0.012443 0.000000 0.004025 0.000000
# 4 0.000000 0.000000 0.000000 -0.047273 0.000000 -0.062914
# 5 0.002725 -0.000404 0.004025 0.000000 0.031506 0.000000
# 6 0.000000 0.000000 0.000000 -0.062914 0.000000 -0.000665
#
#
# Mechanical properties :
#
#
# Convention : Reuss Voigt Hill
#
# Bulk Modulus (GPa) = 39.75635 43.16790 41.46213
# Shear Modulus (GPa) = 176.08696 28.08078 102.08387
#
# Velocity S-wave (km/s) = 8.72588 3.48458 6.64392
# Velocity P-wave (km/s) = 10.89551 5.90388 8.76264
#
# Compressibility (1/GPa) = 0.02515321
#
# Stress axis : x y z
#
# Youngs Moduli (GPa) = 125.99289 95.98613 80.36498
#
# Poissons Ratio (x) = 0.09880 0.02678
# Poissons Ratio (y) = 0.12969 0.11733
# Poissons Ratio (z) = 0.04199 0.14014
#
# Static dielectric constant tensor:
#      x y z
#    x 4.356950 0.000000 0.001040 
#    y 0.000000 4.477070 0.000000 
#    z 0.001040 0.000000 3.832490 
# 
# 
# High freq. dielectric constant tensor:
#      x y z
#    x 1.926180 0.000000 -0.003970 
#    y 0.000000 1.924640 0.000000 
#    z -0.003970 0.000000 1.907730 
# 
# From -- ./inp_files/9120.got.cif
#   From: 2010.06.25/outbox.cif.g09.slc.cpg/sg15_5_cif.got.tgz:9120.got - 2010.06.28 07:06:18.
