data_PCOD8152213
_publ_section_title
;
Structure prediction by ZEFSAII (Michael W. Deem and Ramdas Pophale) SiO2 
 PCOD8152213
Probable space group: C 2/C
;
_chemical_formula_sum "Si O2"
_cell_formula_units_Z 60
_cell_length_a 9.257961
_cell_length_b 17.868124
_cell_length_c 20.255383
_cell_angle_alpha 90.000000
_cell_angle_beta 56.133956
_cell_angle_gamma 90.000000
_cell_volume 2782.224223
_symmetry_space_group_name_H-M "C 2/C"
_symmetry_group_IT_number 15
_symmetry_cell_setting 'monoclinic'
loop_
_space_group_symop_operation_xyz
x,y,z
-x,y,1/2-z
-x,-y,-z
x,-y,1/2+z
1/2+x,1/2+y,z
1/2-x,1/2+y,1/2-z
1/2-x,1/2-y,-z
1/2+x,1/2-y,1/2+z
loop_
_atom_site_type_symbol
_atom_site_label
_atom_site_fract_x
_atom_site_fract_y
_atom_site_fract_z
Si Si1 0.320525 0.984557 0.010279
Si Si2 0.834713 0.838791 0.426656
Si Si3 0.522332 0.077246 0.342410
Si Si4 0.000000 0.453580 0.250000
Si Si5 0.875708 0.136118 0.460771
Si Si6 0.177724 0.172926 0.170692
Si Si7 0.275271 0.335004 0.131473
Si Si8 0.751379 0.686594 0.403184
O O1 0.233037 0.920278 0.078043
O O2 0.179163 0.050197 0.036955
O O3 0.367482 0.957250 0.925632
O O4 0.500000 0.000000 0.000000
O O5 0.776710 0.776736 0.386376
O O6 0.742667 0.820370 0.519346
O O7 0.039245 0.848336 0.383462
O O8 0.679274 0.112976 0.343473
O O9 0.419155 0.143588 0.329605
O O10 0.590811 0.009489 0.279656
O O11 0.850407 0.402918 0.318832
O O12 0.818434 0.178315 0.409440
O O13 0.784445 0.169807 0.549180
O O14 0.082379 0.149703 0.413358
O O15 0.212463 0.258443 0.182142
O O16 0.000000 0.145863 0.250000
#
# Coordination Sequence:
#
# PCOD8152213 Si02
#       8
#     8   8   8   4   8   8   8   8
#     4  11  22  39  65 100 134 174 224 282 342 403
#     4   9  20  37  65  91 136 169 219 280 338 388
#     4  11  24  43  67  91 139 179 221 285 343 404
#     4  12  26  42  72  98 136 184 242 280 354 406
#     4  11  24  40  71 101 133 179 231 277 342 415
#     4  12  26  44  67  99 141 179 226 285 350 406
#     4  11  23  45  67 100 134 183 229 285 333 418
#     4   9  20  39  64  98 125 175 225 268 334 411
#
# _framework density 21.565480999999998
#
# number of rings (size 3 to 8) (size 9 to 14) (size 15 to 20)
#    0.000    1.333    4.667    0.400    5.600    2.667 
#    0.000    0.000    0.000    1.600    0.000    0.000 
#    0.000    0.000    0.000    0.000    0.000    0.000 
#
# Total GULP energy -371715.668815 kJ/mol
# GULP energy per Si atom -12390.522294 kJ/mol
# Density = 2.151640 g / cm^3
# Si number density = 21.565481 Si / 1000 Ang^3
#
#
#
# Elastic Constant Matrix: (Units=GPa)
#
#
# Indices 1 2 3 4 5 6 
#
# 1 131.2816 67.3459 40.8810 -0.0001 -11.9211 0.0002
# 2 67.3459 143.2598 33.9676 0.0000 -8.7076 0.0000
# 3 40.8810 33.9676 73.7890 0.0000 -11.4206 0.0001
# 4 -0.0001 0.0000 0.0000 28.0404 0.0001 -4.0202
# 5 -11.9211 -8.7076 -11.4206 0.0001 27.1804 -0.0001
# 6 0.0002 0.0000 0.0001 -4.0202 -0.0001 41.4421
#
#
#
# Elastic Compliance Matrix: (Units=1/GPa)
#
#
# Indices 1 2 3 4 5 6 
#
# 1 0.011179 -0.004199 -0.003968 0.000000 0.001890 0.000000
# 2 -0.004199 0.009442 -0.001965 0.000000 0.000358 0.000000
# 3 -0.003968 -0.001965 0.017421 0.000000 0.004950 0.000000
# 4 0.000000 0.000000 0.000000 0.036166 0.000000 0.003508
# 5 0.001890 0.000358 0.004950 0.000000 0.039815 0.000000
# 6 0.000000 0.000000 0.000000 0.003508 0.000000 0.024470
#
#
# Mechanical properties :
#
#
# Convention : Reuss Voigt Hill
#
# Bulk Modulus (GPa) = 56.24785 70.30215 63.27500
# Shear Modulus (GPa) = 30.36161 33.07497 31.71829
#
# Velocity S-wave (km/s) = 3.75624 3.92050 3.83925
# Velocity P-wave (km/s) = 6.70459 7.29136 7.00412
#
# Compressibility (1/GPa) = 0.01777846
#
# Stress axis : x y z
#
# Youngs Moduli (GPa) = 89.45660 105.90995 57.40263
#
# Poissons Ratio (x) = 0.44476 0.22775
# Poissons Ratio (y) = 0.37566 0.11277
# Poissons Ratio (z) = 0.35492 0.20806
#
# Static dielectric constant tensor:
#      x y z
#    x 3.721640 0.000000 -0.057120 
#    y 0.000000 4.519160 0.000000 
#    z -0.057120 0.000000 3.804650 
# 
# 
# High freq. dielectric constant tensor:
#      x y z
#    x 1.840550 0.000000 -0.014580 
#    y 0.000000 1.868280 0.000000 
#    z -0.014580 0.000000 1.825720 
# 
# From -- ./inp_files/233053.got.cif
#   From: 2010.06.25/outbox.cif.g09.slc.cpg/sg15_117_cif.got.tgz:233053.got - 2010.06.28 07:06:18.
