data_PCOD8152081
_publ_section_title
;
Structure prediction by ZEFSAII (Michael W. Deem and Ramdas Pophale) SiO2 
 PCOD8152081
Probable space group: C 2/C
;
_chemical_formula_sum "Si O2"
_cell_formula_units_Z 64
_cell_length_a 29.888716
_cell_length_b 13.701395
_cell_length_c 9.121165
_cell_angle_alpha 90.000000
_cell_angle_beta 117.443847
_cell_angle_gamma 90.000000
_cell_volume 3314.916448
_symmetry_space_group_name_H-M "C 2/C"
_symmetry_group_IT_number 15
_symmetry_cell_setting 'monoclinic'
loop_
_space_group_symop_operation_xyz
x,y,z
-x,y,1/2-z
-x,-y,-z
x,-y,1/2+z
1/2+x,1/2+y,z
1/2-x,1/2+y,1/2-z
1/2-x,1/2-y,-z
1/2+x,1/2-y,1/2+z
loop_
_atom_site_type_symbol
_atom_site_label
_atom_site_fract_x
_atom_site_fract_y
_atom_site_fract_z
Si Si1 0.948930 0.104654 0.097019
Si Si2 0.205853 0.134597 0.844836
Si Si3 0.807891 0.913957 0.672008
Si Si4 0.650408 0.708923 0.505040
Si Si5 0.806730 0.404873 0.037526
Si Si6 0.686320 0.905667 0.111572
Si Si7 0.146679 0.203711 0.009862
Si Si8 0.551722 0.597555 0.752250
O O1 0.908813 0.189421 0.068678
O O2 0.000000 0.142001 0.250000
O O3 0.931838 0.005080 0.151337
O O4 0.956099 0.086537 0.934165
O O5 0.176082 0.213627 0.702687
O O6 0.264511 0.131596 0.900032
O O7 0.196455 0.170422 0.995579
O O8 0.180637 0.027690 0.787540
O O9 0.820843 0.882023 0.526775
O O10 0.749160 0.889154 0.614082
O O11 0.846843 0.850832 0.826402
O O12 0.658995 0.810119 0.433615
O O13 0.801549 0.428345 0.201313
O O14 0.833428 0.495751 0.995771
O O15 0.645055 0.820291 0.033457
O O16 0.095076 0.176068 0.850575
O O17 0.500000 0.633734 0.750000
#
# Coordination Sequence:
#
# PCOD8152081 Si02
#       8
#     8   8   8   8   8   8   8   8
#     4  11  24  39  62  90 119 157 192 241 297 353
#     4  11  22  36  57  91 121 158 194 244 287 359
#     4  11  22  37  58  87 124 160 198 239 295 350
#     4  12  22  39  61  83 122 159 201 240 293 352
#     4  11  25  40  58  84 119 160 203 251 287 343
#     4  11  25  40  58  84 119 160 204 248 292 336
#     4  12  24  38  60  87 120 162 199 242 295 351
#     4  11  24  40  60  90 122 154 193 242 295 356
#
# _framework density 19.306671000000001
#
# number of rings (size 3 to 8) (size 9 to 14) (size 15 to 20)
#    0.000    0.750    3.750    5.250   10.500    0.000 
#    0.000    0.000    0.000    0.750    0.000    3.500 
#    0.000    0.000    0.000    0.000    0.000    0.000 
#
# Total GULP energy -396873.744464 kJ/mol
# GULP energy per Si atom -12402.304514 kJ/mol
# Density = 1.926273 g / cm^3
# Si number density = 19.306671 Si / 1000 Ang^3
#
#
#
# Elastic Constant Matrix: (Units=GPa)
#
#
# Indices 1 2 3 4 5 6 
#
# 1 58.0518 29.2015 27.1535 0.0000 -10.2340 0.0000
# 2 29.2015 80.1222 29.2991 0.0000 -5.5834 0.0000
# 3 27.1535 29.2991 92.0946 0.0000 -5.0510 0.0000
# 4 0.0000 0.0000 0.0000 29.6469 0.0000 -3.4831
# 5 -10.2340 -5.5834 -5.0510 0.0000 25.4678 0.0000
# 6 0.0000 0.0000 0.0000 -3.4831 0.0000 26.8322
#
#
#
# Elastic Compliance Matrix: (Units=1/GPa)
#
#
# Indices 1 2 3 4 5 6 
#
# 1 0.023943 -0.006545 -0.004578 0.000000 0.007278 0.000000
# 2 -0.006545 0.016040 -0.003159 0.000000 0.000260 0.000000
# 3 -0.004578 -0.003159 0.013218 0.000000 0.000089 0.000000
# 4 0.000000 0.000000 0.000000 0.034253 0.000000 0.004446
# 5 0.007278 0.000260 0.000089 0.000000 0.042265 0.000000
# 6 0.000000 0.000000 0.000000 0.004446 0.000000 0.037846
#
#
# Mechanical properties :
#
#
# Convention : Reuss Voigt Hill
#
# Bulk Modulus (GPa) = 40.58971 44.61966 42.60469
# Shear Modulus (GPa) = 24.46912 26.03036 25.24974
#
# Velocity S-wave (km/s) = 3.56391 3.67585 3.62031
# Velocity P-wave (km/s) = 6.16478 6.41693 6.29212
#
# Compressibility (1/GPa) = 0.02463679
#
# Stress axis : x y z
#
# Youngs Moduli (GPa) = 41.76643 62.34578 75.65419
#
# Poissons Ratio (x) = 0.40805 0.34634
# Poissons Ratio (y) = 0.27336 0.23898
# Poissons Ratio (z) = 0.19120 0.19694
#
# Static dielectric constant tensor:
#      x y z
#    x 3.451130 0.000000 -0.214470 
#    y 0.000000 3.466870 0.000000 
#    z -0.214470 0.000000 3.531350 
# 
# 
# High freq. dielectric constant tensor:
#      x y z
#    x 1.735880 0.000000 -0.024210 
#    y 0.000000 1.736230 0.000000 
#    z -0.024210 0.000000 1.761960 
# 
# From -- ./inp_files/69921.got.cif
#   From: 2010.06.25/outbox.cif.g09.slc.cpg/sg15_35_cif.got.tgz:69921.got - 2010.06.28 07:06:18.
