data_PCOD8152126
_publ_section_title
;
Structure prediction by ZEFSAII (Michael W. Deem and Ramdas Pophale) SiO2 
 PCOD8152126
Probable space group: C 2/C
;
_chemical_formula_sum "Si O2"
_cell_formula_units_Z 56
_cell_length_a 15.770899
_cell_length_b 10.119978
_cell_length_c 31.023564
_cell_angle_alpha 90.000000
_cell_angle_beta 31.212649
_cell_angle_gamma 90.000000
_cell_volume 2565.892071
_symmetry_space_group_name_H-M "C 2/C"
_symmetry_group_IT_number 15
_symmetry_cell_setting 'monoclinic'
loop_
_space_group_symop_operation_xyz
x,y,z
-x,y,1/2-z
-x,-y,-z
x,-y,1/2+z
1/2+x,1/2+y,z
1/2-x,1/2+y,1/2-z
1/2-x,1/2-y,-z
1/2+x,1/2-y,1/2+z
loop_
_atom_site_type_symbol
_atom_site_label
_atom_site_fract_x
_atom_site_fract_y
_atom_site_fract_z
Si Si1 0.694850 0.416756 0.160641
Si Si2 0.694497 0.048818 0.027292
Si Si3 0.794544 0.705558 0.106120
Si Si4 0.345624 0.960257 0.184282
Si Si5 0.154056 0.183011 0.079405
Si Si6 0.653211 0.260261 0.975683
Si Si7 0.697408 0.262957 0.740196
O O1 0.500000 0.442162 0.250000
O O2 0.791183 0.546340 0.102221
O O3 0.775875 0.388756 0.171806
O O4 0.725846 0.297044 0.113768
O O5 0.777277 0.099544 0.036348
O O6 0.543028 0.948547 0.103241
O O7 0.628407 0.171564 0.028692
O O8 0.819148 0.973856 0.940644
O O9 0.721461 0.754309 0.093139
O O10 0.678892 0.747269 0.196578
O O11 0.972908 0.770739 0.033608
O O12 0.252478 0.881416 0.263341
O O13 0.319979 0.117737 0.197522
O O14 0.961819 0.199472 0.163642
O O15 0.250000 0.250000 0.000000
#
# Coordination Sequence:
#
# PCOD8152126 Si02
#       7
#     8   8   8   8   8   8   8
#     4  11  22  37  65  97 129 171 229 275 330 394
#     4  11  23  41  64  99 128 168 218 272 344 391
#     4  11  22  42  64  98 124 174 229 274 325 396
#     4  11  24  43  66 100 134 176 225 278 339 396
#     4  12  24  42  68  89 131 178 223 267 330 406
#     4  11  23  38  69  95 133 162 216 290 329 391
#     4  11  25  41  70  96 135 174 225 275 333 400
#
# _framework density 21.824767999999999
#
# number of rings (size 3 to 8) (size 9 to 14) (size 15 to 20)
#    0.000    0.857    5.714    3.429    4.000    0.000 
#    0.000    2.143    0.000    0.000    0.000    0.000 
#    0.000    0.000    0.000    0.000    0.000    0.000 
#
# Total GULP energy -346958.469005 kJ/mol
# GULP energy per Si atom -12391.373893 kJ/mol
# Density = 2.177509 g / cm^3
# Si number density = 21.824768 Si / 1000 Ang^3
#
#
#
# Elastic Constant Matrix: (Units=GPa)
#
#
# Indices 1 2 3 4 5 6 
#
# 1 107.0893 39.6745 39.4164 -0.0005 10.5596 -0.0030
# 2 39.6745 59.9214 25.7275 -0.0005 10.9636 -0.0022
# 3 39.4164 25.7275 111.1684 0.0003 3.5579 -0.0003
# 4 -0.0005 -0.0005 0.0003 34.2978 0.0004 14.4197
# 5 10.5596 10.9636 3.5579 0.0004 42.6532 -0.0001
# 6 -0.0030 -0.0022 -0.0003 14.4197 -0.0001 32.5667
#
#
#
# Elastic Compliance Matrix: (Units=1/GPa)
#
#
# Indices 1 2 3 4 5 6 
#
# 1 0.013244 -0.007280 -0.002974 0.000000 -0.001159 0.000001
# 2 -0.007280 0.023400 -0.002707 0.000000 -0.003987 0.000001
# 3 -0.002974 -0.002707 0.010659 0.000000 0.000543 0.000000
# 4 0.000000 0.000000 0.000000 0.035825 0.000000 -0.015863
# 5 -0.001159 -0.003987 0.000543 0.000000 0.024711 0.000000
# 6 0.000001 0.000001 0.000000 -0.015863 0.000000 0.037730
#
#
# Mechanical properties :
#
#
# Convention : Reuss Voigt Hill
#
# Bulk Modulus (GPa) = 46.76850 54.20178 50.48514
# Shear Modulus (GPa) = 27.99268 33.46094 30.72681
#
# Velocity S-wave (km/s) = 3.58524 3.91981 3.75625
# Velocity P-wave (km/s) = 6.21403 6.73613 6.48034
#
# Compressibility (1/GPa) = 0.02138191
#
# Stress axis : x y z
#
# Youngs Moduli (GPa) = 75.50557 42.73461 93.81870
#
# Poissons Ratio (x) = 0.31111 0.27901
# Poissons Ratio (y) = 0.54968 0.25394
# Poissons Ratio (z) = 0.22455 0.11567
#
# Static dielectric constant tensor:
#      x y z
#    x 4.129820 0.000000 0.094720 
#    y 0.000000 3.173530 0.000000 
#    z 0.094720 0.000000 4.102840 
# 
# 
# High freq. dielectric constant tensor:
#      x y z
#    x 1.858580 0.000000 0.003300 
#    y 0.000000 1.836580 0.000000 
#    z 0.003300 0.000000 1.864030 
# 
# From -- ./inp_files/313700.got.cif
#   From: 2010.06.25/outbox.cif.g09.slc.cpg/sg15_157_cif.got.tgz:313700.got - 2010.06.28 07:06:18.
