data_PCOD8152997
_publ_section_title
;
Structure prediction by ZEFSAII (Michael W. Deem and Ramdas Pophale) SiO2 
 PCOD8152997
Probable space group: C 2/C
;
_chemical_formula_sum "Si O2"
_cell_formula_units_Z 44
_cell_length_a 9.240672
_cell_length_b 16.719820
_cell_length_c 14.479092
_cell_angle_alpha 90.000000
_cell_angle_beta 120.685742
_cell_angle_gamma 90.000000
_cell_volume 1923.820174
_symmetry_space_group_name_H-M "C 2/C"
_symmetry_group_IT_number 15
_symmetry_cell_setting 'monoclinic'
loop_
_space_group_symop_operation_xyz
x,y,z
-x,y,1/2-z
-x,-y,-z
x,-y,1/2+z
1/2+x,1/2+y,z
1/2-x,1/2+y,1/2-z
1/2-x,1/2-y,-z
1/2+x,1/2-y,1/2+z
loop_
_atom_site_type_symbol
_atom_site_label
_atom_site_fract_x
_atom_site_fract_y
_atom_site_fract_z
Si Si1 0.441522 0.504761 0.334418
Si Si2 0.898076 0.448502 0.342972
Si Si3 0.000000 0.317172 0.250000
Si Si4 0.059497 0.605390 0.445146
Si Si5 0.324135 0.246292 0.422067
Si Si6 0.900331 0.118991 0.481944
O O1 0.500000 0.527026 0.250000
O O2 0.270866 0.453537 0.272461
O O3 0.417623 0.587499 0.382604
O O4 0.572229 0.451632 0.434724
O O5 0.857626 0.431404 0.435856
O O6 0.008867 0.374349 0.342523
O O7 0.996240 0.531777 0.362132
O O8 0.168797 0.263745 0.302277
O O9 0.208420 0.649629 0.436779
O O10 0.900515 0.661169 0.417496
O O11 0.250000 0.250000 0.500000
O O12 0.473464 0.309187 0.459556
#
# Coordination Sequence:
#
# PCOD8152997 Si02
#       6
#     8   8   4   8   8   8
#     4  11  23  41  74 106 138 183 241 299 359 435
#     4  11  23  43  73 101 141 186 237 292 359 430
#     4  12  24  46  74 104 144 194 246 294 368 434
#     4  11  25  45  72 104 141 188 238 296 360 432
#     4  12  27  45  69 105 147 191 235 303 367 434
#     4  11  25  44  71 105 142 187 238 294 366 434
#
# _framework density 22.87116
#
# number of rings (size 3 to 8) (size 9 to 14) (size 15 to 20)
#    0.000    0.727    5.455    1.636    5.091    1.455 
#    0.000    0.000    2.000    0.000    0.000    0.000 
#    0.000    0.000    0.000    0.000    0.000    0.000 
#
# Total GULP energy -272835.868424 kJ/mol
# GULP energy per Si atom -12401.630383 kJ/mol
# Density = 2.281910 g / cm^3
# Si number density = 22.871160 Si / 1000 Ang^3
#
#
#
# Elastic Constant Matrix: (Units=GPa)
#
#
# Indices 1 2 3 4 5 6 
#
# 1 141.2845 38.4393 39.6929 0.0000 10.2125 0.0000
# 2 38.4393 82.5984 32.8619 0.0000 13.9172 0.0000
# 3 39.6929 32.8619 92.3715 0.0000 0.3738 0.0000
# 4 0.0000 0.0000 0.0000 27.0624 0.0000 -3.3550
# 5 10.2125 13.9172 0.3738 0.0000 41.7374 0.0000
# 6 0.0000 0.0000 0.0000 -3.3550 0.0000 36.4568
#
#
#
# Elastic Compliance Matrix: (Units=1/GPa)
#
#
# Indices 1 2 3 4 5 6 
#
# 1 0.008683 -0.002748 -0.002749 0.000000 -0.001184 0.000000
# 2 -0.002748 0.015940 -0.004471 0.000000 -0.004603 0.000000
# 3 -0.002749 -0.004471 0.013590 0.000000 0.002042 0.000000
# 4 0.000000 0.000000 0.000000 0.037378 0.000000 0.003440
# 5 -0.001184 -0.004603 0.002042 0.000000 0.025765 0.000000
# 6 0.000000 0.000000 0.000000 0.003440 0.000000 0.027746
#
#
# Mechanical properties :
#
#
# Convention : Reuss Voigt Hill
#
# Bulk Modulus (GPa) = 54.71492 59.80472 57.25982
# Shear Modulus (GPa) = 32.23071 34.73534 33.48302
#
# Velocity S-wave (km/s) = 3.75804 3.90133 3.83036
# Velocity P-wave (km/s) = 6.54260 6.81903 6.68224
#
# Compressibility (1/GPa) = 0.01827655
#
# Stress axis : x y z
#
# Youngs Moduli (GPa) = 115.16214 62.73501 73.58590
#
# Poissons Ratio (x) = 0.17239 0.20228
# Poissons Ratio (y) = 0.31646 0.32903
# Poissons Ratio (z) = 0.31658 0.28051
#
# Static dielectric constant tensor:
#      x y z
#    x 4.198060 0.000000 0.128240 
#    y 0.000000 3.906770 0.000000 
#    z 0.128240 0.000000 4.123010 
# 
# 
# High freq. dielectric constant tensor:
#      x y z
#    x 1.916140 0.000000 0.005450 
#    y 0.000000 1.889290 0.000000 
#    z 0.005450 0.000000 1.904750 
# 
# From -- ./inp_files/134955.got.cif
#   From: 2010.06.25/outbox.cif.g09.slc.cpg/sg15_68_cif.got.tgz:134955.got - 2010.06.28 07:06:18.
