data_PCOD8152474
_publ_section_title
;
Structure prediction by ZEFSAII (Michael W. Deem and Ramdas Pophale) SiO2 
 PCOD8152474
Probable space group: C 2/C
;
_chemical_formula_sum "Si O2"
_cell_formula_units_Z 44
_cell_length_a 7.999044
_cell_length_b 25.394827
_cell_length_c 10.037819
_cell_angle_alpha 90.000000
_cell_angle_beta 66.232586
_cell_angle_gamma 90.000000
_cell_volume 1866.093972
_symmetry_space_group_name_H-M "C 2/C"
_symmetry_group_IT_number 15
_symmetry_cell_setting 'monoclinic'
loop_
_space_group_symop_operation_xyz
x,y,z
-x,y,1/2-z
-x,-y,-z
x,-y,1/2+z
1/2+x,1/2+y,z
1/2-x,1/2+y,1/2-z
1/2-x,1/2-y,-z
1/2+x,1/2-y,1/2+z
loop_
_atom_site_type_symbol
_atom_site_label
_atom_site_fract_x
_atom_site_fract_y
_atom_site_fract_z
Si Si1 0.500000 0.058564 0.250000
Si Si2 0.748751 0.187653 0.764932
Si Si3 0.595073 0.465245 0.858576
Si Si4 0.500000 0.230160 0.250000
Si Si5 0.958884 0.643091 0.047952
Si Si6 0.500000 0.731186 0.250000
Si Si7 0.076897 0.856859 0.532530
O O1 0.684892 0.023878 0.211362
O O2 0.530499 0.094165 0.109918
O O3 0.667671 0.228076 0.680489
O O4 0.887633 0.150564 0.636730
O O5 0.841392 0.227649 0.841056
O O6 0.601164 0.150881 0.882898
O O7 0.500000 0.480514 0.750000
O O8 0.566961 0.403628 0.900701
O O9 0.500000 0.500000 0.000000
O O10 0.444520 0.195594 0.141048
O O11 0.761635 0.629020 0.052478
O O12 0.516299 0.695387 0.376772
#
# Coordination Sequence:
#
# PCOD8152474 Si02
#       7
#     4   8   8   4   8   4   8
#     4  11  26  50  81 104 146 187 238 310 389 452
#     4  12  24  36  62 106 148 197 248 289 348 445
#     4  12  29  55  82 111 142 192 253 324 398 456
#     4  11  24  36  56 101 153 202 254 294 343 432
#     4  11  22  42  66 102 146 200 242 294 364 433
#     4  12  20  38  65  91 143 197 236 276 358 436
#     4  12  23  45  70 100 145 194 248 304 369 445
#
# _framework density 23.578661
#
# number of rings (size 3 to 8) (size 9 to 14) (size 15 to 20)
#    0.000    0.364    6.364    2.182    5.091    2.182 
#    3.273    0.000    0.000    0.000    0.000    0.000 
#    0.000    0.000    0.000    0.000    0.000    0.000 
#
# Total GULP energy -272715.531084 kJ/mol
# GULP energy per Si atom -12396.160504 kJ/mol
# Density = 2.352500 g / cm^3
# Si number density = 23.578661 Si / 1000 Ang^3
#
#
#
# Elastic Constant Matrix: (Units=GPa)
#
#
# Indices 1 2 3 4 5 6 
#
# 1 119.7195 23.7420 25.5165 0.0000 -13.9122 0.0000
# 2 23.7420 55.9700 32.1508 0.0000 -0.0586 0.0000
# 3 25.5165 32.1508 136.3577 0.0000 -1.5248 0.0000
# 4 0.0000 0.0000 0.0000 28.7220 0.0000 -5.6660
# 5 -13.9122 -0.0586 -1.5248 0.0000 35.6860 0.0000
# 6 0.0000 0.0000 0.0000 -5.6660 0.0000 18.6033
#
#
#
# Elastic Compliance Matrix: (Units=1/GPa)
#
#
# Indices 1 2 3 4 5 6 
#
# 1 0.009694 -0.003574 -0.000929 0.000000 0.003733 0.000000
# 2 -0.003574 0.021985 -0.004532 0.000000 -0.001551 0.000000
# 3 -0.000929 -0.004532 0.008576 0.000000 -0.000003 0.000000
# 4 0.000000 0.000000 0.000000 0.037042 0.000000 0.011282
# 5 0.003733 -0.001551 -0.000003 0.000000 0.029475 0.000000
# 6 0.000000 0.000000 0.000000 0.011282 0.000000 0.057190
#
#
# Mechanical properties :
#
#
# Convention : Reuss Voigt Hill
#
# Bulk Modulus (GPa) = 45.07977 52.76288 48.92132
# Shear Modulus (GPa) = 26.39539 31.97812 29.18675
#
# Velocity S-wave (km/s) = 3.34946 3.68670 3.52212
# Velocity P-wave (km/s) = 5.84114 6.36776 6.11012
#
# Compressibility (1/GPa) = 0.02218290
#
# Stress axis : x y z
#
# Youngs Moduli (GPa) = 103.16064 45.48644 116.60258
#
# Poissons Ratio (x) = 0.16257 0.10838
# Poissons Ratio (y) = 0.36871 0.52845
# Poissons Ratio (z) = 0.09589 0.20615
#
# Static dielectric constant tensor:
#      x y z
#    x 4.739510 0.000000 -0.044090 
#    y 0.000000 3.947820 0.000000 
#    z -0.044090 0.000000 4.177630 
# 
# 
# High freq. dielectric constant tensor:
#      x y z
#    x 1.950240 0.000000 -0.005270 
#    y 0.000000 1.903660 0.000000 
#    z -0.005270 0.000000 1.931360 
# 
# From -- ./inp_files/79726.got.cif
#   From: 2010.06.25/outbox.cif.g09.slc.cpg/sg15_40_cif.got.tgz:79726.got - 2010.06.28 07:06:18.
