data_PCOD8152884
_publ_section_title
;
Structure prediction by ZEFSAII (Michael W. Deem and Ramdas Pophale) SiO2 
 PCOD8152884
Probable space group: C 2/C
;
_chemical_formula_sum "Si O2"
_cell_formula_units_Z 64
_cell_length_a 11.040503
_cell_length_b 26.651175
_cell_length_c 14.122931
_cell_angle_alpha 90.000000
_cell_angle_beta 41.860652
_cell_angle_gamma 90.000000
_cell_volume 2773.096654
_symmetry_space_group_name_H-M "C 2/C"
_symmetry_group_IT_number 15
_symmetry_cell_setting 'monoclinic'
loop_
_space_group_symop_operation_xyz
x,y,z
-x,y,1/2-z
-x,-y,-z
x,-y,1/2+z
1/2+x,1/2+y,z
1/2-x,1/2+y,1/2-z
1/2-x,1/2-y,-z
1/2+x,1/2-y,1/2+z
loop_
_atom_site_type_symbol
_atom_site_label
_atom_site_fract_x
_atom_site_fract_y
_atom_site_fract_z
Si Si1 0.493523 0.467741 0.408979
Si Si2 0.342852 0.982980 0.469149
Si Si3 0.649424 0.388229 0.587132
Si Si4 0.859008 0.694269 0.075691
Si Si5 0.963965 0.141659 0.543851
Si Si6 0.813361 0.531691 0.195175
Si Si7 0.160183 0.637156 0.227800
Si Si8 0.631316 0.211868 0.757251
O O1 0.500000 0.500000 0.500000
O O2 0.300642 0.471710 0.466298
O O3 0.548620 0.410360 0.392307
O O4 0.648767 0.495501 0.259922
O O5 0.257161 0.933581 0.470487
O O6 0.389686 0.959542 0.546155
O O7 0.540045 0.003288 0.321329
O O8 0.500000 0.408669 0.750000
O O9 0.788583 0.351896 0.556445
O O10 0.552459 0.359126 0.560046
O O11 0.916578 0.673786 0.145612
O O12 0.698965 0.734436 0.181098
O O13 0.027279 0.717464 0.918357
O O14 0.808111 0.177632 0.675385
O O15 0.172493 0.161814 0.429360
O O16 0.761349 0.583912 0.276441
O O17 0.000000 0.625304 0.250000
O O18 0.500000 0.189988 0.750000
#
# Coordination Sequence:
#
# PCOD8152884 Si02
#       8
#     8   8   8   8   8   8   8   8
#     4  12  23  38  60  96 142 181 226 281 348 414
#     4  11  23  40  63  97 135 185 237 289 345 412
#     4  12  21  40  70  99 144 180 232 301 369 420
#     4  12  26  47  73 110 143 180 237 305 373 442
#     4  12  25  42  68 105 144 186 238 292 360 435
#     4  11  24  40  66  93 136 187 243 289 341 412
#     4  12  25  46  73 102 143 199 245 295 358 432
#     4  12  27  46  77 112 144 179 232 306 377 434
#
# _framework density 23.078892
#
# number of rings (size 3 to 8) (size 9 to 14) (size 15 to 20)
#    0.000    0.250    6.250    3.375    1.750    0.000 
#    0.000    4.375    0.000    0.000    0.000    0.000 
#    0.000    0.000    0.000    0.000    0.000    0.000 
#
# Total GULP energy -396487.053047 kJ/mol
# GULP energy per Si atom -12390.220408 kJ/mol
# Density = 2.302636 g / cm^3
# Si number density = 23.078892 Si / 1000 Ang^3
#
#
#
# Elastic Constant Matrix: (Units=GPa)
#
#
# Indices 1 2 3 4 5 6 
#
# 1 81.1486 11.3594 14.1130 0.0000 -12.8509 0.0000
# 2 11.3594 75.8179 29.7150 0.0000 -1.4688 0.0000
# 3 14.1130 29.7150 113.6922 0.0000 -17.8392 0.0000
# 4 0.0000 0.0000 0.0000 32.5839 0.0000 -9.8289
# 5 -12.8509 -1.4688 -17.8392 0.0000 36.1810 0.0000
# 6 0.0000 0.0000 0.0000 -9.8289 0.0000 27.1046
#
#
#
# Elastic Compliance Matrix: (Units=1/GPa)
#
#
# Indices 1 2 3 4 5 6 
#
# 1 0.013352 -0.001712 -0.000517 0.000000 0.004418 0.000000
# 2 -0.001712 0.014981 -0.004013 0.000000 -0.001979 0.000000
# 3 -0.000517 -0.004013 0.010681 0.000000 0.004920 0.000000
# 4 0.000000 0.000000 0.000000 0.034459 0.000000 0.012496
# 5 0.004418 -0.001979 0.004920 0.000000 0.031554 0.000000
# 6 0.000000 0.000000 0.000000 0.012496 0.000000 0.041426
#
#
# Mechanical properties :
#
#
# Convention : Reuss Voigt Hill
#
# Bulk Modulus (GPa) = 37.69476 42.33704 40.01590
# Shear Modulus (GPa) = 29.80096 33.53865 31.66981
#
# Velocity S-wave (km/s) = 3.59732 3.81624 3.70840
# Velocity P-wave (km/s) = 5.79851 6.14838 5.97601
#
# Compressibility (1/GPa) = 0.02652889
#
# Stress axis : x y z
#
# Youngs Moduli (GPa) = 74.89334 66.75273 93.62684
#
# Poissons Ratio (x) = 0.11431 0.04837
# Poissons Ratio (y) = 0.12825 0.37576
# Poissons Ratio (z) = 0.03869 0.26790
#
# Static dielectric constant tensor:
#      x y z
#    x 4.271030 0.000000 -0.035140 
#    y 0.000000 4.031650 0.000000 
#    z -0.035140 0.000000 3.608270 
# 
# 
# High freq. dielectric constant tensor:
#      x y z
#    x 1.911200 0.000000 -0.012110 
#    y 0.000000 1.897620 0.000000 
#    z -0.012110 0.000000 1.912290 
# 
# From -- ./inp_files/148765.got.cif
#   From: 2010.06.25/outbox.cif.g09.slc.cpg/sg15_75_cif.got.tgz:148765.got - 2010.06.28 07:06:18.
