data_PCOD8152049
_publ_section_title
;
Structure prediction by ZEFSAII (Michael W. Deem and Ramdas Pophale) SiO2 
 PCOD8152049
Probable space group: C 2/C
;
_chemical_formula_sum "Si O2"
_cell_formula_units_Z 52
_cell_length_a 14.542102
_cell_length_b 11.579736
_cell_length_c 14.826556
_cell_angle_alpha 90.000000
_cell_angle_beta 74.953896
_cell_angle_gamma 90.000000
_cell_volume 2411.104959
_symmetry_space_group_name_H-M "C 2/C"
_symmetry_group_IT_number 15
_symmetry_cell_setting 'monoclinic'
loop_
_space_group_symop_operation_xyz
x,y,z
-x,y,1/2-z
-x,-y,-z
x,-y,1/2+z
1/2+x,1/2+y,z
1/2-x,1/2+y,1/2-z
1/2-x,1/2-y,-z
1/2+x,1/2-y,1/2+z
loop_
_atom_site_type_symbol
_atom_site_label
_atom_site_fract_x
_atom_site_fract_y
_atom_site_fract_z
Si Si1 0.711119 0.506027 0.649484
Si Si2 0.576251 0.311813 0.119687
Si Si3 0.543058 0.725892 0.430689
Si Si4 0.500000 0.118042 0.250000
Si Si5 0.162093 0.835088 0.517247
Si Si6 0.392787 0.473911 0.142335
Si Si7 0.572376 0.974600 0.398864
O O1 0.673744 0.623765 0.615903
O O2 0.656330 0.403222 0.612832
O O3 0.687047 0.510270 0.761384
O O4 0.822009 0.486629 0.600669
O O5 0.577520 0.202848 0.186112
O O6 0.480143 0.391781 0.152469
O O7 0.588243 0.262981 0.017282
O O8 0.430155 0.744114 0.466953
O O9 0.565587 0.601402 0.383922
O O10 0.578780 0.839003 0.368454
O O11 0.546132 0.041427 0.315381
O O12 0.250000 0.750000 0.500000
O O13 0.160806 0.923865 0.432280
O O14 0.500000 0.000000 0.500000
#
# Coordination Sequence:
#
# PCOD8152049 Si02
#       7
#     8   8   8   4   8   8   8
#     4  12  25  42  73 106 133 184 239 282 352 417
#     4  11  21  46  76 101 134 187 236 291 344 418
#     4  11  23  47  71  99 147 183 234 292 345 420
#     4  12  26  48  74  94 150 190 226 288 366 414
#     4  11  24  42  72 105 146 184 229 292 353 410
#     4  11  23  43  74 110 135 179 243 295 347 406
#     4  12  29  47  65 102 145 187 227 281 357 426
#
# _framework density 21.566875
#
# number of rings (size 3 to 8) (size 9 to 14) (size 15 to 20)
#    0.000    0.615    6.154    1.846    2.154    6.769 
#    0.000    0.000    0.000    0.000    0.000    0.000 
#    0.000    0.000    0.000    0.000    0.000    0.000 
#
# Total GULP energy -322289.835262 kJ/mol
# GULP energy per Si atom -12395.762895 kJ/mol
# Density = 2.151779 g / cm^3
# Si number density = 21.566875 Si / 1000 Ang^3
#
#
#
# Elastic Constant Matrix: (Units=GPa)
#
#
# Indices 1 2 3 4 5 6 
#
# 1 111.1102 30.9703 55.0853 0.0000 7.1281 0.0000
# 2 30.9703 139.0932 44.0665 0.0000 17.5817 0.0000
# 3 55.0853 44.0665 96.4477 0.0000 7.4495 0.0000
# 4 0.0000 0.0000 0.0000 44.8445 0.0000 -0.0947
# 5 7.1281 17.5817 7.4495 0.0000 30.3676 0.0000
# 6 0.0000 0.0000 0.0000 -0.0947 0.0000 33.7711
#
#
#
# Elastic Compliance Matrix: (Units=1/GPa)
#
#
# Indices 1 2 3 4 5 6 
#
# 1 0.012627 -0.000499 -0.006908 0.000000 -0.000980 0.000000
# 2 -0.000499 0.008931 -0.003471 0.000000 -0.004202 0.000000
# 3 -0.006908 -0.003471 0.015921 0.000000 -0.000274 0.000000
# 4 0.000000 0.000000 0.000000 0.022299 0.000000 0.000063
# 5 -0.000980 -0.004202 -0.000274 0.000000 0.035660 0.000000
# 6 0.000000 0.000000 0.000000 0.000063 0.000000 0.029611
#
#
# Mechanical properties :
#
#
# Convention : Reuss Voigt Hill
#
# Bulk Modulus (GPa) = 63.60163 67.43281 65.51722
# Shear Modulus (GPa) = 32.88448 36.23190 34.55819
#
# Velocity S-wave (km/s) = 3.90906 4.10320 4.00731
# Velocity P-wave (km/s) = 7.06603 7.33369 7.20111
#
# Compressibility (1/GPa) = 0.01572287
#
# Stress axis : x y z
#
# Youngs Moduli (GPa) = 79.19628 111.96428 62.81053
#
# Poissons Ratio (x) = 0.05587 0.43390
# Poissons Ratio (y) = 0.03952 0.21802
# Poissons Ratio (z) = 0.54709 0.38864
#
# Static dielectric constant tensor:
#      x y z
#    x 3.903460 0.000000 0.092870 
#    y 0.000000 4.599200 0.000000 
#    z 0.092870 0.000000 4.030510 
# 
# 
# High freq. dielectric constant tensor:
#      x y z
#    x 1.842450 0.000000 0.013630 
#    y 0.000000 1.862210 0.000000 
#    z 0.013630 0.000000 1.846160 
# 
# From -- ./inp_files/152544.got.cif
#   From: 2010.06.25/outbox.cif.g09.slc.cpg/sg15_77_cif.got.tgz:152544.got - 2010.06.28 07:06:18.
