data_PCOD8152592
_publ_section_title
;
Structure prediction by ZEFSAII (Michael W. Deem and Ramdas Pophale) SiO2 
 PCOD8152592
Probable space group: C 2/C
;
_chemical_formula_sum "Si O2"
_cell_formula_units_Z 44
_cell_length_a 12.731736
_cell_length_b 16.494316
_cell_length_c 14.521793
_cell_angle_alpha 90.000000
_cell_angle_beta 136.809600
_cell_angle_gamma 90.000000
_cell_volume 2087.218974
_symmetry_space_group_name_H-M "C 2/C"
_symmetry_group_IT_number 15
_symmetry_cell_setting 'monoclinic'
loop_
_space_group_symop_operation_xyz
x,y,z
-x,y,1/2-z
-x,-y,-z
x,-y,1/2+z
1/2+x,1/2+y,z
1/2-x,1/2+y,1/2-z
1/2-x,1/2-y,-z
1/2+x,1/2-y,1/2+z
loop_
_atom_site_type_symbol
_atom_site_label
_atom_site_fract_x
_atom_site_fract_y
_atom_site_fract_z
Si Si1 0.884263 0.014350 0.038086
Si Si2 0.825515 0.900923 0.838893
Si Si3 0.021172 0.390621 0.548733
Si Si4 0.278440 0.234000 0.913398
Si Si5 0.000000 0.119177 0.750000
Si Si6 0.431804 0.967424 0.106252
O O1 0.955959 0.937781 0.136537
O O2 0.806212 0.977473 0.895351
O O3 0.005170 0.086861 0.096175
O O4 0.747918 0.056708 0.007368
O O5 0.703409 0.901780 0.677956
O O6 0.786774 0.816697 0.862962
O O7 0.980416 0.419659 0.419035
O O8 0.949135 0.301957 0.509163
O O9 0.939700 0.438617 0.580867
O O10 0.138722 0.173758 0.796075
O O11 0.250000 0.250000 0.000000
O O12 0.500000 0.948974 0.250000
#
# Coordination Sequence:
#
# PCOD8152592 Si02
#       6
#     8   8   8   8   4   8
#     4  11  23  40  66  95 133 178 220 275 328 401
#     4  11  24  41  64  97 136 174 221 275 337 402
#     4  11  24  41  68 101 131 177 222 272 345 399
#     4  12  24  42  65 101 137 174 216 288 345 395
#     4  12  22  38  68  98 132 174 224 274 344 390
#     4  11  22  43  69  97 135 173 223 278 332 403
#
# _framework density 21.080684000000002
#
# number of rings (size 3 to 8) (size 9 to 14) (size 15 to 20)
#    0.000    0.727    5.455    2.182    2.545    0.000 
#    0.000    0.909    2.000    0.000    0.000    0.000 
#    0.000    0.000    0.000    0.000    0.000    0.000 
#
# Total GULP energy -272601.656859 kJ/mol
# GULP energy per Si atom -12390.984403 kJ/mol
# Density = 2.103270 g / cm^3
# Si number density = 21.080684 Si / 1000 Ang^3
#
#
#
# Elastic Constant Matrix: (Units=GPa)
#
#
# Indices 1 2 3 4 5 6 
#
# 1 114.7617 45.7524 51.0834 -0.0002 10.9757 -0.0001
# 2 45.7524 79.8313 31.1962 -0.0001 2.7577 -0.0001
# 3 51.0834 31.1962 110.4411 -0.0003 -7.1180 -0.0003
# 4 -0.0002 -0.0001 -0.0003 20.1126 -0.0003 5.4984
# 5 10.9757 2.7577 -7.1180 -0.0003 41.6516 -0.0002
# 6 -0.0001 -0.0001 -0.0003 5.4984 -0.0002 46.6714
#
#
#
# Elastic Compliance Matrix: (Units=1/GPa)
#
#
# Indices 1 2 3 4 5 6 
#
# 1 0.013569 -0.005713 -0.004923 0.000000 -0.004039 0.000000
# 2 -0.005713 0.016597 -0.002042 0.000000 0.000058 0.000000
# 3 -0.004923 -0.002042 0.012134 0.000000 0.003506 0.000000
# 4 0.000000 0.000000 0.000000 0.051375 0.000000 -0.006053
# 5 -0.004039 0.000058 0.003506 0.000000 0.025668 0.000000
# 6 0.000000 0.000000 0.000000 -0.006053 0.000000 0.022139
#
#
# Mechanical properties :
#
#
# Convention : Reuss Voigt Hill
#
# Bulk Modulus (GPa) = 59.01625 62.34421 60.68023
# Shear Modulus (GPa) = 28.98795 33.48727 31.23761
#
# Velocity S-wave (km/s) = 3.71225 3.98996 3.85361
# Velocity P-wave (km/s) = 6.81400 7.13195 6.97479
#
# Compressibility (1/GPa) = 0.01694448
#
# Stress axis : x y z
#
# Youngs Moduli (GPa) = 73.69794 60.25309 82.41193
#
# Poissons Ratio (x) = 0.34425 0.40568
# Poissons Ratio (y) = 0.42106 0.16826
# Poissons Ratio (z) = 0.36279 0.12302
#
# Static dielectric constant tensor:
#      x y z
#    x 3.707850 0.000000 0.022240 
#    y 0.000000 3.358450 0.000000 
#    z 0.022240 0.000000 4.260890 
# 
# 
# High freq. dielectric constant tensor:
#      x y z
#    x 1.834020 0.000000 0.004650 
#    y 0.000000 1.798110 0.000000 
#    z 0.004650 0.000000 1.838700 
# 
# From -- ./inp_files/154977.got.cif
#   From: 2010.06.25/outbox.cif.g09.slc.cpg/sg15_78_cif.got.tgz:154977.got - 2010.06.28 07:06:18.
