data_PCOD8153140
_publ_section_title
;
Structure prediction by ZEFSAII (Michael W. Deem and Ramdas Pophale) SiO2 
 PCOD8153140
Probable space group: C 2/C
;
_chemical_formula_sum "Si O2"
_cell_formula_units_Z 48
_cell_length_a 25.379929
_cell_length_b 9.641126
_cell_length_c 9.822044
_cell_angle_alpha 90.000000
_cell_angle_beta 89.829580
_cell_angle_gamma 90.000000
_cell_volume 2403.356054
_symmetry_space_group_name_H-M "C 2/C"
_symmetry_group_IT_number 15
_symmetry_cell_setting 'monoclinic'
loop_
_space_group_symop_operation_xyz
x,y,z
-x,y,1/2-z
-x,-y,-z
x,-y,1/2+z
1/2+x,1/2+y,z
1/2-x,1/2+y,1/2-z
1/2-x,1/2-y,-z
1/2+x,1/2-y,1/2+z
loop_
_atom_site_type_symbol
_atom_site_label
_atom_site_fract_x
_atom_site_fract_y
_atom_site_fract_z
Si Si1 0.937244 0.239063 0.280676
Si Si2 0.965476 0.956118 0.375481
Si Si3 0.137688 0.447774 0.084383
Si Si4 0.110220 0.749751 0.009513
Si Si5 0.781038 0.817630 0.377910
Si Si6 0.706257 0.935090 0.819493
O O1 0.911272 0.344218 0.389436
O O2 0.900389 0.237117 0.149437
O O3 0.000000 0.269556 0.250000
O O4 0.928613 0.086629 0.341709
O O5 0.936635 0.814739 0.406131
O O6 0.000000 0.912117 0.250000
O O7 0.000000 0.000000 0.500000
O O8 0.170413 0.469909 0.222283
O O9 0.110893 0.589836 0.043698
O O10 0.176088 0.399544 0.960958
O O11 0.160895 0.834322 0.061315
O O12 0.750000 0.750000 0.500000
O O13 0.778801 0.712657 0.248356
O O14 0.758221 0.970291 0.344429
#
# Coordination Sequence:
#
# PCOD8153140 Si02
#       6
#     8   8   8   8   8   8
#     4  11  23  44  69  96 136 176 221 275 328 390
#     4  11  23  44  66  94 135 171 219 275 325 391
#     4  11  23  44  68  96 137 170 226 273 328 393
#     4  11  23  43  67  98 133 175 215 275 329 391
#     4  11  23  44  69  96 137 172 217 273 334 391
#     4  11  23  45  67  97 136 174 217 281 325 395
#
# _framework density 19.972072000000001
#
# number of rings (size 3 to 8) (size 9 to 14) (size 15 to 20)
#    0.000    1.000    8.333    0.000    0.000    7.333 
#    3.000    0.000    0.000    0.000    0.000    0.000 
#    0.000    0.000    0.000    0.000    0.000    0.000 
#
# Total GULP energy -297445.794462 kJ/mol
# GULP energy per Si atom -12393.574769 kJ/mol
# Density = 1.992661 g / cm^3
# Si number density = 19.972072 Si / 1000 Ang^3
#
#
#
# Elastic Constant Matrix: (Units=GPa)
#
#
# Indices 1 2 3 4 5 6 
#
# 1 77.7619 44.6929 45.1022 0.0000 -4.7051 0.0000
# 2 44.6929 90.4091 34.6353 0.0000 -5.9182 0.0000
# 3 45.1022 34.6353 124.8770 0.0000 -3.5218 0.0000
# 4 0.0000 0.0000 0.0000 29.8323 0.0000 -7.5247
# 5 -4.7051 -5.9182 -3.5218 0.0000 43.4536 0.0000
# 6 0.0000 0.0000 0.0000 -7.5247 0.0000 46.5307
#
#
#
# Elastic Compliance Matrix: (Units=1/GPa)
#
#
# Indices 1 2 3 4 5 6 
#
# 1 0.020575 -0.008152 -0.005150 0.000000 0.000700 0.000000
# 2 -0.008152 0.015693 -0.001376 0.000000 0.001143 0.000000
# 3 -0.005150 -0.001376 0.010252 0.000000 0.000086 0.000000
# 4 0.000000 0.000000 0.000000 0.034946 0.000000 0.005651
# 5 0.000700 0.001143 0.000086 0.000000 0.023252 0.000000
# 6 0.000000 0.000000 0.000000 0.005651 0.000000 0.022405
#
#
# Mechanical properties :
#
#
# Convention : Reuss Voigt Hill
#
# Bulk Modulus (GPa) = 58.26501 60.21208 59.23855
# Shear Modulus (GPa) = 30.82630 35.20449 33.01540
#
# Velocity S-wave (km/s) = 3.93296 4.20299 4.07022
# Velocity P-wave (km/s) = 7.06122 7.33260 7.19819
#
# Compressibility (1/GPa) = 0.01716296
#
# Stress axis : x y z
#
# Youngs Moduli (GPa) = 48.60380 63.72421 97.54155
#
# Poissons Ratio (x) = 0.51948 0.50236
# Poissons Ratio (y) = 0.39622 0.13421
# Poissons Ratio (z) = 0.25032 0.08768
#
# Static dielectric constant tensor:
#      x y z
#    x 3.094250 0.000000 -0.532670 
#    y 0.000000 3.802230 0.000000 
#    z -0.532670 0.000000 3.367260 
# 
# 
# High freq. dielectric constant tensor:
#      x y z
#    x 1.780640 0.000000 0.002220 
#    y 0.000000 1.779210 0.000000 
#    z 0.002220 0.000000 1.798370 
# 
# From -- ./inp_files/116379.got.cif
#   From: 2010.06.25/outbox.cif.g09.slc.cpg/sg15_59_cif.got.tgz:116379.got - 2010.06.28 07:06:18.
