data_PCOD8153512
_publ_section_title
;
Structure prediction by ZEFSAII (Michael W. Deem and Ramdas Pophale) SiO2 
 PCOD8153512
Probable space group: C 2/C
;
_chemical_formula_sum "Si O2"
_cell_formula_units_Z 48
_cell_length_a 29.137481
_cell_length_b 8.650309
_cell_length_c 9.843947
_cell_angle_alpha 90.000000
_cell_angle_beta 81.098305
_cell_angle_gamma 90.000000
_cell_volume 2451.264534
_symmetry_space_group_name_H-M "C 2/C"
_symmetry_group_IT_number 15
_symmetry_cell_setting 'monoclinic'
loop_
_space_group_symop_operation_xyz
x,y,z
-x,y,1/2-z
-x,-y,-z
x,-y,1/2+z
1/2+x,1/2+y,z
1/2-x,1/2+y,1/2-z
1/2-x,1/2-y,-z
1/2+x,1/2-y,1/2+z
loop_
_atom_site_type_symbol
_atom_site_label
_atom_site_fract_x
_atom_site_fract_y
_atom_site_fract_z
Si Si1 0.139938 0.149545 0.835663
Si Si2 0.782203 0.317024 0.100207
Si Si3 0.867627 0.857163 0.473745
Si Si4 0.232850 0.320742 0.868190
Si Si5 0.055622 0.630748 0.371619
Si Si6 0.450550 0.150595 0.435237
O O1 0.141036 0.096633 0.678629
O O2 0.183096 0.259196 0.845175
O O3 0.092515 0.238448 0.893459
O O4 0.144191 0.002361 0.929111
O O5 0.771370 0.496115 0.122226
O O6 0.772265 0.224796 0.242777
O O7 0.750000 0.250000 0.000000
O O8 0.835349 0.287453 0.032132
O O9 0.920827 0.805587 0.472472
O O10 0.250000 0.250000 0.000000
O O11 0.058819 0.585651 0.211695
O O12 0.066372 0.477515 0.451212
O O13 0.004406 0.694783 0.432198
#
# Coordination Sequence:
#
# PCOD8153512 Si02
#       6
#     8   8   8   8   8   8
#     4  11  24  41  60  90 122 163 204 253 307 365
#     4  12  24  44  63  91 124 161 205 254 308 365
#     4  11  24  40  61  88 126 160 205 253 306 366
#     4  12  26  42  67  91 122 164 205 255 308 365
#     4   9  19  38  63  88 122 157 203 250 310 364
#     4   9  19  38  62  90 120 159 200 255 304 367
#
# _framework density 19.581728999999999
#
# number of rings (size 3 to 8) (size 9 to 14) (size 15 to 20)
#    0.000    1.333    1.667    4.000    2.333    2.000 
#    0.000    0.000    0.000    0.000    0.000    0.000 
#    0.000    0.000    0.000    0.000    0.000    0.000 
#
# Total GULP energy -297693.646657 kJ/mol
# GULP energy per Si atom -12403.901944 kJ/mol
# Density = 1.953716 g / cm^3
# Si number density = 19.581729 Si / 1000 Ang^3
#
#
#
# Elastic Constant Matrix: (Units=GPa)
#
#
# Indices 1 2 3 4 5 6 
#
# 1 98.2416 36.1863 37.4399 0.0000 1.4126 0.0000
# 2 36.1863 116.7043 46.0778 0.0000 -2.5529 0.0000
# 3 37.4399 46.0778 111.8815 0.0000 -4.0397 0.0000
# 4 0.0000 0.0000 0.0000 35.2029 0.0000 -3.9163
# 5 1.4126 -2.5529 -4.0397 0.0000 30.8920 0.0000
# 6 0.0000 0.0000 0.0000 -3.9163 0.0000 31.1514
#
#
#
# Elastic Compliance Matrix: (Units=1/GPa)
#
#
# Indices 1 2 3 4 5 6 
#
# 1 0.012343 -0.002634 -0.003089 0.000000 -0.001186 0.000000
# 2 -0.002634 0.010797 -0.003546 0.000000 0.000549 0.000000
# 3 -0.003089 -0.003546 0.011481 0.000000 0.001350 0.000000
# 4 0.000000 0.000000 0.000000 0.028810 0.000000 0.003622
# 5 -0.001186 0.000549 0.001350 0.000000 0.032647 0.000000
# 6 0.000000 0.000000 0.000000 0.003622 0.000000 0.032557
#
#
# Mechanical properties :
#
#
# Convention : Reuss Voigt Hill
#
# Bulk Modulus (GPa) = 62.16950 62.91504 62.54227
# Shear Modulus (GPa) = 32.78003 33.25748 33.01875
#
# Velocity S-wave (km/s) = 4.09591 4.12563 4.11079
# Velocity P-wave (km/s) = 7.36113 7.40902 7.38512
#
# Compressibility (1/GPa) = 0.01608506
#
# Stress axis : x y z
#
# Youngs Moduli (GPa) = 81.01603 92.61666 87.10364
#
# Poissons Ratio (x) = 0.24393 0.26903
# Poissons Ratio (y) = 0.21337 0.30883
# Poissons Ratio (z) = 0.25023 0.32838
#
# Static dielectric constant tensor:
#      x y z
#    x 8.306110 0.000000 -0.913910 
#    y 0.000000 3.471730 0.000000 
#    z -0.913910 0.000000 4.008310 
# 
# 
# High freq. dielectric constant tensor:
#      x y z
#    x 1.780440 0.000000 -0.003000 
#    y 0.000000 1.752930 0.000000 
#    z -0.003000 0.000000 1.779030 
# 
# From -- ./inp_files/68590.got.cif
#   From: 2010.06.25/outbox.cif.g09.slc.cpg/sg15_35_cif.got.tgz:68590.got - 2010.06.28 07:06:18.
