data_PCOD8153988
_publ_section_title
;
Structure prediction by ZEFSAII (Michael W. Deem and Ramdas Pophale) SiO2 
 PCOD8153988
Probable space group: C 2/C
;
_chemical_formula_sum "Si O2"
_cell_formula_units_Z 44
_cell_length_a 22.485111
_cell_length_b 5.549087
_cell_length_c 14.835637
_cell_angle_alpha 90.000000
_cell_angle_beta 107.524081
_cell_angle_gamma 90.000000
_cell_volume 1765.162432
_symmetry_space_group_name_H-M "C 2/C"
_symmetry_group_IT_number 15
_symmetry_cell_setting 'monoclinic'
loop_
_space_group_symop_operation_xyz
x,y,z
-x,y,1/2-z
-x,-y,-z
x,-y,1/2+z
1/2+x,1/2+y,z
1/2-x,1/2+y,1/2-z
1/2-x,1/2-y,-z
1/2+x,1/2-y,1/2+z
loop_
_atom_site_type_symbol
_atom_site_label
_atom_site_fract_x
_atom_site_fract_y
_atom_site_fract_z
Si Si1 0.479944 0.703469 0.420702
Si Si2 0.102056 0.471869 0.512494
Si Si3 0.195041 0.102892 0.519923
Si Si4 0.371070 0.266178 0.137324
Si Si5 0.262543 0.859347 0.704649
Si Si6 0.500000 0.552958 0.750000
O O1 0.500000 0.500000 0.500000
O O2 0.535146 0.894265 0.444097
O O3 0.470325 0.605063 0.316157
O O4 0.413658 0.827577 0.418382
O O5 0.148987 0.259132 0.566005
O O6 0.140415 0.571945 0.445442
O O7 0.250000 0.250000 0.500000
O O8 0.153866 0.015779 0.416344
O O9 0.221635 0.887258 0.594571
O O10 0.334212 0.190251 0.210151
O O11 0.444489 0.280018 0.189745
O O12 0.238710 0.615708 0.743120
#
# Coordination Sequence:
#
# PCOD8153988 Si02
#       6
#     8   8   8   8   8   4
#     4  11  24  50  72 117 162 213 273 344 419 497
#     4  11  24  47  81 108 157 213 279 339 425 493
#     4  12  25  52  83 111 159 223 281 344 424 505
#     4  12  27  52  81 116 161 223 275 343 425 505
#     4  12  30  53  81 127 170 219 284 357 422 503
#     4  12  26  52  82 118 170 220 282 350 426 516
#
# _framework density 24.926884000000001
#
# number of rings (size 3 to 8) (size 9 to 14) (size 15 to 20)
#    0.000    0.364    5.455    1.636    2.545    3.636 
#    6.545    0.000    0.000    0.000    0.000    0.000 
#    0.000    0.000    0.000    0.000    0.000    0.000 
#
# Total GULP energy -272750.163495 kJ/mol
# GULP energy per Si atom -12397.734704 kJ/mol
# Density = 2.487015 g / cm^3
# Si number density = 24.926884 Si / 1000 Ang^3
#
#
#
# Elastic Constant Matrix: (Units=GPa)
#
#
# Indices 1 2 3 4 5 6 
#
# 1 154.7465 58.8467 40.9905 0.0000 -10.8479 0.0000
# 2 58.8467 131.9604 44.1951 0.0000 -14.9347 0.0000
# 3 40.9905 44.1951 109.4152 0.0000 -14.8455 0.0000
# 4 0.0000 0.0000 0.0000 33.4172 0.0000 -10.5814
# 5 -10.8479 -14.9347 -14.8455 0.0000 51.2284 0.0000
# 6 0.0000 0.0000 0.0000 -10.5814 0.0000 52.2079
#
#
#
# Elastic Compliance Matrix: (Units=1/GPa)
#
#
# Indices 1 2 3 4 5 6 
#
# 1 0.008088 -0.002972 -0.001785 0.000000 0.000329 0.000000
# 2 -0.002972 0.009982 -0.002716 0.000000 0.001494 0.000000
# 3 -0.001785 -0.002716 0.011186 0.000000 0.002072 0.000000
# 4 0.000000 0.000000 0.000000 0.031977 0.000000 0.006481
# 5 0.000329 0.001494 0.002072 0.000000 0.020626 0.000000
# 6 0.000000 0.000000 0.000000 0.006481 0.000000 0.020468
#
#
# Mechanical properties :
#
#
# Convention : Reuss Voigt Hill
#
# Bulk Modulus (GPa) = 69.87663 76.02073 72.94868
# Shear Modulus (GPa) = 40.96914 44.17666 42.57290
#
# Velocity S-wave (km/s) = 4.05850 4.21438 4.13717
# Velocity P-wave (km/s) = 7.07498 7.36512 7.22151
#
# Compressibility (1/GPa) = 0.01431094
#
# Stress axis : x y z
#
# Youngs Moduli (GPa) = 123.63683 100.18121 89.39434
#
# Poissons Ratio (x) = 0.29772 0.15958
# Poissons Ratio (y) = 0.36742 0.24279
# Poissons Ratio (z) = 0.22070 0.27208
#
# Static dielectric constant tensor:
#      x y z
#    x 4.844920 0.000000 -0.095250 
#    y 0.000000 4.686880 0.000000 
#    z -0.095250 0.000000 4.559980 
# 
# 
# High freq. dielectric constant tensor:
#      x y z
#    x 2.013310 0.000000 -0.009340 
#    y 0.000000 2.001090 0.000000 
#    z -0.009340 0.000000 1.979170 
# 
# From -- ./inp_files/212914.got.cif
#   From: 2010.06.25/outbox.cif.g09.slc.cpg/sg15_107_cif.got.tgz:212914.got - 2010.06.28 07:06:18.
