data_PCOD8153331
_publ_section_title
;
Structure prediction by ZEFSAII (Michael W. Deem and Ramdas Pophale) SiO2 
 PCOD8153331
Probable space group: C 2/C
;
_chemical_formula_sum "Si O2"
_cell_formula_units_Z 44
_cell_length_a 25.845067
_cell_length_b 8.045567
_cell_length_c 26.326192
_cell_angle_alpha 90.000000
_cell_angle_beta 19.428407
_cell_angle_gamma 90.000000
_cell_volume 1820.883368
_symmetry_space_group_name_H-M "C 2/C"
_symmetry_group_IT_number 15
_symmetry_cell_setting 'monoclinic'
loop_
_space_group_symop_operation_xyz
x,y,z
-x,y,1/2-z
-x,-y,-z
x,-y,1/2+z
1/2+x,1/2+y,z
1/2-x,1/2+y,1/2-z
1/2-x,1/2-y,-z
1/2+x,1/2-y,1/2+z
loop_
_atom_site_type_symbol
_atom_site_label
_atom_site_fract_x
_atom_site_fract_y
_atom_site_fract_z
Si Si1 0.299562 0.466083 0.637191
Si Si2 0.131389 0.833764 0.331419
Si Si3 0.757387 0.475881 0.626129
Si Si4 0.500000 0.713359 0.250000
Si Si5 0.435674 0.839207 0.203845
Si Si6 0.835131 0.109228 0.890999
O O1 0.176142 0.358121 0.783767
O O2 0.453516 0.364963 0.477763
O O3 0.349650 0.618678 0.627173
O O4 0.210219 0.536727 0.670383
O O5 0.255833 0.930675 0.181089
O O6 0.614681 0.347458 0.761952
O O7 0.722010 0.610108 0.614470
O O8 0.921892 0.386123 0.464741
O O9 0.488032 0.841647 0.214090
O O10 0.653200 0.589615 0.102730
O O11 0.000000 0.187768 0.750000
O O12 0.750000 0.250000 0.000000
#
# Coordination Sequence:
#
# PCOD8153331 Si02
#       6
#     8   8   8   4   8   8
#     4  11  25  45  76 100 147 186 233 301 359 432
#     4  11  25  46  70 111 136 186 241 291 367 432
#     4  11  24  44  66 102 144 180 244 292 357 428
#     4   8  22  46  66 102 140 184 248 280 352 434
#     4  11  23  45  69 102 139 196 228 305 349 423
#     4   9  21  44  65  96 136 183 227 293 339 419
#
# _framework density 24.164093999999999
#
# number of rings (size 3 to 8) (size 9 to 14) (size 15 to 20)
#    0.545    1.091    0.000    3.273    0.000   11.636 
#   14.727    0.000    0.000    0.000    0.000    0.000 
#    0.000    0.000    0.000    0.000    0.000    0.000 
#
# Total GULP energy -272572.281821 kJ/mol
# GULP energy per Si atom -12389.649174 kJ/mol
# Density = 2.410910 g / cm^3
# Si number density = 24.164094 Si / 1000 Ang^3
#
#
#
# Elastic Constant Matrix: (Units=GPa)
#
#
# Indices 1 2 3 4 5 6 
#
# 1 101.5442 28.5592 38.0083 0.0029 -7.8386 -0.0026
# 2 28.5592 74.4448 33.0341 -0.0091 -0.3850 0.0077
# 3 38.0083 33.0341 116.7915 0.0161 -9.8710 -0.0002
# 4 0.0029 -0.0091 0.0161 38.9363 -0.0042 13.0835
# 5 -7.8386 -0.3850 -9.8710 -0.0042 28.3524 -0.0021
# 6 -0.0026 0.0077 -0.0002 13.0835 -0.0021 38.9371
#
#
#
# Elastic Compliance Matrix: (Units=1/GPa)
#
#
# Indices 1 2 3 4 5 6 
#
# 1 0.012007 -0.003370 -0.002759 -0.000001 0.002313 0.000002
# 2 -0.003370 0.016356 -0.003698 0.000007 -0.001997 -0.000006
# 3 -0.002759 -0.003698 0.010754 -0.000006 0.002931 0.000003
# 4 -0.000001 0.000007 -0.000006 0.028952 0.000001 -0.009728
# 5 0.002313 -0.001997 0.002931 0.000001 0.036903 0.000002
# 6 0.000002 -0.000006 0.000003 -0.009728 0.000002 0.028951
#
#
# Mechanical properties :
#
#
# Convention : Reuss Voigt Hill
#
# Bulk Modulus (GPa) = 51.38026 54.66488 53.02257
# Shear Modulus (GPa) = 31.23714 34.12377 32.68046
#
# Velocity S-wave (km/s) = 3.59933 3.76196 3.68154
# Velocity P-wave (km/s) = 6.21150 6.44525 6.32946
#
# Compressibility (1/GPa) = 0.01946273
#
# Stress axis : x y z
#
# Youngs Moduli (GPa) = 83.28500 61.13804 92.98965
#
# Poissons Ratio (x) = 0.20604 0.25654
# Poissons Ratio (y) = 0.28068 0.34391
# Poissons Ratio (z) = 0.22977 0.22611
#
# Static dielectric constant tensor:
#      x y z
#    x 4.039760 0.000050 -0.344170 
#    y 0.000050 4.242500 0.000090 
#    z -0.344170 0.000090 4.106230 
# 
# 
# High freq. dielectric constant tensor:
#      x y z
#    x 1.955730 0.000000 -0.017240 
#    y 0.000000 1.956120 0.000000 
#    z -0.017240 0.000000 1.954160 
# 
# From -- ./inp_files/303150.got.cif
#   From: 2010.06.25/outbox.cif.g09.slc.cpg/sg15_152_cif.got.tgz:303150.got - 2010.06.28 07:06:18.
