data_PCOD8153280
_publ_section_title
;
Structure prediction by ZEFSAII (Michael W. Deem and Ramdas Pophale) SiO2 
 PCOD8153280
Probable space group: C 2/C
;
_chemical_formula_sum "Si O2"
_cell_formula_units_Z 52
_cell_length_a 8.775262
_cell_length_b 29.560770
_cell_length_c 13.807336
_cell_angle_alpha 90.000000
_cell_angle_beta 138.648214
_cell_angle_gamma 90.000000
_cell_volume 2366.340096
_symmetry_space_group_name_H-M "C 2/C"
_symmetry_group_IT_number 15
_symmetry_cell_setting 'monoclinic'
loop_
_space_group_symop_operation_xyz
x,y,z
-x,y,1/2-z
-x,-y,-z
x,-y,1/2+z
1/2+x,1/2+y,z
1/2-x,1/2+y,1/2-z
1/2-x,1/2-y,-z
1/2+x,1/2-y,1/2+z
loop_
_atom_site_type_symbol
_atom_site_label
_atom_site_fract_x
_atom_site_fract_y
_atom_site_fract_z
Si Si1 0.059841 0.658089 0.667372
Si Si2 0.403178 0.840975 0.599315
Si Si3 0.500000 0.991645 0.750000
Si Si4 0.773950 0.704039 0.377552
Si Si5 0.484268 0.282443 0.351525
Si Si6 0.178398 0.440735 0.180052
Si Si7 0.197176 0.935651 0.472260
O O1 0.878237 0.693782 0.533396
O O2 0.000000 0.659324 0.750000
O O3 0.319952 0.673596 0.767169
O O4 0.038133 0.606534 0.619196
O O5 0.500000 0.847890 0.750000
O O6 0.630803 0.837136 0.641831
O O7 0.257637 0.883210 0.496519
O O8 0.241397 0.796240 0.510469
O O9 0.450704 0.020959 0.821253
O O10 0.292178 0.959542 0.614665
O O11 0.500000 0.704543 0.250000
O O12 0.868371 0.750018 0.375442
O O13 0.500000 0.261319 0.250000
O O14 0.424167 0.437037 0.349070
O O15 0.204789 0.457013 0.081195
#
# Coordination Sequence:
#
# PCOD8153280 Si02
#       7
#     8   8   4   8   8   8   8
#     4  12  26  46  72  99 138 193 233 280 351 418
#     4  12  25  45  72 104 140 182 240 292 340 411
#     4  12  24  44  72 108 138 176 222 292 358 408
#     4  12  29  46  66 106 145 180 232 296 351 400
#     4  12  25  49  76  99 135 191 245 285 343 415
#     4  11  23  45  72 100 139 183 231 278 343 428
#     4  11  23  44  72 105 137 177 234 285 341 415
#
# _framework density 21.974864
#
# number of rings (size 3 to 8) (size 9 to 14) (size 15 to 20)
#    0.000    0.308    6.154    2.308    4.308    1.231 
#    0.000    0.000    0.000    0.000    0.000    0.000 
#    0.000    0.000    0.000    0.000    0.000    0.000 
#
# Total GULP energy -322397.036811 kJ/mol
# GULP energy per Si atom -12399.886031 kJ/mol
# Density = 2.192485 g / cm^3
# Si number density = 21.974864 Si / 1000 Ang^3
#
#
#
# Elastic Constant Matrix: (Units=GPa)
#
#
# Indices 1 2 3 4 5 6 
#
# 1 88.8726 17.9121 42.5715 0.0000 5.2787 0.0000
# 2 17.9121 84.9770 18.4792 0.0000 2.3859 0.0000
# 3 42.5715 18.4792 104.4632 0.0000 6.7122 0.0000
# 4 0.0000 0.0000 0.0000 28.4264 0.0000 -2.2297
# 5 5.2787 2.3859 6.7122 0.0000 43.6655 0.0000
# 6 0.0000 0.0000 0.0000 -2.2297 0.0000 31.3844
#
#
#
# Elastic Compliance Matrix: (Units=1/GPa)
#
#
# Indices 1 2 3 4 5 6 
#
# 1 0.014271 -0.001802 -0.005446 0.000000 -0.000790 0.000000
# 2 -0.001802 0.012471 -0.001456 0.000000 -0.000240 0.000000
# 3 -0.005446 -0.001456 0.012122 0.000000 -0.001125 0.000000
# 4 0.000000 0.000000 0.000000 0.035376 0.000000 0.002513
# 5 -0.000790 -0.000240 -0.001125 0.000000 0.023183 0.000000
# 6 0.000000 0.000000 0.000000 0.002513 0.000000 0.032042
#
#
# Mechanical properties :
#
#
# Convention : Reuss Voigt Hill
#
# Bulk Modulus (GPa) = 46.60829 48.47093 47.53961
# Shear Modulus (GPa) = 32.46220 33.98524 33.22372
#
# Velocity S-wave (km/s) = 3.84766 3.93689 3.89253
# Velocity P-wave (km/s) = 6.40275 6.53994 6.47171
#
# Compressibility (1/GPa) = 0.02145541
#
# Stress axis : x y z
#
# Youngs Moduli (GPa) = 70.07226 80.18534 82.49297
#
# Poissons Ratio (x) = 0.14446 0.44929
# Poissons Ratio (y) = 0.12624 0.12015
# Poissons Ratio (z) = 0.38164 0.11679
#
# Static dielectric constant tensor:
#      x y z
#    x 4.042480 0.000000 -0.082500 
#    y 0.000000 3.969210 0.000000 
#    z -0.082500 0.000000 3.937200 
# 
# 
# High freq. dielectric constant tensor:
#      x y z
#    x 1.870710 0.000000 -0.009060 
#    y 0.000000 1.865310 0.000000 
#    z -0.009060 0.000000 1.872330 
# 
# From -- ./inp_files/139889.got.cif
#   From: 2010.06.25/outbox.cif.g09.slc.cpg/sg15_70_cif.got.tgz:139889.got - 2010.06.28 07:06:18.
