data_PCOD8153920
_publ_section_title
;
Structure prediction by ZEFSAII (Michael W. Deem and Ramdas Pophale) SiO2 
 PCOD8153920
Probable space group: C 2/C
;
_chemical_formula_sum "Si O2"
_cell_formula_units_Z 56
_cell_length_a 29.497021
_cell_length_b 13.701344
_cell_length_c 11.981942
_cell_angle_alpha 90.000000
_cell_angle_beta 30.193230
_cell_angle_gamma 90.000000
_cell_volume 2435.373445
_symmetry_space_group_name_H-M "C 2/C"
_symmetry_group_IT_number 15
_symmetry_cell_setting 'monoclinic'
loop_
_space_group_symop_operation_xyz
x,y,z
-x,y,1/2-z
-x,-y,-z
x,-y,1/2+z
1/2+x,1/2+y,z
1/2-x,1/2+y,1/2-z
1/2-x,1/2-y,-z
1/2+x,1/2-y,1/2+z
loop_
_atom_site_type_symbol
_atom_site_label
_atom_site_fract_x
_atom_site_fract_y
_atom_site_fract_z
Si Si1 0.500000 0.161018 0.750000
Si Si2 0.083966 0.509590 0.739533
Si Si3 0.684957 0.825404 0.502181
Si Si4 0.867826 0.784418 0.179986
Si Si5 0.000000 0.133930 0.750000
Si Si6 0.588661 0.541841 0.758233
Si Si7 0.244131 0.408265 0.030298
Si Si8 0.660462 0.734404 0.336349
O O1 0.564272 0.093574 0.690622
O O2 0.558332 0.235718 0.555066
O O3 0.114919 0.410175 0.611032
O O4 0.170692 0.522457 0.632944
O O5 0.000000 0.500000 0.000000
O O6 0.793349 0.842516 0.263732
O O7 0.670727 0.804151 0.663454
O O8 0.670121 0.733320 0.450686
O O9 0.906193 0.858121 0.187156
O O10 0.929945 0.063912 0.832878
O O11 0.055757 0.202118 0.542590
O O12 0.675578 0.470255 0.583553
O O13 0.500000 0.500000 0.000000
O O14 0.189466 0.342455 0.235556
O O15 0.277729 0.343088 0.856504
#
# Coordination Sequence:
#
# PCOD8153920 Si02
#       8
#     4   8   8   8   4   8   8   8
#     4  12  28  46  78 114 154 194 260 316 380 448
#     4  12  27  47  74 112 146 196 251 316 369 455
#     4  11  24  46  75 103 148 198 245 302 385 453
#     4  11  25  48  72 106 151 200 243 306 384 458
#     4  12  26  46  80 112 150 198 256 316 382 454
#     4  12  26  48  76 110 149 200 255 311 372 458
#     4  11  27  50  73 108 153 193 256 309 380 449
#     4  11  26  45  77 108 146 196 246 317 377 439
#
# _framework density 22.994420000000002
#
# number of rings (size 3 to 8) (size 9 to 14) (size 15 to 20)
#    0.000    0.571    5.714    0.857    6.000    4.000 
#    0.000    0.000    0.000    0.000    0.000    0.000 
#    0.000    0.000    0.000    0.000    0.000    0.000 
#
# Total GULP energy -346895.943164 kJ/mol
# GULP energy per Si atom -12389.140827 kJ/mol
# Density = 2.294208 g / cm^3
# Si number density = 22.994420 Si / 1000 Ang^3
#
#
#
# Elastic Constant Matrix: (Units=GPa)
#
#
# Indices 1 2 3 4 5 6 
#
# 1 119.7899 49.2165 43.1215 0.0000 -10.1206 0.0000
# 2 49.2165 109.9631 54.1567 0.0000 -5.5641 0.0000
# 3 43.1215 54.1567 126.2860 0.0000 -3.2302 0.0000
# 4 0.0000 0.0000 0.0000 45.2365 0.0000 -3.2196
# 5 -10.1206 -5.5641 -3.2302 0.0000 41.2684 0.0000
# 6 0.0000 0.0000 0.0000 -3.2196 0.0000 32.2879
#
#
#
# Elastic Compliance Matrix: (Units=1/GPa)
#
#
# Indices 1 2 3 4 5 6 
#
# 1 0.010776 -0.003722 -0.002033 0.000000 0.001982 0.000000
# 2 -0.003722 0.012871 -0.004236 0.000000 0.000491 0.000000
# 3 -0.002033 -0.004236 0.010423 0.000000 -0.000254 0.000000
# 4 0.000000 0.000000 0.000000 0.022264 0.000000 0.002220
# 5 0.001982 0.000491 -0.000254 0.000000 0.024764 0.000000
# 6 0.000000 0.000000 0.000000 0.002220 0.000000 0.031193
#
#
# Mechanical properties :
#
#
# Convention : Reuss Voigt Hill
#
# Bulk Modulus (GPa) = 70.98061 72.11425 71.54743
# Shear Modulus (GPa) = 36.50474 37.72818 37.11646
#
# Velocity S-wave (km/s) = 3.98873 4.05502 4.02201
# Velocity P-wave (km/s) = 7.22142 7.30438 7.26302
#
# Compressibility (1/GPa) = 0.01408835
#
# Stress axis : x y z
#
# Youngs Moduli (GPa) = 92.79651 77.69503 95.94280
#
# Poissons Ratio (x) = 0.28915 0.19505
# Poissons Ratio (y) = 0.34536 0.40643
# Poissons Ratio (z) = 0.18865 0.32913
#
# Static dielectric constant tensor:
#      x y z
#    x 3.921250 0.000000 -0.147040 
#    y 0.000000 4.256130 0.000000 
#    z -0.147040 0.000000 4.393750 
# 
# 
# High freq. dielectric constant tensor:
#      x y z
#    x 1.910770 0.000000 -0.004490 
#    y 0.000000 1.910660 0.000000 
#    z -0.004490 0.000000 1.925290 
# 
# From -- ./inp_files/127025.got.cif
#   From: 2010.06.25/outbox.cif.g09.slc.cpg/sg15_64_cif.got.tgz:127025.got - 2010.06.28 07:06:18.
