data_PCOD8153675
_publ_section_title
;
Structure prediction by ZEFSAII (Michael W. Deem and Ramdas Pophale) SiO2 
 PCOD8153675
Probable space group: C 2/C
;
_chemical_formula_sum "Si O2"
_cell_formula_units_Z 44
_cell_length_a 19.538118
_cell_length_b 17.192899
_cell_length_c 9.058998
_cell_angle_alpha 90.000000
_cell_angle_beta 47.878466
_cell_angle_gamma 90.000000
_cell_volume 2257.117811
_symmetry_space_group_name_H-M "C 2/C"
_symmetry_group_IT_number 15
_symmetry_cell_setting 'monoclinic'
loop_
_space_group_symop_operation_xyz
x,y,z
-x,y,1/2-z
-x,-y,-z
x,-y,1/2+z
1/2+x,1/2+y,z
1/2-x,1/2+y,1/2-z
1/2-x,1/2-y,-z
1/2+x,1/2-y,1/2+z
loop_
_atom_site_type_symbol
_atom_site_label
_atom_site_fract_x
_atom_site_fract_y
_atom_site_fract_z
Si Si1 0.833867 0.961620 0.557019
Si Si2 0.361400 0.663265 0.258579
Si Si3 0.190783 0.335502 0.223607
Si Si4 0.500000 0.574193 0.250000
Si Si5 0.725536 0.936594 0.425302
Si Si6 0.435364 0.032459 0.716215
O O1 0.848957 0.882788 0.624693
O O2 0.807257 0.938299 0.428075
O O3 0.748738 0.005274 0.756921
O O4 0.922710 0.017888 0.431953
O O5 0.281502 0.650980 0.494097
O O6 0.359948 0.753176 0.216609
O O7 0.456974 0.632100 0.189867
O O8 0.215287 0.351969 0.361308
O O9 0.118158 0.395881 0.270718
O O10 0.629307 0.962330 0.634362
O O11 0.500000 0.066076 0.750000
O O12 0.500000 0.000000 0.500000
#
# Coordination Sequence:
#
# PCOD8153675 Si02
#       6
#     8   8   8   4   8   8
#     4  12  22  40  68  95 124 168 216 265 318 391
#     4  11  25  42  65  94 134 169 211 268 324 387
#     4  11  24  44  62  95 132 170 211 261 336 377
#     4  12  22  40  70  98 124 168 224 262 314 392
#     4  12  21  42  65  95 128 169 216 261 327 386
#     4  12  22  37  66  94 119 164 216 268 308 385
#
# _framework density 19.493887000000001
#
# number of rings (size 3 to 8) (size 9 to 14) (size 15 to 20)
#    0.000    0.364    9.091    0.545    1.273    0.727 
#    0.000    1.818    0.000    0.000    0.000    0.000 
#    0.000    0.000    0.000    0.000    0.000    0.000 
#
# Total GULP energy -272763.051124 kJ/mol
# GULP energy per Si atom -12398.320506 kJ/mol
# Density = 1.944952 g / cm^3
# Si number density = 19.493887 Si / 1000 Ang^3
#
#
#
# Elastic Constant Matrix: (Units=GPa)
#
#
# Indices 1 2 3 4 5 6 
#
# 1 132.9468 75.5447 44.8031 0.0000 14.7800 0.0000
# 2 75.5447 139.9460 64.0590 0.0000 7.7226 0.0000
# 3 44.8031 64.0590 109.4626 0.0000 3.0430 0.0000
# 4 0.0000 0.0000 0.0000 107.2376 0.0000 -80.9196
# 5 14.7800 7.7226 3.0430 0.0000 34.9756 0.0000
# 6 0.0000 0.0000 0.0000 -80.9196 0.0000 139.2034
#
#
#
# Elastic Compliance Matrix: (Units=1/GPa)
#
#
# Indices 1 2 3 4 5 6 
#
# 1 0.011420 -0.005293 -0.001478 0.000000 -0.003529 0.000000
# 2 -0.005293 0.012311 -0.005037 0.000000 -0.000043 0.000000
# 3 -0.001478 -0.005037 0.012671 0.000000 0.000635 0.000000
# 4 0.000000 0.000000 0.000000 0.016612 0.000000 0.009656
# 5 -0.003529 -0.000043 0.000635 0.000000 0.030037 0.000000
# 6 0.000000 0.000000 0.000000 0.009656 0.000000 0.012797
#
#
# Mechanical properties :
#
#
# Convention : Reuss Voigt Hill
#
# Bulk Modulus (GPa) = 78.21892 83.46323 80.84107
# Shear Modulus (GPa) = 40.41192 69.47988 54.94590
#
# Velocity S-wave (km/s) = 4.55802 5.97656 5.31483
# Velocity P-wave (km/s) = 8.24092 9.51492 8.90074
#
# Compressibility (1/GPa) = 0.01278463
#
# Stress axis : x y z
#
# Youngs Moduli (GPa) = 87.56457 81.22869 78.92267
#
# Poissons Ratio (x) = 0.42997 0.11669
# Poissons Ratio (y) = 0.46350 0.39752
# Poissons Ratio (z) = 0.12946 0.40913
#
# Static dielectric constant tensor:
#      x y z
#    x 3.892480 0.000000 0.138920 
#    y 0.000000 3.528790 0.000000 
#    z 0.138920 0.000000 3.641740 
# 
# 
# High freq. dielectric constant tensor:
#      x y z
#    x 1.777740 0.000000 0.004400 
#    y 0.000000 1.747020 0.000000 
#    z 0.004400 0.000000 1.765010 
# 
# From -- ./inp_files/39093.got.cif
#   From: 2010.06.25/outbox.cif.g09.slc.cpg/sg15_20_cif.got.tgz:39093.got - 2010.06.28 07:06:18.
