data_PCOD8153464
_publ_section_title
;
Structure prediction by ZEFSAII (Michael W. Deem and Ramdas Pophale) SiO2 
 PCOD8153464
Probable space group: C 2/C
;
_chemical_formula_sum "Si O2"
_cell_formula_units_Z 40
_cell_length_a 16.272281
_cell_length_b 21.265038
_cell_length_c 8.326943
_cell_angle_alpha 90.000000
_cell_angle_beta 145.421026
_cell_angle_gamma 90.000000
_cell_volume 1635.301818
_symmetry_space_group_name_H-M "C 2/C"
_symmetry_group_IT_number 15
_symmetry_cell_setting 'monoclinic'
loop_
_space_group_symop_operation_xyz
x,y,z
-x,y,1/2-z
-x,-y,-z
x,-y,1/2+z
1/2+x,1/2+y,z
1/2-x,1/2+y,1/2-z
1/2-x,1/2-y,-z
1/2+x,1/2-y,1/2+z
loop_
_atom_site_type_symbol
_atom_site_label
_atom_site_fract_x
_atom_site_fract_y
_atom_site_fract_z
Si Si1 0.546438 0.837114 0.069628
Si Si2 0.833691 0.976519 0.030143
Si Si3 0.244235 0.091420 0.399173
Si Si4 0.986741 0.801633 0.039428
Si Si5 0.727694 0.866280 0.053014
O O1 0.604960 0.872523 0.322546
O O2 0.637689 0.866630 0.070381
O O3 0.572997 0.762688 0.133502
O O4 0.376436 0.849298 0.766047
O O5 0.800961 0.933844 0.134583
O O6 0.000000 0.967944 0.250000
O O7 0.798254 0.048164 0.016339
O O8 0.735173 0.952186 0.724140
O O9 0.118322 0.141817 0.172988
O O10 0.146476 0.814651 0.227561
O O11 0.000000 0.792033 0.250000
#
# Coordination Sequence:
#
# PCOD8153464 Si02
#       5
#     8   8   8   8   8
#     4  11  27  43  74 109 145 187 238 291 371 422
#     4  12  25  46  76 104 146 188 249 296 355 422
#     4  12  26  45  73 110 137 187 247 295 353 421
#     4  12  23  47  74 106 144 188 235 296 355 432
#     4  11  23  47  73 103 150 190 232 294 363 424
#
# _framework density 24.460315000000001
#
# number of rings (size 3 to 8) (size 9 to 14) (size 15 to 20)
#    0.000    0.400    6.000    3.000    2.800    1.600 
#    0.000    2.000    0.000    0.000    0.000    0.000 
#    0.000    0.000    0.000    0.000    0.000    0.000 
#
# Total GULP energy -248071.093385 kJ/mol
# GULP energy per Si atom -12403.554669 kJ/mol
# Density = 2.440464 g / cm^3
# Si number density = 24.460315 Si / 1000 Ang^3
#
#
#
# Elastic Constant Matrix: (Units=GPa)
#
#
# Indices 1 2 3 4 5 6 
#
# 1 45.8507 26.4625 14.4038 0.0000 11.5306 0.0000
# 2 26.4625 168.8215 49.9497 0.0000 -4.5675 0.0000
# 3 14.4038 49.9497 110.4199 0.0000 -9.3368 0.0000
# 4 0.0000 0.0000 0.0000 45.2052 0.0000 -8.7071
# 5 11.5306 -4.5675 -9.3368 0.0000 34.5759 0.0000
# 6 0.0000 0.0000 0.0000 -8.7071 0.0000 23.5110
#
#
#
# Elastic Compliance Matrix: (Units=1/GPa)
#
#
# Indices 1 2 3 4 5 6 
#
# 1 0.027469 -0.003772 -0.002757 0.000000 -0.010403 0.000000
# 2 -0.003772 0.007357 -0.002709 0.000000 0.001498 0.000000
# 3 -0.002757 -0.002709 0.010939 0.000000 0.003515 0.000000
# 4 0.000000 0.000000 0.000000 0.023821 0.000000 0.008822
# 5 -0.010403 0.001498 0.003515 0.000000 0.033538 0.000000
# 6 0.000000 0.000000 0.000000 0.008822 0.000000 0.045800
#
#
# Mechanical properties :
#
#
# Convention : Reuss Voigt Hill
#
# Bulk Modulus (GPa) = 36.64445 56.30269 46.47357
# Shear Modulus (GPa) = 28.32942 36.27682 32.30312
#
# Velocity S-wave (km/s) = 3.40690 3.85527 3.63800
# Velocity P-wave (km/s) = 5.52174 6.54869 6.05702
#
# Compressibility (1/GPa) = 0.02728926
#
# Stress axis : x y z
#
# Youngs Moduli (GPa) = 36.40490 135.93019 91.41805
#
# Poissons Ratio (x) = 0.51266 0.25202
# Poissons Ratio (y) = 0.13730 0.24768
# Poissons Ratio (z) = 0.10036 0.36827
#
# Static dielectric constant tensor:
#      x y z
#    x 4.247320 0.000000 -0.083060 
#    y 0.000000 4.528680 0.000000 
#    z -0.083060 0.000000 4.720070 
# 
# 
# High freq. dielectric constant tensor:
#      x y z
#    x 1.966930 0.000000 0.000740 
#    y 0.000000 1.984620 0.000000 
#    z 0.000740 0.000000 1.976100 
# 
# From -- ./inp_files/51699.got.cif
#   From: 2010.06.25/outbox.cif.g09.slc.cpg/sg15_26_cif.got.tgz:51699.got - 2010.06.28 07:06:18.
