data_PCOD8153148
_publ_section_title
;
Structure prediction by ZEFSAII (Michael W. Deem and Ramdas Pophale) SiO2 
 PCOD8153148
Probable space group: C 2/C
;
_chemical_formula_sum "Si O2"
_cell_formula_units_Z 44
_cell_length_a 6.901875
_cell_length_b 24.229494
_cell_length_c 14.605568
_cell_angle_alpha 90.000000
_cell_angle_beta 120.356191
_cell_angle_gamma 90.000000
_cell_volume 2107.611324
_symmetry_space_group_name_H-M "C 2/C"
_symmetry_group_IT_number 15
_symmetry_cell_setting 'monoclinic'
loop_
_space_group_symop_operation_xyz
x,y,z
-x,y,1/2-z
-x,-y,-z
x,-y,1/2+z
1/2+x,1/2+y,z
1/2-x,1/2+y,1/2-z
1/2-x,1/2-y,-z
1/2+x,1/2-y,1/2+z
loop_
_atom_site_type_symbol
_atom_site_label
_atom_site_fract_x
_atom_site_fract_y
_atom_site_fract_z
Si Si1 0.533921 0.330596 0.967363
Si Si2 0.684290 0.455330 0.017889
Si Si3 0.811135 0.245992 0.144098
Si Si4 0.473418 0.833617 0.639122
Si Si5 0.500000 0.008806 0.750000
Si Si6 0.252209 0.936013 0.835443
O O1 0.580341 0.395001 0.982903
O O2 0.726432 0.295973 0.062997
O O3 0.553726 0.305285 0.870519
O O4 0.285403 0.323217 0.949449
O O5 0.870119 0.454448 0.142997
O O6 0.500000 0.500000 0.000000
O O7 0.771970 0.470128 0.936080
O O8 0.598435 0.223475 0.148874
O O9 0.000000 0.275164 0.250000
O O10 0.500000 0.850969 0.750000
O O11 0.583126 0.883825 0.608729
O O12 0.327330 0.972013 0.766514
O O13 0.000000 0.916740 0.750000
#
# Coordination Sequence:
#
# PCOD8153148 Si02
#       6
#     8   8   8   8   4   8
#     4  11  25  42  66  99 134 177 225 282 350 414
#     4  12  25  46  70  99 139 184 233 286 349 420
#     4  11  23  43  68  97 135 175 225 285 345 412
#     4  12  21  39  70  99 129 174 234 285 339 415
#     4  12  26  42  68  98 140 184 224 290 356 410
#     4  12  23  43  69 102 135 179 240 291 342 415
#
# _framework density 20.876715999999998
#
# number of rings (size 3 to 8) (size 9 to 14) (size 15 to 20)
#    0.000    0.364    6.364    3.818    1.273    0.000 
#    0.000    0.000    4.000    0.000    0.000    0.000 
#    0.000    0.000    0.000    0.000    0.000    0.000 
#
# Total GULP energy -272692.510205 kJ/mol
# GULP energy per Si atom -12395.114100 kJ/mol
# Density = 2.082920 g / cm^3
# Si number density = 20.876716 Si / 1000 Ang^3
#
#
#
# Elastic Constant Matrix: (Units=GPa)
#
#
# Indices 1 2 3 4 5 6 
#
# 1 119.7224 30.2531 38.5462 0.0000 2.8506 0.0000
# 2 30.2531 85.9813 19.2906 0.0000 0.9952 0.0000
# 3 38.5462 19.2906 117.2668 0.0000 -0.2751 0.0000
# 4 0.0000 0.0000 0.0000 21.2017 0.0000 0.4861
# 5 2.8506 0.9952 -0.2751 0.0000 44.4670 0.0000
# 6 0.0000 0.0000 0.0000 0.4861 0.0000 28.0541
#
#
#
# Elastic Compliance Matrix: (Units=1/GPa)
#
#
# Indices 1 2 3 4 5 6 
#
# 1 0.010001 -0.002880 -0.002815 0.000000 -0.000594 0.000000
# 2 -0.002880 0.012909 -0.001177 0.000000 -0.000112 0.000000
# 3 -0.002815 -0.001177 0.009647 0.000000 0.000266 0.000000
# 4 0.000000 0.000000 0.000000 0.047185 0.000000 -0.000818
# 5 -0.000594 -0.000112 0.000266 0.000000 0.022531 0.000000
# 6 0.000000 0.000000 0.000000 -0.000818 0.000000 0.035660
#
#
# Mechanical properties :
#
#
# Convention : Reuss Voigt Hill
#
# Bulk Modulus (GPa) = 53.15616 55.46117 54.30866
# Shear Modulus (GPa) = 31.65592 34.40325 33.02958
#
# Velocity S-wave (km/s) = 3.89823 4.06387 3.98191
# Velocity P-wave (km/s) = 6.76600 6.97451 6.87105
#
# Compressibility (1/GPa) = 0.01881250
#
# Stress axis : x y z
#
# Youngs Moduli (GPa) = 99.99011 77.46339 103.65819
#
# Poissons Ratio (x) = 0.22313 0.29179
# Poissons Ratio (y) = 0.28802 0.12201
# Poissons Ratio (z) = 0.28146 0.09118
#
# Static dielectric constant tensor:
#      x y z
#    x 4.162170 0.000000 -0.277470 
#    y 0.000000 3.577080 0.000000 
#    z -0.277470 0.000000 4.246640 
# 
# 
# High freq. dielectric constant tensor:
#      x y z
#    x 1.834450 0.000000 0.001730 
#    y 0.000000 1.803650 0.000000 
#    z 0.001730 0.000000 1.823650 
# 
# From -- ./inp_files/129385.got.cif
#   From: 2010.06.25/outbox.cif.g09.slc.cpg/sg15_65_cif.got.tgz:129385.got - 2010.06.28 07:06:18.
