data_PCOD8153446
_publ_section_title
;
Structure prediction by ZEFSAII (Michael W. Deem and Ramdas Pophale) SiO2 
 PCOD8153446
Probable space group: C 2/C
;
_chemical_formula_sum "Si O2"
_cell_formula_units_Z 64
_cell_length_a 9.192760
_cell_length_b 18.325846
_cell_length_c 29.858861
_cell_angle_alpha 90.000000
_cell_angle_beta 143.444565
_cell_angle_gamma 90.000000
_cell_volume 2995.974201
_symmetry_space_group_name_H-M "C 2/C"
_symmetry_group_IT_number 15
_symmetry_cell_setting 'monoclinic'
loop_
_space_group_symop_operation_xyz
x,y,z
-x,y,1/2-z
-x,-y,-z
x,-y,1/2+z
1/2+x,1/2+y,z
1/2-x,1/2+y,1/2-z
1/2-x,1/2-y,-z
1/2+x,1/2-y,1/2+z
loop_
_atom_site_type_symbol
_atom_site_label
_atom_site_fract_x
_atom_site_fract_y
_atom_site_fract_z
Si Si1 0.226059 0.512188 0.699581
Si Si2 0.747949 0.400705 0.210593
Si Si3 0.252749 0.073621 0.549094
Si Si4 0.276054 0.848259 0.804069
Si Si5 0.712378 0.734457 0.766995
Si Si6 0.917276 0.950276 0.047750
Si Si7 0.734188 0.237224 0.944152
Si Si8 0.065743 0.314380 0.958024
O O1 0.500000 0.523096 0.750000
O O2 0.215161 0.529632 0.749237
O O3 0.122562 0.430461 0.670937
O O4 0.046374 0.566220 0.627985
O O5 0.673967 0.330879 0.221981
O O6 0.542059 0.427898 0.125084
O O7 0.000000 0.377789 0.250000
O O8 0.156942 0.155962 0.529775
O O9 0.119930 0.041215 0.559509
O O10 0.196301 0.032334 0.487282
O O11 0.314872 0.810882 0.765734
O O12 0.407996 0.802374 0.874776
O O13 0.000000 0.850733 0.750000
O O14 0.500000 0.727123 0.750000
O O15 0.967028 0.735000 0.856324
O O16 0.694498 0.893072 0.988370
O O17 0.897551 0.298959 0.959994
O O18 0.750000 0.250000 0.000000
O O19 0.250000 0.250000 0.000000
#
# Coordination Sequence:
#
# PCOD8153446 Si02
#       8
#     8   8   8   8   8   8   8   8
#     4  11  24  43  71  98 141 185 228 293 352 416
#     4  12  24  44  72 100 132 187 240 282 345 430
#     4  11  23  47  66 105 144 180 229 300 355 414
#     4  11  24  46  71  98 141 187 239 290 352 427
#     4  12  27  44  70 102 140 183 236 294 352 417
#     4  11  24  42  75 103 134 183 239 289 348 423
#     4  12  28  45  68 104 151 183 226 296 365 420
#     4  12  24  44  72 105 135 188 240 288 349 437
#
# _framework density 21.361999000000001
#
# number of rings (size 3 to 8) (size 9 to 14) (size 15 to 20)
#    0.000    0.500    6.250    1.500    3.500    1.500 
#    0.000    1.250    0.000    0.000    0.000    0.000 
#    0.000    0.000    0.000    0.000    0.000    0.000 
#
# Total GULP energy -396474.100372 kJ/mol
# GULP energy per Si atom -12389.815637 kJ/mol
# Density = 2.131338 g / cm^3
# Si number density = 21.361999 Si / 1000 Ang^3
#
#
#
# Elastic Constant Matrix: (Units=GPa)
#
#
# Indices 1 2 3 4 5 6 
#
# 1 121.5658 35.7303 29.6610 0.0012 -2.9966 0.0014
# 2 35.7303 85.9291 28.5148 0.0005 0.4916 0.0004
# 3 29.6610 28.5148 114.8747 -0.0003 -17.5699 -0.0013
# 4 0.0012 0.0005 -0.0003 35.4520 0.0002 -10.0222
# 5 -2.9966 0.4916 -17.5699 0.0002 34.9075 -0.0001
# 6 0.0014 0.0004 -0.0013 -10.0222 -0.0001 40.6940
#
#
#
# Elastic Compliance Matrix: (Units=1/GPa)
#
#
# Indices 1 2 3 4 5 6 
#
# 1 0.009643 -0.003473 -0.001618 0.000000 0.000062 0.000000
# 2 -0.003473 0.014052 -0.002890 0.000000 -0.001950 0.000000
# 3 -0.001618 -0.002890 0.010645 0.000000 0.005260 0.000001
# 4 0.000000 0.000000 0.000000 0.030318 0.000000 0.007467
# 5 0.000062 -0.001950 0.005260 0.000000 0.031327 0.000000
# 6 0.000000 0.000000 0.000001 0.007467 0.000000 0.026413
#
#
# Mechanical properties :
#
#
# Convention : Reuss Voigt Hill
#
# Bulk Modulus (GPa) = 54.41369 56.68688 55.55028
# Shear Modulus (GPa) = 34.60568 37.44161 36.02364
#
# Velocity S-wave (km/s) = 4.02924 4.19109 4.11096
# Velocity P-wave (km/s) = 6.86833 7.07208 6.97095
#
# Compressibility (1/GPa) = 0.01837773
#
# Stress axis : x y z
#
# Youngs Moduli (GPa) = 103.70026 71.16593 93.94368
#
# Poissons Ratio (x) = 0.24717 0.15203
# Poissons Ratio (y) = 0.36016 0.27145
# Poissons Ratio (z) = 0.16782 0.20564
#
# Static dielectric constant tensor:
#      x y z
#    x 4.377080 0.000070 0.072850 
#    y 0.000070 4.635510 0.000010 
#    z 0.072850 0.000010 4.008450 
# 
# 
# High freq. dielectric constant tensor:
#      x y z
#    x 1.834070 0.000000 0.002930 
#    y 0.000000 1.846360 0.000000 
#    z 0.002930 0.000000 1.854610 
# 
# From -- ./inp_files/308800.got.cif
#   From: 2010.06.25/outbox.cif.g09.slc.cpg/sg15_155_cif.got.tgz:308800.got - 2010.06.28 07:06:18.
