data_PCOD8153295
_publ_section_title
;
Structure prediction by ZEFSAII (Michael W. Deem and Ramdas Pophale) SiO2 
 PCOD8153295
Probable space group: C 2/C
;
_chemical_formula_sum "Si O2"
_cell_formula_units_Z 60
_cell_length_a 12.135264
_cell_length_b 18.321593
_cell_length_c 18.484736
_cell_angle_alpha 90.000000
_cell_angle_beta 139.625382
_cell_angle_gamma 90.000000
_cell_volume 2662.287223
_symmetry_space_group_name_H-M "C 2/C"
_symmetry_group_IT_number 15
_symmetry_cell_setting 'monoclinic'
loop_
_space_group_symop_operation_xyz
x,y,z
-x,y,1/2-z
-x,-y,-z
x,-y,1/2+z
1/2+x,1/2+y,z
1/2-x,1/2+y,1/2-z
1/2-x,1/2-y,-z
1/2+x,1/2-y,1/2+z
loop_
_atom_site_type_symbol
_atom_site_label
_atom_site_fract_x
_atom_site_fract_y
_atom_site_fract_z
Si Si1 0.699092 0.736788 0.836656
Si Si2 0.153516 0.874272 0.065890
Si Si3 0.100064 0.179917 0.180570
Si Si4 0.500000 0.212863 0.750000
Si Si5 0.690420 0.982194 0.822944
Si Si6 0.314463 0.086958 0.938893
Si Si7 0.836913 0.859747 0.988750
Si Si8 0.697846 0.951377 0.663658
O O1 0.500000 0.727736 0.750000
O O2 0.748013 0.782327 0.789451
O O3 0.784140 0.656755 0.872330
O O4 0.768356 0.777399 0.943848
O O5 0.332757 0.835464 0.161477
O O6 0.185743 0.960458 0.076312
O O7 0.049295 0.851390 0.943600
O O8 0.041357 0.857991 0.081897
O O9 0.006677 0.239336 0.181846
O O10 0.174134 0.117085 0.270379
O O11 0.500000 0.997806 0.750000
O O12 0.699082 0.990885 0.741354
O O13 0.753056 0.902850 0.878786
O O14 0.246967 0.012103 0.868096
O O15 0.210647 0.101491 0.960546
O O16 0.513144 0.080551 0.053647
#
# Coordination Sequence:
#
# PCOD8153295 Si02
#       8
#     8   8   8   4   8   8   8   8
#     4  11  24  44  74 108 147 191 242 302 364 437
#     4  11  26  46  74 104 139 193 250 295 358 448
#     4  11  27  49  73 104 149 193 242 304 370 438
#     4  12  28  48  74 106 146 192 246 302 370 438
#     4  12  22  45  74 101 144 193 243 292 365 440
#     4  11  26  42  73 113 150 188 248 303 371 430
#     4  11  23  44  73 105 145 192 245 299 365 440
#     4  11  25  48  69 110 151 194 233 311 366 435
#
# _framework density 22.537011
#
# number of rings (size 3 to 8) (size 9 to 14) (size 15 to 20)
#    0.000    0.800    4.667    2.400    7.467    1.067 
#    1.200    0.000    0.000    0.000    0.000    0.000 
#    0.000    0.000    0.000    0.000    0.000    0.000 
#
# Total GULP energy -372025.019729 kJ/mol
# GULP energy per Si atom -12400.833991 kJ/mol
# Density = 2.248572 g / cm^3
# Si number density = 22.537011 Si / 1000 Ang^3
#
#
#
# Elastic Constant Matrix: (Units=GPa)
#
#
# Indices 1 2 3 4 5 6 
#
# 1 109.0802 40.4513 36.1666 -0.0065 3.9150 0.0010
# 2 40.4513 132.5475 54.5322 -0.0008 8.8809 0.0000
# 3 36.1666 54.5322 111.1759 -0.0112 18.7641 0.0002
# 4 -0.0065 -0.0008 -0.0112 -74.9218 -0.0107 22.4002
# 5 3.9150 8.8809 18.7641 -0.0107 33.6005 0.0012
# 6 0.0010 0.0000 0.0002 22.4002 0.0012 45.4933
#
#
#
# Elastic Compliance Matrix: (Units=1/GPa)
#
#
# Indices 1 2 3 4 5 6 
#
# 1 0.010835 -0.002324 -0.002512 -0.000001 0.000755 0.000000
# 2 -0.002324 0.009950 -0.004114 0.000001 -0.000062 0.000000
# 3 -0.002512 -0.004114 0.012804 -0.000001 -0.005770 0.000001
# 4 -0.000001 0.000001 -0.000001 -0.011634 -0.000004 0.005729
# 5 0.000755 -0.000062 -0.005770 -0.000004 0.032912 0.000001
# 6 0.000000 0.000000 0.000001 0.005729 0.000001 0.019161
#
#
# Mechanical properties :
#
#
# Convention : Reuss Voigt Hill
#
# Bulk Modulus (GPa) = 63.73996 68.34488 66.04242
# Shear Modulus (GPa) = 51.46222 15.61129 33.53675
#
# Velocity S-wave (km/s) = 4.78373 2.63477 3.86174
# Velocity P-wave (km/s) = 7.67176 6.29662 7.01795
#
# Compressibility (1/GPa) = 0.01568875
#
# Stress axis : x y z
#
# Youngs Moduli (GPa) = 92.29182 100.49758 78.09984
#
# Poissons Ratio (x) = 0.23352 0.19622
# Poissons Ratio (y) = 0.21445 0.32134
# Poissons Ratio (z) = 0.23188 0.41349
#
# Static dielectric constant tensor:
#      x y z
#    x 4.160170 0.000000 0.092450 
#    y 0.000000 4.312750 0.000000 
#    z 0.092450 0.000000 4.173810 
# 
# 
# High freq. dielectric constant tensor:
#      x y z
#    x 1.889010 0.000000 0.005580 
#    y 0.000000 1.906240 0.000000 
#    z 0.005580 0.000000 1.891920 
# 
# From -- ./inp_files/239988.got.cif
#   From: 2010.06.25/outbox.cif.g09.slc.cpg/sg15_120_cif.got.tgz:239988.got - 2010.06.28 07:06:18.
