data_PCOD8153203
_publ_section_title
;
Structure prediction by ZEFSAII (Michael W. Deem and Ramdas Pophale) SiO2 
 PCOD8153203
Probable space group: C 2/C
;
_chemical_formula_sum "Si O2"
_cell_formula_units_Z 44
_cell_length_a 11.586886
_cell_length_b 27.197311
_cell_length_c 8.874842
_cell_angle_alpha 90.000000
_cell_angle_beta 135.320317
_cell_angle_gamma 90.000000
_cell_volume 1966.512667
_symmetry_space_group_name_H-M "C 2/C"
_symmetry_group_IT_number 15
_symmetry_cell_setting 'monoclinic'
loop_
_space_group_symop_operation_xyz
x,y,z
-x,y,1/2-z
-x,-y,-z
x,-y,1/2+z
1/2+x,1/2+y,z
1/2-x,1/2+y,1/2-z
1/2-x,1/2-y,-z
1/2+x,1/2-y,1/2+z
loop_
_atom_site_type_symbol
_atom_site_label
_atom_site_fract_x
_atom_site_fract_y
_atom_site_fract_z
Si Si1 0.380600 0.518056 0.258015
Si Si2 0.430612 0.802573 0.023158
Si Si3 0.269701 0.917531 0.444399
Si Si4 0.335579 0.738207 0.423494
Si Si5 0.500000 0.343662 0.250000
Si Si6 0.602390 0.908560 0.613015
O O1 0.500000 0.546377 0.250000
O O2 0.500000 0.500000 0.500000
O O3 0.308840 0.470807 0.105237
O O4 0.223823 0.550826 0.156577
O O5 0.500000 0.787006 0.250000
O O6 0.562965 0.787379 0.019370
O O7 0.271257 0.771747 0.825391
O O8 0.388460 0.860116 0.980447
O O9 0.130718 0.877284 0.280170
O O10 0.408811 0.923435 0.442598
O O11 0.343640 0.897441 0.668165
O O12 0.250000 0.750000 0.500000
O O13 0.440060 0.689256 0.553949
#
# Coordination Sequence:
#
# PCOD8153203 Si02
#       6
#     8   8   8   8   4   8
#     4  12  24  46  72 105 149 190 241 309 375 444
#     4  12  27  47  69 111 155 191 244 314 381 434
#     4  11  23  43  73 107 147 188 258 305 360 455
#     4  12  24  44  76 106 147 200 253 301 367 454
#     4  12  20  40  76 112 138 198 258 304 358 436
#     4  11  25  44  73 106 146 199 247 301 377 446
#
# _framework density 22.374634
#
# number of rings (size 3 to 8) (size 9 to 14) (size 15 to 20)
#    0.000    0.364    6.364    2.182    2.545    1.455 
#    3.273    4.545    0.000    0.000    0.000    0.000 
#    0.000    0.000    0.000    0.000    0.000    0.000 
#
# Total GULP energy -272610.377722 kJ/mol
# GULP energy per Si atom -12391.380806 kJ/mol
# Density = 2.232371 g / cm^3
# Si number density = 22.374634 Si / 1000 Ang^3
#
#
#
# Elastic Constant Matrix: (Units=GPa)
#
#
# Indices 1 2 3 4 5 6 
#
# 1 150.1302 55.2971 38.9637 0.0000 16.5111 0.0000
# 2 55.2971 120.7145 41.6510 0.0000 12.0977 0.0000
# 3 38.9637 41.6510 128.2961 0.0000 7.0375 0.0000
# 4 0.0000 0.0000 0.0000 37.3234 0.0000 11.2083
# 5 16.5111 12.0977 7.0375 0.0000 32.7660 0.0000
# 6 0.0000 0.0000 0.0000 11.2083 0.0000 50.0449
#
#
#
# Elastic Compliance Matrix: (Units=1/GPa)
#
#
# Indices 1 2 3 4 5 6 
#
# 1 0.008486 -0.003118 -0.001410 0.000000 -0.002822 0.000000
# 2 -0.003118 0.010741 -0.002437 0.000000 -0.001871 0.000000
# 3 -0.001410 -0.002437 0.009032 0.000000 -0.000329 0.000000
# 4 0.000000 0.000000 0.000000 0.028725 0.000000 -0.006433
# 5 -0.002822 -0.001871 -0.000329 0.000000 0.032703 0.000000
# 6 0.000000 0.000000 0.000000 -0.006433 0.000000 0.021423
#
#
# Mechanical properties :
#
#
# Convention : Reuss Voigt Hill
#
# Bulk Modulus (GPa) = 69.79449 74.55160 72.17304
# Shear Modulus (GPa) = 38.51616 41.57544 40.04580
#
# Velocity S-wave (km/s) = 4.15350 4.31530 4.23518
# Velocity P-wave (km/s) = 7.36637 7.63028 7.49949
#
# Compressibility (1/GPa) = 0.01432778
#
# Stress axis : x y z
#
# Youngs Moduli (GPa) = 117.84727 93.10372 110.71612
#
# Poissons Ratio (x) = 0.29027 0.15612
# Poissons Ratio (y) = 0.36742 0.26987
# Poissons Ratio (z) = 0.16618 0.22694
#
# Static dielectric constant tensor:
#      x y z
#    x 4.370740 0.000000 0.483250 
#    y 0.000000 3.989320 0.000000 
#    z 0.483250 0.000000 4.309890 
# 
# 
# High freq. dielectric constant tensor:
#      x y z
#    x 1.882700 0.000000 0.022270 
#    y 0.000000 1.880180 0.000000 
#    z 0.022270 0.000000 1.886790 
# 
# From -- ./inp_files/34491.got.cif
#   From: 2010.06.25/outbox.cif.g09.slc.cpg/sg15_18_cif.got.tgz:34491.got - 2010.06.28 07:06:18.
