data_PCOD8153168
_publ_section_title
;
Structure prediction by ZEFSAII (Michael W. Deem and Ramdas Pophale) SiO2 
 PCOD8153168
Probable space group: C 2/C
;
_chemical_formula_sum "Si O2"
_cell_formula_units_Z 60
_cell_length_a 11.465352
_cell_length_b 21.871384
_cell_length_c 16.686200
_cell_angle_alpha 90.000000
_cell_angle_beta 42.736032
_cell_angle_gamma 90.000000
_cell_volume 2839.545617
_symmetry_space_group_name_H-M "C 2/C"
_symmetry_group_IT_number 15
_symmetry_cell_setting 'monoclinic'
loop_
_space_group_symop_operation_xyz
x,y,z
-x,y,1/2-z
-x,-y,-z
x,-y,1/2+z
1/2+x,1/2+y,z
1/2-x,1/2+y,1/2-z
1/2-x,1/2-y,-z
1/2+x,1/2-y,1/2+z
loop_
_atom_site_type_symbol
_atom_site_label
_atom_site_fract_x
_atom_site_fract_y
_atom_site_fract_z
Si Si1 0.175904 0.553345 0.622961
Si Si2 0.096849 0.438662 0.979314
Si Si3 0.843830 0.359870 0.036491
Si Si4 0.145310 0.855037 0.739325
Si Si5 0.929891 0.253729 0.619238
Si Si6 0.508650 0.363896 0.509863
Si Si7 0.500000 0.308960 0.250000
Si Si8 0.835634 0.414704 0.878485
O O1 0.177952 0.556730 0.525924
O O2 0.337409 0.587911 0.580258
O O3 0.193583 0.482787 0.639342
O O4 0.000000 0.580085 0.750000
O O5 0.247063 0.415657 0.842088
O O6 0.000000 0.500000 0.000000
O O7 0.954054 0.384504 0.056020
O O8 0.645225 0.357473 0.155284
O O9 0.880606 0.410590 0.949393
O O10 0.897173 0.291916 0.983020
O O11 0.265861 0.796510 0.689781
O O12 0.044899 0.867241 0.871358
O O13 0.000000 0.836999 0.750000
O O14 0.936217 0.231305 0.707632
O O15 0.919818 0.200621 0.557861
O O16 0.339332 0.377253 0.543743
O O17 0.000000 0.384981 0.750000
#
# Coordination Sequence:
#
# PCOD8153168 Si02
#       8
#     8   8   8   8   8   8   4   8
#     4  11  26  44  69 101 139 185 230 287 349 415
#     4  11  23  47  68  97 136 180 227 283 348 404
#     4  11  24  41  67  98 131 176 224 279 343 405
#     4  11  25  47  71 100 131 184 236 280 342 417
#     4  11  26  42  69  99 139 179 221 287 341 413
#     4  12  25  47  69 101 141 182 235 284 347 421
#     4  12  24  44  64 104 134 170 226 276 348 406
#     4  11  23  43  70 102 135 179 229 286 348 409
#
# _framework density 21.130141999999999
#
# number of rings (size 3 to 8) (size 9 to 14) (size 15 to 20)
#    0.000    0.800    4.000    3.200    6.533    1.067 
#    3.600    0.000    0.000    0.000    0.000    0.000 
#    0.000    0.000    0.000    0.000    0.000    0.000 
#
# Total GULP energy -371976.556406 kJ/mol
# GULP energy per Si atom -12399.218547 kJ/mol
# Density = 2.108205 g / cm^3
# Si number density = 21.130142 Si / 1000 Ang^3
#
#
#
# Elastic Constant Matrix: (Units=GPa)
#
#
# Indices 1 2 3 4 5 6 
#
# 1 84.7678 18.2156 21.7287 0.0011 -8.0517 -0.0006
# 2 18.2156 85.1723 35.7622 0.0005 -7.6264 -0.0003
# 3 21.7287 35.7622 105.2875 0.0020 -10.9146 -0.0011
# 4 0.0011 0.0005 0.0020 22.2987 -0.0011 2.4724
# 5 -8.0517 -7.6264 -10.9146 -0.0011 44.0911 0.0007
# 6 -0.0006 -0.0003 -0.0011 2.4724 0.0007 39.4132
#
#
#
# Elastic Compliance Matrix: (Units=1/GPa)
#
#
# Indices 1 2 3 4 5 6 
#
# 1 0.012814 -0.001817 -0.001865 0.000000 0.001564 0.000000
# 2 -0.001817 0.014019 -0.004280 0.000000 0.001034 0.000000
# 3 -0.001865 -0.004280 0.011520 -0.000001 0.001771 0.000000
# 4 0.000000 0.000000 -0.000001 0.045160 0.000001 -0.002833
# 5 0.001564 0.001034 0.001771 0.000001 0.023583 0.000000
# 6 0.000000 0.000000 0.000000 -0.002833 0.000000 0.025550
#
#
# Mechanical properties :
#
#
# Convention : Reuss Voigt Hill
#
# Bulk Modulus (GPa) = 44.58505 47.40451 45.99478
# Shear Modulus (GPa) = 32.04180 34.46200 33.25190
#
# Velocity S-wave (km/s) = 3.89833 4.04287 3.97126
# Velocity P-wave (km/s) = 6.43495 6.65405 6.54542
#
# Compressibility (1/GPa) = 0.02242904
#
# Stress axis : x y z
#
# Youngs Moduli (GPa) = 78.03900 71.33165 86.80649
#
# Poissons Ratio (x) = 0.12964 0.16190
# Poissons Ratio (y) = 0.14183 0.37149
# Poissons Ratio (z) = 0.14555 0.30527
#
# Static dielectric constant tensor:
#      x y z
#    x 4.392380 0.000000 0.163330 
#    y 0.000000 3.758130 0.000000 
#    z 0.163330 0.000000 4.065310 
# 
# 
# High freq. dielectric constant tensor:
#      x y z
#    x 1.839910 0.000000 -0.006320 
#    y 0.000000 1.825080 0.000000 
#    z -0.006320 0.000000 1.838150 
# 
# From -- ./inp_files/200500.got.cif
#   From: 2010.06.25/outbox.cif.g09.slc.cpg/sg15_101_cif.got.tgz:200500.got - 2010.06.28 07:06:18.
