data_PCOD8153177
_publ_section_title
;
Structure prediction by ZEFSAII (Michael W. Deem and Ramdas Pophale) SiO2 
 PCOD8153177
Probable space group: C 2/C
;
_chemical_formula_sum "Si O2"
_cell_formula_units_Z 48
_cell_length_a 22.900913
_cell_length_b 11.273555
_cell_length_c 8.805748
_cell_angle_alpha 90.000000
_cell_angle_beta 65.050654
_cell_angle_gamma 90.000000
_cell_volume 2061.268098
_symmetry_space_group_name_H-M "C 2/C"
_symmetry_group_IT_number 15
_symmetry_cell_setting 'monoclinic'
loop_
_space_group_symop_operation_xyz
x,y,z
-x,y,1/2-z
-x,-y,-z
x,-y,1/2+z
1/2+x,1/2+y,z
1/2-x,1/2+y,1/2-z
1/2-x,1/2-y,-z
1/2+x,1/2-y,1/2+z
loop_
_atom_site_type_symbol
_atom_site_label
_atom_site_fract_x
_atom_site_fract_y
_atom_site_fract_z
Si Si1 0.383032 0.591697 0.472393
Si Si2 0.434298 0.615211 0.728865
Si Si3 0.687971 0.009341 0.570106
Si Si4 0.571006 0.850868 0.622350
Si Si5 0.278030 0.433660 0.700053
Si Si6 0.633620 0.766226 0.273213
O O1 0.439261 0.598657 0.539693
O O2 0.389276 0.487256 0.342909
O O3 0.316161 0.559610 0.631527
O O4 0.384412 0.712478 0.372264
O O5 0.500000 0.605293 0.750000
O O6 0.405997 0.745956 0.789690
O O7 0.620832 0.958597 0.581272
O O8 0.729954 0.910215 0.611712
O O9 0.732794 0.062902 0.393753
O O10 0.674317 0.115325 0.703316
O O11 0.500000 0.895471 0.750000
O O12 0.571671 0.801338 0.446735
O O13 0.326749 0.324942 0.665851
#
# Coordination Sequence:
#
# PCOD8153177 Si02
#       6
#     8   8   8   8   8   8
#     4  12  23  43  74 110 150 191 239 316 373 439
#     4  11  23  43  71 105 146 196 250 300 365 440
#     4  12  27  46  73 110 151 198 245 311 373 446
#     4  11  27  51  73 102 149 201 260 304 365 449
#     4  12  24  44  74 113 146 190 243 307 377 444
#     4  12  26  47  74 111 150 195 254 303 380 446
#
# _framework density 23.286636999999999
#
# number of rings (size 3 to 8) (size 9 to 14) (size 15 to 20)
#    0.000    0.333    6.667    1.000    2.333    2.667 
#    0.000    0.833    0.000    0.000    0.000    0.000 
#    0.000    0.000    0.000    0.000    0.000    0.000 
#
# Total GULP energy -297464.085395 kJ/mol
# GULP energy per Si atom -12394.336891 kJ/mol
# Density = 2.323364 g / cm^3
# Si number density = 23.286637 Si / 1000 Ang^3
#
#
#
# Elastic Constant Matrix: (Units=GPa)
#
#
# Indices 1 2 3 4 5 6 
#
# 1 111.2663 21.8676 62.3383 0.0000 12.9481 0.0000
# 2 21.8676 68.9131 22.7917 0.0000 -0.5430 0.0000
# 3 62.3383 22.7917 113.8461 0.0000 -15.2505 0.0000
# 4 0.0000 0.0000 0.0000 31.0733 0.0000 4.2884
# 5 12.9481 -0.5430 -15.2505 0.0000 42.7716 0.0000
# 6 0.0000 0.0000 0.0000 4.2884 0.0000 26.5108
#
#
#
# Elastic Compliance Matrix: (Units=1/GPa)
#
#
# Indices 1 2 3 4 5 6 
#
# 1 0.015390 -0.001936 -0.009101 0.000000 -0.007929 0.000000
# 2 -0.001936 0.015821 -0.002102 0.000000 0.000037 0.000000
# 3 -0.009101 -0.002102 0.015284 0.000000 0.008178 0.000000
# 4 0.000000 0.000000 0.000000 0.032917 0.000000 -0.005325
# 5 -0.007929 0.000037 0.008178 0.000000 0.028697 0.000000
# 6 0.000000 0.000000 0.000000 -0.005325 0.000000 0.038582
#
#
# Mechanical properties :
#
#
# Convention : Reuss Voigt Hill
#
# Bulk Modulus (GPa) = 49.46751 56.44674 52.95712
# Shear Modulus (GPa) = 27.82300 32.53967 30.18133
#
# Velocity S-wave (km/s) = 3.46035 3.74217 3.60402
# Velocity P-wave (km/s) = 6.10363 6.55473 6.33320
#
# Compressibility (1/GPa) = 0.02021529
#
# Stress axis : x y z
#
# Youngs Moduli (GPa) = 64.97825 63.20747 65.42856
#
# Poissons Ratio (x) = 0.12236 0.59550
# Poissons Ratio (y) = 0.12579 0.13755
# Poissons Ratio (z) = 0.59140 0.13288
#
# Static dielectric constant tensor:
#      x y z
#    x 4.403860 0.000000 0.249570 
#    y 0.000000 4.168590 0.000000 
#    z 0.249570 0.000000 4.529910 
# 
# 
# High freq. dielectric constant tensor:
#      x y z
#    x 1.906690 0.000000 0.004070 
#    y 0.000000 1.907010 0.000000 
#    z 0.004070 0.000000 1.944290 
# 
# From -- ./inp_files/65051.got.cif
#   From: 2010.06.25/outbox.cif.g09.slc.cpg/sg15_33_cif.got.tgz:65051.got - 2010.06.28 07:06:18.
