data_PCOD8153858
_publ_section_title
;
Structure prediction by ZEFSAII (Michael W. Deem and Ramdas Pophale) SiO2 
 PCOD8153858
Probable space group: C 2/C
;
_chemical_formula_sum "Si O2"
_cell_formula_units_Z 52
_cell_length_a 16.723141
_cell_length_b 19.361384
_cell_length_c 8.926447
_cell_angle_alpha 90.000000
_cell_angle_beta 50.070030
_cell_angle_gamma 90.000000
_cell_volume 2216.316115
_symmetry_space_group_name_H-M "C 2/C"
_symmetry_group_IT_number 15
_symmetry_cell_setting 'monoclinic'
loop_
_space_group_symop_operation_xyz
x,y,z
-x,y,1/2-z
-x,-y,-z
x,-y,1/2+z
1/2+x,1/2+y,z
1/2-x,1/2+y,1/2-z
1/2-x,1/2-y,-z
1/2+x,1/2-y,1/2+z
loop_
_atom_site_type_symbol
_atom_site_label
_atom_site_fract_x
_atom_site_fract_y
_atom_site_fract_z
Si Si1 0.500000 0.733994 0.250000
Si Si2 0.763304 0.560350 0.049577
Si Si3 0.000000 0.837135 0.250000
Si Si4 0.810100 0.155029 0.580063
Si Si5 0.111876 0.476597 0.812121
Si Si6 0.401794 0.546223 0.669062
Si Si7 0.395856 0.223863 0.583316
Si Si8 0.000000 0.380117 0.750000
O O1 0.422132 0.690779 0.447700
O O2 0.569091 0.775837 0.285413
O O3 0.820863 0.560464 0.139560
O O4 0.669210 0.506144 0.153406
O O5 0.723566 0.638011 0.053535
O O6 0.837737 0.544352 0.819273
O O7 0.929850 0.887328 0.234850
O O8 0.922450 0.791657 0.450083
O O9 0.830121 0.078639 0.625071
O O10 0.727340 0.203923 0.767605
O O11 0.098795 0.423958 0.689103
O O12 0.000000 0.500000 0.000000
O O13 0.500000 0.500000 0.500000
O O14 0.461386 0.161917 0.437495
#
# Coordination Sequence:
#
# PCOD8153858 Si02
#       8
#     4   8   4   8   8   8   8   4
#     4  12  26  51  69 101 141 188 248 308 358 428
#     4  12  25  42  72 111 142 193 237 297 375 436
#     4  11  26  51  78 106 147 195 242 308 366 437
#     4  12  25  47  73 106 148 188 248 302 366 442
#     4  12  23  43  67 104 150 189 238 298 361 440
#     4  12  25  48  75 114 147 187 243 308 372 437
#     4  11  27  48  72 106 141 199 246 295 367 430
#     4  11  24  46  67 103 146 189 240 294 362 441
#
# _framework density 23.462356
#
# number of rings (size 3 to 8) (size 9 to 14) (size 15 to 20)
#    0.000    0.308    4.615    4.154    2.154    0.615 
#    2.769    0.000    0.000    0.000    0.000    0.000 
#    0.000    0.000    0.000    0.000    0.000    0.000 
#
# Total GULP energy -322264.201844 kJ/mol
# GULP energy per Si atom -12394.776994 kJ/mol
# Density = 2.340895 g / cm^3
# Si number density = 23.462356 Si / 1000 Ang^3
#
#
#
# Elastic Constant Matrix: (Units=GPa)
#
#
# Indices 1 2 3 4 5 6 
#
# 1 115.6157 45.2541 34.3864 0.0000 2.2273 0.0000
# 2 45.2541 91.3583 35.7476 0.0000 -5.9543 0.0000
# 3 34.3864 35.7476 115.9161 0.0000 -18.8565 0.0000
# 4 0.0000 0.0000 0.0000 34.1959 0.0000 -3.4655
# 5 2.2273 -5.9543 -18.8565 0.0000 47.2724 0.0000
# 6 0.0000 0.0000 0.0000 -3.4655 0.0000 39.2661
#
#
#
# Elastic Compliance Matrix: (Units=1/GPa)
#
#
# Indices 1 2 3 4 5 6 
#
# 1 0.011228 -0.004846 -0.002162 0.000000 -0.002002 0.000000
# 2 -0.004846 0.014540 -0.002899 0.000000 0.000903 0.000000
# 3 -0.002162 -0.002899 0.010822 0.000000 0.004053 0.000000
# 4 0.000000 0.000000 0.000000 0.029507 0.000000 0.002604
# 5 -0.002002 0.000903 0.004053 0.000000 0.022979 0.000000
# 6 0.000000 0.000000 0.000000 0.002604 0.000000 0.025697
#
#
# Mechanical properties :
#
#
# Convention : Reuss Voigt Hill
#
# Bulk Modulus (GPa) = 59.61433 61.51847 60.56640
# Shear Modulus (GPa) = 35.66870 37.98036 36.82453
#
# Velocity S-wave (km/s) = 3.90327 4.02777 3.96601
# Velocity P-wave (km/s) = 6.76592 6.92153 6.84417
#
# Compressibility (1/GPa) = 0.01677449
#
# Stress axis : x y z
#
# Youngs Moduli (GPa) = 89.06491 68.77648 92.40638
#
# Poissons Ratio (x) = 0.33331 0.19976
# Poissons Ratio (y) = 0.43163 0.26793
# Poissons Ratio (z) = 0.19254 0.19941
#
# Static dielectric constant tensor:
#      x y z
#    x 4.794910 0.000000 0.074080 
#    y 0.000000 4.490400 0.000000 
#    z 0.074080 0.000000 4.376570 
# 
# 
# High freq. dielectric constant tensor:
#      x y z
#    x 1.943570 0.000000 0.000780 
#    y 0.000000 1.928690 0.000000 
#    z 0.000780 0.000000 1.938580 
# 
# From -- ./inp_files/50608.got.cif
#   From: 2010.06.25/outbox.cif.g09.slc.cpg/sg15_26_cif.got.tgz:50608.got - 2010.06.28 07:06:18.
