data_PCOD8153079
_publ_section_title
;
Structure prediction by ZEFSAII (Michael W. Deem and Ramdas Pophale) SiO2 
 PCOD8153079
Probable space group: C 2/C
;
_chemical_formula_sum "Si O2"
_cell_formula_units_Z 40
_cell_length_a 9.009589
_cell_length_b 13.074997
_cell_length_c 17.333327
_cell_angle_alpha 90.000000
_cell_angle_beta 75.780270
_cell_angle_gamma 90.000000
_cell_volume 1979.310690
_symmetry_space_group_name_H-M "C 2/C"
_symmetry_group_IT_number 15
_symmetry_cell_setting 'monoclinic'
loop_
_space_group_symop_operation_xyz
x,y,z
-x,y,1/2-z
-x,-y,-z
x,-y,1/2+z
1/2+x,1/2+y,z
1/2-x,1/2+y,1/2-z
1/2-x,1/2-y,-z
1/2+x,1/2-y,1/2+z
loop_
_atom_site_type_symbol
_atom_site_label
_atom_site_fract_x
_atom_site_fract_y
_atom_site_fract_z
Si Si1 0.429910 0.883958 0.393928
Si Si2 0.896870 0.096280 0.497309
Si Si3 0.046891 0.593748 0.327891
Si Si4 0.921797 0.714108 0.481857
Si Si5 0.877407 0.171547 0.329264
O O1 0.277955 0.925111 0.456682
O O2 0.550120 0.847249 0.442940
O O3 0.381004 0.794083 0.341199
O O4 0.517513 0.971946 0.335693
O O5 0.913609 0.117439 0.404952
O O6 0.958190 0.192559 0.538361
O O7 0.000000 0.000000 0.500000
O O8 0.219410 0.627759 0.318521
O O9 0.000000 0.634424 0.250000
O O10 0.940263 0.643397 0.405662
O O11 0.750000 0.750000 0.500000
O O12 0.000000 0.138454 0.250000
#
# Coordination Sequence:
#
# PCOD8153079 Si02
#       5
#     8   8   8   8   8
#     4  11  23  47  70  92 134 180 221 281 337 396
#     4  11  23  43  70  98 131 177 230 274 335 404
#     4  12  26  43  68 101 134 175 225 273 343 405
#     4  11  23  42  70  99 130 177 227 277 327 406
#     4  11  25  46  65  96 139 173 218 283 339 398
#
# _framework density 20.209054999999999
#
# number of rings (size 3 to 8) (size 9 to 14) (size 15 to 20)
#    0.000    0.800    4.000    3.600   11.200    0.000 
#    0.000    1.000    0.000    0.000    0.000    0.000 
#    0.000    0.000    0.000    0.000    0.000    0.000 
#
# Total GULP energy -248061.320566 kJ/mol
# GULP energy per Si atom -12403.066028 kJ/mol
# Density = 2.016306 g / cm^3
# Si number density = 20.209055 Si / 1000 Ang^3
#
#
#
# Elastic Constant Matrix: (Units=GPa)
#
#
# Indices 1 2 3 4 5 6 
#
# 1 159.1362 58.1251 54.6665 0.0000 -4.2626 0.0000
# 2 58.1251 112.9901 44.8350 0.0000 13.1674 0.0000
# 3 54.6665 44.8350 94.8871 0.0000 0.2150 0.0000
# 4 0.0000 0.0000 0.0000 11.9204 0.0000 4.2952
# 5 -4.2626 13.1674 0.2150 0.0000 34.6666 0.0000
# 6 0.0000 0.0000 0.0000 4.2952 0.0000 34.8898
#
#
#
# Elastic Compliance Matrix: (Units=1/GPa)
#
#
# Indices 1 2 3 4 5 6 
#
# 1 0.008786 -0.003433 -0.003445 0.000000 0.002406 0.000000
# 2 -0.003433 0.012851 -0.004083 0.000000 -0.005278 0.000000
# 3 -0.003445 -0.004083 0.014450 0.000000 0.001038 0.000000
# 4 0.000000 0.000000 0.000000 0.087784 0.000000 -0.010807
# 5 0.002406 -0.005278 0.001038 0.000000 0.031140 0.000000
# 6 0.000000 0.000000 0.000000 -0.010807 0.000000 0.029992
#
#
# Mechanical properties :
#
#
# Convention : Reuss Voigt Hill
#
# Bulk Modulus (GPa) = 70.59024 75.80738 73.19881
# Shear Modulus (GPa) = 23.62424 30.25448 26.93936
#
# Velocity S-wave (km/s) = 3.42276 3.87340 3.65504
# Velocity P-wave (km/s) = 7.11521 7.58929 7.35607
#
# Compressibility (1/GPa) = 0.01416626
#
# Stress axis : x y z
#
# Youngs Moduli (GPa) = 113.82181 77.81236 69.20267
#
# Poissons Ratio (x) = 0.26712 0.23840
# Poissons Ratio (y) = 0.39074 0.28253
# Poissons Ratio (z) = 0.39211 0.31768
#
# Static dielectric constant tensor:
#      x y z
#    x 3.700670 0.000000 0.022400 
#    y 0.000000 3.691930 0.000000 
#    z 0.022400 0.000000 3.796190 
# 
# 
# High freq. dielectric constant tensor:
#      x y z
#    x 1.800540 0.000000 0.001660 
#    y 0.000000 1.795330 0.000000 
#    z 0.001660 0.000000 1.793600 
# 
# From -- ./inp_files/133055.got.cif
#   From: 2010.06.25/outbox.cif.g09.slc.cpg/sg15_67_cif.got.tgz:133055.got - 2010.06.28 07:06:18.
