data_PCOD8153061
_publ_section_title
;
Structure prediction by ZEFSAII (Michael W. Deem and Ramdas Pophale) SiO2 
 PCOD8153061
Probable space group: C 2/C
;
_chemical_formula_sum "Si O2"
_cell_formula_units_Z 40
_cell_length_a 25.159387
_cell_length_b 7.500445
_cell_length_c 9.661072
_cell_angle_alpha 90.000000
_cell_angle_beta 97.507603
_cell_angle_gamma 90.000000
_cell_volume 1807.479499
_symmetry_space_group_name_H-M "C 2/C"
_symmetry_group_IT_number 15
_symmetry_cell_setting 'monoclinic'
loop_
_space_group_symop_operation_xyz
x,y,z
-x,y,1/2-z
-x,-y,-z
x,-y,1/2+z
1/2+x,1/2+y,z
1/2-x,1/2+y,1/2-z
1/2-x,1/2-y,-z
1/2+x,1/2-y,1/2+z
loop_
_atom_site_type_symbol
_atom_site_label
_atom_site_fract_x
_atom_site_fract_y
_atom_site_fract_z
Si Si1 0.690906 0.323671 0.962880
Si Si2 0.346088 0.642292 0.358765
Si Si3 0.556766 0.110171 0.218640
Si Si4 0.963182 0.987028 0.855389
Si Si5 0.377853 0.986166 0.499328
O O1 0.681563 0.498203 0.051947
O O2 0.750000 0.250000 0.000000
O O3 0.680938 0.371786 0.799869
O O4 0.650936 0.175119 0.005011
O O5 0.410519 0.626206 0.370092
O O6 0.337281 0.837114 0.423983
O O7 0.500000 0.033720 0.250000
O O8 0.555662 0.321668 0.203819
O O9 0.603893 0.069352 0.342462
O O10 0.570253 0.011299 0.080420
O O11 0.000000 0.893628 0.750000
O O12 0.000000 0.000000 0.000000
#
# Coordination Sequence:
#
# PCOD8153061 Si02
#       5
#     8   8   8   8   8
#     4  12  30  50  76 106 142 194 251 309 373 430
#     4  12  26  49  76 105 151 188 244 308 363 443
#     4  11  23  42  69 107 151 192 238 290 359 440
#     4  11  23  42  72 107 146 193 233 286 366 440
#     4  12  25  47  72 107 150 190 246 301 363 437
#
# _framework density 22.130264
#
# number of rings (size 3 to 8) (size 9 to 14) (size 15 to 20)
#    0.000    0.400    4.000    5.400    2.800    1.600 
#    0.000    0.000    0.000    0.000    0.000    0.000 
#    0.000    0.000    0.000    0.000    0.000    0.000 
#
# Total GULP energy -248116.060700 kJ/mol
# GULP energy per Si atom -12405.803035 kJ/mol
# Density = 2.207989 g / cm^3
# Si number density = 22.130264 Si / 1000 Ang^3
#
#
#
# Elastic Constant Matrix: (Units=GPa)
#
#
# Indices 1 2 3 4 5 6 
#
# 1 75.6786 3.3296 26.0390 0.0000 8.5641 0.0000
# 2 3.3296 102.1134 22.4521 0.0000 -7.2764 0.0000
# 3 26.0390 22.4521 142.9745 0.0000 11.6779 0.0000
# 4 0.0000 0.0000 0.0000 37.9007 0.0000 0.3338
# 5 8.5641 -7.2764 11.6779 0.0000 33.0396 0.0000
# 6 0.0000 0.0000 0.0000 0.3338 0.0000 13.3250
#
#
#
# Elastic Compliance Matrix: (Units=1/GPa)
#
#
# Indices 1 2 3 4 5 6 
#
# 1 0.014361 -0.000160 -0.002351 0.000000 -0.002927 0.000000
# 2 -0.000160 0.010418 -0.001851 0.000000 0.002990 0.000000
# 3 -0.002351 -0.001851 0.007926 0.000000 -0.002599 0.000000
# 4 0.000000 0.000000 0.000000 0.026391 0.000000 -0.000661
# 5 -0.002927 0.002990 -0.002599 0.000000 0.032603 0.000000
# 6 0.000000 0.000000 0.000000 -0.000661 0.000000 0.075063
#
#
# Mechanical properties :
#
#
# Convention : Reuss Voigt Hill
#
# Bulk Modulus (GPa) = 41.70104 47.15644 44.42874
# Shear Modulus (GPa) = 27.25102 34.78279 31.01691
#
# Velocity S-wave (km/s) = 3.51293 3.96881 3.74780
# Velocity P-wave (km/s) = 5.94462 6.50820 6.23279
#
# Compressibility (1/GPa) = 0.02398022
#
# Stress axis : x y z
#
# Youngs Moduli (GPa) = 69.63289 95.98448 126.17488
#
# Poissons Ratio (x) = 0.01534 0.29668
# Poissons Ratio (y) = 0.01113 0.23357
# Poissons Ratio (z) = 0.16373 0.17768
#
# Static dielectric constant tensor:
#      x y z
#    x 4.055890 0.000000 -0.160830 
#    y 0.000000 4.142940 0.000000 
#    z -0.160830 0.000000 4.175030 
# 
# 
# High freq. dielectric constant tensor:
#      x y z
#    x 1.860640 0.000000 -0.006090 
#    y 0.000000 1.885290 0.000000 
#    z -0.006090 0.000000 1.891200 
# 
# From -- ./inp_files/60084.got.cif
#   From: 2010.06.25/outbox.cif.g09.slc.cpg/sg15_31_cif.got.tgz:60084.got - 2010.06.28 07:06:18.
