data_PCOD8153160
_publ_section_title
;
Structure prediction by ZEFSAII (Michael W. Deem and Ramdas Pophale) SiO2 
 PCOD8153160
Probable space group: C 2/C
;
_chemical_formula_sum "Si O2"
_cell_formula_units_Z 48
_cell_length_a 20.754935
_cell_length_b 11.343286
_cell_length_c 11.195100
_cell_angle_alpha 90.000000
_cell_angle_beta 49.906405
_cell_angle_gamma 90.000000
_cell_volume 2016.257177
_symmetry_space_group_name_H-M "C 2/C"
_symmetry_group_IT_number 15
_symmetry_cell_setting 'monoclinic'
loop_
_space_group_symop_operation_xyz
x,y,z
-x,y,1/2-z
-x,-y,-z
x,-y,1/2+z
1/2+x,1/2+y,z
1/2-x,1/2+y,1/2-z
1/2-x,1/2-y,-z
1/2+x,1/2-y,1/2+z
loop_
_atom_site_type_symbol
_atom_site_label
_atom_site_fract_x
_atom_site_fract_y
_atom_site_fract_z
Si Si1 0.155134 0.840102 0.532164
Si Si2 0.895527 0.323315 0.592894
Si Si3 0.924765 0.060178 0.918376
Si Si4 0.079671 0.235932 0.369831
Si Si5 0.699189 0.069015 0.785904
Si Si6 0.193264 0.156046 0.630406
O O1 0.157389 0.716442 0.459722
O O2 0.133173 0.810395 0.693827
O O3 0.244595 0.906686 0.400654
O O4 0.078389 0.917886 0.563597
O O5 0.859041 0.453349 0.664046
O O6 0.879781 0.232044 0.718940
O O7 0.995170 0.311743 0.442720
O O8 0.841474 0.079062 0.937379
O O9 0.000000 0.108595 0.750000
O O10 0.931373 0.118224 0.039283
O O11 0.136265 0.322643 0.381158
O O12 0.759277 0.069134 0.831721
O O13 0.250000 0.250000 0.500000
#
# Coordination Sequence:
#
# PCOD8153160 Si02
#       6
#     8   8   8   8   8   8
#     4  11  28  45  74 108 146 191 250 309 369 441
#     4  11  25  47  71 110 145 194 249 308 370 444
#     4  12  25  45  74 106 140 195 245 309 367 440
#     4  12  25  48  75 108 150 197 251 305 377 444
#     4  11  26  46  75 104 150 198 240 312 373 444
#     4  11  23  43  69 103 142 187 249 294 365 446
#
# _framework density 23.806487000000001
#
# number of rings (size 3 to 8) (size 9 to 14) (size 15 to 20)
#    0.000    0.667    3.333    3.500    7.000    4.000 
#    0.000    1.667    0.000    0.000    0.000    0.000 
#    0.000    0.000    0.000    0.000    0.000    0.000 
#
# Total GULP energy -297364.278686 kJ/mol
# GULP energy per Si atom -12390.178279 kJ/mol
# Density = 2.375230 g / cm^3
# Si number density = 23.806487 Si / 1000 Ang^3
#
#
#
# Elastic Constant Matrix: (Units=GPa)
#
#
# Indices 1 2 3 4 5 6 
#
# 1 76.1156 31.8696 28.3045 0.0000 -8.6688 0.0000
# 2 31.8696 96.4787 33.5386 0.0000 -5.9751 0.0000
# 3 28.3045 33.5386 129.4621 0.0000 1.9616 0.0000
# 4 0.0000 0.0000 0.0000 41.1441 0.0000 -6.0166
# 5 -8.6688 -5.9751 1.9616 0.0000 31.9079 0.0000
# 6 0.0000 0.0000 0.0000 -6.0166 0.0000 32.1807
#
#
#
# Elastic Compliance Matrix: (Units=1/GPa)
#
#
# Indices 1 2 3 4 5 6 
#
# 1 0.016292 -0.004274 -0.002512 0.000000 0.003780 0.000000
# 2 -0.004274 0.012686 -0.002373 0.000000 0.001360 0.000000
# 3 -0.002512 -0.002373 0.008913 0.000000 -0.001675 0.000000
# 4 0.000000 0.000000 0.000000 0.024988 0.000000 0.004672
# 5 0.003780 0.001360 -0.001675 0.000000 0.032725 0.000000
# 6 0.000000 0.000000 0.000000 0.004672 0.000000 0.031948
#
#
# Mechanical properties :
#
#
# Convention : Reuss Voigt Hill
#
# Bulk Modulus (GPa) = 51.08855 54.38688 52.73771
# Shear Modulus (GPa) = 32.80949 34.93612 33.87281
#
# Velocity S-wave (km/s) = 3.71640 3.83496 3.77615
# Velocity P-wave (km/s) = 6.31839 6.51952 6.41975
#
# Compressibility (1/GPa) = 0.01957386
#
# Stress axis : x y z
#
# Youngs Moduli (GPa) = 61.37888 78.82750 112.18993
#
# Poissons Ratio (x) = 0.33694 0.28181
# Poissons Ratio (y) = 0.26236 0.26617
# Poissons Ratio (z) = 0.15418 0.18702
#
# Static dielectric constant tensor:
#      x y z
#    x 4.074020 0.000000 -0.427760 
#    y 0.000000 5.081720 0.000000 
#    z -0.427760 0.000000 4.312230 
# 
# 
# High freq. dielectric constant tensor:
#      x y z
#    x 1.933590 0.000000 -0.006430 
#    y 0.000000 1.950590 0.000000 
#    z -0.006430 0.000000 1.960900 
# 
# From -- ./inp_files/111450.got.cif
#   From: 2010.06.25/outbox.cif.g09.slc.cpg/sg15_56_cif.got.tgz:111450.got - 2010.06.28 07:06:18.
