data_PCOD8153898
_publ_section_title
;
Structure prediction by ZEFSAII (Michael W. Deem and Ramdas Pophale) SiO2 
 PCOD8153898
Probable space group: C 2/C
;
_chemical_formula_sum "Si O2"
_cell_formula_units_Z 60
_cell_length_a 28.724030
_cell_length_b 18.735263
_cell_length_c 16.523370
_cell_angle_alpha 90.000000
_cell_angle_beta 17.653294
_cell_angle_gamma 90.000000
_cell_volume 2696.582636
_symmetry_space_group_name_H-M "C 2/C"
_symmetry_group_IT_number 15
_symmetry_cell_setting 'monoclinic'
loop_
_space_group_symop_operation_xyz
x,y,z
-x,y,1/2-z
-x,-y,-z
x,-y,1/2+z
1/2+x,1/2+y,z
1/2-x,1/2+y,1/2-z
1/2-x,1/2-y,-z
1/2+x,1/2-y,1/2+z
loop_
_atom_site_type_symbol
_atom_site_label
_atom_site_fract_x
_atom_site_fract_y
_atom_site_fract_z
Si Si1 0.237338 0.021053 0.083239
Si Si2 0.884359 0.266595 0.010408
Si Si3 0.596348 0.243408 0.306359
Si Si4 0.442276 0.398488 0.068196
Si Si5 0.688032 0.859591 0.790668
Si Si6 0.353052 0.620425 0.547156
Si Si7 0.000000 0.411354 0.250000
Si Si8 0.675227 0.010227 0.737435
O O1 0.100528 0.071001 0.343812
O O2 0.201053 0.936984 0.150991
O O3 0.390500 0.037463 0.879252
O O4 0.242702 0.035234 0.979445
O O5 0.840931 0.185837 0.056247
O O6 0.728393 0.311466 0.276355
O O7 0.000000 0.297210 0.750000
O O8 0.956433 0.269892 0.978996
O O9 0.566252 0.314805 0.405591
O O10 0.595219 0.178890 0.372104
O O11 0.750000 0.250000 0.000000
O O12 0.429047 0.421514 0.996072
O O13 0.735734 0.937679 0.679319
O O14 0.588670 0.862589 0.037965
O O15 0.219045 0.573287 0.727219
O O16 0.500000 0.643338 0.250000
O O17 0.500000 0.000000 0.000000
#
# Coordination Sequence:
#
# PCOD8153898 Si02
#       8
#     8   8   8   8   8   8   4   8
#     4  11  25  46  71 106 145 191 251 302 378 438
#     4  12  27  48  76 108 148 197 245 309 377 447
#     4  12  24  48  72 107 144 195 252 307 374 446
#     4  11  24  46  72 103 144 190 239 308 366 450
#     4  12  26  46  72 110 149 189 254 307 371 454
#     4  12  26  48  75 110 147 194 249 303 378 447
#     4  12  26  48  68 110 152 200 244 310 382 442
#     4  12  25  47  76 107 144 194 248 314 377 451
#
# _framework density 22.250384
#
# number of rings (size 3 to 8) (size 9 to 14) (size 15 to 20)
#    0.000    0.267    5.333    3.200    0.933    2.667 
#    1.200    2.000    0.000    0.000    0.000    0.000 
#    0.000    0.000    0.000    0.000    0.000    0.000 
#
# Total GULP energy -371904.247775 kJ/mol
# GULP energy per Si atom -12396.808259 kJ/mol
# Density = 2.219974 g / cm^3
# Si number density = 22.250384 Si / 1000 Ang^3
#
#
#
# Elastic Constant Matrix: (Units=GPa)
#
#
# Indices 1 2 3 4 5 6 
#
# 1 133.2497 21.6444 27.1546 -0.0027 6.5733 0.0003
# 2 21.6444 95.0736 31.4053 -0.0043 6.4470 0.0018
# 3 27.1546 31.4053 103.8106 -0.0023 1.6149 0.0021
# 4 -0.0027 -0.0043 -0.0023 33.3216 0.0027 1.2514
# 5 6.5733 6.4470 1.6149 0.0027 36.3436 -0.0002
# 6 0.0003 0.0018 0.0021 1.2514 -0.0002 41.5896
#
#
#
# Elastic Compliance Matrix: (Units=1/GPa)
#
#
# Indices 1 2 3 4 5 6 
#
# 1 0.008112 -0.001191 -0.001743 0.000000 -0.001178 0.000000
# 2 -0.001191 0.011996 -0.003290 0.000001 -0.001766 0.000000
# 3 -0.001743 -0.003290 0.011078 0.000000 0.000407 0.000000
# 4 0.000000 0.000001 0.000000 0.030044 -0.000003 -0.000904
# 5 -0.001178 -0.001766 0.000407 -0.000003 0.028024 0.000000
# 6 0.000000 0.000000 0.000000 -0.000904 0.000000 0.024072
#
#
# Mechanical properties :
#
#
# Convention : Reuss Voigt Hill
#
# Bulk Modulus (GPa) = 53.37049 54.72697 54.04873
# Shear Modulus (GPa) = 37.87335 39.04628 38.45982
#
# Velocity S-wave (km/s) = 4.13018 4.19365 4.16204
# Velocity P-wave (km/s) = 6.83980 6.93529 6.88771
#
# Compressibility (1/GPa) = 0.01873695
#
# Stress axis : x y z
#
# Youngs Moduli (GPa) = 123.28141 83.36209 90.26977
#
# Poissons Ratio (x) = 0.09928 0.15736
# Poissons Ratio (y) = 0.14682 0.29699
# Poissons Ratio (z) = 0.21490 0.27427
#
# Static dielectric constant tensor:
#      x y z
#    x 4.384270 -0.000010 0.112890 
#    y -0.000010 3.874290 0.000040 
#    z 0.112890 0.000040 4.216640 
# 
# 
# High freq. dielectric constant tensor:
#      x y z
#    x 1.905590 0.000000 0.000000 
#    y 0.000000 1.870540 0.000000 
#    z 0.000000 0.000000 1.873840 
# 
# From -- ./inp_files/179086.got.cif
#   From: 2010.06.25/outbox.cif.g09.slc.cpg/sg15_90_cif.got.tgz:179086.got - 2010.06.28 07:06:18.
