data_PCOD8153126
_publ_section_title
;
Structure prediction by ZEFSAII (Michael W. Deem and Ramdas Pophale) SiO2 
 PCOD8153126
Probable space group: C 2/C
;
_chemical_formula_sum "Si O2"
_cell_formula_units_Z 56
_cell_length_a 11.241974
_cell_length_b 8.406905
_cell_length_c 27.571443
_cell_angle_alpha 90.000000
_cell_angle_beta 110.921053
_cell_angle_gamma 90.000000
_cell_volume 2433.992214
_symmetry_space_group_name_H-M "C 2/C"
_symmetry_group_IT_number 15
_symmetry_cell_setting 'monoclinic'
loop_
_space_group_symop_operation_xyz
x,y,z
-x,y,1/2-z
-x,-y,-z
x,-y,1/2+z
1/2+x,1/2+y,z
1/2-x,1/2+y,1/2-z
1/2-x,1/2-y,-z
1/2+x,1/2-y,1/2+z
loop_
_atom_site_type_symbol
_atom_site_label
_atom_site_fract_x
_atom_site_fract_y
_atom_site_fract_z
Si Si1 0.106201 0.973602 0.633482
Si Si2 0.314328 0.069637 0.411828
Si Si3 0.884324 0.477500 0.315109
Si Si4 0.243828 0.780240 0.219422
Si Si5 0.080906 0.772916 0.835562
Si Si6 0.544861 0.713819 0.951477
Si Si7 0.786377 0.776776 0.936240
O O1 0.184640 0.847140 0.612481
O O2 0.038124 0.885769 0.668499
O O3 0.202794 0.096992 0.671476
O O4 0.003799 0.061858 0.585213
O O5 0.192386 0.187641 0.390758
O O6 0.429369 0.171962 0.450117
O O7 0.346854 0.995784 0.364779
O O8 0.291827 0.916006 0.441662
O O9 0.868129 0.650967 0.287073
O O10 0.782575 0.358482 0.275354
O O11 0.027987 0.409348 0.331397
O O12 0.367950 0.697114 0.211912
O O13 0.642045 0.816450 0.931763
O O14 0.613350 0.652602 0.010375
#
# Coordination Sequence:
#
# PCOD8153126 Si02
#       7
#     8   8   8   8   8   8   8
#     4  12  23  42  70  99 138 176 221 279 335 401
#     4  11  23  44  68  99 137 176 220 280 335 400
#     4  11  23  44  68  95 133 179 222 275 332 401
#     4  11  26  44  68  99 134 177 229 273 334 404
#     4  11  23  43  66  96 140 171 217 275 335 397
#     4  11  24  45  66 102 132 175 233 276 333 405
#     4  11  25  42  72  97 135 177 225 282 336 394
#
# _framework density 23.007469
#
# number of rings (size 3 to 8) (size 9 to 14) (size 15 to 20)
#    0.000    0.857    5.714    2.143    2.000    1.143 
#    0.000    3.571    0.000    0.000    0.000    0.000 
#    0.000    0.000    0.000    0.000    0.000    0.000 
#
# Total GULP energy -347111.205860 kJ/mol
# GULP energy per Si atom -12396.828781 kJ/mol
# Density = 2.295510 g / cm^3
# Si number density = 23.007469 Si / 1000 Ang^3
#
#
#
# Elastic Constant Matrix: (Units=GPa)
#
#
# Indices 1 2 3 4 5 6 
#
# 1 85.7715 33.5118 7.8967 0.0000 12.7531 0.0000
# 2 33.5118 98.9659 15.7010 0.0000 12.8188 0.0000
# 3 7.8967 15.7010 49.6497 0.0000 5.2898 0.0000
# 4 0.0000 0.0000 0.0000 39.0931 0.0000 2.0045
# 5 12.7531 12.8188 5.2898 0.0000 29.3285 0.0000
# 6 0.0000 0.0000 0.0000 2.0045 0.0000 35.8794
#
#
#
# Elastic Compliance Matrix: (Units=1/GPa)
#
#
# Indices 1 2 3 4 5 6 
#
# 1 0.013925 -0.004099 -0.000473 0.000000 -0.004178 0.000000
# 2 -0.004099 0.012357 -0.002927 0.000000 -0.003091 0.000000
# 3 -0.000473 -0.002927 0.021395 0.000000 -0.002374 0.000000
# 4 0.000000 0.000000 0.000000 0.025653 0.000000 -0.001433
# 5 -0.004178 -0.003091 -0.002374 0.000000 0.037692 0.000000
# 6 0.000000 0.000000 0.000000 -0.001433 0.000000 0.027951
#
#
# Mechanical properties :
#
#
# Convention : Reuss Voigt Hill
#
# Bulk Modulus (GPa) = 30.60045 38.73404 34.66724
# Shear Modulus (GPa) = 30.32779 32.67871 31.50325
#
# Velocity S-wave (km/s) = 3.63460 3.77284 3.70437
# Velocity P-wave (km/s) = 5.56263 5.98758 5.77901
#
# Compressibility (1/GPa) = 0.03267926
#
# Stress axis : x y z
#
# Youngs Moduli (GPa) = 71.81189 80.92476 46.74038
#
# Poissons Ratio (x) = 0.33172 0.02213
# Poissons Ratio (y) = 0.29436 0.13679
# Poissons Ratio (z) = 0.03399 0.23683
#
# Static dielectric constant tensor:
#      x y z
#    x 4.213410 0.000000 0.154230 
#    y 0.000000 4.281330 0.000000 
#    z 0.154230 0.000000 3.963970 
# 
# 
# High freq. dielectric constant tensor:
#      x y z
#    x 1.907920 0.000000 0.010790 
#    y 0.000000 1.906580 0.000000 
#    z 0.010790 0.000000 1.903900 
# 
# From -- ./inp_files/310038.got.cif
#   From: 2010.06.25/outbox.cif.g09.slc.cpg/sg15_156_cif.got.tgz:310038.got - 2010.06.28 07:06:18.
