data_PCOD8153144
_publ_section_title
;
Structure prediction by ZEFSAII (Michael W. Deem and Ramdas Pophale) SiO2 
 PCOD8153144
Probable space group: C 2/C
;
_chemical_formula_sum "Si O2"
_cell_formula_units_Z 40
_cell_length_a 12.694223
_cell_length_b 7.648170
_cell_length_c 20.652530
_cell_angle_alpha 90.000000
_cell_angle_beta 112.843142
_cell_angle_gamma 90.000000
_cell_volume 1847.845965
_symmetry_space_group_name_H-M "C 2/C"
_symmetry_group_IT_number 15
_symmetry_cell_setting 'monoclinic'
loop_
_space_group_symop_operation_xyz
x,y,z
-x,y,1/2-z
-x,-y,-z
x,-y,1/2+z
1/2+x,1/2+y,z
1/2-x,1/2+y,1/2-z
1/2-x,1/2-y,-z
1/2+x,1/2-y,1/2+z
loop_
_atom_site_type_symbol
_atom_site_label
_atom_site_fract_x
_atom_site_fract_y
_atom_site_fract_z
Si Si1 0.240142 0.626743 0.181638
Si Si2 0.160611 0.211733 0.422985
Si Si3 0.653234 0.697315 0.925972
Si Si4 0.009462 0.505756 0.078382
Si Si5 0.632952 0.696610 0.779417
O O1 0.279238 0.753293 0.132054
O O2 0.140572 0.498165 0.131521
O O3 0.350869 0.511088 0.226119
O O4 0.199820 0.720014 0.236247
O O5 0.250000 0.250000 0.500000
O O6 0.053574 0.341168 0.403921
O O7 0.122816 0.008849 0.420568
O O8 0.690706 0.750585 0.861935
O O9 0.538956 0.805146 0.913000
O O10 0.750000 0.750000 0.000000
O O11 0.000000 0.500000 0.000000
O O12 0.500000 0.747531 0.750000
#
# Coordination Sequence:
#
# PCOD8153144 Si02
#       5
#     8   8   8   8   8
#     4  11  26  44  69 103 139 186 233 291 354 421
#     4  11  23  43  68 104 142 181 236 288 349 424
#     4  11  23  43  72 102 143 180 233 296 342 419
#     4  12  23  44  71 105 141 182 238 290 352 419
#     4  11  25  45  68 101 141 181 235 287 352 426
#
# _framework density 21.646826000000001
#
# number of rings (size 3 to 8) (size 9 to 14) (size 15 to 20)
#    0.000    0.800    6.000    1.200    2.800    4.000 
#    0.000    0.000    0.000    0.000    0.000    0.000 
#    0.000    0.000    0.000    0.000    0.000    0.000 
#
# Total GULP energy -247897.331059 kJ/mol
# GULP energy per Si atom -12394.866553 kJ/mol
# Density = 2.159756 g / cm^3
# Si number density = 21.646826 Si / 1000 Ang^3
#
#
#
# Elastic Constant Matrix: (Units=GPa)
#
#
# Indices 1 2 3 4 5 6 
#
# 1 102.4289 43.9485 45.4024 0.0000 -33.2188 0.0000
# 2 43.9485 113.1383 39.7067 0.0000 -20.3681 0.0000
# 3 45.4024 39.7067 150.5324 0.0000 -42.0660 0.0000
# 4 0.0000 0.0000 0.0000 33.3033 0.0000 -2.8058
# 5 -33.2188 -20.3681 -42.0660 0.0000 51.7206 0.0000
# 6 0.0000 0.0000 0.0000 -2.8058 0.0000 53.4173
#
#
#
# Elastic Compliance Matrix: (Units=1/GPa)
#
#
# Indices 1 2 3 4 5 6 
#
# 1 0.014120 -0.003822 -0.001471 0.000000 0.006367 0.000000
# 2 -0.003822 0.010984 -0.001581 0.000000 0.000585 0.000000
# 3 -0.001471 -0.001581 0.009144 0.000000 0.005870 0.000000
# 4 0.000000 0.000000 0.000000 0.030161 0.000000 0.001584
# 5 0.006367 0.000585 0.005870 0.000000 0.028428 0.000000
# 6 0.000000 0.000000 0.000000 0.001584 0.000000 0.018804
#
#
# Mechanical properties :
#
#
# Convention : Reuss Voigt Hill
#
# Bulk Modulus (GPa) = 48.78386 69.35720 59.07053
# Shear Modulus (GPa) = 37.81518 43.49104 40.65311
#
# Velocity S-wave (km/s) = 4.18415 4.48718 4.33831
# Velocity P-wave (km/s) = 6.77702 7.67830 7.24169
#
# Compressibility (1/GPa) = 0.02049858
#
# Stress axis : x y z
#
# Youngs Moduli (GPa) = 70.82198 91.04474 109.35978
#
# Poissons Ratio (x) = 0.34800 0.16090
# Poissons Ratio (y) = 0.27070 0.17290
# Poissons Ratio (z) = 0.10420 0.14394
#
# Static dielectric constant tensor:
#      x y z
#    x 3.930300 0.000000 -0.206450 
#    y 0.000000 3.775730 0.000000 
#    z -0.206450 0.000000 4.316270 
# 
# 
# High freq. dielectric constant tensor:
#      x y z
#    x 1.854060 0.000000 -0.014420 
#    y 0.000000 1.841380 0.000000 
#    z -0.014420 0.000000 1.872460 
# 
# From -- ./inp_files/235938.got.cif
#   From: 2010.06.25/outbox.cif.g09.slc.cpg/sg15_118_cif.got.tgz:235938.got - 2010.06.28 07:06:18.
