data_PCOD8153495
_publ_section_title
;
Structure prediction by ZEFSAII (Michael W. Deem and Ramdas Pophale) SiO2 
 PCOD8153495
Probable space group: C 2/C
;
_chemical_formula_sum "Si O2"
_cell_formula_units_Z 52
_cell_length_a 7.293918
_cell_length_b 26.221530
_cell_length_c 12.779340
_cell_angle_alpha 90.000000
_cell_angle_beta 70.295142
_cell_angle_gamma 90.000000
_cell_volume 2301.022583
_symmetry_space_group_name_H-M "C 2/C"
_symmetry_group_IT_number 15
_symmetry_cell_setting 'monoclinic'
loop_
_space_group_symop_operation_xyz
x,y,z
-x,y,1/2-z
-x,-y,-z
x,-y,1/2+z
1/2+x,1/2+y,z
1/2-x,1/2+y,1/2-z
1/2-x,1/2-y,-z
1/2+x,1/2-y,1/2+z
loop_
_atom_site_type_symbol
_atom_site_label
_atom_site_fract_x
_atom_site_fract_y
_atom_site_fract_z
Si Si1 0.383207 0.611808 0.488369
Si Si2 0.000000 0.592054 0.250000
Si Si3 0.193367 0.786330 0.152663
Si Si4 0.366613 0.423939 0.366616
Si Si5 0.227055 0.173461 0.409137
Si Si6 0.981768 0.636131 0.641521
Si Si7 0.825669 0.526081 0.100794
O O1 0.523364 0.585274 0.546500
O O2 0.520385 0.653058 0.402891
O O3 0.296862 0.567201 0.437575
O O4 0.199946 0.644873 0.560766
O O5 0.879304 0.628584 0.351927
O O6 0.884695 0.552981 0.197749
O O7 0.206014 0.725557 0.156832
O O8 0.381799 0.808525 0.176224
O O9 0.000000 0.803756 0.250000
O O10 0.196673 0.813309 0.037941
O O11 0.500000 0.399665 0.250000
O O12 0.152364 0.397628 0.409981
O O13 0.332967 0.482797 0.345982
O O14 0.000000 0.607770 0.750000
O O15 0.000000 0.500000 0.000000
#
# Coordination Sequence:
#
# PCOD8153495 Si02
#       7
#     8   4   8   8   8   8   8
#     4  12  25  46  72 109 150 194 257 310 389 452
#     4  12  28  52  76 114 162 200 260 326 392 450
#     4  11  23  48  78 112 148 203 259 313 398 459
#     4  12  25  43  71 106 143 196 251 319 378 455
#     4  11  25  47  78 109 153 203 252 328 389 458
#     4  12  23  42  71 108 145 189 251 317 376 456
#     4  12  28  46  74 107 151 206 255 315 385 467
#
# _framework density 22.598645999999999
#
# number of rings (size 3 to 8) (size 9 to 14) (size 15 to 20)
#    0.000    0.308    5.385    3.692    5.385    0.615 
#    2.769    0.000    0.000    0.000    0.000    0.000 
#    0.000    0.000    0.000    0.000    0.000    0.000 
#
# Total GULP energy -322107.209683 kJ/mol
# GULP energy per Si atom -12388.738834 kJ/mol
# Density = 2.254721 g / cm^3
# Si number density = 22.598646 Si / 1000 Ang^3
#
#
#
# Elastic Constant Matrix: (Units=GPa)
#
#
# Indices 1 2 3 4 5 6 
#
# 1 162.7686 61.9966 44.8269 0.0000 0.0315 0.0000
# 2 61.9966 140.7449 37.4808 0.0000 1.7196 0.0000
# 3 44.8269 37.4808 92.5835 0.0000 -6.5510 0.0000
# 4 0.0000 0.0000 0.0000 28.7855 0.0000 -10.8649
# 5 0.0315 1.7196 -6.5510 0.0000 49.5618 0.0000
# 6 0.0000 0.0000 0.0000 -10.8649 0.0000 40.6866
#
#
#
# Elastic Compliance Matrix: (Units=1/GPa)
#
#
# Indices 1 2 3 4 5 6 
#
# 1 0.007956 -0.002769 -0.002750 0.000000 -0.000273 0.000000
# 2 -0.002769 0.008952 -0.002327 0.000000 -0.000616 0.000000
# 3 -0.002750 -0.002327 0.013204 0.000000 0.001828 0.000000
# 4 0.000000 0.000000 0.000000 0.038634 0.000000 0.010317
# 5 -0.000273 -0.000616 0.001828 0.000000 0.020440 0.000000
# 6 0.000000 0.000000 0.000000 0.010317 0.000000 0.027333
#
#
# Mechanical properties :
#
#
# Convention : Reuss Voigt Hill
#
# Bulk Modulus (GPa) = 69.35096 76.07838 72.71467
# Shear Modulus (GPa) = 36.49173 40.59297 38.54235
#
# Velocity S-wave (km/s) = 4.02279 4.24282 4.13427
# Velocity P-wave (km/s) = 7.23407 7.59870 7.41862
#
# Compressibility (1/GPa) = 0.01441941
#
# Stress axis : x y z
#
# Youngs Moduli (GPa) = 125.69492 111.70868 75.73357
#
# Poissons Ratio (x) = 0.30928 0.20830
# Poissons Ratio (y) = 0.34800 0.17624
# Poissons Ratio (z) = 0.34572 0.25996
#
# Static dielectric constant tensor:
#      x y z
#    x 4.714970 0.000000 -0.414670 
#    y 0.000000 4.457630 0.000000 
#    z -0.414670 0.000000 4.532860 
# 
# 
# High freq. dielectric constant tensor:
#      x y z
#    x 1.900540 0.000000 -0.012660 
#    y 0.000000 1.907990 0.000000 
#    z -0.012660 0.000000 1.887910 
# 
# From -- ./inp_files/130701.got.cif
#   From: 2010.06.25/outbox.cif.g09.slc.cpg/sg15_66_cif.got.tgz:130701.got - 2010.06.28 07:06:18.
