data_PCOD8153070
_publ_section_title
;
Structure prediction by ZEFSAII (Michael W. Deem and Ramdas Pophale) SiO2 
 PCOD8153070
Probable space group: C 2/C
;
_chemical_formula_sum "Si O2"
_cell_formula_units_Z 64
_cell_length_a 29.234956
_cell_length_b 14.112591
_cell_length_c 20.751785
_cell_angle_alpha 90.000000
_cell_angle_beta 160.100349
_cell_angle_gamma 90.000000
_cell_volume 2914.209780
_symmetry_space_group_name_H-M "C 2/C"
_symmetry_group_IT_number 15
_symmetry_cell_setting 'monoclinic'
loop_
_space_group_symop_operation_xyz
x,y,z
-x,y,1/2-z
-x,-y,-z
x,-y,1/2+z
1/2+x,1/2+y,z
1/2-x,1/2+y,1/2-z
1/2-x,1/2-y,-z
1/2+x,1/2-y,1/2+z
loop_
_atom_site_type_symbol
_atom_site_label
_atom_site_fract_x
_atom_site_fract_y
_atom_site_fract_z
Si Si1 0.627917 0.933304 0.283296
Si Si2 0.025325 0.602723 0.470383
Si Si3 0.794669 0.539240 0.472033
Si Si4 0.591405 0.193652 0.970114
Si Si5 0.346237 0.764424 0.814843
Si Si6 0.810047 0.106106 0.914160
Si Si7 0.106055 0.341874 0.944278
Si Si8 0.004234 0.073578 0.447764
O O1 0.653196 0.978253 0.386625
O O2 0.768715 0.932599 0.429993
O O3 0.519742 0.993097 0.097548
O O4 0.559973 0.829105 0.203111
O O5 0.173570 0.619667 0.693552
O O6 0.017045 0.649931 0.389779
O O7 0.918788 0.653392 0.373436
O O8 0.881363 0.615441 0.547730
O O9 0.811867 0.438875 0.459773
O O10 0.645793 0.580744 0.277659
O O11 0.692545 0.192484 0.166037
O O12 0.604971 0.298249 0.958415
O O13 0.216162 0.739616 0.600382
O O14 0.442921 0.673997 0.955907
O O15 0.903319 0.040381 0.991163
O O16 0.000000 0.311222 0.750000
O O17 0.000000 0.000000 0.500000
#
# Coordination Sequence:
#
# PCOD8153070 Si02
#       8
#     8   8   8   8   8   8   8   8
#     4  12  26  45  71 102 138 188 234 286 357 413
#     4  12  22  45  72  96 139 178 238 291 338 426
#     4  12  24  44  71 100 139 186 232 282 353 427
#     4  11  23  42  70 100 135 178 231 283 345 417
#     4  11  25  42  69 105 133 179 231 295 342 412
#     4  11  25  44  67 107 138 179 241 287 346 419
#     4  12  23  46  71 100 137 182 233 282 356 424
#     4  11  23  43  70  99 142 185 227 283 354 419
#
# _framework density 21.961355999999999
#
# number of rings (size 3 to 8) (size 9 to 14) (size 15 to 20)
#    0.000    0.500    7.500    1.500    1.750    1.500 
#    4.500    0.000    0.000    0.000    0.000    0.000 
#    0.000    0.000    0.000    0.000    0.000    0.000 
#
# Total GULP energy -396572.536826 kJ/mol
# GULP energy per Si atom -12392.891776 kJ/mol
# Density = 2.191137 g / cm^3
# Si number density = 21.961356 Si / 1000 Ang^3
#
#
#
# Elastic Constant Matrix: (Units=GPa)
#
#
# Indices 1 2 3 4 5 6 
#
# 1 150.5531 34.6496 15.9789 -0.0002 5.9383 -0.0001
# 2 34.6496 56.7252 17.0916 -0.0002 0.0308 -0.0001
# 3 15.9789 17.0916 78.3178 -0.0004 5.0385 -0.0002
# 4 -0.0002 -0.0002 -0.0004 24.8067 -0.0002 3.8092
# 5 5.9383 0.0308 5.0385 -0.0002 39.5741 -0.0001
# 6 -0.0001 -0.0001 -0.0002 3.8092 -0.0001 32.2763
#
#
#
# Elastic Compliance Matrix: (Units=1/GPa)
#
#
# Indices 1 2 3 4 5 6 
#
# 1 0.007801 -0.004609 -0.000515 0.000000 -0.001101 0.000000
# 2 -0.004609 0.021604 -0.003849 0.000000 0.001165 0.000000
# 3 -0.000515 -0.003849 0.013822 0.000000 -0.001680 0.000000
# 4 0.000000 0.000000 0.000000 0.041056 0.000000 -0.004845
# 5 -0.001101 0.001165 -0.001680 0.000000 0.025647 0.000000
# 6 0.000000 0.000000 0.000000 -0.004845 0.000000 0.031554
#
#
# Mechanical properties :
#
#
# Convention : Reuss Voigt Hill
#
# Bulk Modulus (GPa) = 39.55781 46.78182 43.16981
# Shear Modulus (GPa) = 29.78729 33.85651 31.82190
#
# Velocity S-wave (km/s) = 3.68686 3.93063 3.81070
# Velocity P-wave (km/s) = 6.01461 6.47672 6.24994
#
# Compressibility (1/GPa) = 0.02527946
#
# Stress axis : x y z
#
# Youngs Moduli (GPa) = 128.18663 46.28859 72.35059
#
# Poissons Ratio (x) = 0.21337 0.03725
# Poissons Ratio (y) = 0.59087 0.27849
# Poissons Ratio (z) = 0.06599 0.17817
#
# Static dielectric constant tensor:
#      x y z
#    x 4.510220 0.000000 0.112140 
#    y 0.000000 3.829660 0.000000 
#    z 0.112140 0.000000 4.094990 
# 
# 
# High freq. dielectric constant tensor:
#      x y z
#    x 1.891180 0.000000 -0.002540 
#    y 0.000000 1.841940 0.000000 
#    z -0.002540 0.000000 1.854740 
# 
# From -- ./inp_files/259465.got.cif
#   From: 2010.06.25/outbox.cif.g09.slc.cpg/sg15_130_cif.got.tgz:259465.got - 2010.06.28 07:06:18.
