data_PCOD8154749
_publ_section_title
;
Structure prediction by ZEFSAII (Michael W. Deem and Ramdas Pophale) SiO2 
 PCOD8154749
Probable space group: C 2/C
;
_chemical_formula_sum "Si O2"
_cell_formula_units_Z 36
_cell_length_a 12.296430
_cell_length_b 15.612819
_cell_length_c 8.312663
_cell_angle_alpha 90.000000
_cell_angle_beta 68.762035
_cell_angle_gamma 90.000000
_cell_volume 1487.495239
_symmetry_space_group_name_H-M "C 2/C"
_symmetry_group_IT_number 15
_symmetry_cell_setting 'monoclinic'
loop_
_space_group_symop_operation_xyz
x,y,z
-x,y,1/2-z
-x,-y,-z
x,-y,1/2+z
1/2+x,1/2+y,z
1/2-x,1/2+y,1/2-z
1/2-x,1/2-y,-z
1/2+x,1/2-y,1/2+z
loop_
_atom_site_type_symbol
_atom_site_label
_atom_site_fract_x
_atom_site_fract_y
_atom_site_fract_z
Si Si1 0.142346 0.751017 0.439044
Si Si2 0.508872 0.404929 0.057800
Si Si3 0.628769 0.034038 0.896163
Si Si4 0.767097 0.616895 0.341574
Si Si5 0.500000 0.147669 0.750000
O O1 0.250000 0.750000 0.500000
O O2 0.173534 0.705149 0.252407
O O3 0.034336 0.701974 0.576430
O O4 0.101148 0.848565 0.439617
O O5 0.500000 0.408518 0.250000
O O6 0.500000 0.500000 0.000000
O O7 0.630339 0.364184 0.933401
O O8 0.613562 0.092917 0.745130
O O9 0.714751 0.956332 0.804353
O O10 0.677709 0.088399 0.018763
O O11 0.500000 0.000000 0.000000
#
# Coordination Sequence:
#
# PCOD8154749 Si02
#       5
#     8   8   8   8   4
#     4  12  30  51  78 114 157 212 270 336 406 484
#     4  12  32  53  80 116 162 213 271 335 417 487
#     4  12  23  44  79 120 152 210 260 328 401 485
#     4  12  26  49  81 112 165 205 270 333 406 479
#     4  12  26  44  78 112 162 198 272 322 400 470
#
# _framework density 24.201757000000001
#
# number of rings (size 3 to 8) (size 9 to 14) (size 15 to 20)
#    0.000    0.000    4.444    2.667   17.111    0.889 
#    0.000    0.000    0.000    0.000    0.000    0.000 
#    0.000    0.000    0.000    0.000    0.000    0.000 
#
# Total GULP energy -223269.423297 kJ/mol
# GULP energy per Si atom -12403.856850 kJ/mol
# Density = 2.414667 g / cm^3
# Si number density = 24.201757 Si / 1000 Ang^3
#
#
#
# Elastic Constant Matrix: (Units=GPa)
#
#
# Indices 1 2 3 4 5 6 
#
# 1 146.6099 68.1027 53.3204 0.0000 7.0066 0.0000
# 2 68.1027 166.0547 55.7526 0.0000 3.8889 0.0000
# 3 53.3204 55.7526 130.8305 0.0000 -7.6230 0.0000
# 4 0.0000 0.0000 0.0000 3.5870 0.0000 -14.5620
# 5 7.0066 3.8889 -7.6230 0.0000 48.2375 0.0000
# 6 0.0000 0.0000 0.0000 -14.5620 0.0000 31.3154
#
#
#
# Elastic Compliance Matrix: (Units=1/GPa)
#
#
# Indices 1 2 3 4 5 6 
#
# 1 0.009165 -0.002847 -0.002610 0.000000 -0.001514 0.000000
# 2 -0.002847 0.007965 -0.002268 0.000000 -0.000587 0.000000
# 3 -0.002610 -0.002268 0.009797 0.000000 0.002110 0.000000
# 4 0.000000 0.000000 0.000000 -0.314027 0.000000 -0.146026
# 5 -0.001514 -0.000587 0.002110 0.000000 0.021332 0.000000
# 6 0.000000 0.000000 0.000000 -0.146026 0.000000 -0.035970
#
#
# Mechanical properties :
#
#
# Convention : Reuss Voigt Hill
#
# Bulk Modulus (GPa) = 87.13755 88.64961 87.89358
# Shear Modulus (GPa) = -17.70145 34.38259 8.34057
#
# Velocity S-wave (km/s) = -2.70740 3.77326 1.85843
# Velocity P-wave (km/s) = 5.12928 7.46272 6.40319
#
# Compressibility (1/GPa) = 0.01147611
#
# Stress axis : x y z
#
# Youngs Moduli (GPa) = 109.11159 125.54972 102.07406
#
# Poissons Ratio (x) = 0.35743 0.26644
# Poissons Ratio (y) = 0.31063 0.23152
# Poissons Ratio (z) = 0.28481 0.28477
#
# Static dielectric constant tensor:
#      x y z
#    x 4.616910 0.000000 -0.057550 
#    y 0.000000 4.641410 0.000000 
#    z -0.057550 0.000000 4.729480 
# 
# 
# High freq. dielectric constant tensor:
#      x y z
#    x 1.961010 0.000000 -0.003610 
#    y 0.000000 1.968340 0.000000 
#    z -0.003610 0.000000 1.979980 
# 
# From -- ./inp_files/28990.got.cif
#   From: 2010.06.25/outbox.cif.g09.slc.cpg/sg15_15_cif.got.tgz:28990.got - 2010.06.28 07:06:18.
