data_PCOD8154544
_publ_section_title
;
Structure prediction by ZEFSAII (Michael W. Deem and Ramdas Pophale) SiO2 
 PCOD8154544
Probable space group: C 2/C
;
_chemical_formula_sum "Si O2"
_cell_formula_units_Z 44
_cell_length_a 16.045431
_cell_length_b 11.170636
_cell_length_c 11.694498
_cell_angle_alpha 90.000000
_cell_angle_beta 101.345475
_cell_angle_gamma 90.000000
_cell_volume 2055.134422
_symmetry_space_group_name_H-M "C 2/C"
_symmetry_group_IT_number 15
_symmetry_cell_setting 'monoclinic'
loop_
_space_group_symop_operation_xyz
x,y,z
-x,y,1/2-z
-x,-y,-z
x,-y,1/2+z
1/2+x,1/2+y,z
1/2-x,1/2+y,1/2-z
1/2-x,1/2-y,-z
1/2+x,1/2-y,1/2+z
loop_
_atom_site_type_symbol
_atom_site_label
_atom_site_fract_x
_atom_site_fract_y
_atom_site_fract_z
Si Si1 0.368359 0.153189 0.331732
Si Si2 0.089766 0.282344 0.402137
Si Si3 0.819468 0.906947 0.717669
Si Si4 0.908924 0.135377 0.678613
Si Si5 0.500000 0.987061 0.250000
Si Si6 0.948453 0.883535 0.946548
O O1 0.373017 0.198655 0.462290
O O2 0.280906 0.082678 0.288989
O O3 0.367071 0.266310 0.247564
O O4 0.448065 0.069117 0.324437
O O5 0.159854 0.216016 0.343484
O O6 0.066626 0.409053 0.340041
O O7 0.005134 0.201687 0.382649
O O8 0.865121 0.917282 0.852734
O O9 0.848161 0.020484 0.650610
O O10 0.920396 0.187837 0.553566
O O11 0.000000 0.091598 0.750000
O O12 0.000000 0.000000 0.000000
#
# Coordination Sequence:
#
# PCOD8154544 Si02
#       6
#     8   8   8   8   4   8
#     4  12  28  46  69 103 144 183 234 288 354 415
#     4  12  23  46  74  98 141 188 227 287 352 419
#     4  12  26  41  71 110 133 178 237 298 338 408
#     4  12  23  44  72  98 137 186 228 283 349 411
#     4  12  26  48  70  98 144 192 230 274 364 422
#     4  12  21  42  73 102 137 179 234 282 345 413
#
# _framework density 21.409790999999998
#
# number of rings (size 3 to 8) (size 9 to 14) (size 15 to 20)
#    0.000    0.000    8.182    1.091    2.545    2.182 
#    0.000    0.000    0.000    0.000    0.000    0.000 
#    0.000    0.000    0.000    0.000    0.000    0.000 
#
# Total GULP energy -272970.975930 kJ/mol
# GULP energy per Si atom -12407.771633 kJ/mol
# Density = 2.136106 g / cm^3
# Si number density = 21.409791 Si / 1000 Ang^3
#
#
#
# Elastic Constant Matrix: (Units=GPa)
#
#
# Indices 1 2 3 4 5 6 
#
# 1 112.2342 30.1491 13.7315 0.0000 -3.9717 0.0000
# 2 30.1491 94.6481 13.6454 0.0000 -9.4725 0.0000
# 3 13.7315 13.6454 108.6934 0.0000 -18.3075 0.0000
# 4 0.0000 0.0000 0.0000 34.3104 0.0000 -1.2860
# 5 -3.9717 -9.4725 -18.3075 0.0000 22.3971 0.0000
# 6 0.0000 0.0000 0.0000 -1.2860 0.0000 28.2920
#
#
#
# Elastic Compliance Matrix: (Units=1/GPa)
#
#
# Indices 1 2 3 4 5 6 
#
# 1 0.009824 -0.003026 -0.000908 0.000000 -0.000280 0.000000
# 2 -0.003026 0.012010 -0.000418 0.000000 0.004201 0.000000
# 3 -0.000908 -0.000418 0.010797 0.000000 0.008488 0.000000
# 4 0.000000 0.000000 0.000000 0.029195 0.000000 0.001327
# 5 -0.000280 0.004201 0.008488 0.000000 0.053314 0.000000
# 6 0.000000 0.000000 0.000000 0.001327 0.000000 0.035406
#
#
# Mechanical properties :
#
#
# Convention : Reuss Voigt Hill
#
# Bulk Modulus (GPa) = 41.79544 47.84753 44.82149
# Shear Modulus (GPa) = 29.89945 34.20320 32.05133
#
# Velocity S-wave (km/s) = 3.74107 4.00127 3.87336
# Velocity P-wave (km/s) = 6.18263 6.61391 6.40190
#
# Compressibility (1/GPa) = 0.02392605
#
# Stress axis : x y z
#
# Youngs Moduli (GPa) = 101.78995 83.26248 92.61826
#
# Poissons Ratio (x) = 0.25199 0.08413
# Poissons Ratio (y) = 0.30807 0.03869
# Poissons Ratio (z) = 0.09247 0.03479
#
# Static dielectric constant tensor:
#      x y z
#    x 3.815260 0.000000 -0.197030 
#    y 0.000000 3.820230 0.000000 
#    z -0.197030 0.000000 4.068450 
# 
# 
# High freq. dielectric constant tensor:
#      x y z
#    x 1.832810 0.000000 -0.010180 
#    y 0.000000 1.837680 0.000000 
#    z -0.010180 0.000000 1.856000 
# 
# From -- ./inp_files/95009.got.cif
#   From: 2010.06.25/outbox.cif.g09.slc.cpg/sg15_48_cif.got.tgz:95009.got - 2010.06.28 07:06:18.
