data_PCOD8154050
_publ_section_title
;
Structure prediction by ZEFSAII (Michael W. Deem and Ramdas Pophale) SiO2 
 PCOD8154050
Probable space group: C 2/C
;
_chemical_formula_sum "Si O2"
_cell_formula_units_Z 48
_cell_length_a 5.310646
_cell_length_b 29.733633
_cell_length_c 14.767297
_cell_angle_alpha 90.000000
_cell_angle_beta 69.726431
_cell_angle_gamma 90.000000
_cell_volume 2187.367766
_symmetry_space_group_name_H-M "C 2/C"
_symmetry_group_IT_number 15
_symmetry_cell_setting 'monoclinic'
loop_
_space_group_symop_operation_xyz
x,y,z
-x,y,1/2-z
-x,-y,-z
x,-y,1/2+z
1/2+x,1/2+y,z
1/2-x,1/2+y,1/2-z
1/2-x,1/2-y,-z
1/2+x,1/2-y,1/2+z
loop_
_atom_site_type_symbol
_atom_site_label
_atom_site_fract_x
_atom_site_fract_y
_atom_site_fract_z
Si Si1 0.687601 0.759121 0.310239
Si Si2 0.500000 0.983197 0.750000
Si Si3 0.839585 0.671009 0.356627
Si Si4 0.000000 0.075652 0.250000
Si Si5 0.613129 0.614510 0.050537
Si Si6 0.291051 0.021479 0.956017
Si Si7 0.595584 0.796112 0.999788
O O1 0.500000 0.773573 0.250000
O O2 0.615751 0.707011 0.347818
O O3 0.650539 0.793601 0.398508
O O4 0.000000 0.760079 0.250000
O O5 0.233616 0.954249 0.764978
O O6 0.426149 0.015697 0.841942
O O7 0.705100 0.627039 0.421382
O O8 0.000000 0.652283 0.250000
O O9 0.010157 0.700652 0.405824
O O10 0.854726 0.105868 0.345165
O O11 0.734239 0.573886 0.978844
O O12 0.755117 0.658245 0.994206
O O13 0.500000 0.000000 0.000000
O O14 0.000000 0.000000 0.000000
O O15 0.750000 0.750000 0.000000
#
# Coordination Sequence:
#
# PCOD8154050 Si02
#       7
#     8   4   8   4   8   8   8
#     4  11  25  45  69  96 142 199 248 294 355 424
#     4  12  24  52  74 105 150 193 236 314 382 452
#     4  11  25  41  71 107 145 189 249 313 367 422
#     4  12  26  44  80 109 140 187 242 320 386 434
#     4  12  27  41  74 109 146 187 251 304 374 444
#     4  12  26  49  76 109 145 193 238 305 383 448
#     4  12  25  46  69 105 153 198 245 301 371 433
#
# _framework density 21.944184
#
# number of rings (size 3 to 8) (size 9 to 14) (size 15 to 20)
#    0.000    0.333    5.000    3.500    9.333    0.000 
#    1.500    0.000    0.000    0.000    0.000    0.000 
#    0.000    0.000    0.000    0.000    0.000    0.000 
#
# Total GULP energy -297396.725443 kJ/mol
# GULP energy per Si atom -12391.530227 kJ/mol
# Density = 2.189424 g / cm^3
# Si number density = 21.944184 Si / 1000 Ang^3
#
#
#
# Elastic Constant Matrix: (Units=GPa)
#
#
# Indices 1 2 3 4 5 6 
#
# 1 127.8419 56.7210 45.5870 0.0000 6.9044 0.0000
# 2 56.7210 159.5958 64.3912 0.0000 -14.9709 0.0000
# 3 45.5870 64.3912 131.5884 0.0000 -2.3933 0.0000
# 4 0.0000 0.0000 0.0000 51.9797 0.0000 -6.6519
# 5 6.9044 -14.9709 -2.3933 0.0000 31.4255 0.0000
# 6 0.0000 0.0000 0.0000 -6.6519 0.0000 26.1958
#
#
#
# Elastic Compliance Matrix: (Units=1/GPa)
#
#
# Indices 1 2 3 4 5 6 
#
# 1 0.010160 -0.003149 -0.002050 0.000000 -0.003888 0.000000
# 2 -0.003149 0.009171 -0.003310 0.000000 0.004809 0.000000
# 3 -0.002050 -0.003310 0.009922 0.000000 -0.000371 0.000000
# 4 0.000000 0.000000 0.000000 0.019884 0.000000 0.005049
# 5 -0.003888 0.004809 -0.000371 0.000000 0.034938 0.000000
# 6 0.000000 0.000000 0.000000 0.005049 0.000000 0.039456
#
#
# Mechanical properties :
#
#
# Convention : Reuss Voigt Hill
#
# Bulk Modulus (GPa) = 81.71510 83.60273 82.65891
# Shear Modulus (GPa) = 34.57148 38.74200 36.65674
#
# Velocity S-wave (km/s) = 3.97347 4.20632 4.09155
# Velocity P-wave (km/s) = 7.64002 7.85948 7.75053
#
# Compressibility (1/GPa) = 0.01223764
#
# Stress axis : x y z
#
# Youngs Moduli (GPa) = 98.42417 109.03614 100.78274
#
# Poissons Ratio (x) = 0.34332 0.20658
# Poissons Ratio (y) = 0.30991 0.33355
# Poissons Ratio (z) = 0.20175 0.36086
#
# Static dielectric constant tensor:
#      x y z
#    x 4.409260 0.000000 0.153190 
#    y 0.000000 4.283010 0.000000 
#    z 0.153190 0.000000 5.431130 
# 
# 
# High freq. dielectric constant tensor:
#      x y z
#    x 1.873560 0.000000 -0.012770 
#    y 0.000000 1.853980 0.000000 
#    z -0.012770 0.000000 1.873890 
# 
# From -- ./inp_files/130334.got.cif
#   From: 2010.06.25/outbox.cif.g09.slc.cpg/sg15_66_cif.got.tgz:130334.got - 2010.06.28 07:06:18.
