data_PCOD8154692
_publ_section_title
;
Structure prediction by ZEFSAII (Michael W. Deem and Ramdas Pophale) SiO2 
 PCOD8154692
Probable space group: C 2/C
;
_chemical_formula_sum "Si O2"
_cell_formula_units_Z 40
_cell_length_a 27.092732
_cell_length_b 6.780395
_cell_length_c 10.202888
_cell_angle_alpha 90.000000
_cell_angle_beta 72.188488
_cell_angle_gamma 90.000000
_cell_volume 1784.427312
_symmetry_space_group_name_H-M "C 2/C"
_symmetry_group_IT_number 15
_symmetry_cell_setting 'monoclinic'
loop_
_space_group_symop_operation_xyz
x,y,z
-x,y,1/2-z
-x,-y,-z
x,-y,1/2+z
1/2+x,1/2+y,z
1/2-x,1/2+y,1/2-z
1/2-x,1/2-y,-z
1/2+x,1/2-y,1/2+z
loop_
_atom_site_type_symbol
_atom_site_label
_atom_site_fract_x
_atom_site_fract_y
_atom_site_fract_z
Si Si1 0.096432 0.924009 0.949011
Si Si2 0.766786 0.573293 0.075866
Si Si3 0.872234 0.587859 0.398317
Si Si4 0.821099 0.175083 0.736488
Si Si5 0.058466 0.205124 0.202024
O O1 0.069635 0.907175 0.829009
O O2 0.153166 0.024861 0.888794
O O3 0.102416 0.702945 0.000526
O O4 0.063030 0.054345 0.076957
O O5 0.787806 0.653878 0.196442
O O6 0.716253 0.440873 0.135494
O O7 0.750000 0.750000 0.000000
O O8 0.811733 0.450595 0.971085
O O9 0.870363 0.728862 0.272475
O O10 0.902899 0.387714 0.347549
O O11 0.000000 0.287008 0.250000
#
# Coordination Sequence:
#
# PCOD8154692 Si02
#       5
#     8   8   8   8   8
#     4  12  25  50  74 106 149 184 245 303 359 436
#     4  12  23  40  67 102 145 190 239 289 356 429
#     4  12  25  46  72 105 148 189 244 296 360 433
#     4  12  23  43  67 106 143 190 237 292 359 425
#     4  12  28  49  77 107 142 192 243 306 367 424
#
# _framework density 22.416153000000001
#
# number of rings (size 3 to 8) (size 9 to 14) (size 15 to 20)
#    0.000    0.000    4.000    7.200    0.000    1.600 
#    0.000    0.000    0.000    0.000    0.000    0.000 
#    0.000    0.000    0.000    0.000    0.000    0.000 
#
# Total GULP energy -248101.340961 kJ/mol
# GULP energy per Si atom -12405.067048 kJ/mol
# Density = 2.236513 g / cm^3
# Si number density = 22.416153 Si / 1000 Ang^3
#
#
#
# Elastic Constant Matrix: (Units=GPa)
#
#
# Indices 1 2 3 4 5 6 
#
# 1 88.4987 36.7400 40.3509 0.0000 -4.6195 0.0000
# 2 36.7400 111.1006 50.6677 0.0000 5.8178 0.0000
# 3 40.3509 50.6677 120.2858 0.0000 9.8055 0.0000
# 4 0.0000 0.0000 0.0000 42.5903 0.0000 7.7109
# 5 -4.6195 5.8178 9.8055 0.0000 33.9491 0.0000
# 6 0.0000 0.0000 0.0000 7.7109 0.0000 31.7405
#
#
#
# Elastic Compliance Matrix: (Units=1/GPa)
#
#
# Indices 1 2 3 4 5 6 
#
# 1 0.014588 -0.003277 -0.003810 0.000000 0.003647 0.000000
# 2 -0.003277 0.011888 -0.003795 0.000000 -0.001387 0.000000
# 3 -0.003810 -0.003795 0.011449 0.000000 -0.003175 0.000000
# 4 0.000000 0.000000 0.000000 0.024560 0.000000 -0.005966
# 5 0.003647 -0.001387 -0.003175 0.000000 0.031107 0.000000
# 6 0.000000 0.000000 0.000000 -0.005966 0.000000 0.032955
#
#
# Mechanical properties :
#
#
# Convention : Reuss Voigt Hill
#
# Bulk Modulus (GPa) = 61.88340 63.93356 62.90848
# Shear Modulus (GPa) = 32.53113 34.46440 33.49777
#
# Velocity S-wave (km/s) = 3.81364 3.92533 3.86989
# Velocity P-wave (km/s) = 6.85991 7.00909 6.93490
#
# Compressibility (1/GPa) = 0.01615942
#
# Stress axis : x y z
#
# Youngs Moduli (GPa) = 68.54988 84.11826 87.34231
#
# Poissons Ratio (x) = 0.27568 0.33281
# Poissons Ratio (y) = 0.22466 0.33147
# Poissons Ratio (z) = 0.26121 0.31924
#
# Static dielectric constant tensor:
#      x y z
#    x 4.089060 0.000000 -0.141240 
#    y 0.000000 4.283970 0.000000 
#    z -0.141240 0.000000 4.166520 
# 
# 
# High freq. dielectric constant tensor:
#      x y z
#    x 1.876400 0.000000 0.006210 
#    y 0.000000 1.897460 0.000000 
#    z 0.006210 0.000000 1.897420 
# 
# From -- ./inp_files/120757.got.cif
#   From: 2010.06.25/outbox.cif.g09.slc.cpg/sg15_61_cif.got.tgz:120757.got - 2010.06.28 07:06:18.
