data_PCOD8154276
_publ_section_title
;
Structure prediction by ZEFSAII (Michael W. Deem and Ramdas Pophale) SiO2 
 PCOD8154276
Probable space group: C 2/C
;
_chemical_formula_sum "Si O2"
_cell_formula_units_Z 64
_cell_length_a 10.712857
_cell_length_b 9.105927
_cell_length_c 28.625363
_cell_angle_alpha 90.000000
_cell_angle_beta 89.605636
_cell_angle_gamma 90.000000
_cell_volume 2792.352151
_symmetry_space_group_name_H-M "C 2/C"
_symmetry_group_IT_number 15
_symmetry_cell_setting 'monoclinic'
loop_
_space_group_symop_operation_xyz
x,y,z
-x,y,1/2-z
-x,-y,-z
x,-y,1/2+z
1/2+x,1/2+y,z
1/2-x,1/2+y,1/2-z
1/2-x,1/2-y,-z
1/2+x,1/2-y,1/2+z
loop_
_atom_site_type_symbol
_atom_site_label
_atom_site_fract_x
_atom_site_fract_y
_atom_site_fract_z
Si Si1 0.870973 0.808981 0.775552
Si Si2 0.729466 0.092237 0.440467
Si Si3 0.531209 0.862944 0.531972
Si Si4 0.875004 0.921524 0.513451
Si Si5 0.377497 0.786110 0.375887
Si Si6 0.348613 0.135218 0.634556
Si Si7 0.866438 0.498577 0.736163
Si Si8 0.235834 0.422218 0.605293
O O1 0.877765 0.826528 0.831723
O O2 0.850740 0.636508 0.769818
O O3 0.000000 0.862490 0.750000
O O4 0.750971 0.892316 0.755059
O O5 0.604921 0.189883 0.449318
O O6 0.835144 0.205420 0.423550
O O7 0.762771 0.006250 0.487797
O O8 0.721092 0.972920 0.399763
O O9 0.613085 0.746619 0.502977
O O10 0.607122 0.899181 0.578254
O O11 0.500000 0.000000 0.500000
O O12 0.850885 0.930349 0.568646
O O13 0.000000 0.000000 0.500000
O O14 0.516563 0.834485 0.387455
O O15 0.284659 0.925617 0.366403
O O16 0.368451 0.057984 0.683804
O O17 0.267698 0.286343 0.640020
O O18 0.000000 0.421930 0.750000
#
# Coordination Sequence:
#
# PCOD8154276 Si02
#       8
#     8   8   8   8   8   8   8   8
#     4  11  25  48  75 109 146 182 235 295 366 439
#     4  12  25  44  72 101 145 184 241 297 348 419
#     4  12  24  42  67  96 138 192 242 289 353 410
#     4  12  26  44  65 100 140 195 245 289 351 411
#     4  12  26  45  71 108 138 185 237 293 358 421
#     4  12  24  47  70 103 143 182 236 299 349 422
#     4  11  25  48  78 106 144 191 231 293 369 441
#     4  12  26  42  70 101 142 189 239 293 349 418
#
# _framework density 22.919744999999999
#
# number of rings (size 3 to 8) (size 9 to 14) (size 15 to 20)
#    0.000    0.250    7.500    2.625    3.500    1.500 
#    0.000    1.250    0.000    0.000    0.000    0.000 
#    0.000    0.000    0.000    0.000    0.000    0.000 
#
# Total GULP energy -396780.404311 kJ/mol
# GULP energy per Si atom -12399.387635 kJ/mol
# Density = 2.286758 g / cm^3
# Si number density = 22.919745 Si / 1000 Ang^3
#
#
#
# Elastic Constant Matrix: (Units=GPa)
#
#
# Indices 1 2 3 4 5 6 
#
# 1 147.2007 44.0315 18.6680 0.0000 -11.5811 0.0000
# 2 44.0315 68.4274 1.8382 0.0000 -5.2562 0.0000
# 3 18.6680 1.8382 77.5553 0.0000 -4.3539 0.0000
# 4 0.0000 0.0000 0.0000 29.6761 0.0000 2.1724
# 5 -11.5811 -5.2562 -4.3539 0.0000 34.8160 0.0000
# 6 0.0000 0.0000 0.0000 2.1724 0.0000 40.6021
#
#
#
# Elastic Compliance Matrix: (Units=1/GPa)
#
#
# Indices 1 2 3 4 5 6 
#
# 1 0.008819 -0.005481 -0.001888 0.000000 0.001870 0.000000
# 2 -0.005481 0.018195 0.000947 0.000000 0.001042 0.000000
# 3 -0.001888 0.000947 0.013393 0.000000 0.001190 0.000000
# 4 0.000000 0.000000 0.000000 0.033830 0.000000 -0.001810
# 5 0.001870 0.001042 0.001190 0.000000 0.029651 0.000000
# 6 0.000000 0.000000 0.000000 -0.001810 0.000000 0.024726
#
#
# Mechanical properties :
#
#
# Convention : Reuss Voigt Hill
#
# Bulk Modulus (GPa) = 36.28028 46.91763 41.59896
# Shear Modulus (GPa) = 33.19035 36.26191 34.72613
#
# Velocity S-wave (km/s) = 3.80953 3.98191 3.89668
# Velocity P-wave (km/s) = 5.93411 6.45412 6.19957
#
# Compressibility (1/GPa) = 0.02756318
#
# Stress axis : x y z
#
# Youngs Moduli (GPa) = 113.38576 54.95897 74.66678
#
# Poissons Ratio (x) = 0.30122 0.14097
# Poissons Ratio (y) = 0.62144 -0.07067
# Poissons Ratio (z) = 0.21407 -0.05202
#
# Static dielectric constant tensor:
#      x y z
#    x 5.118640 0.000000 0.468930 
#    y 0.000000 4.591760 0.000000 
#    z 0.468930 0.000000 4.570980 
# 
# 
# High freq. dielectric constant tensor:
#      x y z
#    x 1.921670 0.000000 -0.004910 
#    y 0.000000 1.897080 0.000000 
#    z -0.004910 0.000000 1.903450 
# 
# From -- ./inp_files/310323.got.cif
#   From: 2010.06.25/outbox.cif.g09.slc.cpg/sg15_156_cif.got.tgz:310323.got - 2010.06.28 07:06:18.
