data_PCOD8154953
_publ_section_title
;
Structure prediction by ZEFSAII (Michael W. Deem and Ramdas Pophale) SiO2 
 PCOD8154953
Probable space group: C 2/C
;
_chemical_formula_sum "Si O2"
_cell_formula_units_Z 48
_cell_length_a 9.122228
_cell_length_b 11.652934
_cell_length_c 21.372157
_cell_angle_alpha 90.000000
_cell_angle_beta 106.539622
_cell_angle_gamma 90.000000
_cell_volume 2177.872519
_symmetry_space_group_name_H-M "C 2/C"
_symmetry_group_IT_number 15
_symmetry_cell_setting 'monoclinic'
loop_
_space_group_symop_operation_xyz
x,y,z
-x,y,1/2-z
-x,-y,-z
x,-y,1/2+z
1/2+x,1/2+y,z
1/2-x,1/2+y,1/2-z
1/2-x,1/2-y,-z
1/2+x,1/2-y,1/2+z
loop_
_atom_site_type_symbol
_atom_site_label
_atom_site_fract_x
_atom_site_fract_y
_atom_site_fract_z
Si Si1 0.388414 0.755834 0.065058
Si Si2 0.556422 0.602942 0.642041
Si Si3 0.625699 0.658198 0.002817
Si Si4 0.183202 0.495044 0.400771
Si Si5 0.059657 0.353709 0.689253
Si Si6 0.118146 0.099837 0.316061
O O1 0.353017 0.687617 0.124121
O O2 0.414936 0.888233 0.086111
O O3 0.250000 0.750000 0.000000
O O4 0.541247 0.705838 0.053947
O O5 0.491282 0.636662 0.566758
O O6 0.718278 0.540220 0.648779
O O7 0.582920 0.717559 0.685045
O O8 0.441711 0.522172 0.666267
O O9 0.750000 0.750000 0.000000
O O10 0.703264 0.537510 0.030467
O O11 0.067944 0.599296 0.373753
O O12 0.219074 0.419694 0.697431
O O13 0.000000 0.384886 0.750000
O O14 0.000000 0.149707 0.250000
#
# Coordination Sequence:
#
# PCOD8154953 Si02
#       6
#     8   8   8   8   8   8
#     4  12  25  47  76 108 148 192 244 305 364 434
#     4  12  24  50  72 105 146 192 240 303 366 433
#     4  12  25  43  74 108 147 189 240 300 366 433
#     4  12  25  45  72 105 144 187 236 299 365 429
#     4  12  28  47  71 105 142 187 252 295 358 446
#     4  12  27  49  74 104 147 197 242 302 376 436
#
# _framework density 22.039859
#
# number of rings (size 3 to 8) (size 9 to 14) (size 15 to 20)
#    0.000    0.000    6.667    3.000    2.333    1.333 
#    3.000    0.000    0.000    0.000    0.000    0.000 
#    0.000    0.000    0.000    0.000    0.000    0.000 
#
# Total GULP energy -297752.113241 kJ/mol
# GULP energy per Si atom -12406.338052 kJ/mol
# Density = 2.198969 g / cm^3
# Si number density = 22.039859 Si / 1000 Ang^3
#
#
#
# Elastic Constant Matrix: (Units=GPa)
#
#
# Indices 1 2 3 4 5 6 
#
# 1 141.2651 37.7040 37.0455 0.0000 -10.1102 0.0000
# 2 37.7040 112.7601 17.1346 0.0000 -5.4842 0.0000
# 3 37.0455 17.1346 101.5373 0.0000 -7.2460 0.0000
# 4 0.0000 0.0000 0.0000 24.7075 0.0000 -6.7765
# 5 -10.1102 -5.4842 -7.2460 0.0000 33.9599 0.0000
# 6 0.0000 0.0000 0.0000 -6.7765 0.0000 43.9530
#
#
#
# Elastic Compliance Matrix: (Units=1/GPa)
#
#
# Indices 1 2 3 4 5 6 
#
# 1 0.008505 -0.002373 -0.002589 0.000000 0.001597 0.000000
# 2 -0.002373 0.009809 -0.000738 0.000000 0.000720 0.000000
# 3 -0.002589 -0.000738 0.011022 0.000000 0.001462 0.000000
# 4 0.000000 0.000000 0.000000 0.042261 0.000000 0.006516
# 5 0.001597 0.000720 0.001462 0.000000 0.030350 0.000000
# 6 0.000000 0.000000 0.000000 0.006516 0.000000 0.023756
#
#
# Mechanical properties :
#
#
# Convention : Reuss Voigt Hill
#
# Bulk Modulus (GPa) = 55.75172 59.92561 57.83867
# Shear Modulus (GPa) = 34.94508 38.10265 36.52386
#
# Velocity S-wave (km/s) = 3.98620 4.16240 4.07526
# Velocity P-wave (km/s) = 6.82182 7.09574 6.96012
#
# Compressibility (1/GPa) = 0.01793667
#
# Stress axis : x y z
#
# Youngs Moduli (GPa) = 117.57262 101.94695 90.72773
#
# Poissons Ratio (x) = 0.24191 0.23487
# Poissons Ratio (y) = 0.27899 0.06697
# Poissons Ratio (z) = 0.30437 0.07525
#
# Static dielectric constant tensor:
#      x y z
#    x 4.196670 0.000000 -0.055230 
#    y 0.000000 11.145750 0.000000 
#    z -0.055230 0.000000 4.008680 
# 
# 
# High freq. dielectric constant tensor:
#      x y z
#    x 1.878940 0.000000 -0.006420 
#    y 0.000000 1.876360 0.000000 
#    z -0.006420 0.000000 1.868410 
# 
# From -- ./inp_files/263072.got.cif
#   From: 2010.06.25/outbox.cif.g09.slc.cpg/sg15_132_cif.got.tgz:263072.got - 2010.06.28 07:06:18.
