data_PCOD8154095
_publ_section_title
;
Structure prediction by ZEFSAII (Michael W. Deem and Ramdas Pophale) SiO2 
 PCOD8154095
Probable space group: C 2/C
;
_chemical_formula_sum "Si O2"
_cell_formula_units_Z 40
_cell_length_a 8.673283
_cell_length_b 24.764643
_cell_length_c 7.992717
_cell_angle_alpha 90.000000
_cell_angle_beta 95.437007
_cell_angle_gamma 90.000000
_cell_volume 1709.037978
_symmetry_space_group_name_H-M "C 2/C"
_symmetry_group_IT_number 15
_symmetry_cell_setting 'monoclinic'
loop_
_space_group_symop_operation_xyz
x,y,z
-x,y,1/2-z
-x,-y,-z
x,-y,1/2+z
1/2+x,1/2+y,z
1/2-x,1/2+y,1/2-z
1/2-x,1/2-y,-z
1/2+x,1/2-y,1/2+z
loop_
_atom_site_type_symbol
_atom_site_label
_atom_site_fract_x
_atom_site_fract_y
_atom_site_fract_z
Si Si1 0.328162 0.207323 0.293816
Si Si2 0.329750 0.396579 0.795543
Si Si3 0.376754 0.018937 0.354231
Si Si4 0.171370 0.079164 0.823117
Si Si5 0.174064 0.317544 0.318078
O O1 0.500000 0.219976 0.250000
O O2 0.256940 0.159537 0.176823
O O3 0.228023 0.260626 0.247428
O O4 0.314487 0.186251 0.481700
O O5 0.500000 0.383010 0.750000
O O6 0.251512 0.433581 0.639214
O O7 0.325231 0.425513 0.974856
O O8 0.500000 0.048570 0.250000
O O9 0.289899 0.966492 0.268217
O O10 0.500000 0.000000 0.500000
O O11 0.215531 0.136312 0.746089
O O12 0.000000 0.063176 0.750000
O O13 0.000000 0.330943 0.250000
#
# Coordination Sequence:
#
# PCOD8154095 Si02
#       5
#     8   8   8   8   8
#     4  11  25  44  71 102 142 182 233 288 348 415
#     4  12  27  45  70 102 142 186 234 291 349 415
#     4  12  27  46  72 104 140 184 235 289 353 415
#     4  12  27  45  71 102 141 186 235 289 350 416
#     4  11  25  44  70 104 139 185 232 287 350 415
#
# _framework density 23.404979999999998
#
# number of rings (size 3 to 8) (size 9 to 14) (size 15 to 20)
#    0.000    0.400    2.000    5.400    8.400    8.000 
#    0.000    0.000    0.000    0.000    0.000    0.000 
#    0.000    0.000    0.000    0.000    0.000    0.000 
#
# Total GULP energy -247838.227492 kJ/mol
# GULP energy per Si atom -12391.911375 kJ/mol
# Density = 2.335171 g / cm^3
# Si number density = 23.404980 Si / 1000 Ang^3
#
#
#
# Elastic Constant Matrix: (Units=GPa)
#
#
# Indices 1 2 3 4 5 6 
#
# 1 139.2360 38.0430 24.4761 0.0000 19.1313 0.0000
# 2 38.0430 130.6542 11.1591 0.0000 14.5393 0.0000
# 3 24.4761 11.1591 43.3716 0.0000 10.8783 0.0000
# 4 0.0000 0.0000 0.0000 162.2592 0.0000 42.7999
# 5 19.1313 14.5393 10.8783 0.0000 43.1072 0.0000
# 6 0.0000 0.0000 0.0000 42.7999 0.0000 51.2176
#
#
#
# Elastic Compliance Matrix: (Units=1/GPa)
#
#
# Indices 1 2 3 4 5 6 
#
# 1 0.008699 -0.001956 -0.003847 0.000000 -0.002230 0.000000
# 2 -0.001956 0.008480 -0.000617 0.000000 -0.001836 0.000000
# 3 -0.003847 -0.000617 0.026589 0.000000 -0.004794 0.000000
# 4 0.000000 0.000000 0.000000 0.007906 0.000000 -0.006606
# 5 -0.002230 -0.001836 -0.004794 0.000000 0.026017 0.000000
# 6 0.000000 0.000000 0.000000 -0.006606 0.000000 0.025045
#
#
# Mechanical properties :
#
#
# Convention : Reuss Voigt Hill
#
# Bulk Modulus (GPa) = 32.33321 51.17982 41.75651
# Shear Modulus (GPa) = 39.71861 67.28904 53.50382
#
# Velocity S-wave (km/s) = 4.12395 5.36771 4.78640
# Velocity P-wave (km/s) = 6.04323 7.76730 6.95886
#
# Compressibility (1/GPa) = 0.03092795
#
# Stress axis : x y z
#
# Youngs Moduli (GPa) = 114.95356 117.91793 37.61001
#
# Poissons Ratio (x) = 0.23068 0.14467
# Poissons Ratio (y) = 0.22488 0.02322
# Poissons Ratio (z) = 0.44217 0.07280
#
# Static dielectric constant tensor:
#      x y z
#    x 4.347920 0.000000 0.094670 
#    y 0.000000 4.211990 0.000000 
#    z 0.094670 0.000000 4.097180 
# 
# 
# High freq. dielectric constant tensor:
#      x y z
#    x 1.949760 0.000000 0.004710 
#    y 0.000000 1.937900 0.000000 
#    z 0.004710 0.000000 1.923120 
# 
# From -- ./inp_files/23758.got.cif
#   From: 2010.06.25/outbox.cif.g09.slc.cpg/sg15_12_cif.got.tgz:23758.got - 2010.06.28 07:06:18.
