data_PCOD8154455
_publ_section_title
;
Structure prediction by ZEFSAII (Michael W. Deem and Ramdas Pophale) SiO2 
 PCOD8154455
Probable space group: C 2/C
;
_chemical_formula_sum "Si O2"
_cell_formula_units_Z 36
_cell_length_a 4.929822
_cell_length_b 18.151305
_cell_length_c 14.325629
_cell_angle_alpha 90.000000
_cell_angle_beta 95.133768
_cell_angle_gamma 90.000000
_cell_volume 1276.753677
_symmetry_space_group_name_H-M "C 2/C"
_symmetry_group_IT_number 15
_symmetry_cell_setting 'monoclinic'
loop_
_space_group_symop_operation_xyz
x,y,z
-x,y,1/2-z
-x,-y,-z
x,-y,1/2+z
1/2+x,1/2+y,z
1/2-x,1/2+y,1/2-z
1/2-x,1/2-y,-z
1/2+x,1/2-y,1/2+z
loop_
_atom_site_type_symbol
_atom_site_label
_atom_site_fract_x
_atom_site_fract_y
_atom_site_fract_z
Si Si1 0.500000 0.994457 0.250000
Si Si2 0.126632 0.073132 0.373063
Si Si3 0.874860 0.239807 0.105524
Si Si4 0.418393 0.329483 0.152107
Si Si5 0.242128 0.947246 0.071295
O O1 0.249513 0.047561 0.276129
O O2 0.470696 0.938404 0.159631
O O3 0.034126 0.157789 0.364918
O O4 0.346338 0.058601 0.466498
O O5 0.868449 0.027451 0.401835
O O6 0.628840 0.260630 0.166650
O O7 0.750000 0.250000 0.000000
O O8 0.382339 0.201176 0.875237
O O9 0.500000 0.373770 0.250000
O O10 0.505193 0.384834 0.071538
#
# Coordination Sequence:
#
# PCOD8154455 Si02
#       5
#     4   8   8   8   8
#     4  12  26  46  80 116 152 204 270 330 396 478
#     4  11  27  48  76 109 156 203 262 323 396 475
#     4  12  28  50  77 113 156 210 257 325 396 473
#     4  12  28  48  77 113 158 202 267 322 396 466
#     4  11  27  48  77 110 153 206 264 326 397 469
#
# _framework density 28.196514000000001
#
# number of rings (size 3 to 8) (size 9 to 14) (size 15 to 20)
#    0.000    0.444    2.222    4.000   10.889    3.556 
#    0.000    0.000    0.000    0.000    0.000    0.000 
#    0.000    0.000    0.000    0.000    0.000    0.000 
#
# Total GULP energy -222994.686113 kJ/mol
# GULP energy per Si atom -12388.593673 kJ/mol
# Density = 2.813234 g / cm^3
# Si number density = 28.196514 Si / 1000 Ang^3
#
#
#
# Elastic Constant Matrix: (Units=GPa)
#
#
# Indices 1 2 3 4 5 6 
#
# 1 92.9025 -11.3004 2.6145 0.0000 4.7130 0.0000
# 2 -11.3004 130.5064 -8.8626 0.0000 -7.9114 0.0000
# 3 2.6145 -8.8626 146.0444 0.0000 4.9489 0.0000
# 4 0.0000 0.0000 0.0000 39.0291 0.0000 0.2707
# 5 4.7130 -7.9114 4.9489 0.0000 51.6071 0.0000
# 6 0.0000 0.0000 0.0000 0.2707 0.0000 10.0961
#
#
#
# Elastic Compliance Matrix: (Units=1/GPa)
#
#
# Indices 1 2 3 4 5 6 
#
# 1 0.010918 0.000886 -0.000113 0.000000 -0.000850 0.000000
# 2 0.000886 0.007833 0.000423 0.000000 0.001079 0.000000
# 3 -0.000113 0.000423 0.006895 0.000000 -0.000586 0.000000
# 4 0.000000 0.000000 0.000000 0.025627 0.000000 -0.000687
# 5 -0.000850 0.001079 -0.000586 0.000000 0.019677 0.000000
# 6 0.000000 0.000000 0.000000 -0.000687 0.000000 0.099067
#
#
# Mechanical properties :
#
#
# Convention : Reuss Voigt Hill
#
# Bulk Modulus (GPa) = 35.66504 37.15068 36.40786
# Shear Modulus (GPa) = 28.25342 45.94659 37.10001
#
# Velocity S-wave (km/s) = 3.16890 4.04110 3.63128
# Velocity P-wave (km/s) = 5.10543 5.91424 5.52466
#
# Compressibility (1/GPa) = 0.02803866
#
# Stress axis : x y z
#
# Youngs Moduli (GPa) = 91.59117 127.65937 145.03731
#
# Poissons Ratio (x) = -0.11313 0.01637
# Poissons Ratio (y) = -0.08117 -0.06134
# Poissons Ratio (z) = 0.01034 -0.05399
#
# Static dielectric constant tensor:
#      x y z
#    x 6.091210 0.000000 -1.227440 
#    y 0.000000 5.628940 0.000000 
#    z -1.227440 0.000000 8.537070 
# 
# 
# High freq. dielectric constant tensor:
#      x y z
#    x 2.126680 0.000000 0.012660 
#    y 0.000000 2.150260 0.000000 
#    z 0.012660 0.000000 2.174560 
# 
# From -- ./inp_files/128698.got.cif
#   From: 2010.06.25/outbox.cif.g09.slc.cpg/sg15_65_cif.got.tgz:128698.got - 2010.06.28 07:06:18.
