data_PCOD8154130
_publ_section_title
;
Structure prediction by ZEFSAII (Michael W. Deem and Ramdas Pophale) SiO2 
 PCOD8154130
Probable space group: C 2/C
;
_chemical_formula_sum "Si O2"
_cell_formula_units_Z 48
_cell_length_a 13.767431
_cell_length_b 12.978397
_cell_length_c 14.111529
_cell_angle_alpha 90.000000
_cell_angle_beta 66.287393
_cell_angle_gamma 90.000000
_cell_volume 2308.562031
_symmetry_space_group_name_H-M "C 2/C"
_symmetry_group_IT_number 15
_symmetry_cell_setting 'monoclinic'
loop_
_space_group_symop_operation_xyz
x,y,z
-x,y,1/2-z
-x,-y,-z
x,-y,1/2+z
1/2+x,1/2+y,z
1/2-x,1/2+y,1/2-z
1/2-x,1/2-y,-z
1/2+x,1/2-y,1/2+z
loop_
_atom_site_type_symbol
_atom_site_label
_atom_site_fract_x
_atom_site_fract_y
_atom_site_fract_z
Si Si1 0.345334 0.480221 0.628619
Si Si2 0.897489 0.735034 0.852304
Si Si3 0.989477 0.660640 0.145917
Si Si4 0.025888 0.167583 0.989709
Si Si5 0.765338 0.603182 0.154632
Si Si6 0.340276 0.987057 0.431190
O O1 0.390644 0.594489 0.596436
O O2 0.434873 0.395848 0.576391
O O3 0.307132 0.470236 0.751696
O O4 0.250426 0.456218 0.593188
O O5 0.911121 0.767997 0.956016
O O6 0.796768 0.793240 0.848560
O O7 0.876350 0.613468 0.858849
O O8 0.000000 0.761737 0.750000
O O9 0.867819 0.635215 0.173275
O O10 0.000000 0.695558 0.250000
O O11 0.059331 0.560806 0.095603
O O12 0.026721 0.754796 0.065012
O O13 0.793839 0.537323 0.051926
#
# Coordination Sequence:
#
# PCOD8154130 Si02
#       6
#     8   8   8   8   8   8
#     4  11  25  45  70 102 137 179 230 280 337 407
#     4  12  24  43  74 101 131 183 232 275 336 415
#     4  12  26  46  67 104 142 175 226 286 343 400
#     4  11  25  47  69 101 141 176 226 287 340 402
#     4  12  24  44  70 101 135 183 230 276 342 407
#     4  12  25  44  71 102 139 178 226 284 337 402
#
# _framework density 20.792162000000001
#
# number of rings (size 3 to 8) (size 9 to 14) (size 15 to 20)
#    0.000    0.333    6.667    2.500    0.000    2.000 
#    3.000    0.000    0.000    0.000    0.000    0.000 
#    0.000    0.000    0.000    0.000    0.000    0.000 
#
# Total GULP energy -297791.863238 kJ/mol
# GULP energy per Si atom -12407.994302 kJ/mol
# Density = 2.074484 g / cm^3
# Si number density = 20.792162 Si / 1000 Ang^3
#
#
#
# Elastic Constant Matrix: (Units=GPa)
#
#
# Indices 1 2 3 4 5 6 
#
# 1 113.2982 36.2494 35.5295 0.0000 -2.5568 0.0000
# 2 36.2494 88.0530 38.4163 0.0000 -2.5790 0.0000
# 3 35.5295 38.4163 133.8208 0.0000 5.0440 0.0000
# 4 0.0000 0.0000 0.0000 24.8208 0.0000 10.9515
# 5 -2.5568 -2.5790 5.0440 0.0000 31.4489 0.0000
# 6 0.0000 0.0000 0.0000 10.9515 0.0000 26.8299
#
#
#
# Elastic Compliance Matrix: (Units=1/GPa)
#
#
# Indices 1 2 3 4 5 6 
#
# 1 0.010543 -0.003521 -0.001821 0.000000 0.000861 0.000000
# 2 -0.003521 0.014247 -0.003208 0.000000 0.001397 0.000000
# 3 -0.001821 -0.003208 0.008947 0.000000 -0.001846 0.000000
# 4 0.000000 0.000000 0.000000 0.049139 0.000000 -0.020057
# 5 0.000861 0.001397 -0.001846 0.000000 0.032278 0.000000
# 6 0.000000 0.000000 0.000000 -0.020057 0.000000 0.045459
#
#
# Mechanical properties :
#
#
# Convention : Reuss Voigt Hill
#
# Bulk Modulus (GPa) = 60.10491 61.72918 60.91704
# Shear Modulus (GPa) = 27.28417 31.61839 29.45128
#
# Velocity S-wave (km/s) = 3.62641 3.90383 3.76767
# Velocity P-wave (km/s) = 6.81943 7.07623 6.94902
#
# Compressibility (1/GPa) = 0.01663758
#
# Stress axis : x y z
#
# Youngs Moduli (GPa) = 94.84821 70.19237 111.77476
#
# Poissons Ratio (x) = 0.24713 0.20354
# Poissons Ratio (y) = 0.33393 0.35854
# Poissons Ratio (z) = 0.17271 0.22516
#
# Static dielectric constant tensor:
#      x y z
#    x 3.908470 0.000000 -0.042160 
#    y 0.000000 3.752610 0.000000 
#    z -0.042160 0.000000 3.954220 
# 
# 
# High freq. dielectric constant tensor:
#      x y z
#    x 1.826550 0.000000 -0.003970 
#    y 0.000000 1.813020 0.000000 
#    z -0.003970 0.000000 1.830530 
# 
# From -- ./inp_files/152447.got.cif
#   From: 2010.06.25/outbox.cif.g09.slc.cpg/sg15_77_cif.got.tgz:152447.got - 2010.06.28 07:06:18.
