data_PCOD8154950
_publ_section_title
;
Structure prediction by ZEFSAII (Michael W. Deem and Ramdas Pophale) SiO2 
 PCOD8154950
Probable space group: C 2/C
;
_chemical_formula_sum "Si O2"
_cell_formula_units_Z 24
_cell_length_a 15.260773
_cell_length_b 5.744655
_cell_length_c 16.979587
_cell_angle_alpha 90.000000
_cell_angle_beta 144.892326
_cell_angle_gamma 90.000000
_cell_volume 856.095415
_symmetry_space_group_name_H-M "C 2/C"
_symmetry_group_IT_number 15
_symmetry_cell_setting 'monoclinic'
loop_
_space_group_symop_operation_xyz
x,y,z
-x,y,1/2-z
-x,-y,-z
x,-y,1/2+z
1/2+x,1/2+y,z
1/2-x,1/2+y,1/2-z
1/2-x,1/2-y,-z
1/2+x,1/2-y,1/2+z
loop_
_atom_site_type_symbol
_atom_site_label
_atom_site_fract_x
_atom_site_fract_y
_atom_site_fract_z
Si Si1 0.688476 0.530958 0.003917
Si Si2 0.636950 0.173826 0.601436
Si Si3 0.876806 0.170073 0.234109
O O1 0.600109 0.603162 0.019560
O O2 0.823337 0.353713 0.127308
O O3 0.750000 0.750000 0.000000
O O4 0.557541 0.392260 0.857380
O O5 0.671342 0.227493 0.716714
O O6 0.500000 0.000000 0.500000
O O7 0.781014 0.067550 0.659576
#
# Coordination Sequence:
#
# PCOD8154950 Si02
#       3
#     8   8   8
#     4  12  30  53  82 126 169 218 277 350 420 486
#     4  12  24  49  86 123 160 215 277 341 412 504
#     4  12  25  52  87 120 169 217 281 339 416 505
#
# _framework density 28.034258000000001
#
# number of rings (size 3 to 8) (size 9 to 14) (size 15 to 20)
#    0.000    0.000    6.667    3.000    0.000    2.667 
#    6.000    1.667    0.000    0.000    0.000    0.000 
#    0.000    0.000    0.000    0.000    0.000    0.000 
#
# Total GULP energy -148777.789105 kJ/mol
# GULP energy per Si atom -12398.149092 kJ/mol
# Density = 2.797045 g / cm^3
# Si number density = 28.034258 Si / 1000 Ang^3
#
#
#
# Elastic Constant Matrix: (Units=GPa)
#
#
# Indices 1 2 3 4 5 6 
#
# 1 149.7311 71.9329 77.7859 0.0000 12.6362 0.0000
# 2 71.9329 108.9207 102.5316 0.0000 6.5825 -0.0001
# 3 77.7859 102.5316 222.7271 0.0000 -16.3848 0.0000
# 4 0.0000 0.0000 0.0000 55.6108 0.0000 -13.7753
# 5 12.6362 6.5825 -16.3848 0.0000 52.1877 0.0000
# 6 0.0000 -0.0001 0.0000 -13.7753 0.0000 87.9664
#
#
#
# Elastic Compliance Matrix: (Units=1/GPa)
#
#
# Indices 1 2 3 4 5 6 
#
# 1 0.010072 -0.005408 -0.001185 0.000000 -0.002128 0.000000
# 2 -0.005408 0.020202 -0.007680 0.000000 -0.003650 0.000000
# 3 -0.001185 -0.007680 0.008733 0.000000 0.003997 0.000000
# 4 0.000000 0.000000 0.000000 0.018708 0.000000 0.002930
# 5 -0.002128 -0.003650 0.003997 0.000000 0.021392 0.000000
# 6 0.000000 0.000000 0.000000 0.002930 0.000000 0.011827
#
#
# Mechanical properties :
#
#
# Convention : Reuss Voigt Hill
#
# Bulk Modulus (GPa) = 95.58006 109.54220 102.56113
# Shear Modulus (GPa) = 40.66159 54.42822 47.54491
#
# Velocity S-wave (km/s) = 3.81258 4.41101 4.12267
# Velocity P-wave (km/s) = 7.31772 8.06858 7.70230
#
# Compressibility (1/GPa) = 0.01046243
#
# Stress axis : x y z
#
# Youngs Moduli (GPa) = 99.28897 49.49898 114.50745
#
# Poissons Ratio (x) = 0.26768 0.13565
# Poissons Ratio (y) = 0.53692 0.87942
# Poissons Ratio (z) = 0.11762 0.38015
#
# Static dielectric constant tensor:
#      x y z
#    x 5.350080 0.000000 -0.022270 
#    y 0.000000 4.404400 0.000000 
#    z -0.022270 0.000000 5.127150 
# 
# 
# High freq. dielectric constant tensor:
#      x y z
#    x 2.181350 0.000000 -0.028510 
#    y 0.000000 2.147210 0.000000 
#    z -0.028510 0.000000 2.148070 
# 
# From -- ./inp_files/250676.got.cif
#   From: 2010.06.25/outbox.cif.g09.slc.cpg/sg15_126_cif.got.tgz:250676.got - 2010.06.28 07:06:18.
