data_PCOD8154926
_publ_section_title
;
Structure prediction by ZEFSAII (Michael W. Deem and Ramdas Pophale) SiO2 
 PCOD8154926
Probable space group: C 2/C
;
_chemical_formula_sum "Si O2"
_cell_formula_units_Z 32
_cell_length_a 8.976427
_cell_length_b 18.820273
_cell_length_c 9.078651
_cell_angle_alpha 90.000000
_cell_angle_beta 118.699549
_cell_angle_gamma 90.000000
_cell_volume 1345.316855
_symmetry_space_group_name_H-M "C 2/C"
_symmetry_group_IT_number 15
_symmetry_cell_setting 'monoclinic'
loop_
_space_group_symop_operation_xyz
x,y,z
-x,y,1/2-z
-x,-y,-z
x,-y,1/2+z
1/2+x,1/2+y,z
1/2-x,1/2+y,1/2-z
1/2-x,1/2-y,-z
1/2+x,1/2-y,1/2+z
loop_
_atom_site_type_symbol
_atom_site_label
_atom_site_fract_x
_atom_site_fract_y
_atom_site_fract_z
Si Si1 0.675536 0.457328 0.897537
Si Si2 0.628504 0.210833 0.555538
Si Si3 0.749603 0.798614 0.640253
Si Si4 0.329922 0.936428 0.268397
O O1 0.500000 0.489298 0.750000
O O2 0.690796 0.377200 0.856091
O O3 0.827768 0.503082 0.894129
O O4 0.684105 0.457596 0.079914
O O5 0.750000 0.250000 0.500000
O O6 0.445573 0.198794 0.394012
O O7 0.615726 0.266782 0.682129
O O8 0.702972 0.137640 0.661075
O O9 0.750000 0.750000 0.500000
O O10 0.500000 0.931792 0.250000
#
# Coordination Sequence:
#
# PCOD8154926 Si02
#       4
#     8   8   8   8
#     4  12  27  46  77 106 148 192 243 295 364 430
#     4  12  27  45  72 105 143 186 242 298 356 429
#     4  12  24  48  72 102 143 191 236 298 361 422
#     4  12  26  50  73 108 148 192 242 299 362 432
#
# _framework density 23.78622
#
# number of rings (size 3 to 8) (size 9 to 14) (size 15 to 20)
#    0.000    0.000    5.000    4.500    3.500    2.000 
#    0.000    0.000    0.000    0.000    0.000    0.000 
#    0.000    0.000    0.000    0.000    0.000    0.000 
#
# Total GULP energy -198305.266227 kJ/mol
# GULP energy per Si atom -12394.079139 kJ/mol
# Density = 2.373208 g / cm^3
# Si number density = 23.786220 Si / 1000 Ang^3
#
#
#
# Elastic Constant Matrix: (Units=GPa)
#
#
# Indices 1 2 3 4 5 6 
#
# 1 83.6408 7.3909 21.1550 0.0000 -3.8615 0.0000
# 2 7.3909 157.8452 36.5790 0.0000 -37.7140 0.0000
# 3 21.1550 36.5790 80.1148 0.0000 -0.5716 0.0000
# 4 0.0000 0.0000 0.0000 49.7454 0.0000 -16.3334
# 5 -3.8615 -37.7140 -0.5716 0.0000 47.4200 0.0000
# 6 0.0000 0.0000 0.0000 -16.3334 0.0000 38.0467
#
#
#
# Elastic Compliance Matrix: (Units=1/GPa)
#
#
# Indices 1 2 3 4 5 6 
#
# 1 0.012900 0.000601 -0.003670 0.000000 0.001484 0.000000
# 2 0.000601 0.008992 -0.004213 0.000000 0.007149 0.000000
# 3 -0.003670 -0.004213 0.015350 0.000000 -0.003465 0.000000
# 4 0.000000 0.000000 0.000000 0.023401 0.000000 0.010046
# 5 0.001484 0.007149 -0.003465 0.000000 0.026853 0.000000
# 6 0.000000 0.000000 0.000000 0.010046 0.000000 0.030596
#
#
# Mechanical properties :
#
#
# Convention : Reuss Voigt Hill
#
# Bulk Modulus (GPa) = 44.09727 50.20561 47.15144
# Shear Modulus (GPa) = 35.65943 44.14080 39.90011
#
# Velocity S-wave (km/s) = 3.87610 4.31249 4.10011
# Velocity P-wave (km/s) = 6.21381 6.77861 6.50235
#
# Compressibility (1/GPa) = 0.02267714
#
# Stress axis : x y z
#
# Youngs Moduli (GPa) = 77.52197 111.21288 65.14585
#
# Poissons Ratio (x) = -0.06686 0.23909
# Poissons Ratio (y) = -0.04660 0.27447
# Poissons Ratio (z) = 0.28452 0.46856
#
# Static dielectric constant tensor:
#      x y z
#    x 4.591360 0.000000 0.260560 
#    y 0.000000 4.311140 0.000000 
#    z 0.260560 0.000000 5.450050 
# 
# 
# High freq. dielectric constant tensor:
#      x y z
#    x 1.943500 0.000000 0.006410 
#    y 0.000000 1.951730 0.000000 
#    z 0.006410 0.000000 1.956720 
# 
# From -- ./inp_files/22349.got.cif
#   From: 2010.06.25/outbox.cif.g09.slc.cpg/sg15_12_cif.got.tgz:22349.got - 2010.06.28 07:06:18.
