data_PCOD8154057
_publ_section_title
;
Structure prediction by ZEFSAII (Michael W. Deem and Ramdas Pophale) SiO2 
 PCOD8154057
Probable space group: C 2/C
;
_chemical_formula_sum "Si O2"
_cell_formula_units_Z 40
_cell_length_a 8.153845
_cell_length_b 19.103451
_cell_length_c 14.677507
_cell_angle_alpha 90.000000
_cell_angle_beta 53.185072
_cell_angle_gamma 90.000000
_cell_volume 1830.327262
_symmetry_space_group_name_H-M "C 2/C"
_symmetry_group_IT_number 15
_symmetry_cell_setting 'monoclinic'
loop_
_space_group_symop_operation_xyz
x,y,z
-x,y,1/2-z
-x,-y,-z
x,-y,1/2+z
1/2+x,1/2+y,z
1/2-x,1/2+y,1/2-z
1/2-x,1/2-y,-z
1/2+x,1/2-y,1/2+z
loop_
_atom_site_type_symbol
_atom_site_label
_atom_site_fract_x
_atom_site_fract_y
_atom_site_fract_z
Si Si1 0.216524 0.067083 0.157236
Si Si2 0.001874 0.822047 0.430194
Si Si3 0.746430 0.573558 0.753740
Si Si4 0.542250 0.170794 0.130506
Si Si5 0.809837 0.594971 0.926413
O O1 0.405949 0.108009 0.136984
O O2 0.000000 0.105999 0.250000
O O3 0.195530 0.990107 0.205757
O O4 0.243918 0.056277 0.040320
O O5 0.779319 0.847516 0.536636
O O6 0.014002 0.740330 0.405867
O O7 0.064305 0.868306 0.319798
O O8 0.168078 0.836241 0.456004
O O9 0.778648 0.544705 0.847740
O O10 0.949058 0.614237 0.649464
O O11 0.500000 0.182330 0.250000
#
# Coordination Sequence:
#
# PCOD8154057 Si02
#       5
#     8   8   8   8   8
#     4  12  26  40  66 102 137 183 225 286 336 402
#     4   9  22  47  69  96 137 183 223 281 345 408
#     4   9  22  43  68  99 133 179 226 277 339 408
#     4  11  25  42  68 102 140 176 230 286 339 401
#     4   9  21  45  67  98 130 180 230 271 339 403
#
# _framework density 21.854016000000001
#
# number of rings (size 3 to 8) (size 9 to 14) (size 15 to 20)
#    1.200    0.800    0.000    1.800    2.800   10.400 
#    0.000    0.000    0.000    0.000    0.000    0.000 
#    0.000    0.000    0.000    0.000    0.000    0.000 
#
# Total GULP energy -247801.224882 kJ/mol
# GULP energy per Si atom -12390.061244 kJ/mol
# Density = 2.180428 g / cm^3
# Si number density = 21.854016 Si / 1000 Ang^3
#
#
#
# Elastic Constant Matrix: (Units=GPa)
#
#
# Indices 1 2 3 4 5 6 
#
# 1 103.4047 32.5012 64.2360 0.0000 -25.8562 0.0000
# 2 32.5012 67.9683 29.9920 0.0000 -21.3973 0.0000
# 3 64.2360 29.9920 167.8445 0.0000 -21.4828 0.0000
# 4 0.0000 0.0000 0.0000 30.9915 0.0000 1.4653
# 5 -25.8562 -21.3973 -21.4828 0.0000 48.6391 0.0000
# 6 0.0000 0.0000 0.0000 1.4653 0.0000 23.0767
#
#
#
# Elastic Compliance Matrix: (Units=1/GPa)
#
#
# Indices 1 2 3 4 5 6 
#
# 1 0.014620 -0.003734 -0.004392 0.000000 0.004189 0.000000
# 2 -0.003734 0.018846 -0.001199 0.000000 0.005776 0.000000
# 3 -0.004392 -0.001199 0.007935 0.000000 0.000643 0.000000
# 4 0.000000 0.000000 0.000000 0.032364 0.000000 -0.002055
# 5 0.004189 0.005776 0.000643 0.000000 0.025611 0.000000
# 6 0.000000 0.000000 0.000000 -0.002055 0.000000 0.043464
#
#
# Mechanical properties :
#
#
# Convention : Reuss Voigt Hill
#
# Bulk Modulus (GPa) = 43.95431 65.85287 54.90359
# Shear Modulus (GPa) = 29.57262 34.70736 32.13999
#
# Velocity S-wave (km/s) = 3.68256 3.98948 3.83909
# Velocity P-wave (km/s) = 6.18369 7.17076 6.69544
#
# Compressibility (1/GPa) = 0.02275090
#
# Stress axis : x y z
#
# Youngs Moduli (GPa) = 68.39795 53.06198 126.02028
#
# Poissons Ratio (x) = 0.19815 0.55346
# Poissons Ratio (y) = 0.25542 0.15111
# Poissons Ratio (z) = 0.30039 0.06363
#
# Static dielectric constant tensor:
#      x y z
#    x 4.048970 0.000000 -0.231810 
#    y 0.000000 3.424690 0.000000 
#    z -0.231810 0.000000 4.274910 
# 
# 
# High freq. dielectric constant tensor:
#      x y z
#    x 1.869110 0.000000 -0.012400 
#    y 0.000000 1.821170 0.000000 
#    z -0.012400 0.000000 1.882950 
# 
# From -- ./inp_files/135760.got.cif
#   From: 2010.06.25/outbox.cif.g09.slc.cpg/sg15_68_cif.got.tgz:135760.got - 2010.06.28 07:06:18.
