data_PCOD8154654
_publ_section_title
;
Structure prediction by ZEFSAII (Michael W. Deem and Ramdas Pophale) SiO2 
 PCOD8154654
Probable space group: C 2/C
;
_chemical_formula_sum "Si O2"
_cell_formula_units_Z 44
_cell_length_a 16.983263
_cell_length_b 5.216703
_cell_length_c 22.071127
_cell_angle_alpha 90.000000
_cell_angle_beta 71.469683
_cell_angle_gamma 90.000000
_cell_volume 1854.049750
_symmetry_space_group_name_H-M "C 2/C"
_symmetry_group_IT_number 15
_symmetry_cell_setting 'monoclinic'
loop_
_space_group_symop_operation_xyz
x,y,z
-x,y,1/2-z
-x,-y,-z
x,-y,1/2+z
1/2+x,1/2+y,z
1/2-x,1/2+y,1/2-z
1/2-x,1/2-y,-z
1/2+x,1/2-y,1/2+z
loop_
_atom_site_type_symbol
_atom_site_label
_atom_site_fract_x
_atom_site_fract_y
_atom_site_fract_z
Si Si1 0.710261 0.760664 0.389927
Si Si2 0.959264 0.439122 0.858754
Si Si3 0.812433 0.717980 0.854045
Si Si4 0.500000 0.401988 0.250000
Si Si5 0.117608 0.723727 0.790223
Si Si6 0.950727 0.746304 0.491815
O O1 0.762707 0.514509 0.396682
O O2 0.674003 0.698014 0.332691
O O3 0.639082 0.776235 0.457077
O O4 0.766703 0.015150 0.377805
O O5 0.903283 0.699426 0.865217
O O6 0.940805 0.269482 0.922132
O O7 0.057886 0.496477 0.829157
O O8 0.936287 0.267891 0.805539
O O9 0.821476 0.657620 0.780170
O O10 0.443003 0.553931 0.217394
O O11 0.000000 0.500000 0.500000
O O12 0.000000 0.000000 0.500000
#
# Coordination Sequence:
#
# PCOD8154654 Si02
#       6
#     8   8   8   4   8   8
#     4  12  28  46  73 106 154 194 240 311 384 438
#     4  12  26  44  80 105 149 202 250 315 367 455
#     4  12  26  46  69 114 151 187 244 313 382 435
#     4  12  22  44  76 112 144 186 270 298 380 428
#     4  12  24  45  73 108 143 201 244 307 365 459
#     4  12  27  50  76 109 146 201 263 306 369 464
#
# _framework density 23.731836000000001
#
# number of rings (size 3 to 8) (size 9 to 14) (size 15 to 20)
#    0.000    0.000    5.455    4.364    2.545    1.455 
#    0.000    0.000    0.000    0.000    0.000    0.000 
#    0.000    0.000    0.000    0.000    0.000    0.000 
#
# Total GULP energy -272750.485086 kJ/mol
# GULP energy per Si atom -12397.749322 kJ/mol
# Density = 2.367782 g / cm^3
# Si number density = 23.731836 Si / 1000 Ang^3
#
#
#
# Elastic Constant Matrix: (Units=GPa)
#
#
# Indices 1 2 3 4 5 6 
#
# 1 88.8746 53.8460 40.8878 -0.0005 -15.9987 -0.0007
# 2 53.8460 146.5888 34.2760 -0.0037 -10.7699 0.0006
# 3 40.8878 34.2760 150.0365 -0.0028 -15.7830 0.0003
# 4 -0.0005 -0.0037 -0.0028 22.7625 0.0001 3.1892
# 5 -15.9987 -10.7699 -15.7830 0.0001 52.3765 -0.0018
# 6 -0.0007 0.0006 0.0003 3.1892 -0.0018 41.3922
#
#
#
# Elastic Compliance Matrix: (Units=1/GPa)
#
#
# Indices 1 2 3 4 5 6 
#
# 1 0.016207 -0.005042 -0.002947 -0.000001 0.003026 0.000001
# 2 -0.005042 0.008828 -0.000634 0.000001 0.000084 0.000000
# 3 -0.002947 -0.000634 0.007750 0.000001 0.001305 0.000000
# 4 -0.000001 0.000001 0.000001 0.044411 0.000000 -0.003422
# 5 0.003026 0.000084 0.001305 0.000000 0.020427 0.000001
# 6 0.000001 0.000000 0.000000 -0.003422 0.000001 0.024423
#
#
# Mechanical properties :
#
#
# Convention : Reuss Voigt Hill
#
# Bulk Modulus (GPa) = 64.34841 71.50217 67.92529
# Shear Modulus (GPa) = 34.60887 40.40558 37.50723
#
# Velocity S-wave (km/s) = 3.82295 4.13072 3.97981
# Velocity P-wave (km/s) = 6.83083 7.27634 7.05710
#
# Compressibility (1/GPa) = 0.01554040
#
# Stress axis : x y z
#
# Youngs Moduli (GPa) = 61.70247 113.27268 129.02996
#
# Poissons Ratio (x) = 0.57111 0.38019
# Poissons Ratio (y) = 0.31110 0.08180
# Poissons Ratio (z) = 0.18181 0.07181
#
# Static dielectric constant tensor:
#      x y z
#    x 4.404770 -0.000010 -0.361970 
#    y -0.000010 3.942070 0.000000 
#    z -0.361970 0.000000 5.148360 
# 
# 
# High freq. dielectric constant tensor:
#      x y z
#    x 1.947060 0.000000 -0.014550 
#    y 0.000000 1.946170 0.000000 
#    z -0.014550 0.000000 1.948390 
# 
# From -- ./inp_files/246392.got.cif
#   From: 2010.06.25/outbox.cif.g09.slc.cpg/sg15_124_cif.got.tgz:246392.got - 2010.06.28 07:06:18.
