data_PCOD8154328
_publ_section_title
;
Structure prediction by ZEFSAII (Michael W. Deem and Ramdas Pophale) SiO2 
 PCOD8154328
Probable space group: C 2/C
;
_chemical_formula_sum "Si O2"
_cell_formula_units_Z 32
_cell_length_a 24.936931
_cell_length_b 8.937341
_cell_length_c 7.605579
_cell_angle_alpha 90.000000
_cell_angle_beta 128.047529
_cell_angle_gamma 90.000000
_cell_volume 1334.854865
_symmetry_space_group_name_H-M "C 2/C"
_symmetry_group_IT_number 15
_symmetry_cell_setting 'monoclinic'
loop_
_space_group_symop_operation_xyz
x,y,z
-x,y,1/2-z
-x,-y,-z
x,-y,1/2+z
1/2+x,1/2+y,z
1/2-x,1/2+y,1/2-z
1/2-x,1/2-y,-z
1/2+x,1/2-y,1/2+z
loop_
_atom_site_type_symbol
_atom_site_label
_atom_site_fract_x
_atom_site_fract_y
_atom_site_fract_z
Si Si1 0.450844 0.604400 0.502672
Si Si2 0.859731 0.672173 0.667146
Si Si3 0.669661 0.371559 0.214536
Si Si4 0.679037 0.866278 0.020706
O O1 0.500000 0.670519 0.750000
O O2 0.500000 0.500000 0.500000
O O3 0.431959 0.747512 0.347202
O O4 0.383067 0.508242 0.421305
O O5 0.823044 0.768156 0.442519
O O6 0.871764 0.504649 0.620487
O O7 0.819765 0.677066 0.772192
O O8 0.651558 0.275008 0.352130
O O9 0.747303 0.428606 0.395695
#
# Coordination Sequence:
#
# PCOD8154328 Si02
#       4
#     8   8   8   8
#     4  12  26  47  72 100 141 198 249 289 349 431
#     4  12  25  45  74 103 150 185 236 300 359 431
#     4  11  26  45  73 107 149 185 239 299 361 438
#     4  11  26  44  72 114 141 186 234 300 380 422
#
# _framework density 23.972645
#
# number of rings (size 3 to 8) (size 9 to 14) (size 15 to 20)
#    0.000    0.500    5.000    2.250    7.000    0.000 
#    0.000    6.250    0.000    0.000    0.000    0.000 
#    0.000    0.000    0.000    0.000    0.000    0.000 
#
# Total GULP energy -198275.070380 kJ/mol
# GULP energy per Si atom -12392.191899 kJ/mol
# Density = 2.391808 g / cm^3
# Si number density = 23.972645 Si / 1000 Ang^3
#
#
#
# Elastic Constant Matrix: (Units=GPa)
#
#
# Indices 1 2 3 4 5 6 
#
# 1 72.5909 34.9131 25.4039 0.0000 -6.8614 0.0000
# 2 34.9131 103.9466 40.2517 0.0000 2.1659 0.0000
# 3 25.4039 40.2517 118.9414 0.0000 -13.4058 0.0000
# 4 0.0000 0.0000 0.0000 46.4661 0.0000 0.3319
# 5 -6.8614 2.1659 -13.4058 0.0000 55.4012 0.0000
# 6 0.0000 0.0000 0.0000 0.3319 0.0000 27.5426
#
#
#
# Elastic Compliance Matrix: (Units=1/GPa)
#
#
# Indices 1 2 3 4 5 6 
#
# 1 0.016997 -0.005093 -0.001693 0.000000 0.001894 0.000000
# 2 -0.005093 0.012700 -0.003431 0.000000 -0.001957 0.000000
# 3 -0.001693 -0.003431 0.010200 0.000000 0.002393 0.000000
# 4 0.000000 0.000000 0.000000 0.021523 0.000000 -0.000259
# 5 0.001894 -0.001957 0.002393 0.000000 0.018940 0.000000
# 6 0.000000 0.000000 0.000000 -0.000259 0.000000 0.036310
#
#
# Mechanical properties :
#
#
# Convention : Reuss Voigt Hill
#
# Bulk Modulus (GPa) = 51.37868 55.17959 53.27913
# Shear Modulus (GPa) = 34.82095 38.87600 36.84848
#
# Velocity S-wave (km/s) = 3.81534 4.03138 3.92485
# Velocity P-wave (km/s) = 6.39436 6.68858 6.54312
#
# Compressibility (1/GPa) = 0.01946333
#
# Stress axis : x y z
#
# Youngs Moduli (GPa) = 58.83461 78.73940 98.04031
#
# Poissons Ratio (x) = 0.40099 0.16601
# Poissons Ratio (y) = 0.29962 0.33636
# Poissons Ratio (z) = 0.09963 0.27014
#
# Static dielectric constant tensor:
#      x y z
#    x 4.168070 0.000000 -0.125860 
#    y 0.000000 4.334120 0.000000 
#    z -0.125860 0.000000 4.374750 
# 
# 
# High freq. dielectric constant tensor:
#      x y z
#    x 1.931600 0.000000 -0.019320 
#    y 0.000000 1.952250 0.000000 
#    z -0.019320 0.000000 1.970800 
# 
# From -- ./inp_files/53507.got.cif
#   From: 2010.06.25/outbox.cif.g09.slc.cpg/sg15_27_cif.got.tgz:53507.got - 2010.06.28 07:06:18.
