data_PCOD8154848
_publ_section_title
;
Structure prediction by ZEFSAII (Michael W. Deem and Ramdas Pophale) SiO2 
 PCOD8154848
Probable space group: C 2/C
;
_chemical_formula_sum "Si O2"
_cell_formula_units_Z 52
_cell_length_a 10.976038
_cell_length_b 18.366205
_cell_length_c 12.223879
_cell_angle_alpha 90.000000
_cell_angle_beta 117.313565
_cell_angle_gamma 90.000000
_cell_volume 2189.453458
_symmetry_space_group_name_H-M "C 2/C"
_symmetry_group_IT_number 15
_symmetry_cell_setting 'monoclinic'
loop_
_space_group_symop_operation_xyz
x,y,z
-x,y,1/2-z
-x,-y,-z
x,-y,1/2+z
1/2+x,1/2+y,z
1/2-x,1/2+y,1/2-z
1/2-x,1/2-y,-z
1/2+x,1/2-y,1/2+z
loop_
_atom_site_type_symbol
_atom_site_label
_atom_site_fract_x
_atom_site_fract_y
_atom_site_fract_z
Si Si1 0.721430 0.557364 0.197120
Si Si2 0.434920 0.613457 0.565670
Si Si3 0.500000 0.493734 0.750000
Si Si4 0.205909 0.308803 0.070403
Si Si5 0.401436 0.864464 0.926285
Si Si6 0.195407 0.788626 0.156961
Si Si7 0.145941 0.579016 0.866171
O O1 0.637071 0.551332 0.278101
O O2 0.860208 0.597868 0.293575
O O3 0.759363 0.484590 0.144580
O O4 0.628538 0.607963 0.081304
O O5 0.495427 0.537711 0.633400
O O6 0.316788 0.626880 0.606986
O O7 0.543080 0.679268 0.612826
O O8 0.218904 0.275659 0.196312
O O9 0.250000 0.250000 0.000000
O O10 0.060498 0.344329 0.985257
O O11 0.316634 0.789346 0.907254
O O12 0.375269 0.923600 0.011812
O O13 0.281893 0.843628 0.120016
O O14 0.000000 0.576823 0.750000
#
# Coordination Sequence:
#
# PCOD8154848 Si02
#       7
#     8   8   4   8   8   8   8
#     4  12  29  46  76 112 152 200 252 307 375 450
#     4  12  24  44  75 108 149 191 252 306 368 435
#     4  12  24  50  74 106 146 202 256 300 368 448
#     4  12  24  45  76 108 149 192 249 311 372 439
#     4  12  29  48  77 114 149 197 254 311 378 451
#     4  12  25  50  74 110 147 199 245 318 374 445
#     4  12  27  51  74 106 158 200 244 308 386 448
#
# _framework density 23.750219999999999
#
# number of rings (size 3 to 8) (size 9 to 14) (size 15 to 20)
#    0.000    0.000    6.154    2.769    4.308    1.846 
#    1.385    0.000    0.000    0.000    0.000    0.000 
#    0.000    0.000    0.000    0.000    0.000    0.000 
#
# Total GULP energy -322345.298917 kJ/mol
# GULP energy per Si atom -12397.896112 kJ/mol
# Density = 2.369616 g / cm^3
# Si number density = 23.750220 Si / 1000 Ang^3
#
#
#
# Elastic Constant Matrix: (Units=GPa)
#
#
# Indices 1 2 3 4 5 6 
#
# 1 104.3342 17.0997 32.2486 0.0000 4.8847 0.0000
# 2 17.0997 69.2178 29.2804 0.0000 -0.9476 0.0000
# 3 32.2486 29.2804 155.8168 0.0000 11.2435 0.0000
# 4 0.0000 0.0000 0.0000 21.7070 0.0000 -6.4905
# 5 4.8847 -0.9476 11.2435 0.0000 33.5293 0.0000
# 6 0.0000 0.0000 0.0000 -6.4905 0.0000 28.4612
#
#
#
# Elastic Compliance Matrix: (Units=1/GPa)
#
#
# Indices 1 2 3 4 5 6 
#
# 1 0.010476 -0.001863 -0.001746 0.000000 -0.000993 0.000000
# 2 -0.001863 0.016097 -0.002758 0.000000 0.001651 0.000000
# 3 -0.001746 -0.002758 0.007466 0.000000 -0.002327 0.000000
# 4 0.000000 0.000000 0.000000 0.049439 0.000000 0.011274
# 5 -0.000993 0.001651 -0.002327 0.000000 0.030796 0.000000
# 6 0.000000 0.000000 0.000000 0.011274 0.000000 0.037707
#
#
# Mechanical properties :
#
#
# Convention : Reuss Voigt Hill
#
# Bulk Modulus (GPa) = 46.94178 54.06956 50.50567
# Shear Modulus (GPa) = 29.10069 33.45552 31.27810
#
# Velocity S-wave (km/s) = 3.50420 3.75726 3.63293
# Velocity P-wave (km/s) = 6.01500 6.45275 6.23772
#
# Compressibility (1/GPa) = 0.02130298
#
# Stress axis : x y z
#
# Youngs Moduli (GPa) = 95.45433 62.12399 133.94914
#
# Poissons Ratio (x) = 0.11573 0.23394
# Poissons Ratio (y) = 0.17782 0.36949
# Poissons Ratio (z) = 0.16671 0.17137
#
# Static dielectric constant tensor:
#      x y z
#    x 4.502970 0.000000 0.179910 
#    y 0.000000 4.489510 0.000000 
#    z 0.179910 0.000000 4.319720 
# 
# 
# High freq. dielectric constant tensor:
#      x y z
#    x 1.945050 0.000000 0.013240 
#    y 0.000000 1.937720 0.000000 
#    z 0.013240 0.000000 1.956670 
# 
# From -- ./inp_files/89733.got.cif
#   From: 2010.06.25/outbox.cif.g09.slc.cpg/sg15_45_cif.got.tgz:89733.got - 2010.06.28 07:06:18.
