data_PCOD8154937
_publ_section_title
;
Structure prediction by ZEFSAII (Michael W. Deem and Ramdas Pophale) SiO2 
 PCOD8154937
Probable space group: C 2/C
;
_chemical_formula_sum "Si O2"
_cell_formula_units_Z 36
_cell_length_a 13.192295
_cell_length_b 23.371401
_cell_length_c 5.086412
_cell_angle_alpha 90.000000
_cell_angle_beta 86.401408
_cell_angle_gamma 90.000000
_cell_volume 1565.162666
_symmetry_space_group_name_H-M "C 2/C"
_symmetry_group_IT_number 15
_symmetry_cell_setting 'monoclinic'
loop_
_space_group_symop_operation_xyz
x,y,z
-x,y,1/2-z
-x,-y,-z
x,-y,1/2+z
1/2+x,1/2+y,z
1/2-x,1/2+y,1/2-z
1/2-x,1/2-y,-z
1/2+x,1/2-y,1/2+z
loop_
_atom_site_type_symbol
_atom_site_label
_atom_site_fract_x
_atom_site_fract_y
_atom_site_fract_z
Si Si1 0.500000 0.174058 0.250000
Si Si2 0.788482 0.463921 0.266545
Si Si3 0.000000 0.596503 0.750000
Si Si4 0.500000 0.457663 0.750000
Si Si5 0.318694 0.259440 0.237803
Si Si6 0.607118 0.613870 0.867258
O O1 0.516750 0.135372 0.497949
O O2 0.401405 0.212015 0.275893
O O3 0.771273 0.485245 0.564754
O O4 0.902179 0.441840 0.212378
O O5 0.704456 0.415850 0.216764
O O6 0.500000 0.500000 0.500000
O O7 0.593239 0.412443 0.668597
O O8 0.250000 0.250000 0.500000
O O9 0.374769 0.319112 0.171953
O O10 0.250000 0.250000 0.000000
O O11 0.500000 0.597430 0.750000
#
# Coordination Sequence:
#
# PCOD8154937 Si02
#       6
#     4   8   4   4   8   8
#     4  12  24  48  76 108 142 194 246 306 374 440
#     4  12  27  46  73 106 146 196 248 308 371 445
#     4  12  26  50  76 104 146 194 256 310 368 440
#     4  12  26  44  70 106 152 198 240 296 368 454
#     4  12  28  48  75 111 151 194 249 309 375 452
#     4  12  28  47  76 112 153 196 248 308 388 454
#
# _framework density 23.000803999999999
#
# number of rings (size 3 to 8) (size 9 to 14) (size 15 to 20)
#    0.000    0.000    2.222    7.333    6.222    0.889 
#    0.000    0.000    0.000    0.000    0.000    0.000 
#    0.000    0.000    0.000    0.000    0.000    0.000 
#
# Total GULP energy -222990.870235 kJ/mol
# GULP energy per Si atom -12388.381680 kJ/mol
# Density = 2.294845 g / cm^3
# Si number density = 23.000804 Si / 1000 Ang^3
#
#
#
# Elastic Constant Matrix: (Units=GPa)
#
#
# Indices 1 2 3 4 5 6 
#
# 1 130.9337 10.1433 20.7446 0.0000 12.3112 0.0000
# 2 10.1433 104.5275 40.7419 0.0000 3.7233 0.0000
# 3 20.7446 40.7419 138.7754 0.0000 -9.6592 0.0000
# 4 0.0000 0.0000 0.0000 64.1893 0.0000 -23.9836
# 5 12.3112 3.7233 -9.6592 0.0000 27.2933 0.0000
# 6 0.0000 0.0000 0.0000 -23.9836 0.0000 66.6738
#
#
#
# Elastic Compliance Matrix: (Units=1/GPa)
#
#
# Indices 1 2 3 4 5 6 
#
# 1 0.008284 -0.000060 -0.001517 0.000000 -0.004265 0.000000
# 2 -0.000060 0.010995 -0.003405 0.000000 -0.002678 0.000000
# 3 -0.001517 -0.003405 0.008727 0.000000 0.004238 0.000000
# 4 0.000000 0.000000 0.000000 0.017998 0.000000 0.006474
# 5 -0.004265 -0.002678 0.004238 0.000000 0.040428 0.000000
# 6 0.000000 0.000000 0.000000 0.006474 0.000000 0.017327
#
#
# Mechanical properties :
#
#
# Convention : Reuss Voigt Hill
#
# Bulk Modulus (GPa) = 55.43255 57.49959 56.46607
# Shear Modulus (GPa) = 41.75733 51.80506 46.78120
#
# Velocity S-wave (km/s) = 4.26546 4.75101 4.51476
# Velocity P-wave (km/s) = 6.95783 7.42626 7.19586
#
# Compressibility (1/GPa) = 0.01803994
#
# Stress axis : x y z
#
# Youngs Moduli (GPa) = 120.72055 90.94674 114.58131
#
# Poissons Ratio (x) = 0.00550 0.17386
# Poissons Ratio (y) = 0.00730 0.39020
# Poissons Ratio (z) = 0.18318 0.30971
#
# Static dielectric constant tensor:
#      x y z
#    x 4.145050 0.000000 -0.306660 
#    y 0.000000 4.796460 0.000000 
#    z -0.306660 0.000000 3.917060 
# 
# 
# High freq. dielectric constant tensor:
#      x y z
#    x 1.928580 0.000000 -0.010990 
#    y 0.000000 1.928640 0.000000 
#    z -0.010990 0.000000 1.922160 
# 
# From -- ./inp_files/4322.got.cif
#   From: 2010.06.25/outbox.cif.g09.slc.cpg/sg15_3_cif.got.tgz:4322.got - 2010.06.28 07:06:18.
