data_PCOD8154501
_publ_section_title
;
Structure prediction by ZEFSAII (Michael W. Deem and Ramdas Pophale) SiO2 
 PCOD8154501
Probable space group: C 2/C
;
_chemical_formula_sum "Si O2"
_cell_formula_units_Z 60
_cell_length_a 11.380015
_cell_length_b 17.536758
_cell_length_c 29.481601
_cell_angle_alpha 90.000000
_cell_angle_beta 151.257956
_cell_angle_gamma 90.000000
_cell_volume 2829.229664
_symmetry_space_group_name_H-M "C 2/C"
_symmetry_group_IT_number 15
_symmetry_cell_setting 'monoclinic'
loop_
_space_group_symop_operation_xyz
x,y,z
-x,y,1/2-z
-x,-y,-z
x,-y,1/2+z
1/2+x,1/2+y,z
1/2-x,1/2+y,1/2-z
1/2-x,1/2-y,-z
1/2+x,1/2-y,1/2+z
loop_
_atom_site_type_symbol
_atom_site_label
_atom_site_fract_x
_atom_site_fract_y
_atom_site_fract_z
Si Si1 0.077512 0.842461 0.224972
Si Si2 0.926965 0.319686 0.491439
Si Si3 0.705872 0.308092 0.732347
Si Si4 0.942068 0.430404 0.119851
Si Si5 0.000000 0.261669 0.250000
Si Si6 0.080224 0.397656 0.915739
Si Si7 0.401528 0.653395 0.927852
Si Si8 0.772069 0.166143 0.029075
O O1 0.212442 0.762255 0.270393
O O2 0.281936 0.902623 0.278402
O O3 0.000000 0.861914 0.250000
O O4 0.856284 0.839271 0.114164
O O5 0.006913 0.361868 0.565522
O O6 0.984638 0.228721 0.509164
O O7 0.076043 0.354454 0.500949
O O8 0.519742 0.287170 0.710634
O O9 0.538624 0.353729 0.640014
O O10 0.944673 0.351140 0.830305
O O11 0.983393 0.516642 0.118317
O O12 0.774089 0.406850 0.105804
O O13 0.780883 0.394342 0.026474
O O14 0.757314 0.313520 0.167397
O O15 0.371376 0.393556 0.013334
O O16 0.750000 0.250000 0.000000
#
# Coordination Sequence:
#
# PCOD8154501 Si02
#       8
#     8   8   8   8   4   8   8   8
#     4  12  23  42  71  99 128 175 231 280 336 415
#     4  12  22  42  74  98 129 178 236 281 334 416
#     4  12  22  40  70  98 131 173 235 282 337 417
#     4  12  27  46  65  99 147 180 220 295 361 412
#     4  12  20  40  74 102 122 180 234 292 326 412
#     4  12  28  43  65 106 140 178 229 294 355 409
#     4  12  23  44  72  95 137 181 235 280 342 419
#     4  12  21  43  70  98 131 184 231 279 345 420
#
# _framework density 21.207186
#
# number of rings (size 3 to 8) (size 9 to 14) (size 15 to 20)
#    0.000    0.000    9.333    1.600    0.000    1.600 
#    3.600    0.000    0.000    0.000    0.000    0.000 
#    0.000    0.000    0.000    0.000    0.000    0.000 
#
# Total GULP energy -371696.893729 kJ/mol
# GULP energy per Si atom -12389.896458 kJ/mol
# Density = 2.115892 g / cm^3
# Si number density = 21.207186 Si / 1000 Ang^3
#
#
#
# Elastic Constant Matrix: (Units=GPa)
#
#
# Indices 1 2 3 4 5 6 
#
# 1 72.9541 8.9254 -4.7579 -0.0003 11.7088 -0.0003
# 2 8.9254 90.6195 6.8679 -0.0009 5.2767 -0.0002
# 3 -4.7579 6.8679 124.6174 -0.0040 11.1260 -0.0006
# 4 -0.0003 -0.0009 -0.0040 23.6194 -0.0007 -1.8787
# 5 11.7088 5.2767 11.1260 -0.0007 36.0100 -0.0001
# 6 -0.0003 -0.0002 -0.0006 -1.8787 -0.0001 21.5255
#
#
#
# Elastic Compliance Matrix: (Units=1/GPa)
#
#
# Indices 1 2 3 4 5 6 
#
# 1 0.014721 -0.001244 0.001071 0.000000 -0.004935 0.000000
# 2 -0.001244 0.011263 -0.000573 0.000000 -0.001069 0.000000
# 3 0.001071 -0.000573 0.008351 0.000001 -0.002845 0.000000
# 4 0.000000 0.000000 0.000001 0.042634 0.000000 0.003721
# 5 -0.004935 -0.001069 -0.002845 0.000000 0.030410 0.000000
# 6 0.000000 0.000000 0.000000 0.003721 0.000000 0.046781
#
#
# Mechanical properties :
#
#
# Convention : Reuss Voigt Hill
#
# Bulk Modulus (GPa) = 30.44589 34.47353 32.45971
# Shear Modulus (GPa) = 30.01193 34.70802 32.35998
#
# Velocity S-wave (km/s) = 3.76597 4.04990 3.91051
# Velocity P-wave (km/s) = 5.77040 6.17736 5.97735
#
# Compressibility (1/GPa) = 0.03284516
#
# Stress axis : x y z
#
# Youngs Moduli (GPa) = 67.92833 88.78377 119.74621
#
# Poissons Ratio (x) = 0.11042 -0.12828
# Poissons Ratio (y) = 0.08449 0.06859
# Poissons Ratio (z) = -0.07277 0.05085
#
# Static dielectric constant tensor:
#      x y z
#    x 3.899560 0.000000 0.001100 
#    y 0.000000 3.093470 0.000000 
#    z 0.001100 0.000000 4.073540 
# 
# 
# High freq. dielectric constant tensor:
#      x y z
#    x 1.835760 0.000000 0.005350 
#    y 0.000000 1.797850 0.000000 
#    z 0.005350 0.000000 1.861820 
# 
# From -- ./inp_files/311600.got.cif
#   From: 2010.06.25/outbox.cif.g09.slc.cpg/sg15_156_cif.got.tgz:311600.got - 2010.06.28 07:06:18.
