data_PCOD8154651
_publ_section_title
;
Structure prediction by ZEFSAII (Michael W. Deem and Ramdas Pophale) SiO2 
 PCOD8154651
Probable space group: C 2/C
;
_chemical_formula_sum "Si O2"
_cell_formula_units_Z 52
_cell_length_a 17.941214
_cell_length_b 6.742705
_cell_length_c 25.113663
_cell_angle_alpha 90.000000
_cell_angle_beta 52.686905
_cell_angle_gamma 90.000000
_cell_volume 2416.273669
_symmetry_space_group_name_H-M "C 2/C"
_symmetry_group_IT_number 15
_symmetry_cell_setting 'monoclinic'
loop_
_space_group_symop_operation_xyz
x,y,z
-x,y,1/2-z
-x,-y,-z
x,-y,1/2+z
1/2+x,1/2+y,z
1/2-x,1/2+y,1/2-z
1/2-x,1/2-y,-z
1/2+x,1/2-y,1/2+z
loop_
_atom_site_type_symbol
_atom_site_label
_atom_site_fract_x
_atom_site_fract_y
_atom_site_fract_z
Si Si1 0.831035 0.447870 0.094969
Si Si2 0.941412 0.117734 0.983495
Si Si3 0.282076 0.677708 0.542467
Si Si4 0.000000 0.882322 0.750000
Si Si5 0.364435 0.712967 0.779394
Si Si6 0.942385 0.636048 0.141653
Si Si7 0.409409 0.028289 0.844226
O O1 0.892360 0.311571 0.029608
O O2 0.805313 0.647510 0.074124
O O3 0.739568 0.330172 0.154561
O O4 0.892215 0.495537 0.120601
O O5 0.867970 0.963996 0.991823
O O6 0.014213 0.172954 0.905783
O O7 0.000000 0.000000 0.000000
O O8 0.250000 0.750000 0.500000
O O9 0.201220 0.536575 0.599512
O O10 0.055576 0.747141 0.684699
O O11 0.075975 0.011744 0.748530
O O12 0.364669 0.800909 0.719281
O O13 0.420338 0.869056 0.792187
O O14 0.032372 0.531214 0.129006
#
# Coordination Sequence:
#
# PCOD8154651 Si02
#       7
#     8   8   8   4   8   8   8
#     4  12  28  50  72 107 151 185 244 303 359 428
#     4  12  28  49  73 104 151 190 238 301 362 428
#     4  12  28  46  76 108 140 195 243 295 361 430
#     4  12  22  44  76 100 148 184 234 294 358 410
#     4  12  26  47  74 111 145 187 245 300 352 435
#     4  12  27  46  74 110 143 190 243 296 362 432
#     4  12  25  47  73 107 145 186 242 296 356 429
#
# _framework density 21.520738999999999
#
# number of rings (size 3 to 8) (size 9 to 14) (size 15 to 20)
#    0.000    0.000    7.692    1.385    6.462    4.923 
#    0.000    0.000    0.000    0.000    0.000    0.000 
#    0.000    0.000    0.000    0.000    0.000    0.000 
#
# Total GULP energy -322419.711825 kJ/mol
# GULP energy per Si atom -12400.758147 kJ/mol
# Density = 2.147176 g / cm^3
# Si number density = 21.520739 Si / 1000 Ang^3
#
#
#
# Elastic Constant Matrix: (Units=GPa)
#
#
# Indices 1 2 3 4 5 6 
#
# 1 127.3755 46.8684 35.9789 0.0018 16.6967 0.0085
# 2 46.8684 103.9810 33.0521 -0.0156 9.3168 -0.0106
# 3 35.9789 33.0521 95.6809 -0.0008 5.2350 -0.0013
# 4 0.0018 -0.0156 -0.0008 42.9611 -0.0007 -8.2547
# 5 16.6967 9.3168 5.2350 -0.0007 41.7599 -0.0029
# 6 0.0085 -0.0106 -0.0013 -8.2547 -0.0029 51.2195
#
#
#
# Elastic Compliance Matrix: (Units=1/GPa)
#
#
# Indices 1 2 3 4 5 6 
#
# 1 0.010251 -0.003571 -0.002457 -0.000002 -0.002994 -0.000003
# 2 -0.003571 0.012209 -0.002823 0.000005 -0.000942 0.000004
# 3 -0.002457 -0.002823 0.012347 -0.000001 0.000064 0.000000
# 4 -0.000002 0.000005 -0.000001 0.024021 0.000001 0.003871
# 5 -0.002994 -0.000942 0.000064 0.000001 0.025346 0.000002
# 6 -0.000003 0.000004 0.000000 0.003871 0.000002 0.020148
#
#
# Mechanical properties :
#
#
# Convention : Reuss Voigt Hill
#
# Bulk Modulus (GPa) = 58.46608 62.09291 60.27950
# Shear Modulus (GPa) = 39.14641 41.26396 40.20518
#
# Velocity S-wave (km/s) = 4.26961 4.38357 4.32696
# Velocity P-wave (km/s) = 7.17861 7.38486 7.28246
#
# Compressibility (1/GPa) = 0.01710393
#
# Stress axis : x y z
#
# Youngs Moduli (GPa) = 97.54692 81.90947 80.99102
#
# Poissons Ratio (x) = 0.29253 0.19902
# Poissons Ratio (y) = 0.34838 0.22863
# Poissons Ratio (z) = 0.23971 0.23122
#
# Static dielectric constant tensor:
#      x y z
#    x 3.887180 -0.000040 -0.159960 
#    y -0.000040 3.994890 -0.000020 
#    z -0.159960 -0.000020 4.127330 
# 
# 
# High freq. dielectric constant tensor:
#      x y z
#    x 1.856280 0.000000 -0.009520 
#    y 0.000000 1.856070 0.000000 
#    z -0.009520 0.000000 1.859800 
# 
# From -- ./inp_files/300074.got.cif
#   From: 2010.06.25/outbox.cif.g09.slc.cpg/sg15_151_cif.got.tgz:300074.got - 2010.06.28 07:06:18.
