data_PCOD8155118
_publ_section_title
;
Structure prediction by ZEFSAII (Michael W. Deem and Ramdas Pophale) SiO2 
 PCOD8155118
Probable space group: C 2/C
;
_chemical_formula_sum "Si O2"
_cell_formula_units_Z 28
_cell_length_a 15.717831
_cell_length_b 15.617233
_cell_length_c 6.974890
_cell_angle_alpha 90.000000
_cell_angle_beta 44.858545
_cell_angle_gamma 90.000000
_cell_volume 1207.658682
_symmetry_space_group_name_H-M "C 2/C"
_symmetry_group_IT_number 15
_symmetry_cell_setting 'monoclinic'
loop_
_space_group_symop_operation_xyz
x,y,z
-x,y,1/2-z
-x,-y,-z
x,-y,1/2+z
1/2+x,1/2+y,z
1/2-x,1/2+y,1/2-z
1/2-x,1/2-y,-z
1/2+x,1/2-y,1/2+z
loop_
_atom_site_type_symbol
_atom_site_label
_atom_site_fract_x
_atom_site_fract_y
_atom_site_fract_z
Si Si1 0.835702 0.703944 0.715090
Si Si2 0.133419 0.442854 0.055160
Si Si3 0.500000 0.672649 0.750000
Si Si4 0.742638 0.392490 0.013868
O O1 0.878199 0.614703 0.736674
O O2 0.947355 0.767173 0.501870
O O3 0.772901 0.685346 0.610026
O O4 0.750000 0.750000 0.000000
O O5 0.233182 0.516416 0.923448
O O6 0.000000 0.483968 0.250000
O O7 0.173051 0.385538 0.809877
O O8 0.602652 0.612426 0.678101
#
# Coordination Sequence:
#
# PCOD8155118 Si02
#       4
#     8   8   4   8
#     4  12  27  48  75 112 150 196 249 312 376 438
#     4  12  26  48  78 107 151 203 257 305 362 453
#     4  12  28  48  78 112 160 190 248 320 372 446
#     4  12  27  50  74 113 147 201 255 300 381 443
#
# _framework density 23.185358000000001
#
# number of rings (size 3 to 8) (size 9 to 14) (size 15 to 20)
#    0.000    0.000    5.714    3.429    6.000    1.143 
#    0.000    0.000    0.000    0.000    0.000    0.000 
#    0.000    0.000    0.000    0.000    0.000    0.000 
#
# Total GULP energy -173648.692737 kJ/mol
# GULP energy per Si atom -12403.478053 kJ/mol
# Density = 2.313259 g / cm^3
# Si number density = 23.185358 Si / 1000 Ang^3
#
#
#
# Elastic Constant Matrix: (Units=GPa)
#
#
# Indices 1 2 3 4 5 6 
#
# 1 152.1557 62.5913 76.9663 0.0000 -4.6422 0.0000
# 2 62.5913 102.0922 56.4488 0.0000 -12.8945 0.0000
# 3 76.9663 56.4488 171.9904 0.0000 -5.7972 0.0000
# 4 0.0000 0.0000 0.0000 46.4710 0.0000 -2.1947
# 5 -4.6422 -12.8945 -5.7972 0.0000 51.5389 0.0000
# 6 0.0000 0.0000 0.0000 -2.1947 0.0000 48.2530
#
#
#
# Elastic Compliance Matrix: (Units=1/GPa)
#
#
# Indices 1 2 3 4 5 6 
#
# 1 0.009913 -0.004503 -0.002977 0.000000 -0.000569 0.000000
# 2 -0.004503 0.014359 -0.002600 0.000000 0.002894 0.000000
# 3 -0.002977 -0.002600 0.007999 0.000000 -0.000019 0.000000
# 4 0.000000 0.000000 0.000000 0.021565 0.000000 0.000981
# 5 -0.000569 0.002894 -0.000019 0.000000 0.020074 0.000000
# 6 0.000000 0.000000 0.000000 0.000981 0.000000 0.020769
#
#
# Mechanical properties :
#
#
# Convention : Reuss Voigt Hill
#
# Bulk Modulus (GPa) = 82.57306 90.91680 86.74493
# Shear Modulus (GPa) = 42.05994 44.60137 43.33066
#
# Velocity S-wave (km/s) = 4.26381 4.39074 4.32774
# Velocity P-wave (km/s) = 7.74156 8.06244 7.90363
#
# Compressibility (1/GPa) = 0.01211049
#
# Stress axis : x y z
#
# Youngs Moduli (GPa) = 100.87260 69.64186 125.00942
#
# Poissons Ratio (x) = 0.31362 0.37221
# Poissons Ratio (y) = 0.45427 0.32502
# Poissons Ratio (z) = 0.30034 0.18107
#
# Static dielectric constant tensor:
#      x y z
#    x 4.517530 0.000000 0.198210 
#    y 0.000000 4.138880 0.000000 
#    z 0.198210 0.000000 3.823050 
# 
# 
# High freq. dielectric constant tensor:
#      x y z
#    x 1.929350 0.000000 0.014620 
#    y 0.000000 1.919240 0.000000 
#    z 0.014620 0.000000 1.920160 
# 
# From -- ./inp_files/38860.got.cif
#   From: 2010.06.25/outbox.cif.g09.slc.cpg/sg15_20_cif.got.tgz:38860.got - 2010.06.28 07:06:18.
