data_PCOD8155324
_publ_section_title
;
Structure prediction by ZEFSAII (Michael W. Deem and Ramdas Pophale) SiO2 
 PCOD8155324
Probable space group: P 2 2 2
;
_chemical_formula_sum "Si O2"
_cell_formula_units_Z 19
_cell_length_a 9.219301
_cell_length_b 11.233013
_cell_length_c 9.133979
_cell_angle_alpha 90.000000
_cell_angle_beta 90.000000
_cell_angle_gamma 90.000000
_cell_volume 945.919688
_symmetry_space_group_name_H-M "P 2 2 2"
_symmetry_group_IT_number 16
_symmetry_cell_setting 'orthorhombic'
loop_
_space_group_symop_operation_xyz
x,y,z
-x,-y,z
x,-y,-z
-x,y,-z
loop_
_atom_site_type_symbol
_atom_site_label
_atom_site_fract_x
_atom_site_fract_y
_atom_site_fract_z
Si Si1 0.342000 0.187102 0.295075
Si Si2 0.500000 0.500000 0.000000
Si Si3 0.381957 0.712866 0.166996
Si Si4 0.275017 0.624733 0.463912
Si Si5 0.500000 0.000000 0.500000
Si Si6 0.000000 0.500000 0.500000
Si Si7 0.164752 0.862964 0.972427
O O1 0.462465 0.221608 0.171641
O O2 0.288323 0.298235 0.389801
O O3 0.202539 0.153792 0.198553
O O4 0.396413 0.079545 0.397371
O O5 0.394973 0.582021 0.097395
O O6 0.344821 0.701632 0.337268
O O7 0.262902 0.788255 0.083366
O O8 0.357715 0.500000 0.500000
O O9 0.109203 0.589698 0.413481
O O10 0.000000 0.823336 0.000000
O O11 0.191283 0.000000 0.000000
#
# Coordination Sequence:
#
# PCOD8155324 Si02
#       7
#     4   1   4   4   1   1   4
#     4  12  23  44  70 100 132 175 225 284 336 398
#     4  12  24  40  66 108 124 180 216 270 340 404
#     4  12  23  43  69  97 136 172 221 280 336 395
#     4  10  23  41  66  98 133 174 220 270 334 402
#     4  12  24  40  72 106 132 176 234 284 348 380
#     4   8  24  40  62  96 140 176 202 270 338 392
#     4  11  27  46  67  94 135 179 226 271 337 408
#
# _framework density 20.086271
#
# number of rings (size 3 to 8) (size 9 to 14) (size 15 to 20)
#    0.632    0.211    4.211    2.526    2.947    1.684 
#    0.000    0.000    0.000    0.000    0.000    0.000 
#    0.000    0.000    0.000    0.000    0.000    0.000 
#
# Total GULP energy -235466.356353 kJ/mol
# GULP energy per Si atom -12392.966124 kJ/mol
# Density = 2.004055 g / cm^3
# Si number density = 20.086271 Si / 1000 Ang^3
#
#
#
# Elastic Constant Matrix: (Units=GPa)
#
#
# Indices 1 2 3 4 5 6 
#
# 1 127.3600 59.6387 57.2502 0.0000 0.0000 0.0000
# 2 59.6387 117.5085 56.0119 0.0000 0.0000 0.0000
# 3 57.2502 56.0119 125.9241 0.0000 0.0000 0.0000
# 4 0.0000 0.0000 0.0000 43.2756 0.0000 0.0000
# 5 0.0000 0.0000 0.0000 0.0000 30.3992 0.0000
# 6 0.0000 0.0000 0.0000 0.0000 0.0000 35.7287
#
#
#
# Elastic Compliance Matrix: (Units=1/GPa)
#
#
# Indices 1 2 3 4 5 6 
#
# 1 0.011271 -0.004160 -0.003274 0.000000 0.000000 0.000000
# 2 -0.004160 0.012335 -0.003595 0.000000 0.000000 0.000000
# 3 -0.003274 -0.003595 0.011029 0.000000 0.000000 0.000000
# 4 0.000000 0.000000 0.000000 0.023108 0.000000 0.000000
# 5 0.000000 0.000000 0.000000 0.000000 0.032896 0.000000
# 6 0.000000 0.000000 0.000000 0.000000 0.000000 0.027989
#
#
# Mechanical properties :
#
#
# Convention : Reuss Voigt Hill
#
# Bulk Modulus (GPa) = 79.51206 79.62157 79.56682
# Shear Modulus (GPa) = 34.51156 35.07350 34.79253
#
# Velocity S-wave (km/s) = 4.14957 4.18322 4.16643
# Velocity P-wave (km/s) = 7.91390 7.94093 7.92742
#
# Compressibility (1/GPa) = 0.01257671
#
# Stress axis : x y z
#
# Youngs Moduli (GPa) = 88.71940 81.06927 90.66904
#
# Poissons Ratio (x) = 0.33724 0.29686
# Poissons Ratio (y) = 0.36907 0.32600
# Poissons Ratio (z) = 0.29048 0.29148
#
# Static dielectric constant tensor:
#      x y z
#    x 3.713910 0.000000 0.000000 
#    y 0.000000 3.719660 0.000000 
#    z 0.000000 0.000000 3.671620 
# 
# 
# High freq. dielectric constant tensor:
#      x y z
#    x 1.779640 0.000000 0.000000 
#    y 0.000000 1.797210 0.000000 
#    z 0.000000 0.000000 1.791120 
# 
# From -- ./inp_files/3886.got.cif
#   From: 2010.03.12/outbox.cif.g09.slc.cpg/sg16_2_cif.got.tgz:3886.got - 2010.03.31 00:51:45.
