data_PCOD8155465
_publ_section_title
;
Structure prediction by ZEFSAII (Michael W. Deem and Ramdas Pophale) SiO2 
 PCOD8155465
Probable space group: P 2 2 21
;
_chemical_formula_sum "Si O2"
_cell_formula_units_Z 18
_cell_length_a 11.283786
_cell_length_b 9.191044
_cell_length_c 8.543968
_cell_angle_alpha 90.000000
_cell_angle_beta 90.000000
_cell_angle_gamma 90.000000
_cell_volume 886.092987
_symmetry_space_group_name_H-M "P 2 2 21"
_symmetry_group_IT_number 17
_symmetry_cell_setting 'orthorhombic'
loop_
_space_group_symop_operation_xyz
x,y,z
-x,-y,1/2+z
x,-y,-z
-x,y,1/2-z
loop_
_atom_site_type_symbol
_atom_site_label
_atom_site_fract_x
_atom_site_fract_y
_atom_site_fract_z
Si Si1 0.715851 0.733595 0.207711
Si Si2 0.669800 0.685582 0.848668
Si Si3 0.127578 0.501678 0.814129
Si Si4 0.622075 0.012333 0.316139
Si Si5 0.500000 0.456237 0.750000
O O1 0.839794 0.660153 0.254613
O O2 0.723676 0.902333 0.256351
O O3 0.609117 0.648305 0.302481
O O4 0.702567 0.730883 0.022077
O O5 0.778853 0.613672 0.758101
O O6 0.560149 0.571916 0.871465
O O7 0.637756 0.825055 0.745123
O O8 0.000000 0.547077 0.750000
O O9 0.129686 0.500000 0.000000
O O10 0.500000 0.947588 0.250000
O O11 0.618638 0.000000 0.500000
#
# Coordination Sequence:
#
# PCOD8155465 Si02
#       5
#     4   4   4   4   2
#     4  11  23  39  61  88 124 161 203 250 304 361
#     4  11  23  39  61  88 124 161 203 250 304 361
#     4  11  23  42  66  91 121 158 207 254 304 356
#     4  12  24  38  59  88 127 166 202 245 303 365
#     4  10  20  32  58  86 124 152 202 238 304 352
#
# _framework density 20.313894999999999
#
# number of rings (size 3 to 8) (size 9 to 14) (size 15 to 20)
#    0.000    0.889    2.222    7.333    0.000    8.889 
#    0.000    1.111    0.000    0.000    0.000    0.000 
#    0.000    0.000    0.000    0.000    0.000    0.000 
#
# Total GULP energy -223038.011014 kJ/mol
# GULP energy per Si atom -12391.000612 kJ/mol
# Density = 2.026766 g / cm^3
# Si number density = 20.313895 Si / 1000 Ang^3
#
#
#
# Elastic Constant Matrix: (Units=GPa)
#
#
# Indices 1 2 3 4 5 6 
#
# 1 69.8243 31.5356 50.0016 0.0000 0.0000 0.0000
# 2 31.5356 125.0521 39.4434 0.0000 0.0000 0.0000
# 3 50.0016 39.4434 167.6918 0.0000 0.0000 0.0000
# 4 0.0000 0.0000 0.0000 27.0749 0.0000 0.0000
# 5 0.0000 0.0000 0.0000 0.0000 27.1971 0.0000
# 6 0.0000 0.0000 0.0000 0.0000 0.0000 21.6474
#
#
#
# Elastic Compliance Matrix: (Units=1/GPa)
#
#
# Indices 1 2 3 4 5 6 
#
# 1 0.019403 -0.003314 -0.005006 0.000000 0.000000 0.000000
# 2 -0.003314 0.009204 -0.001177 0.000000 0.000000 0.000000
# 3 -0.005006 -0.001177 0.007733 0.000000 0.000000 0.000000
# 4 0.000000 0.000000 0.000000 0.036935 0.000000 0.000000
# 5 0.000000 0.000000 0.000000 0.000000 0.036769 0.000000
# 6 0.000000 0.000000 0.000000 0.000000 0.000000 0.046195
#
#
# Mechanical properties :
#
#
# Convention : Reuss Voigt Hill
#
# Bulk Modulus (GPa) = 57.65011 67.16993 62.41002
# Shear Modulus (GPa) = 27.62227 31.28973 29.45600
#
# Velocity S-wave (km/s) = 3.69151 3.92894 3.81207
# Velocity P-wave (km/s) = 6.82722 7.32938 7.08275
#
# Compressibility (1/GPa) = 0.01734602
#
# Stress axis : x y z
#
# Youngs Moduli (GPa) = 51.53752 108.65377 129.31998
#
# Poissons Ratio (x) = 0.36009 0.64738
# Poissons Ratio (y) = 0.17080 0.15216
# Poissons Ratio (z) = 0.25800 0.12784
#
# Static dielectric constant tensor:
#      x y z
#    x 3.625890 0.000000 0.000000 
#    y 0.000000 2.926410 0.000000 
#    z 0.000000 0.000000 3.639050 
# 
# 
# High freq. dielectric constant tensor:
#      x y z
#    x 1.767940 0.000000 0.000000 
#    y 0.000000 1.808860 0.000000 
#    z 0.000000 0.000000 1.803130 
# 
# From -- ./inp_files/3919.got.cif
#   From: 2010.03.12/outbox.cif.g09.slc.cpg/sg17_2_cif.got.tgz:3919.got - 2010.04.10 18:46:23.
