data_PCOD8155337
_publ_section_title
;
Structure prediction by ZEFSAII (Michael W. Deem and Ramdas Pophale) SiO2 
 PCOD8155337
Probable space group: P 2 2 2
;
_chemical_formula_sum "Si O2"
_cell_formula_units_Z 15
_cell_length_a 5.587337
_cell_length_b 5.156216
_cell_length_c 19.448940
_cell_angle_alpha 90.000000
_cell_angle_beta 90.000000
_cell_angle_gamma 90.000000
_cell_volume 560.314557
_symmetry_space_group_name_H-M "P 2 2 2"
_symmetry_group_IT_number 16
_symmetry_cell_setting 'orthorhombic'
loop_
_space_group_symop_operation_xyz
x,y,z
-x,-y,z
x,-y,-z
-x,y,-z
loop_
_atom_site_type_symbol
_atom_site_label
_atom_site_fract_x
_atom_site_fract_y
_atom_site_fract_z
Si Si1 0.000000 0.000000 0.850292
Si Si2 0.500000 0.000000 0.500000
Si Si3 0.652997 0.740628 0.248302
Si Si4 0.152557 0.743806 0.603837
Si Si5 0.748608 0.597225 0.921961
O O1 0.216064 0.099152 0.902045
O O2 0.880893 0.217906 0.801405
O O3 0.653234 0.194339 0.546249
O O4 0.500000 0.500000 0.218803
O O5 0.731463 0.659962 0.324479
O O6 0.500000 0.000000 0.250839
O O7 0.000000 0.500000 0.576559
O O8 0.000000 0.000000 0.617176
O O9 0.500000 0.500000 0.887561
O O10 0.000000 0.500000 0.888792
O O11 0.743485 0.500000 0.000000
#
# Coordination Sequence:
#
# PCOD8155337 Si02
#       5
#     2   1   4   4   4
#     4  12  30  49  86 125 168 226 292 362 440 539
#     4  12  30  54  80 124 168 238 278 364 440 524
#     4  12  29  53  84 122 172 225 289 366 439 522
#     4  12  28  54  82 120 169 226 291 360 433 524
#     4  10  26  52  81 121 172 222 282 356 440 537
#
# _framework density 26.770679999999999
#
# number of rings (size 3 to 8) (size 9 to 14) (size 15 to 20)
#    0.000    0.533    2.667    2.000    7.467    5.333 
#    0.000   10.667    0.000    0.000    0.000    0.000 
#    0.000    0.000    0.000    0.000    0.000    0.000 
#
# Total GULP energy -185844.156071 kJ/mol
# GULP energy per Si atom -12389.610405 kJ/mol
# Density = 2.670975 g / cm^3
# Si number density = 26.770680 Si / 1000 Ang^3
#
#
#
# Elastic Constant Matrix: (Units=GPa)
#
#
# Indices 1 2 3 4 5 6 
#
# 1 204.8328 84.2465 64.9585 0.0000 0.0000 0.0000
# 2 84.2465 169.1007 60.9722 0.0000 0.0000 0.0000
# 3 64.9585 60.9722 199.8359 0.0000 0.0000 0.0000
# 4 0.0000 0.0000 0.0000 -54.2911 0.0000 0.0000
# 5 0.0000 0.0000 0.0000 0.0000 -284.9715 0.0000
# 6 0.0000 0.0000 0.0000 0.0000 0.0000 75.5706
#
#
#
# Elastic Compliance Matrix: (Units=1/GPa)
#
#
# Indices 1 2 3 4 5 6 
#
# 1 0.006405 -0.002742 -0.001245 0.000000 0.000000 0.000000
# 2 -0.002742 0.007818 -0.001494 0.000000 0.000000 0.000000
# 3 -0.001245 -0.001494 0.005865 0.000000 0.000000 0.000000
# 4 0.000000 0.000000 0.000000 -0.018419 0.000000 0.000000
# 5 0.000000 0.000000 0.000000 0.000000 -0.003509 0.000000
# 6 0.000000 0.000000 0.000000 0.000000 0.000000 0.013233
#
#
# Mechanical properties :
#
#
# Convention : Reuss Voigt Hill
#
# Bulk Modulus (GPa) = 109.58750 110.45819 110.02284
# Shear Modulus (GPa) = 196.87695 -28.49892 84.18901
#
# Velocity S-wave (km/s) = 8.58497 -3.26629 5.61395
# Velocity P-wave (km/s) = 11.80226 5.20822 9.12192
#
# Compressibility (1/GPa) = 0.00912513
#
# Stress axis : x y z
#
# Youngs Moduli (GPa) = 156.13673 127.90390 170.50822
#
# Poissons Ratio (x) = 0.35068 0.21234
# Poissons Ratio (y) = 0.42809 0.25478
# Poissons Ratio (z) = 0.19444 0.19112
#
# Static dielectric constant tensor:
#      x y z
#    x 6.143070 0.000000 0.000000 
#    y 0.000000 5.525760 0.000000 
#    z 0.000000 0.000000 4.868400 
# 
# 
# High freq. dielectric constant tensor:
#      x y z
#    x 2.090360 0.000000 0.000000 
#    y 0.000000 2.078300 0.000000 
#    z 0.000000 0.000000 2.101070 
# 
# From -- ./inp_files/9144.got.cif
#   From: 2010.03.12/outbox.cif.g09.slc.cpg/sg16_5_cif.got.tgz:9144.got - 2010.03.31 00:51:45.
