data_PCOD8155835
_publ_section_title
;
Structure prediction by ZEFSAII (Michael W. Deem and Ramdas Pophale) SiO2 
 PCOD8155835
Probable space group: P 21 21 2
;
_chemical_formula_sum "Si O2"
_cell_formula_units_Z 24
_cell_length_a 11.573507
_cell_length_b 17.084548
_cell_length_c 5.475802
_cell_angle_alpha 90.000000
_cell_angle_beta 90.000000
_cell_angle_gamma 90.000000
_cell_volume 1082.720122
_symmetry_space_group_name_H-M "P 21 21 2"
_symmetry_group_IT_number 18
_symmetry_cell_setting 'orthorhombic'
loop_
_space_group_symop_operation_xyz
x,y,z
-x,-y,z
1/2+x,1/2-y,-z
1/2-x,1/2+y,-z
loop_
_atom_site_type_symbol
_atom_site_label
_atom_site_fract_x
_atom_site_fract_y
_atom_site_fract_z
Si Si1 0.000000 0.500000 0.283079
Si Si2 0.143053 0.592676 0.646386
Si Si3 0.707985 0.489264 0.011298
Si Si4 0.000000 0.000000 0.325921
Si Si5 0.844622 0.626368 0.159599
Si Si6 0.083945 0.303886 0.667067
Si Si7 0.624202 0.372174 0.397630
O O1 0.108339 0.526850 0.449627
O O2 0.039099 0.425527 0.126108
O O3 0.172844 0.542702 0.889242
O O4 0.260518 0.636628 0.563052
O O5 0.041958 0.656151 0.683976
O O6 0.614727 0.520273 0.821370
O O7 0.736827 0.566142 0.171920
O O8 0.654997 0.416175 0.150311
O O9 0.022610 0.077906 0.480689
O O10 0.849407 0.672445 0.416864
O O11 0.840941 0.678301 0.912227
O O12 0.068200 0.211104 0.662480
#
# Coordination Sequence:
#
# PCOD8155835 Si02
#       7
#     2   4   4   2   4   4   4
#     4  10  18  42  70 104 132 172 244 290 350 420
#     4  10  22  41  71  99 138 183 232 301 351 419
#     4  11  22  45  73  99 134 193 244 288 347 430
#     4  10  26  44  72  92 138 192 242 288 338 432
#     4  11  23  42  71 103 135 180 233 293 357 417
#     4  11  27  43  68 109 147 177 231 300 363 416
#     4  11  25  47  66 104 142 190 238 289 358 422
#
# _framework density 22.166391000000001
#
# number of rings (size 3 to 8) (size 9 to 14) (size 15 to 20)
#    0.000    1.333    1.667    3.500    9.333    2.000 
#    3.000    0.000    0.000    0.000    0.000    0.000 
#    0.000    0.000    0.000    0.000    0.000    0.000 
#
# Total GULP energy -297495.614823 kJ/mol
# GULP energy per Si atom -12395.650618 kJ/mol
# Density = 2.211594 g / cm^3
# Si number density = 22.166391 Si / 1000 Ang^3
#
#
#
# Elastic Constant Matrix: (Units=GPa)
#
#
# Indices 1 2 3 4 5 6 
#
# 1 85.8942 53.7773 26.6053 0.0000 0.0000 0.0000
# 2 53.7773 162.0798 64.1663 0.0000 0.0000 0.0000
# 3 26.6053 64.1663 131.6551 0.0000 0.0000 0.0000
# 4 0.0000 0.0000 0.0000 76.6830 0.0000 0.0000
# 5 0.0000 0.0000 0.0000 0.0000 21.5875 0.0000
# 6 0.0000 0.0000 0.0000 0.0000 0.0000 35.7668
#
#
#
# Elastic Compliance Matrix: (Units=1/GPa)
#
#
# Indices 1 2 3 4 5 6 
#
# 1 0.014752 -0.004603 -0.000738 0.000000 0.000000 0.000000
# 2 -0.004603 0.009081 -0.003496 0.000000 0.000000 0.000000
# 3 -0.000738 -0.003496 0.009448 0.000000 0.000000 0.000000
# 4 0.000000 0.000000 0.000000 0.013041 0.000000 0.000000
# 5 0.000000 0.000000 0.000000 0.000000 0.046323 0.000000
# 6 0.000000 0.000000 0.000000 0.000000 0.000000 0.027959
#
#
# Mechanical properties :
#
#
# Convention : Reuss Voigt Hill
#
# Bulk Modulus (GPa) = 64.06511 74.30300 69.18405
# Shear Modulus (GPa) = 34.84799 42.47947 38.66373
#
# Velocity S-wave (km/s) = 3.96928 4.38241 4.18095
# Velocity P-wave (km/s) = 7.06906 7.69420 7.38824
#
# Compressibility (1/GPa) = 0.01560912
#
# Stress axis : x y z
#
# Youngs Moduli (GPa) = 67.78528 110.12158 105.83692
#
# Poissons Ratio (x) = 0.50685 0.07811
# Poissons Ratio (y) = 0.31199 0.36998
# Poissons Ratio (z) = 0.05002 0.38496
#
# Static dielectric constant tensor:
#      x y z
#    x 3.892030 0.000000 0.000000 
#    y 0.000000 3.856230 0.000000 
#    z 0.000000 0.000000 4.154710 
# 
# 
# High freq. dielectric constant tensor:
#      x y z
#    x 1.868900 0.000000 0.000000 
#    y 0.000000 1.862960 0.000000 
#    z 0.000000 0.000000 1.884970 
# 
# From -- ./inp_files/1143.got.cif
#   From: 2010.03.12/outbox.cif.g09.slc.cpg/sg18_1_cif.got.tgz:1143.got - 2010.04.10 18:53:55.
