data_PCOD8155888
_publ_section_title
;
Structure prediction by ZEFSAII (Michael W. Deem and Ramdas Pophale) SiO2 
 PCOD8155888
Probable space group: P 21 21 2
;
_chemical_formula_sum "Si O2"
_cell_formula_units_Z 26
_cell_length_a 7.887617
_cell_length_b 16.706219
_cell_length_c 10.038390
_cell_angle_alpha 90.000000
_cell_angle_beta 90.000000
_cell_angle_gamma 90.000000
_cell_volume 1322.781307
_symmetry_space_group_name_H-M "P 21 21 2"
_symmetry_group_IT_number 18
_symmetry_cell_setting 'orthorhombic'
loop_
_space_group_symop_operation_xyz
x,y,z
-x,-y,z
1/2+x,1/2-y,-z
1/2-x,1/2+y,-z
loop_
_atom_site_type_symbol
_atom_site_label
_atom_site_fract_x
_atom_site_fract_y
_atom_site_fract_z
Si Si1 0.924325 0.809858 0.837309
Si Si2 0.405332 0.881606 0.759070
Si Si3 0.972387 0.835641 0.370715
Si Si4 0.435595 0.259594 0.894344
Si Si5 0.167955 0.767124 0.606137
Si Si6 0.248338 0.040552 0.728625
Si Si7 0.500000 0.500000 0.497979
O O1 0.758163 0.761812 0.874018
O O2 0.885213 0.903928 0.809085
O O3 0.013330 0.768244 0.711138
O O4 0.048895 0.802083 0.962984
O O5 0.445936 0.820227 0.880197
O O6 0.299275 0.837854 0.643563
O O7 0.583660 0.908808 0.694426
O O8 0.300200 0.959701 0.810689
O O9 0.772724 0.816028 0.394798
O O10 0.020107 0.925322 0.405677
O O11 0.011408 0.823663 0.216194
O O12 0.090159 0.777557 0.459811
O O13 0.166488 0.012071 0.591001
#
# Coordination Sequence:
#
# PCOD8155888 Si02
#       7
#     4   4   4   4   4   4   2
#     4  11  21  40  65  88 121 166 212 255 307 374
#     4   9  19  35  59  93 121 156 208 260 303 368
#     4  11  23  37  59  90 126 157 204 253 309 364
#     4  10  22  38  60  91 126 163 206 256 310 371
#     4  11  21  37  61  88 120 160 206 252 303 370
#     4  10  19  36  61  93 121 161 209 260 306 368
#     4  12  22  38  58  90 128 162 204 256 310 364
#
# _framework density 19.655555
#
# number of rings (size 3 to 8) (size 9 to 14) (size 15 to 20)
#    0.000    1.538    3.077    2.769    4.308    0.000 
#    0.000    3.846    0.000    1.846    0.000    0.000 
#    0.000    0.000    0.000    0.000    0.000    0.000 
#
# Total GULP energy -322298.274481 kJ/mol
# GULP energy per Si atom -12396.087480 kJ/mol
# Density = 1.961082 g / cm^3
# Si number density = 19.655555 Si / 1000 Ang^3
#
#
#
# Elastic Constant Matrix: (Units=GPa)
#
#
# Indices 1 2 3 4 5 6 
#
# 1 88.8885 30.7693 5.1632 0.0000 0.0000 0.0000
# 2 30.7693 109.3645 20.4511 0.0000 0.0000 0.0000
# 3 5.1632 20.4511 37.9462 0.0000 0.0000 0.0000
# 4 0.0000 0.0000 0.0000 19.9795 0.0000 0.0000
# 5 0.0000 0.0000 0.0000 0.0000 30.9834 0.0000
# 6 0.0000 0.0000 0.0000 0.0000 0.0000 36.1563
#
#
#
# Elastic Compliance Matrix: (Units=1/GPa)
#
#
# Indices 1 2 3 4 5 6 
#
# 1 0.012465 -0.003547 0.000216 0.000000 0.000000 0.000000
# 2 -0.003547 0.011178 -0.005542 0.000000 0.000000 0.000000
# 3 0.000216 -0.005542 0.029310 0.000000 0.000000 0.000000
# 4 0.000000 0.000000 0.000000 0.050051 0.000000 0.000000
# 5 0.000000 0.000000 0.000000 0.000000 0.032275 0.000000
# 6 0.000000 0.000000 0.000000 0.000000 0.000000 0.027658
#
#
# Mechanical properties :
#
#
# Convention : Reuss Voigt Hill
#
# Bulk Modulus (GPa) = 28.40330 38.77404 33.58867
# Shear Modulus (GPa) = 25.98471 29.41156 27.69813
#
# Velocity S-wave (km/s) = 3.63988 3.87246 3.75797
# Velocity P-wave (km/s) = 5.66982 6.30589 5.99629
#
# Compressibility (1/GPa) = 0.03520718
#
# Stress axis : x y z
#
# Youngs Moduli (GPa) = 80.22146 89.46063 34.11753
#
# Poissons Ratio (x) = 0.31736 -0.00736
# Poissons Ratio (y) = 0.28458 0.18907
# Poissons Ratio (z) = -0.01731 0.49577
#
# Static dielectric constant tensor:
#      x y z
#    x 3.929470 0.000000 0.000000 
#    y 0.000000 3.753860 0.000000 
#    z 0.000000 0.000000 3.366830 
# 
# 
# High freq. dielectric constant tensor:
#      x y z
#    x 1.790020 0.000000 0.000000 
#    y 0.000000 1.762750 0.000000 
#    z 0.000000 0.000000 1.736430 
# 
# From -- ./inp_files/3380.got.cif
#   From: 2010.03.12/outbox.cif.g09.slc.cpg/sg18_2_cif.got.tgz:3380.got - 2010.04.10 18:53:55.
