data_PCOD8155229
_publ_section_title
;
Structure prediction by ZEFSAII (Michael W. Deem and Ramdas Pophale) SiO2 
 PCOD8155229
Probable space group: P 2 2 2
;
_chemical_formula_sum "Si O2"
_cell_formula_units_Z 32
_cell_length_a 9.564686
_cell_length_b 11.500910
_cell_length_c 16.619451
_cell_angle_alpha 90.000000
_cell_angle_beta 90.000000
_cell_angle_gamma 90.000000
_cell_volume 1828.182702
_symmetry_space_group_name_H-M "P 2 2 2"
_symmetry_group_IT_number 16
_symmetry_cell_setting 'orthorhombic'
loop_
_space_group_symop_operation_xyz
x,y,z
-x,-y,z
x,-y,-z
-x,y,-z
loop_
_atom_site_type_symbol
_atom_site_label
_atom_site_fract_x
_atom_site_fract_y
_atom_site_fract_z
Si Si1 0.337678 0.862334 0.503798
Si Si2 0.226533 0.866237 0.195403
Si Si3 0.264428 0.862998 0.807552
Si Si4 0.831629 0.249998 0.358861
Si Si5 0.836549 0.500912 0.411323
Si Si6 0.481063 0.863554 0.089362
Si Si7 0.165853 0.751399 0.646225
Si Si8 0.020960 0.864944 0.914391
O O1 0.500000 0.818373 0.500000
O O2 0.245661 0.812357 0.431740
O O3 0.259667 0.825715 0.585343
O O4 0.335948 0.000000 0.500000
O O5 0.239813 0.796393 0.277896
O O6 0.331703 0.828271 0.124752
O O7 0.078730 0.828264 0.158648
O O8 0.246890 0.001898 0.217144
O O9 0.416217 0.824405 0.838399
O O10 0.214361 0.784180 0.734852
O O11 0.176067 0.835988 0.887229
O O12 0.794474 0.386677 0.361375
O O13 0.999106 0.225695 0.365197
O O14 0.764694 0.500000 0.500000
O O15 0.793174 0.616365 0.363692
O O16 0.000000 0.500000 0.425272
O O17 0.500000 0.000000 0.077983
O O18 0.500000 0.806038 0.000000
O O19 0.000000 0.000000 0.929447
O O20 0.000000 0.799635 0.000000
#
# Coordination Sequence:
#
# PCOD8155229 Si02
#       8
#     4   4   4   4   4   4   4   4
#     4  11  25  38  53  78 112 147 174 209 268 331
#     4  10  19  30  49  78 109 139 174 214 262 323
#     4  10  19  30  49  78 109 139 174 214 262 323
#     4  11  21  37  58  79 105 141 183 227 273 314
#     4   9  18  36  58  78  99 136 186 236 270 311
#     4   9  18  32  50  74 109 150 178 204 257 325
#     4  11  21  37  58  79 105 141 183 227 273 314
#     4   9  16  28  46  72 105 134 168 214 259 313
#
# _framework density 17.503723000000001
#
# number of rings (size 3 to 8) (size 9 to 14) (size 15 to 20)
#    0.000    2.000    2.500    1.875    1.750    5.000 
#    0.000    1.250    0.000    0.000    0.000    5.250 
#    0.000    0.000    0.000    0.000    0.000    0.000 
#
# Total GULP energy -396525.073299 kJ/mol
# GULP energy per Si atom -12391.408541 kJ/mol
# Density = 1.746388 g / cm^3
# Si number density = 17.503723 Si / 1000 Ang^3
#
#
#
# Elastic Constant Matrix: (Units=GPa)
#
#
# Indices 1 2 3 4 5 6 
#
# 1 67.2090 25.4315 22.1870 0.0000 0.0000 0.0000
# 2 25.4315 79.7137 46.1254 0.0000 0.0000 0.0000
# 3 22.1870 46.1254 119.1002 0.0000 0.0000 0.0000
# 4 0.0000 0.0000 0.0000 -11.7078 0.0000 0.0000
# 5 0.0000 0.0000 0.0000 0.0000 20.8281 0.0000
# 6 0.0000 0.0000 0.0000 0.0000 0.0000 12.1473
#
#
#
# Elastic Compliance Matrix: (Units=1/GPa)
#
#
# Indices 1 2 3 4 5 6 
#
# 1 0.017097 -0.004655 -0.001382 0.000000 0.000000 0.000000
# 2 -0.004655 0.017435 -0.005885 0.000000 0.000000 0.000000
# 3 -0.001382 -0.005885 0.010933 0.000000 0.000000 0.000000
# 4 0.000000 0.000000 0.000000 -0.085413 0.000000 0.000000
# 5 0.000000 0.000000 0.000000 0.000000 0.048012 0.000000
# 6 0.000000 0.000000 0.000000 0.000000 0.000000 0.082323
#
#
# Mechanical properties :
#
#
# Convention : Reuss Voigt Hill
#
# Bulk Modulus (GPa) = 46.25203 50.39005 48.32104
# Shear Modulus (GPa) = 41.17341 15.73880 28.45610
#
# Velocity S-wave (km/s) = 4.85528 3.00187 4.03639
# Velocity P-wave (km/s) = 7.61007 6.39262 7.02776
#
# Compressibility (1/GPa) = 0.02162067
#
# Stress axis : x y z
#
# Youngs Moduli (GPa) = 58.49142 57.35482 91.46569
#
# Poissons Ratio (x) = 0.26696 0.12643
# Poissons Ratio (y) = 0.27225 0.53830
# Poissons Ratio (z) = 0.08085 0.33755
#
# Static dielectric constant tensor:
#      x y z
#    x 3.274290 0.000000 0.000000 
#    y 0.000000 3.170990 0.000000 
#    z 0.000000 0.000000 3.532960 
# 
# 
# High freq. dielectric constant tensor:
#      x y z
#    x 1.679390 0.000000 0.000000 
#    y 0.000000 1.630620 0.000000 
#    z 0.000000 0.000000 1.693350 
# 
# From -- ./inp_files/8006.got.cif
#   From: 2010.03.12/outbox.cif.g09.slc.cpg/sg16_5_cif.got.tgz:8006.got - 2010.03.31 00:51:45.
