data_PCOD8155880
_publ_section_title
;
Structure prediction by ZEFSAII (Michael W. Deem and Ramdas Pophale) SiO2 
 PCOD8155880
Probable space group: P 21 21 2
;
_chemical_formula_sum "Si O2"
_cell_formula_units_Z 24
_cell_length_a 15.791662
_cell_length_b 8.827260
_cell_length_c 8.637589
_cell_angle_alpha 90.000000
_cell_angle_beta 90.000000
_cell_angle_gamma 90.000000
_cell_volume 1204.054912
_symmetry_space_group_name_H-M "P 21 21 2"
_symmetry_group_IT_number 18
_symmetry_cell_setting 'orthorhombic'
loop_
_space_group_symop_operation_xyz
x,y,z
-x,-y,z
1/2+x,1/2-y,-z
1/2-x,1/2+y,-z
loop_
_atom_site_type_symbol
_atom_site_label
_atom_site_fract_x
_atom_site_fract_y
_atom_site_fract_z
Si Si1 0.678358 0.661513 0.346132
Si Si2 0.239525 0.096365 0.838529
Si Si3 0.590237 0.052552 0.769028
Si Si4 0.179970 0.164640 0.170173
Si Si5 0.742979 0.601384 0.670733
Si Si6 0.409287 0.048580 0.412757
O O1 0.668316 0.525635 0.220152
O O2 0.750114 0.773462 0.287248
O O3 0.709456 0.576254 0.498728
O O4 0.597529 0.768210 0.384760
O O5 0.256228 0.222137 0.709268
O O6 0.330093 0.013338 0.866641
O O7 0.206114 0.178902 0.991323
O O8 0.595551 0.236404 0.792091
O O9 0.500000 0.000000 0.838819
O O10 0.598268 0.997425 0.592678
O O11 0.176593 0.986464 0.215030
O O12 0.838603 0.538974 0.685882
O O13 0.500000 0.000000 0.346264
#
# Coordination Sequence:
#
# PCOD8155880 Si02
#       6
#     4   4   4   4   4   4
#     4  10  19  36  58  88 116 156 207 242 297 366
#     4  11  20  36  60  89 122 161 198 248 301 374
#     4  10  20  38  61  88 117 154 207 254 308 361
#     4  10  21  35  58  92 119 160 203 239 305 375
#     4  11  18  35  61  86 119 154 202 249 295 364
#     4  10  20  36  60  89 115 151 203 263 305 346
#
# _framework density 19.932645000000001
#
# number of rings (size 3 to 8) (size 9 to 14) (size 15 to 20)
#    0.000    1.667    5.000    3.000    0.000    0.000 
#    0.000    9.167    0.000    4.000    0.000    0.000 
#    0.000    0.000    0.000    0.000    0.000    0.000 
#
# Total GULP energy -297384.776970 kJ/mol
# GULP energy per Si atom -12391.032374 kJ/mol
# Density = 1.988728 g / cm^3
# Si number density = 19.932645 Si / 1000 Ang^3
#
#
#
# Elastic Constant Matrix: (Units=GPa)
#
#
# Indices 1 2 3 4 5 6 
#
# 1 103.0021 58.4849 24.7545 0.0000 0.0000 0.0000
# 2 58.4849 126.4272 22.0484 0.0000 0.0000 0.0000
# 3 24.7545 22.0484 71.3869 0.0000 0.0000 0.0000
# 4 0.0000 0.0000 0.0000 37.8483 0.0000 0.0000
# 5 0.0000 0.0000 0.0000 0.0000 12.1144 0.0000
# 6 0.0000 0.0000 0.0000 0.0000 0.0000 32.7254
#
#
#
# Elastic Compliance Matrix: (Units=1/GPa)
#
#
# Indices 1 2 3 4 5 6 
#
# 1 0.013734 -0.005837 -0.002960 0.000000 0.000000 0.000000
# 2 -0.005837 0.010841 -0.001324 0.000000 0.000000 0.000000
# 3 -0.002960 -0.001324 0.015443 0.000000 0.000000 0.000000
# 4 0.000000 0.000000 0.000000 0.026421 0.000000 0.000000
# 5 0.000000 0.000000 0.000000 0.000000 0.082546 0.000000
# 6 0.000000 0.000000 0.000000 0.000000 0.000000 0.030557
#
#
# Mechanical properties :
#
#
# Convention : Reuss Voigt Hill
#
# Bulk Modulus (GPa) = 50.56519 56.82132 53.69326
# Shear Modulus (GPa) = 24.22743 29.57287 26.90015
#
# Velocity S-wave (km/s) = 3.49013 3.85598 3.67761
# Velocity P-wave (km/s) = 6.45480 6.95653 6.71036
#
# Compressibility (1/GPa) = 0.01977645
#
# Stress axis : x y z
#
# Youngs Moduli (GPa) = 72.81068 92.24312 64.75236
#
# Poissons Ratio (x) = 0.53845 0.19165
# Poissons Ratio (y) = 0.42502 0.08574
# Poissons Ratio (z) = 0.21550 0.12214
#
# Static dielectric constant tensor:
#      x y z
#    x 3.533530 0.000000 0.000000 
#    y 0.000000 4.067950 0.000000 
#    z 0.000000 0.000000 3.364540 
# 
# 
# High freq. dielectric constant tensor:
#      x y z
#    x 1.732620 0.000000 0.000000 
#    y 0.000000 1.796050 0.000000 
#    z 0.000000 0.000000 1.770870 
# 
# From -- ./inp_files/3292.got.cif
#   From: 2010.03.12/outbox.cif.g09.slc.cpg/sg18_2_cif.got.tgz:3292.got - 2010.04.10 18:53:55.
