data_PCOD8155955
_publ_section_title
;
Structure prediction by ZEFSAII (Michael W. Deem and Ramdas Pophale) SiO2 
 PCOD8155955
Probable space group: P 21 21 2
;
_chemical_formula_sum "Si O2"
_cell_formula_units_Z 32
_cell_length_a 14.037988
_cell_length_b 13.071583
_cell_length_c 8.200904
_cell_angle_alpha 90.000000
_cell_angle_beta 90.000000
_cell_angle_gamma 90.000000
_cell_volume 1504.855430
_symmetry_space_group_name_H-M "P 21 21 2"
_symmetry_group_IT_number 18
_symmetry_cell_setting 'orthorhombic'
loop_
_space_group_symop_operation_xyz
x,y,z
-x,-y,z
1/2+x,1/2-y,-z
1/2-x,1/2+y,-z
loop_
_atom_site_type_symbol
_atom_site_label
_atom_site_fract_x
_atom_site_fract_y
_atom_site_fract_z
Si Si1 0.547441 0.108898 0.319887
Si Si2 0.374313 0.592711 0.432393
Si Si3 0.644495 0.205045 0.604422
Si Si4 0.286884 0.427749 0.227970
Si Si5 0.020430 0.814138 0.795974
Si Si6 0.366805 0.691742 0.935981
Si Si7 0.609989 0.506417 0.769862
Si Si8 0.269520 0.867558 0.100069
O O1 0.566179 0.138650 0.508162
O O2 0.476034 0.193099 0.244017
O O3 0.646870 0.103246 0.223280
O O4 0.500000 0.000000 0.310568
O O5 0.324091 0.696609 0.495555
O O6 0.310942 0.541429 0.290211
O O7 0.476031 0.623001 0.355970
O O8 0.388099 0.511090 0.576127
O O9 0.736735 0.134508 0.627258
O O10 0.602313 0.240350 0.778527
O O11 0.377223 0.361127 0.170205
O O12 0.222498 0.436249 0.065197
O O13 0.960112 0.828705 0.958865
O O14 0.331524 0.582284 0.867167
O O15 0.284530 0.748632 0.042823
O O16 0.500000 0.500000 0.827978
O O17 0.666625 0.611697 0.812424
#
# Coordination Sequence:
#
# PCOD8155955 Si02
#       8
#     4   4   4   4   4   4   4   4
#     4  10  22  41  62  83 118 164 204 244 298 368
#     4  10  21  36  56  86 120 151 193 249 303 357
#     4   9  21  39  59  85 119 155 196 248 299 356
#     4  11  20  35  60  87 117 155 199 249 306 361
#     4  10  20  36  58  84 114 152 197 247 306 361
#     4   9  20  38  56  83 121 153 195 252 302 361
#     4  11  20  34  61  91 120 159 206 256 310 366
#     4  10  22  37  57  87 122 159 199 249 304 356
#
# _framework density 21.264500999999999
#
# number of rings (size 3 to 8) (size 9 to 14) (size 15 to 20)
#    0.000    2.000    0.000    3.375    0.000    4.000 
#    0.000    6.875    0.000   13.500    0.000    0.000 
#    0.000    0.000    0.000    0.000    0.000    0.000 
#
# Total GULP energy -396597.054565 kJ/mol
# GULP energy per Si atom -12393.657955 kJ/mol
# Density = 2.121610 g / cm^3
# Si number density = 21.264501 Si / 1000 Ang^3
#
#
#
# Elastic Constant Matrix: (Units=GPa)
#
#
# Indices 1 2 3 4 5 6 
#
# 1 55.1576 21.7958 16.6006 0.0000 0.0000 0.0000
# 2 21.7958 81.0680 29.9017 0.0000 0.0000 0.0000
# 3 16.6006 29.9017 91.8849 0.0000 0.0000 0.0000
# 4 0.0000 0.0000 0.0000 35.1656 0.0000 0.0000
# 5 0.0000 0.0000 0.0000 0.0000 25.2566 0.0000
# 6 0.0000 0.0000 0.0000 0.0000 0.0000 32.5598
#
#
#
# Elastic Compliance Matrix: (Units=1/GPa)
#
#
# Indices 1 2 3 4 5 6 
#
# 1 0.020665 -0.004749 -0.002188 0.000000 0.000000 0.000000
# 2 -0.004749 0.015109 -0.004059 0.000000 0.000000 0.000000
# 3 -0.002188 -0.004059 0.012599 0.000000 0.000000 0.000000
# 4 0.000000 0.000000 0.000000 0.028437 0.000000 0.000000
# 5 0.000000 0.000000 0.000000 0.000000 0.039594 0.000000
# 6 0.000000 0.000000 0.000000 0.000000 0.000000 0.030713
#
#
# Mechanical properties :
#
#
# Convention : Reuss Voigt Hill
#
# Bulk Modulus (GPa) = 37.90500 40.52295 39.21397
# Shear Modulus (GPa) = 28.10529 29.25056 28.67792
#
# Velocity S-wave (km/s) = 3.63946 3.71288 3.67635
# Velocity P-wave (km/s) = 5.96029 6.12198 6.04168
#
# Compressibility (1/GPa) = 0.02638174
#
# Stress axis : x y z
#
# Youngs Moduli (GPa) = 48.39116 66.18470 79.36894
#
# Poissons Ratio (x) = 0.31430 0.17366
# Poissons Ratio (y) = 0.22980 0.32216
# Poissons Ratio (z) = 0.10588 0.26864
#
# Static dielectric constant tensor:
#      x y z
#    x 3.557840 0.000000 0.000000 
#    y 0.000000 3.934500 0.000000 
#    z 0.000000 0.000000 4.182780 
# 
# 
# High freq. dielectric constant tensor:
#      x y z
#    x 1.793530 0.000000 0.000000 
#    y 0.000000 1.833180 0.000000 
#    z 0.000000 0.000000 1.860590 
# 
# From -- ./inp_files/4325.got.cif
#   From: 2010.03.12/outbox.cif.g09.slc.cpg/sg18_3_cif.got.tgz:4325.got - 2010.04.10 18:53:55.
