data_PCOD8155668
_publ_section_title
;
Structure prediction by ZEFSAII (Michael W. Deem and Ramdas Pophale) SiO2 
 PCOD8155668
Probable space group: P 2 2 21
;
_chemical_formula_sum "Si O2"
_cell_formula_units_Z 30
_cell_length_a 10.629785
_cell_length_b 9.536775
_cell_length_c 14.418714
_cell_angle_alpha 90.000000
_cell_angle_beta 90.000000
_cell_angle_gamma 90.000000
_cell_volume 1461.680808
_symmetry_space_group_name_H-M "P 2 2 21"
_symmetry_group_IT_number 17
_symmetry_cell_setting 'orthorhombic'
loop_
_space_group_symop_operation_xyz
x,y,z
-x,-y,1/2+z
x,-y,-z
-x,y,1/2-z
loop_
_atom_site_type_symbol
_atom_site_label
_atom_site_fract_x
_atom_site_fract_y
_atom_site_fract_z
Si Si1 0.062289 0.996109 0.148692
Si Si2 0.989488 0.781061 0.994747
Si Si3 0.853492 0.500000 0.500000
Si Si4 0.298604 0.208521 0.452784
Si Si5 0.331538 0.114325 0.827708
Si Si6 0.601677 0.929386 0.125063
Si Si7 0.664963 0.430501 0.651825
Si Si8 0.416640 0.436879 0.325597
O O1 0.212111 0.982175 0.154561
O O2 0.000000 0.997765 0.250000
O O3 0.042966 0.142173 0.096151
O O4 0.003418 0.870320 0.088851
O O5 0.057570 0.634138 0.007638
O O6 0.843154 0.758607 0.978274
O O7 0.765148 0.516402 0.590526
O O8 0.377394 0.186434 0.546080
O O9 0.345669 0.344191 0.399123
O O10 0.315387 0.069020 0.390836
O O11 0.353718 0.140157 0.719369
O O12 0.452285 0.036684 0.873023
O O13 0.309308 0.267773 0.870024
O O14 0.681114 0.471449 0.761821
O O15 0.519387 0.463354 0.622542
O O16 0.500000 0.345308 0.250000
#
# Coordination Sequence:
#
# PCOD8155668 Si02
#       8
#     4   4   2   4   4   4   4   4
#     4  11  23  45  72  93 135 183 219 278 329 400
#     4  11  26  44  65 100 132 179 234 261 338 409
#     4  12  24  46  66  96 142 174 218 290 318 410
#     4  11  22  44  61  94 135 168 219 281 333 396
#     4  11  21  40  65  98 129 166 226 271 336 405
#     4  10  23  36  67  97 127 164 216 287 338 388
#     4   9  22  42  61  95 132 164 218 275 327 401
#     4   8  21  40  65  91 125 170 212 265 344 394
#
# _framework density 20.524318000000001
#
# number of rings (size 3 to 8) (size 9 to 14) (size 15 to 20)
#    0.800    0.800    1.333    4.800    3.733    5.333 
#    7.200    0.667    0.000    0.000    0.000    0.000 
#    0.000    0.000    0.000    0.000    0.000    0.000 
#
# Total GULP energy -371816.590971 kJ/mol
# GULP energy per Si atom -12393.886366 kJ/mol
# Density = 2.047760 g / cm^3
# Si number density = 20.524318 Si / 1000 Ang^3
#
#
#
# Elastic Constant Matrix: (Units=GPa)
#
#
# Indices 1 2 3 4 5 6 
#
# 1 138.4943 32.0008 58.4678 0.0000 0.0000 0.0000
# 2 32.0008 79.5713 38.9721 0.0000 0.0000 0.0000
# 3 58.4678 38.9721 107.4423 0.0000 0.0000 0.0000
# 4 0.0000 0.0000 0.0000 28.9146 0.0000 0.0000
# 5 0.0000 0.0000 0.0000 0.0000 32.2615 0.0000
# 6 0.0000 0.0000 0.0000 0.0000 0.0000 33.3235
#
#
#
# Elastic Compliance Matrix: (Units=1/GPa)
#
#
# Indices 1 2 3 4 5 6 
#
# 1 0.009533 -0.001572 -0.004617 0.000000 0.000000 0.000000
# 2 -0.001572 0.015542 -0.004782 0.000000 0.000000 0.000000
# 3 -0.004617 -0.004782 0.013554 0.000000 0.000000 0.000000
# 4 0.000000 0.000000 0.000000 0.034585 0.000000 0.000000
# 5 0.000000 0.000000 0.000000 0.000000 0.030997 0.000000
# 6 0.000000 0.000000 0.000000 0.000000 0.000000 0.030009
#
#
# Mechanical properties :
#
#
# Convention : Reuss Voigt Hill
#
# Bulk Modulus (GPa) = 59.92942 64.93213 62.43078
# Shear Modulus (GPa) = 30.91676 31.97105 31.44390
#
# Velocity S-wave (km/s) = 3.88538 3.95107 3.91836
# Velocity P-wave (km/s) = 7.02786 7.24707 7.13831
#
# Compressibility (1/GPa) = 0.01668629
#
# Stress axis : x y z
#
# Youngs Moduli (GPa) = 104.89709 64.34313 73.77652
#
# Poissons Ratio (x) = 0.10117 0.34065
# Poissons Ratio (y) = 0.16494 0.35278
# Poissons Ratio (z) = 0.48435 0.30767
#
# Static dielectric constant tensor:
#      x y z
#    x 3.806170 0.000000 0.000000 
#    y 0.000000 3.512140 0.000000 
#    z 0.000000 0.000000 3.829620 
# 
# 
# High freq. dielectric constant tensor:
#      x y z
#    x 1.807930 0.000000 0.000000 
#    y 0.000000 1.786990 0.000000 
#    z 0.000000 0.000000 1.808510 
# 
# From -- ./inp_files/8519.got.cif
#   From: 2010.03.12/outbox.cif.g09.slc.cpg/sg17_5_cif.got.tgz:8519.got - 2010.04.10 18:46:23.
