data_PCOD8155777
_publ_section_title
;
Structure prediction by ZEFSAII (Michael W. Deem and Ramdas Pophale) SiO2 
 PCOD8155777
Probable space group: P 21 21 2
;
_chemical_formula_sum "Si O2"
_cell_formula_units_Z 24
_cell_length_a 9.117896
_cell_length_b 16.319968
_cell_length_c 7.659555
_cell_angle_alpha 90.000000
_cell_angle_beta 90.000000
_cell_angle_gamma 90.000000
_cell_volume 1139.770668
_symmetry_space_group_name_H-M "P 21 21 2"
_symmetry_group_IT_number 18
_symmetry_cell_setting 'orthorhombic'
loop_
_space_group_symop_operation_xyz
x,y,z
-x,-y,z
1/2+x,1/2-y,-z
1/2-x,1/2+y,-z
loop_
_atom_site_type_symbol
_atom_site_label
_atom_site_fract_x
_atom_site_fract_y
_atom_site_fract_z
Si Si1 0.847254 0.074250 0.256865
Si Si2 0.881346 0.656264 0.940955
Si Si3 0.000000 0.500000 0.141634
Si Si4 0.156718 0.104772 0.371677
Si Si5 0.000000 0.000000 0.934999
Si Si6 0.239014 0.101282 0.749264
Si Si7 0.193644 0.708644 0.927179
O O1 0.707700 0.134471 0.237732
O O2 0.982177 0.120440 0.351143
O O3 0.807663 0.992160 0.362417
O O4 0.890906 0.051342 0.057987
O O5 0.018685 0.715535 0.893649
O O6 0.939607 0.571903 0.019565
O O7 0.773467 0.703147 0.077650
O O8 0.869668 0.465453 0.261520
O O9 0.212873 0.138547 0.556715
O O10 0.240146 0.148716 0.215805
O O11 0.910990 0.939984 0.810525
O O12 0.281591 0.174626 0.877619
#
# Coordination Sequence:
#
# PCOD8155777 Si02
#       7
#     4   4   2   4   2   4   4
#     4  10  18  37  62  90 118 164 209 255 311 383
#     4  11  22  40  68  89 127 172 214 273 325 390
#     4  10  22  40  64  98 124 172 226 262 318 394
#     4  10  21  38  61  93 125 160 210 257 313 390
#     4  10  16  34  64  84 120 158 206 246 312 372
#     4  11  21  38  62  91 128 166 205 262 321 378
#     4  11  23  39  60  88 123 164 208 262 329 378
#
# _framework density 21.056867
#
# number of rings (size 3 to 8) (size 9 to 14) (size 15 to 20)
#    0.000    1.667    5.000    3.000    0.000    1.333 
#    0.000    6.667    0.000    0.000    0.000    0.000 
#    0.000    0.000    0.000    0.000    0.000    0.000 
#
# Total GULP energy -297570.581759 kJ/mol
# GULP energy per Si atom -12398.774240 kJ/mol
# Density = 2.100894 g / cm^3
# Si number density = 21.056867 Si / 1000 Ang^3
#
#
#
# Elastic Constant Matrix: (Units=GPa)
#
#
# Indices 1 2 3 4 5 6 
#
# 1 114.4601 39.1140 30.9744 0.0000 0.0000 0.0000
# 2 39.1140 54.8986 13.9914 0.0000 0.0000 0.0000
# 3 30.9744 13.9914 112.8981 0.0000 0.0000 0.0000
# 4 0.0000 0.0000 0.0000 8.3399 0.0000 0.0000
# 5 0.0000 0.0000 0.0000 0.0000 24.4171 0.0000
# 6 0.0000 0.0000 0.0000 0.0000 0.0000 37.1024
#
#
#
# Elastic Compliance Matrix: (Units=1/GPa)
#
#
# Indices 1 2 3 4 5 6 
#
# 1 0.012113 -0.008037 -0.002327 0.000000 0.000000 0.000000
# 2 -0.008037 0.024142 -0.000787 0.000000 0.000000 0.000000
# 3 -0.002327 -0.000787 0.009594 0.000000 0.000000 0.000000
# 4 0.000000 0.000000 0.000000 0.119906 0.000000 0.000000
# 5 0.000000 0.000000 0.000000 0.000000 0.040955 0.000000
# 6 0.000000 0.000000 0.000000 0.000000 0.000000 0.026952
#
#
# Mechanical properties :
#
#
# Convention : Reuss Voigt Hill
#
# Bulk Modulus (GPa) = 42.46963 50.04628 46.25795
# Shear Modulus (GPa) = 18.95281 27.18368 23.06824
#
# Velocity S-wave (km/s) = 3.00338 3.59690 3.31346
# Velocity P-wave (km/s) = 5.67802 6.40851 6.05429
#
# Compressibility (1/GPa) = 0.02354624
#
# Stress axis : x y z
#
# Youngs Moduli (GPa) = 82.55648 41.42133 104.23664
#
# Poissons Ratio (x) = 0.33291 0.24258
# Poissons Ratio (y) = 0.66351 0.08202
# Poissons Ratio (z) = 0.19213 0.03259
#
# Static dielectric constant tensor:
#      x y z
#    x 4.328440 0.000000 0.000000 
#    y 0.000000 3.700350 0.000000 
#    z 0.000000 0.000000 3.469080 
# 
# 
# High freq. dielectric constant tensor:
#      x y z
#    x 1.844920 0.000000 0.000000 
#    y 0.000000 1.810350 0.000000 
#    z 0.000000 0.000000 1.793520 
# 
# From -- ./inp_files/3336.got.cif
#   From: 2010.03.12/outbox.cif.g09.slc.cpg/sg18_2_cif.got.tgz:3336.got - 2010.04.10 18:53:55.
