data_PCOD8155494
_publ_section_title
;
Structure prediction by ZEFSAII (Michael W. Deem and Ramdas Pophale) SiO2 
 PCOD8155494
Probable space group: P 2 2 21
;
_chemical_formula_sum "Si O2"
_cell_formula_units_Z 32
_cell_length_a 9.256030
_cell_length_b 11.572807
_cell_length_c 14.330093
_cell_angle_alpha 90.000000
_cell_angle_beta 90.000000
_cell_angle_gamma 90.000000
_cell_volume 1535.014467
_symmetry_space_group_name_H-M "P 2 2 21"
_symmetry_group_IT_number 17
_symmetry_cell_setting 'orthorhombic'
loop_
_space_group_symop_operation_xyz
x,y,z
-x,-y,1/2+z
x,-y,-z
-x,y,1/2-z
loop_
_atom_site_type_symbol
_atom_site_label
_atom_site_fract_x
_atom_site_fract_y
_atom_site_fract_z
Si Si1 0.263344 0.042360 0.239583
Si Si2 0.491890 0.009417 0.610004
Si Si3 0.163519 0.787851 0.257497
Si Si4 0.397510 0.260863 0.884792
Si Si5 0.342460 0.609405 0.612051
Si Si6 0.839251 0.289415 0.272769
Si Si7 0.310796 0.354534 0.595662
Si Si8 0.665943 0.615230 0.560421
O O1 0.156249 0.149853 0.226085
O O2 0.368681 0.056905 0.149985
O O3 0.351652 0.040405 0.337200
O O4 0.171497 0.924405 0.237820
O O5 0.519802 0.141890 0.636465
O O6 0.471789 0.000000 0.500000
O O7 0.262791 0.718846 0.183613
O O8 0.214361 0.746187 0.359278
O O9 0.000000 0.746146 0.250000
O O10 0.522971 0.354420 0.867663
O O11 0.341913 0.274524 0.990851
O O12 0.280365 0.685047 0.694776
O O13 0.262435 0.484987 0.618047
O O14 0.302678 0.671013 0.514539
O O15 0.516468 0.599421 0.617122
O O16 0.793655 0.353875 0.367869
O O17 0.000000 0.334327 0.250000
O O18 0.702303 0.500000 0.500000
#
# Coordination Sequence:
#
# PCOD8155494 Si02
#       8
#     4   4   4   4   4   4   4   4
#     4  10  23  40  61  94 129 170 213 265 321 393
#     4  10  20  35  63  97 121 159 217 277 322 366
#     4  11  23  38  63  93 132 174 210 255 320 392
#     4  10  20  38  62  92 126 158 214 276 317 366
#     4  10  23  43  68  92 125 167 217 272 321 373
#     4  12  28  44  63  94 139 176 208 259 333 402
#     4  10  20  41  63  94 125 159 215 271 319 369
#     4  11  23  44  69  97 123 171 222 272 326 384
#
# _framework density 20.846709000000001
#
# number of rings (size 3 to 8) (size 9 to 14) (size 15 to 20)
#    0.000    1.500    3.750    1.875    8.750    2.500 
#    2.250    0.000    0.000    4.500    0.000    0.000 
#    0.000    0.000    0.000    0.000    0.000    0.000 
#
# Total GULP energy -396642.455492 kJ/mol
# GULP energy per Si atom -12395.076734 kJ/mol
# Density = 2.079926 g / cm^3
# Si number density = 20.846709 Si / 1000 Ang^3
#
#
#
# Elastic Constant Matrix: (Units=GPa)
#
#
# Indices 1 2 3 4 5 6 
#
# 1 111.6331 26.7663 58.7829 0.0000 0.0000 0.0000
# 2 26.7663 70.5452 32.1889 0.0000 0.0000 0.0000
# 3 58.7829 32.1889 115.9081 0.0000 0.0000 0.0000
# 4 0.0000 0.0000 0.0000 36.4061 0.0000 0.0000
# 5 0.0000 0.0000 0.0000 0.0000 24.2815 0.0000
# 6 0.0000 0.0000 0.0000 0.0000 0.0000 16.8725
#
#
#
# Elastic Compliance Matrix: (Units=1/GPa)
#
#
# Indices 1 2 3 4 5 6 
#
# 1 0.012492 -0.002117 -0.005747 0.000000 0.000000 0.000000
# 2 -0.002117 0.016591 -0.003534 0.000000 0.000000 0.000000
# 3 -0.005747 -0.003534 0.012524 0.000000 0.000000 0.000000
# 4 0.000000 0.000000 0.000000 0.027468 0.000000 0.000000
# 5 0.000000 0.000000 0.000000 0.000000 0.041184 0.000000
# 6 0.000000 0.000000 0.000000 0.000000 0.000000 0.059268
#
#
# Mechanical properties :
#
#
# Convention : Reuss Voigt Hill
#
# Bulk Modulus (GPa) = 53.16326 59.28475 56.22400
# Shear Modulus (GPa) = 25.17713 27.53524 26.35618
#
# Velocity S-wave (km/s) = 3.47901 3.63828 3.55954
# Velocity P-wave (km/s) = 6.45719 6.79335 6.62740
#
# Compressibility (1/GPa) = 0.01880998
#
# Stress axis : x y z
#
# Youngs Moduli (GPa) = 80.05153 60.27350 79.84907
#
# Poissons Ratio (x) = 0.12762 0.45892
# Poissons Ratio (y) = 0.16949 0.28216
# Poissons Ratio (z) = 0.46008 0.21299
#
# Static dielectric constant tensor:
#      x y z
#    x 3.489940 0.000000 0.000000 
#    y 0.000000 3.770050 0.000000 
#    z 0.000000 0.000000 3.915950 
# 
# 
# High freq. dielectric constant tensor:
#      x y z
#    x 1.790810 0.000000 0.000000 
#    y 0.000000 1.820660 0.000000 
#    z 0.000000 0.000000 1.818940 
# 
# From -- ./inp_files/8303.got.cif
#   From: 2010.03.12/outbox.cif.g09.slc.cpg/sg17_5_cif.got.tgz:8303.got - 2010.04.10 18:46:23.
