data_PCOD8155658
_publ_section_title
;
Structure prediction by ZEFSAII (Michael W. Deem and Ramdas Pophale) SiO2 
 PCOD8155658
Probable space group: P 2 2 21
;
_chemical_formula_sum "Si O2"
_cell_formula_units_Z 24
_cell_length_a 5.739847
_cell_length_b 16.985395
_cell_length_c 11.262584
_cell_angle_alpha 90.000000
_cell_angle_beta 90.000000
_cell_angle_gamma 90.000000
_cell_volume 1098.029505
_symmetry_space_group_name_H-M "P 2 2 21"
_symmetry_group_IT_number 17
_symmetry_cell_setting 'orthorhombic'
loop_
_space_group_symop_operation_xyz
x,y,z
-x,-y,1/2+z
x,-y,-z
-x,y,1/2-z
loop_
_atom_site_type_symbol
_atom_site_label
_atom_site_fract_x
_atom_site_fract_y
_atom_site_fract_z
Si Si1 0.357774 0.840614 0.473447
Si Si2 0.717095 0.588448 0.958461
Si Si3 0.253330 0.074602 0.300490
Si Si4 0.000000 0.347391 0.250000
Si Si5 0.040454 0.709831 0.386106
Si Si6 0.500000 0.925914 0.250000
Si Si7 0.344512 0.293529 0.072914
O O1 0.254129 0.909200 0.557669
O O2 0.146763 0.796000 0.408851
O O3 0.528152 0.873763 0.369833
O O4 0.485887 0.780794 0.563638
O O5 0.904292 0.595581 0.852675
O O6 0.474557 0.622946 0.910892
O O7 0.686064 0.500000 0.000000
O O8 0.786814 0.641527 0.070647
O O9 0.500000 0.112559 0.250000
O O10 0.000000 0.104719 0.250000
O O11 0.271073 0.980879 0.270807
O O12 0.185802 0.287025 0.191231
O O13 0.000000 0.695233 0.250000
O O14 0.796334 0.703021 0.451328
#
# Coordination Sequence:
#
# PCOD8155658 Si02
#       7
#     4   4   4   2   4   2   4
#     4  11  23  45  71 102 137 186 230 294 352 423
#     4  10  23  42  65  95 132 177 222 287 349 414
#     4  10  26  47  69 106 142 188 236 297 361 435
#     4  10  22  44  64  98 132 170 232 278 346 414
#     4  10  23  41  66 101 134 178 231 282 347 421
#     4  10  24  46  70 104 138 184 236 290 362 430
#     4  10  23  42  66  97 136 173 230 282 344 416
#
# _framework density 21.857336
#
# number of rings (size 3 to 8) (size 9 to 14) (size 15 to 20)
#    0.500    1.333    0.000    2.000    3.500   10.667 
#   12.000    0.000    0.000    0.000    0.000    0.000 
#    0.000    0.000    0.000    0.000    0.000    0.000 
#
# Total GULP energy -297428.179254 kJ/mol
# GULP energy per Si atom -12392.840802 kJ/mol
# Density = 2.180759 g / cm^3
# Si number density = 21.857336 Si / 1000 Ang^3
#
#
#
# Elastic Constant Matrix: (Units=GPa)
#
#
# Indices 1 2 3 4 5 6 
#
# 1 112.4528 30.9556 44.8323 0.0000 0.0000 0.0000
# 2 30.9556 110.8033 57.6791 0.0000 0.0000 0.0000
# 3 44.8323 57.6791 165.4056 0.0000 0.0000 0.0000
# 4 0.0000 0.0000 0.0000 21.7261 0.0000 0.0000
# 5 0.0000 0.0000 0.0000 0.0000 27.5345 0.0000
# 6 0.0000 0.0000 0.0000 0.0000 0.0000 12.7792
#
#
#
# Elastic Compliance Matrix: (Units=1/GPa)
#
#
# Indices 1 2 3 4 5 6 
#
# 1 0.010234 -0.001729 -0.002171 0.000000 0.000000 0.000000
# 2 -0.001729 0.011319 -0.003478 0.000000 0.000000 0.000000
# 3 -0.002171 -0.003478 0.007847 0.000000 0.000000 0.000000
# 4 0.000000 0.000000 0.000000 0.046028 0.000000 0.000000
# 5 0.000000 0.000000 0.000000 0.000000 0.036318 0.000000
# 6 0.000000 0.000000 0.000000 0.000000 0.000000 0.078252
#
#
# Mechanical properties :
#
#
# Convention : Reuss Voigt Hill
#
# Bulk Modulus (GPa) = 68.29085 72.84396 70.56741
# Shear Modulus (GPa) = 23.85090 29.42092 26.63591
#
# Velocity S-wave (km/s) = 3.30693 3.67283 3.49467
# Velocity P-wave (km/s) = 6.77442 7.16837 6.97418
#
# Compressibility (1/GPa) = 0.01464325
#
# Stress axis : x y z
#
# Youngs Moduli (GPa) = 97.71257 88.34929 127.43541
#
# Poissons Ratio (x) = 0.15276 0.27666
# Poissons Ratio (y) = 0.16895 0.44326
# Poissons Ratio (z) = 0.21213 0.30731
#
# Static dielectric constant tensor:
#      x y z
#    x 4.216840 0.000000 0.000000 
#    y 0.000000 3.718570 0.000000 
#    z 0.000000 0.000000 3.932570 
# 
# 
# High freq. dielectric constant tensor:
#      x y z
#    x 1.856430 0.000000 0.000000 
#    y 0.000000 1.844280 0.000000 
#    z 0.000000 0.000000 1.868000 
# 
# From -- ./inp_files/6044.got.cif
#   From: 2010.03.12/outbox.cif.g09.slc.cpg/sg17_4_cif.got.tgz:6044.got - 2010.04.10 18:46:23.
