data_PCOD8155256
_publ_section_title
;
Structure prediction by ZEFSAII (Michael W. Deem and Ramdas Pophale) SiO2 
 PCOD8155256
Probable space group: P 2 2 2
;
_chemical_formula_sum "Si O2"
_cell_formula_units_Z 26
_cell_length_a 14.874898
_cell_length_b 19.117738
_cell_length_c 5.056480
_cell_angle_alpha 90.000000
_cell_angle_beta 90.000000
_cell_angle_gamma 90.000000
_cell_volume 1437.933480
_symmetry_space_group_name_H-M "P 2 2 2"
_symmetry_group_IT_number 16
_symmetry_cell_setting 'orthorhombic'
loop_
_space_group_symop_operation_xyz
x,y,z
-x,-y,z
x,-y,-z
-x,y,-z
loop_
_atom_site_type_symbol
_atom_site_label
_atom_site_fract_x
_atom_site_fract_y
_atom_site_fract_z
Si Si1 0.666234 0.197386 0.721525
Si Si2 0.637684 0.071109 0.342667
Si Si3 0.104821 0.919897 0.540850
Si Si4 0.205588 0.877764 0.050004
Si Si5 0.500000 0.857257 0.000000
Si Si6 0.393772 0.335613 0.513398
Si Si7 0.394096 0.422666 0.016800
O O1 0.676193 0.129328 0.540255
O O2 0.573228 0.195515 0.883247
O O3 0.664842 0.265969 0.538879
O O4 0.749375 0.193955 0.932083
O O5 0.710387 0.068248 0.101973
O O6 0.627807 0.000000 0.500000
O O7 0.540432 0.092343 0.226583
O O8 0.154095 0.868723 0.329757
O O9 0.000000 0.908326 0.500000
O O10 0.133846 0.000000 0.500000
O O11 0.132762 0.904900 0.841003
O O12 0.500000 0.318419 0.500000
O O13 0.362294 0.368712 0.790422
O O14 0.365306 0.392126 0.296598
O O15 0.349829 0.500000 0.000000
O O16 0.500000 0.431142 0.000000
#
# Coordination Sequence:
#
# PCOD8155256 Si02
#       7
#     4   4   4   4   2   4   4
#     4  11  24  36  54  76 105 145 188 229 278 323
#     4  11  24  39  54  73 102 142 184 240 276 322
#     4  11  23  39  62  84 101 126 166 223 290 353
#     4  11  23  38  58  79 107 130 172 219 283 334
#     4  10  24  37  54  68 103 138 204 230 287 318
#     4  10  20  31  52  70 102 137 178 229 266 312
#     4   9  18  31  49  73  97 128 173 228 280 312
#
# _framework density 18.081503999999999
#
# number of rings (size 3 to 8) (size 9 to 14) (size 15 to 20)
#    0.000    1.538    1.538    3.231    9.692    6.769 
#    0.000    2.308    0.000    0.000    0.000    0.000 
#    0.000    0.000    0.000    0.000    0.000   21.538 
#
# Total GULP energy -322284.786566 kJ/mol
# GULP energy per Si atom -12395.568714 kJ/mol
# Density = 1.804035 g / cm^3
# Si number density = 18.081504 Si / 1000 Ang^3
#
#
#
# Elastic Constant Matrix: (Units=GPa)
#
#
# Indices 1 2 3 4 5 6 
#
# 1 49.7358 6.9980 13.4103 0.0000 0.0000 0.0000
# 2 6.9980 93.0132 17.6998 0.0000 0.0000 0.0000
# 3 13.4103 17.6998 83.6108 0.0000 0.0000 0.0000
# 4 0.0000 0.0000 0.0000 10.1043 0.0000 0.0000
# 5 0.0000 0.0000 0.0000 0.0000 31.7040 0.0000
# 6 0.0000 0.0000 0.0000 0.0000 0.0000 2.1120
#
#
#
# Elastic Compliance Matrix: (Units=1/GPa)
#
#
# Indices 1 2 3 4 5 6 
#
# 1 0.021101 -0.000983 -0.003176 0.000000 0.000000 0.000000
# 2 -0.000983 0.011248 -0.002223 0.000000 0.000000 0.000000
# 3 -0.003176 -0.002223 0.012940 0.000000 0.000000 0.000000
# 4 0.000000 0.000000 0.000000 0.098968 0.000000 0.000000
# 5 0.000000 0.000000 0.000000 0.000000 0.031542 0.000000
# 6 0.000000 0.000000 0.000000 0.000000 0.000000 0.473491
#
#
# Mechanical properties :
#
#
# Convention : Reuss Voigt Hill
#
# Bulk Modulus (GPa) = 30.74674 33.61956 32.18315
# Shear Modulus (GPa) = 7.43055 21.33416 14.38236
#
# Velocity S-wave (km/s) = 2.02938 3.43868 2.82338
# Velocity P-wave (km/s) = 4.74686 5.86513 5.33537
#
# Compressibility (1/GPa) = 0.03252377
#
# Stress axis : x y z
#
# Youngs Moduli (GPa) = 47.39114 88.90270 77.27788
#
# Poissons Ratio (x) = 0.08741 0.24545
# Poissons Ratio (y) = 0.04659 0.17183
# Poissons Ratio (z) = 0.15053 0.19767
#
# Static dielectric constant tensor:
#      x y z
#    x 3.172050 0.000000 0.000000 
#    y 0.000000 3.180560 0.000000 
#    z 0.000000 0.000000 3.757000 
# 
# 
# High freq. dielectric constant tensor:
#      x y z
#    x 1.654870 0.000000 0.000000 
#    y 0.000000 1.665920 0.000000 
#    z 0.000000 0.000000 1.733450 
# 
# From -- ./inp_files/2073.got.cif
#   From: 2010.03.12/outbox.cif.g09.slc.cpg/sg16_2_cif.got.tgz:2073.got - 2010.03.31 00:51:45.
