data_PCOD8155849
_publ_section_title
;
Structure prediction by ZEFSAII (Michael W. Deem and Ramdas Pophale) SiO2 
 PCOD8155849
Probable space group: P 21 21 2
;
_chemical_formula_sum "Si O2"
_cell_formula_units_Z 32
_cell_length_a 16.961106
_cell_length_b 5.235476
_cell_length_c 18.161512
_cell_angle_alpha 90.000000
_cell_angle_beta 90.000000
_cell_angle_gamma 90.000000
_cell_volume 1612.732520
_symmetry_space_group_name_H-M "P 21 21 2"
_symmetry_group_IT_number 18
_symmetry_cell_setting 'orthorhombic'
loop_
_space_group_symop_operation_xyz
x,y,z
-x,-y,z
1/2+x,1/2-y,-z
1/2-x,1/2+y,-z
loop_
_atom_site_type_symbol
_atom_site_label
_atom_site_fract_x
_atom_site_fract_y
_atom_site_fract_z
Si Si1 0.288238 0.772759 0.778088
Si Si2 0.550704 0.250488 0.867080
Si Si3 0.192864 0.744053 0.920472
Si Si4 0.353585 0.744343 0.010577
Si Si5 0.212797 0.772712 0.316677
Si Si6 0.287712 0.765264 0.466488
Si Si7 0.029550 0.249904 0.530721
Si Si8 0.961918 0.249900 0.368549
O O1 0.372698 0.748239 0.816186
O O2 0.216916 0.741785 0.835317
O O3 0.278930 0.552155 0.718031
O O4 0.278853 0.053216 0.743866
O O5 0.500000 0.500000 0.848203
O O6 0.500000 0.000000 0.849661
O O7 0.575177 0.253720 0.952607
O O8 0.140519 0.494596 0.938068
O O9 0.140215 0.992627 0.938737
O O10 0.270638 0.746116 0.969528
O O11 0.279835 0.738305 0.378443
O O12 0.130879 0.746920 0.359142
O O13 0.243631 0.539834 0.508732
O O14 0.378886 0.747599 0.487343
O O15 0.000000 0.500000 0.575510
O O16 0.979736 0.249917 0.454981
O O17 0.000000 0.000000 0.575526
O O18 0.000000 0.500000 0.330053
O O19 0.000000 0.000000 0.330002
#
# Coordination Sequence:
#
# PCOD8155849 Si02
#       8
#     4   4   4   4   4   4   4   4
#     4  11  24  38  54  82 119 158 191 225 285 359
#     4  11  22  36  54  85 127 161 194 230 274 339
#     4   9  17  33  54  77 105 140 190 234 268 309
#     4   9  17  31  55  80 104 145 191 235 267 299
#     4  12  24  37  56  84 117 153 197 244 297 363
#     4  12  23  40  62  87 116 149 199 267 317 352
#     4  10  20  36  57  82 107 139 181 234 303 363
#     4  10  19  33  50  73 105 143 183 223 275 352
#
# _framework density 19.842101
#
# number of rings (size 3 to 8) (size 9 to 14) (size 15 to 20)
#    0.000    1.500    0.000    7.500    0.000    7.000 
#    0.000    0.000    0.000    0.000    0.000   17.500 
#    0.000    0.000    0.000    0.000    0.000    0.000 
#
# Total GULP energy -396817.590617 kJ/mol
# GULP energy per Si atom -12400.549707 kJ/mol
# Density = 1.979694 g / cm^3
# Si number density = 19.842101 Si / 1000 Ang^3
#
#
#
# Elastic Constant Matrix: (Units=GPa)
#
#
# Indices 1 2 3 4 5 6 
#
# 1 39.8214 20.0099 19.7927 0.0000 0.0000 0.0000
# 2 20.0099 159.1789 15.9402 0.0000 0.0000 0.0000
# 3 19.7927 15.9402 76.4225 0.0000 0.0000 0.0000
# 4 0.0000 0.0000 0.0000 19.1084 0.0000 0.0000
# 5 0.0000 0.0000 0.0000 0.0000 34.7390 0.0000
# 6 0.0000 0.0000 0.0000 0.0000 0.0000 26.5671
#
#
#
# Elastic Compliance Matrix: (Units=1/GPa)
#
#
# Indices 1 2 3 4 5 6 
#
# 1 0.030233 -0.003081 -0.007187 0.000000 0.000000 0.000000
# 2 -0.003081 0.006730 -0.000606 0.000000 0.000000 0.000000
# 3 -0.007187 -0.000606 0.015073 0.000000 0.000000 0.000000
# 4 0.000000 0.000000 0.000000 0.052333 0.000000 0.000000
# 5 0.000000 0.000000 0.000000 0.000000 0.028786 0.000000
# 6 0.000000 0.000000 0.000000 0.000000 0.000000 0.037641
#
#
# Mechanical properties :
#
#
# Convention : Reuss Voigt Hill
#
# Bulk Modulus (GPa) = 33.01663 42.98982 38.00323
# Shear Modulus (GPa) = 24.67439 30.72823 27.70131
#
# Velocity S-wave (km/s) = 3.53021 3.93954 3.74048
# Velocity P-wave (km/s) = 5.76995 6.51201 6.15218
#
# Compressibility (1/GPa) = 0.03028777
#
# Stress axis : x y z
#
# Youngs Moduli (GPa) = 33.07695 148.58443 66.34384
#
# Poissons Ratio (x) = 0.45774 0.47684
# Poissons Ratio (y) = 0.10190 0.04020
# Poissons Ratio (z) = 0.23774 0.09003
#
# Static dielectric constant tensor:
#      x y z
#    x 3.422350 0.000000 0.000000 
#    y 0.000000 -14.518770 0.000000 
#    z 0.000000 0.000000 3.437880 
# 
# 
# High freq. dielectric constant tensor:
#      x y z
#    x 1.751040 0.000000 0.000000 
#    y 0.000000 1.808280 0.000000 
#    z 0.000000 0.000000 1.745820 
# 
# From -- ./inp_files/7429.got.cif
#   From: 2010.03.12/outbox.cif.g09.slc.cpg/sg18_4_cif.got.tgz:7429.got - 2010.04.10 18:53:55.
