data_PCOD8155612
_publ_section_title
;
Structure prediction by ZEFSAII (Michael W. Deem and Ramdas Pophale) SiO2 
 PCOD8155612
Probable space group: P 2 2 21
;
_chemical_formula_sum "Si O2"
_cell_formula_units_Z 22
_cell_length_a 5.236963
_cell_length_b 5.053373
_cell_length_c 26.815512
_cell_angle_alpha 90.000000
_cell_angle_beta 90.000000
_cell_angle_gamma 90.000000
_cell_volume 709.654490
_symmetry_space_group_name_H-M "P 2 2 21"
_symmetry_group_IT_number 17
_symmetry_cell_setting 'orthorhombic'
loop_
_space_group_symop_operation_xyz
x,y,z
-x,-y,1/2+z
x,-y,-z
-x,y,1/2-z
loop_
_atom_site_type_symbol
_atom_site_label
_atom_site_fract_x
_atom_site_fract_y
_atom_site_fract_z
Si Si1 0.743923 0.932033 0.620611
Si Si2 0.572881 0.750586 0.033141
Si Si3 0.238928 0.162789 0.652936
Si Si4 0.927536 0.555314 0.442704
Si Si5 0.611825 0.448350 0.299701
Si Si6 0.000000 0.837773 0.250000
O O1 0.438115 0.000225 0.616977
O O2 0.831836 0.715948 0.580012
O O3 0.955534 0.176199 0.624727
O O4 0.766531 0.786314 0.673922
O O5 0.294660 0.793181 0.061027
O O6 0.789072 0.665363 0.073787
O O7 0.484659 0.500000 0.000000
O O8 0.655689 0.000000 0.000000
O O9 0.380378 0.439802 0.665422
O O10 0.180481 0.019199 0.707601
O O11 0.006598 0.500000 0.500000
O O12 0.500000 0.321409 0.250000
O O13 0.816397 0.672063 0.286613
#
# Coordination Sequence:
#
# PCOD8155612 Si02
#       6
#     4   4   4   4   4   2
#     4  12  26  44  73 105 140 199 247 296 386 452
#     4  10  21  44  72 102 138 190 244 302 379 448
#     4  11  25  44  68 102 140 185 238 300 363 446
#     4  10  23  47  67 104 144 183 251 311 375 452
#     4  10  25  45  67 103 146 183 242 306 369 455
#     4  10  22  48  64 104 140 182 236 304 370 438
#
# _framework density 31.001007000000001
#
# number of rings (size 3 to 8) (size 9 to 14) (size 15 to 20)
#    0.000    1.455    1.818    1.636    7.636    0.000 
#   19.636    0.000    0.000    0.000    0.000    0.000 
#    0.000    0.000    0.000    0.000    0.000    0.000 
#
# Total GULP energy -272644.547414 kJ/mol
# GULP energy per Si atom -12392.933973 kJ/mol
# Density = 3.093045 g / cm^3
# Si number density = 31.001007 Si / 1000 Ang^3
#
#
#
# Elastic Constant Matrix: (Units=GPa)
#
#
# Indices 1 2 3 4 5 6 
#
# 1 259.1303 73.1801 104.1549 0.0000 0.0000 0.0000
# 2 73.1801 118.9463 35.0319 0.0000 0.0000 0.0000
# 3 104.1549 35.0319 140.3992 0.0000 0.0000 0.0000
# 4 0.0000 0.0000 0.0000 39.2698 0.0000 0.0000
# 5 0.0000 0.0000 0.0000 0.0000 74.2736 0.0000
# 6 0.0000 0.0000 0.0000 0.0000 0.0000 54.0321
#
#
#
# Elastic Compliance Matrix: (Units=1/GPa)
#
#
# Indices 1 2 3 4 5 6 
#
# 1 0.006186 -0.002649 -0.003928 0.000000 0.000000 0.000000
# 2 -0.002649 0.010208 -0.000582 0.000000 0.000000 0.000000
# 3 -0.003928 -0.000582 0.010182 0.000000 0.000000 0.000000
# 4 0.000000 0.000000 0.000000 0.025465 0.000000 0.000000
# 5 0.000000 0.000000 0.000000 0.000000 0.013464 0.000000
# 6 0.000000 0.000000 0.000000 0.000000 0.000000 0.018508
#
#
# Mechanical properties :
#
#
# Convention : Reuss Voigt Hill
#
# Bulk Modulus (GPa) = 81.57960 104.80106 93.19033
# Shear Modulus (GPa) = 48.82028 53.92237 51.37133
#
# Velocity S-wave (km/s) = 3.97268 4.17511 4.07515
# Velocity P-wave (km/s) = 6.88587 7.55785 7.22967
#
# Compressibility (1/GPa) = 0.01225797
#
# Stress axis : x y z
#
# Youngs Moduli (GPa) = 161.65488 97.95943 98.21400
#
# Poissons Ratio (x) = 0.25949 0.38580
# Poissons Ratio (y) = 0.42822 0.05716
# Poissons Ratio (z) = 0.63500 0.05701
#
# Static dielectric constant tensor:
#      x y z
#    x 6.687560 0.000000 0.000000 
#    y 0.000000 5.470350 0.000000 
#    z 0.000000 0.000000 7.175590 
# 
# 
# High freq. dielectric constant tensor:
#      x y z
#    x 2.329440 0.000000 0.000000 
#    y 0.000000 2.241760 0.000000 
#    z 0.000000 0.000000 2.355600 
# 
# From -- ./inp_files/11074.got.cif
#   From: 2010.03.12/outbox.cif.g09.slc.cpg/sg17_6_cif.got.tgz:11074.got - 2010.04.10 18:46:23.
