data_PCOD8155458
_publ_section_title
;
Structure prediction by ZEFSAII (Michael W. Deem and Ramdas Pophale) SiO2 
 PCOD8155458
Probable space group: P 2 2 21
;
_chemical_formula_sum "Si O2"
_cell_formula_units_Z 22
_cell_length_a 13.123487
_cell_length_b 5.217924
_cell_length_c 13.089123
_cell_angle_alpha 90.000000
_cell_angle_beta 90.000000
_cell_angle_gamma 90.000000
_cell_volume 896.308559
_symmetry_space_group_name_H-M "P 2 2 21"
_symmetry_group_IT_number 17
_symmetry_cell_setting 'orthorhombic'
loop_
_space_group_symop_operation_xyz
x,y,z
-x,-y,1/2+z
x,-y,-z
-x,y,1/2-z
loop_
_atom_site_type_symbol
_atom_site_label
_atom_site_fract_x
_atom_site_fract_y
_atom_site_fract_z
Si Si1 0.933745 0.000000 0.000000
Si Si2 0.769132 0.996285 0.172150
Si Si3 0.231813 0.668303 0.140688
Si Si4 0.651766 0.503049 0.121105
Si Si5 0.930786 0.500000 0.500000
Si Si6 0.658060 0.000000 0.500000
Si Si7 0.570258 0.396622 0.383829
O O1 0.865724 0.036714 0.899900
O O2 0.001286 0.749802 0.988343
O O3 0.801354 0.903789 0.286015
O O4 0.681487 0.794932 0.143265
O O5 0.730637 0.290075 0.165810
O O6 0.133759 0.503891 0.107102
O O7 0.333418 0.511707 0.182672
O O8 0.267990 0.771745 0.031195
O O9 0.539432 0.441912 0.168556
O O10 0.649730 0.500000 0.000000
O O11 0.590545 0.091054 0.401538
O O12 0.566517 0.500000 0.500000
#
# Coordination Sequence:
#
# PCOD8155458 Si02
#       7
#     2   4   4   4   2   2   4
#     4  12  27  51  76 106 140 192 249 319 380 458
#     4  12  27  47  74 108 151 194 247 301 375 451
#     4  11  25  45  72 108 143 192 241 312 369 438
#     4  11  23  44  73 105 151 206 236 292 365 443
#     4  12  26  50  80  98 142 190 254 326 388 416
#     4  10  19  43  66  98 150 190 239 299 346 422
#     4   9  21  38  69 104 143 196 246 285 355 444
#
# _framework density 24.545120000000001
#
# number of rings (size 3 to 8) (size 9 to 14) (size 15 to 20)
#    0.000    1.091    4.545    1.636   10.182    1.455 
#    0.000    3.636    0.000    0.000    0.000    0.000 
#    0.000    0.000    0.000    0.000    0.000    0.000 
#
# Total GULP energy -272574.968225 kJ/mol
# GULP energy per Si atom -12389.771283 kJ/mol
# Density = 2.448925 g / cm^3
# Si number density = 24.545120 Si / 1000 Ang^3
#
#
#
# Elastic Constant Matrix: (Units=GPa)
#
#
# Indices 1 2 3 4 5 6 
#
# 1 163.1653 55.5101 52.8817 0.0000 0.0000 0.0000
# 2 55.5101 116.4340 15.1255 0.0000 0.0000 0.0000
# 3 52.8817 15.1255 60.3037 0.0000 0.0000 0.0000
# 4 0.0000 0.0000 0.0000 51.8011 0.0000 0.0000
# 5 0.0000 0.0000 0.0000 0.0000 18.3387 0.0000
# 6 0.0000 0.0000 0.0000 0.0000 0.0000 49.1149
#
#
#
# Elastic Compliance Matrix: (Units=1/GPa)
#
#
# Indices 1 2 3 4 5 6 
#
# 1 0.009906 -0.003715 -0.007755 0.000000 0.000000 0.000000
# 2 -0.003715 0.010271 0.000682 0.000000 0.000000 0.000000
# 3 -0.007755 0.000682 0.023212 0.000000 0.000000 0.000000
# 4 0.000000 0.000000 0.000000 0.019305 0.000000 0.000000
# 5 0.000000 0.000000 0.000000 0.000000 0.054530 0.000000
# 6 0.000000 0.000000 0.000000 0.000000 0.000000 0.020360
#
#
# Mechanical properties :
#
#
# Convention : Reuss Voigt Hill
#
# Bulk Modulus (GPa) = 45.84516 65.21529 55.53022
# Shear Modulus (GPa) = 30.04224 38.27663 34.15944
#
# Velocity S-wave (km/s) = 3.50231 3.95326 3.73460
# Velocity P-wave (km/s) = 5.92228 6.88948 6.42411
#
# Compressibility (1/GPa) = 0.02181255
#
# Stress axis : x y z
#
# Youngs Moduli (GPa) = 100.94762 97.35882 43.08068
#
# Poissons Ratio (x) = 0.36172 0.33409
# Poissons Ratio (y) = 0.37505 -0.02937
# Poissons Ratio (z) = 0.78285 -0.06638
#
# Static dielectric constant tensor:
#      x y z
#    x 4.643620 0.000000 0.000000 
#    y 0.000000 5.229170 0.000000 
#    z 0.000000 0.000000 4.677370 
# 
# 
# High freq. dielectric constant tensor:
#      x y z
#    x 1.968850 0.000000 0.000000 
#    y 0.000000 1.985450 0.000000 
#    z 0.000000 0.000000 1.993380 
# 
# From -- ./inp_files/8427.got.cif
#   From: 2010.03.12/outbox.cif.g09.slc.cpg/sg17_5_cif.got.tgz:8427.got - 2010.04.10 18:46:23.
