data_PCOD8155034
_publ_section_title
;
Structure prediction by ZEFSAII (Michael W. Deem and Ramdas Pophale) SiO2 
 PCOD8155034
Probable space group: C 2/C
;
_chemical_formula_sum "Si O2"
_cell_formula_units_Z 56
_cell_length_a 15.580899
_cell_length_b 18.298148
_cell_length_c 8.567042
_cell_angle_alpha 90.000000
_cell_angle_beta 74.229115
_cell_angle_gamma 90.000000
_cell_volume 2350.533289
_symmetry_space_group_name_H-M "C 2/C"
_symmetry_group_IT_number 15
_symmetry_cell_setting 'monoclinic'
loop_
_space_group_symop_operation_xyz
x,y,z
-x,y,1/2-z
-x,-y,-z
x,-y,1/2+z
1/2+x,1/2+y,z
1/2-x,1/2+y,1/2-z
1/2-x,1/2-y,-z
1/2+x,1/2-y,1/2+z
loop_
_atom_site_type_symbol
_atom_site_label
_atom_site_fract_x
_atom_site_fract_y
_atom_site_fract_z
Si Si1 0.121369 0.914233 0.014689
Si Si2 0.216929 0.679915 0.105708
Si Si3 0.868878 0.438895 0.332355
Si Si4 0.465773 0.333331 0.940382
Si Si5 0.164168 0.937218 0.355207
Si Si6 0.589448 0.176492 0.442634
Si Si7 0.572159 0.084620 0.028554
O O1 0.200638 0.871181 0.888291
O O2 0.031368 0.868163 0.036905
O O3 0.109054 0.992160 0.938439
O O4 0.143603 0.921609 0.185599
O O5 0.166311 0.703029 0.287862
O O6 0.152627 0.638940 0.018929
O O7 0.250000 0.750000 0.000000
O O8 0.768359 0.454585 0.326193
O O9 0.865152 0.366609 0.438708
O O10 0.910580 0.507271 0.401612
O O11 0.933854 0.426212 0.154591
O O12 0.500000 0.351351 0.750000
O O13 0.368763 0.369364 0.020976
O O14 0.462862 0.246391 0.966097
O O15 0.522966 0.121807 0.379679
#
# Coordination Sequence:
#
# PCOD8155034 Si02
#       7
#     8   8   8   8   8   8   8
#     4  12  26  49  76 109 149 191 251 306 372 440
#     4  12  26  46  75 107 148 197 245 305 366 443
#     4  12  25  47  79 112 152 196 245 305 367 450
#     4  12  28  50  76 108 151 193 249 312 374 444
#     4  12  25  48  78 112 145 195 248 304 376 439
#     4  12  29  47  75 110 153 198 246 303 374 441
#     4  12  25  49  72 112 151 193 251 299 370 439
#
# _framework density 23.824380999999999
#
# number of rings (size 3 to 8) (size 9 to 14) (size 15 to 20)
#    0.000    0.000    2.857    6.429    4.000    2.857 
#    0.000    0.000    0.000    0.000    0.000    0.000 
#    0.000    0.000    0.000    0.000    0.000    0.000 
#
# Total GULP energy -347435.255979 kJ/mol
# GULP energy per Si atom -12408.401999 kJ/mol
# Density = 2.377016 g / cm^3
# Si number density = 23.824381 Si / 1000 Ang^3
#
#
#
# Elastic Constant Matrix: (Units=GPa)
#
#
# Indices 1 2 3 4 5 6 
#
# 1 77.7899 36.2950 21.3675 0.0000 -6.8740 0.0000
# 2 36.2950 142.8053 41.1355 0.0000 3.1301 0.0000
# 3 21.3675 41.1355 128.4202 0.0000 -6.0161 0.0000
# 4 0.0000 0.0000 0.0000 24.2094 0.0000 -5.5080
# 5 -6.8740 3.1301 -6.0161 0.0000 39.4530 0.0000
# 6 0.0000 0.0000 0.0000 -5.5080 0.0000 46.3696
#
#
#
# Elastic Compliance Matrix: (Units=1/GPa)
#
#
# Indices 1 2 3 4 5 6 
#
# 1 0.015088 -0.003534 -0.001251 0.000000 0.002718 0.000000
# 2 -0.003534 0.008581 -0.002237 0.000000 -0.001638 0.000000
# 3 -0.001251 -0.002237 0.008773 0.000000 0.001297 0.000000
# 4 0.000000 0.000000 0.000000 0.042454 0.000000 0.005043
# 5 0.002718 -0.001638 0.001297 0.000000 0.026148 0.000000
# 6 0.000000 0.000000 0.000000 0.005043 0.000000 0.022165
#
#
# Mechanical properties :
#
#
# Convention : Reuss Voigt Hill
#
# Bulk Modulus (GPa) = 54.35762 60.73459 57.54611
# Shear Modulus (GPa) = 34.87115 38.68756 36.77936
#
# Velocity S-wave (km/s) = 3.82995 4.03409 3.93335
# Velocity P-wave (km/s) = 6.51333 6.87361 6.69590
#
# Compressibility (1/GPa) = 0.01839668
#
# Stress axis : x y z
#
# Youngs Moduli (GPa) = 66.27856 116.53527 113.99170
#
# Poissons Ratio (x) = 0.41182 0.14262
# Poissons Ratio (y) = 0.23422 0.25505
# Poissons Ratio (z) = 0.08292 0.26074
#
# Static dielectric constant tensor:
#      x y z
#    x 4.461330 0.000000 -0.067500 
#    y 0.000000 4.348380 0.000000 
#    z -0.067500 0.000000 4.404580 
# 
# 
# High freq. dielectric constant tensor:
#      x y z
#    x 1.956190 0.000000 -0.005660 
#    y 0.000000 1.955950 0.000000 
#    z -0.005660 0.000000 1.957930 
# 
# From -- ./inp_files/48997.got.cif
#   From: 2010.06.25/outbox.cif.g09.slc.cpg/sg15_25_cif.got.tgz:48997.got - 2010.06.28 07:06:18.
