data_PCOD8155055
_publ_section_title
;
Structure prediction by ZEFSAII (Michael W. Deem and Ramdas Pophale) SiO2 
 PCOD8155055
Probable space group: C 2/C
;
_chemical_formula_sum "Si O2"
_cell_formula_units_Z 48
_cell_length_a 13.401065
_cell_length_b 5.605020
_cell_length_c 30.260305
_cell_angle_alpha 90.000000
_cell_angle_beta 117.178418
_cell_angle_gamma 90.000000
_cell_volume 2021.989685
_symmetry_space_group_name_H-M "C 2/C"
_symmetry_group_IT_number 15
_symmetry_cell_setting 'monoclinic'
loop_
_space_group_symop_operation_xyz
x,y,z
-x,y,1/2-z
-x,-y,-z
x,-y,1/2+z
1/2+x,1/2+y,z
1/2-x,1/2+y,1/2-z
1/2-x,1/2-y,-z
1/2+x,1/2-y,1/2+z
loop_
_atom_site_type_symbol
_atom_site_label
_atom_site_fract_x
_atom_site_fract_y
_atom_site_fract_z
Si Si1 0.912764 0.851404 0.295790
Si Si2 0.727721 0.499629 0.470462
Si Si3 0.704791 0.652062 0.296299
Si Si4 0.992786 0.164226 0.111990
Si Si5 0.380319 0.018777 0.157430
Si Si6 0.692480 0.136763 0.603015
O O1 0.806721 0.679175 0.282223
O O2 0.028778 0.717046 0.311864
O O3 0.892359 0.008054 0.248201
O O4 0.920666 0.011628 0.341521
O O5 0.750000 0.250000 0.500000
O O6 0.596673 0.493141 0.430144
O O7 0.807630 0.503266 0.443419
O O8 0.750000 0.750000 0.500000
O O9 0.748602 0.520790 0.348194
O O10 0.648955 0.897401 0.301528
O O11 0.927235 0.342621 0.130310
O O12 0.064365 0.305082 0.089698
O O13 0.267698 0.126032 0.113130
#
# Coordination Sequence:
#
# PCOD8155055 Si02
#       6
#     8   8   8   8   8   8
#     4  12  27  47  74 114 156 207 262 321 390 480
#     4  12  29  52  82 122 159 205 276 343 414 490
#     4  12  27  47  74 114 156 207 262 321 390 480
#     4  12  26  49  80 111 154 210 256 330 403 474
#     4  12  25  49  75 104 158 207 262 313 391 472
#     4  12  26  49  80 111 154 210 256 330 403 474
#
# _framework density 23.738993000000001
#
# number of rings (size 3 to 8) (size 9 to 14) (size 15 to 20)
#    0.000    0.000    6.667    2.000    0.000    5.333 
#    0.000    0.000    0.000    0.000    0.000    0.000 
#    0.000    0.000    0.000    0.000    0.000    0.000 
#
# Total GULP energy -297722.094628 kJ/mol
# GULP energy per Si atom -12405.087276 kJ/mol
# Density = 2.368496 g / cm^3
# Si number density = 23.738993 Si / 1000 Ang^3
#
#
#
# Elastic Constant Matrix: (Units=GPa)
#
#
# Indices 1 2 3 4 5 6 
#
# 1 130.5541 25.4683 27.7497 0.0000 -18.8632 0.0000
# 2 25.4683 105.5619 51.3751 0.0000 -7.0076 0.0000
# 3 27.7497 51.3751 99.4848 0.0000 -44.1016 0.0000
# 4 0.0000 0.0000 0.0000 48.3289 0.0000 -5.2471
# 5 -18.8632 -7.0076 -44.1016 0.0000 -4.6333 0.0000
# 6 0.0000 0.0000 0.0000 -5.2471 0.0000 37.4041
#
#
#
# Elastic Compliance Matrix: (Units=1/GPa)
#
#
# Indices 1 2 3 4 5 6 
#
# 1 0.008060 -0.000619 -0.003077 0.000000 -0.002591 0.000000
# 2 -0.000619 0.011244 -0.002310 0.000000 0.007499 0.000000
# 3 -0.003077 -0.002310 0.003679 0.000000 -0.019002 0.000000
# 4 0.000000 0.000000 0.000000 0.021012 0.000000 0.002948
# 5 -0.002591 0.007499 -0.019002 0.000000 -0.035758 0.000000
# 6 0.000000 0.000000 0.000000 0.002948 0.000000 0.027149
#
#
# Mechanical properties :
#
#
# Convention : Reuss Voigt Hill
#
# Bulk Modulus (GPa) = 91.13813 60.53191 75.83502
# Shear Modulus (GPa) = 97.93405 31.62045 64.77725
#
# Velocity S-wave (km/s) = 6.42994 3.65362 5.22939
# Velocity P-wave (km/s) = 9.67474 6.58429 8.27507
#
# Compressibility (1/GPa) = 0.01097236
#
# Stress axis : x y z
#
# Youngs Moduli (GPa) = 124.06726 88.93302 271.78268
#
# Poissons Ratio (x) = 0.05506 0.83626
# Poissons Ratio (y) = 0.07681 0.62775
# Poissons Ratio (z) = 0.38175 0.20541
#
# Static dielectric constant tensor:
#      x y z
#    x 4.460400 0.000000 -0.008750 
#    y 0.000000 4.431290 0.000000 
#    z -0.008750 0.000000 4.351940 
# 
# 
# High freq. dielectric constant tensor:
#      x y z
#    x 1.957680 0.000000 -0.005390 
#    y 0.000000 1.949680 0.000000 
#    z -0.005390 0.000000 1.937030 
# 
# From -- ./inp_files/312447.got.cif
#   From: 2010.06.25/outbox.cif.g09.slc.cpg/sg15_157_cif.got.tgz:312447.got - 2010.06.28 07:06:18.
