data_PCOD8155186
_publ_section_title
;
Structure prediction by ZEFSAII (Michael W. Deem and Ramdas Pophale) SiO2 
 PCOD8155186
Probable space group: C 2/C
;
_chemical_formula_sum "Si O2"
_cell_formula_units_Z 64
_cell_length_a 9.377859
_cell_length_b 14.120802
_cell_length_c 28.419620
_cell_angle_alpha 90.000000
_cell_angle_beta 89.999983
_cell_angle_gamma 90.000000
_cell_volume 3763.408217
_symmetry_space_group_name_H-M "C 2/C"
_symmetry_group_IT_number 15
_symmetry_cell_setting 'monoclinic'
loop_
_space_group_symop_operation_xyz
x,y,z
-x,y,1/2-z
-x,-y,-z
x,-y,1/2+z
1/2+x,1/2+y,z
1/2-x,1/2+y,1/2-z
1/2-x,1/2-y,-z
1/2+x,1/2-y,1/2+z
loop_
_atom_site_type_symbol
_atom_site_label
_atom_site_fract_x
_atom_site_fract_y
_atom_site_fract_z
Si Si1 0.833127 0.742027 0.571201
Si Si2 0.665810 0.392627 0.493020
Si Si3 0.666873 0.242027 0.571201
Si Si4 0.165810 0.107373 0.506980
Si Si5 0.667863 0.108212 0.750000
Si Si6 0.331587 0.262039 0.676128
Si Si7 0.169527 0.913126 0.750000
Si Si8 0.668413 0.737961 0.176128
O O1 0.801479 0.835752 0.540866
O O2 0.753495 0.651406 0.549955
O O3 0.769904 0.760357 0.623280
O O4 0.000000 0.718006 0.572313
O O5 0.698521 0.335752 0.540866
O O6 0.753495 0.348594 0.450045
O O7 0.717078 0.500000 0.500000
O O8 0.500000 0.387853 0.479627
O O9 0.730096 0.260357 0.623280
O O10 0.500000 0.086545 0.750000
O O11 0.713771 0.167254 0.796203
O O12 0.713771 0.167254 0.703797
O O13 0.754822 0.012708 0.750000
O O14 0.278404 0.355195 0.703879
O O15 0.500000 0.267248 0.674351
O O16 0.221596 0.855195 0.703879
O O17 0.000000 0.927335 0.750000
#
# Coordination Sequence:
#
# PCOD8155186 Si02
#       8
#     8   8   8   8   8   8   8   8
#     4   9  17  31  49  66  88 121 156 183 216 269
#     4   9  18  31  46  67  94 119 146 188 234 266
#     4   9  17  31  49  66  88 121 156 183 216 269
#     4   9  18  31  46  67  94 119 146 188 234 266
#     4   9  17  31  48  66  90 117 149 187 222 258
#     4   8  16  31  48  65  90 124 152 177 219 275
#     4   9  17  31  50  70  92 119 151 183 222 272
#     4   8  16  31  48  65  90 124 152 177 219 275
#
# _framework density 17.005863000000002
#
# number of rings (size 3 to 8) (size 9 to 14) (size 15 to 20)
#    0.000    3.250    0.000    1.500    0.000    2.500 
#    0.000    7.500    0.000    0.000    0.000    0.000 
#    0.000    0.000    0.000    0.000    0.000    0.000 
#
# Total GULP energy -396712.925605 kJ/mol
# GULP energy per Si atom -12397.278925 kJ/mol
# Density = 1.696716 g / cm^3
# Si number density = 17.005863 Si / 1000 Ang^3
#
#
#
# Elastic Constant Matrix: (Units=GPa)
#
#
# Indices 1 2 3 4 5 6 
#
# 1 34.0345 41.4378 33.0096 0.0000 -3.6456 0.0000
# 2 41.4378 151.0533 67.4951 0.0000 -2.4093 0.0000
# 3 33.0096 67.4951 151.5363 0.0000 -7.2189 0.0000
# 4 0.0000 0.0000 0.0000 14.5429 0.0000 1.6367
# 5 -3.6456 -2.4093 -7.2189 0.0000 20.5569 0.0000
# 6 0.0000 0.0000 0.0000 1.6367 0.0000 32.2439
#
#
#
# Elastic Compliance Matrix: (Units=1/GPa)
#
#
# Indices 1 2 3 4 5 6 
#
# 1 0.048343 -0.010718 -0.005500 0.000000 0.005386 0.000000
# 2 -0.010718 0.010644 -0.002479 0.000000 -0.001524 0.000000
# 3 -0.005500 -0.002479 0.008991 0.000000 0.001891 0.000000
# 4 0.000000 0.000000 0.000000 0.069157 0.000000 -0.003510
# 5 0.005386 -0.001524 0.001891 0.000000 0.050086 0.000000
# 6 0.000000 0.000000 0.000000 -0.003510 0.000000 0.031192
#
#
# Mechanical properties :
#
#
# Convention : Reuss Voigt Hill
#
# Bulk Modulus (GPa) = 32.69677 68.94548 50.82112
# Shear Modulus (GPa) = 18.79687 26.44751 22.62219
#
# Velocity S-wave (km/s) = 3.32824 3.94788 3.65123
# Velocity P-wave (km/s) = 5.83421 7.83653 6.90830
#
# Compressibility (1/GPa) = 0.03058406
#
# Stress axis : x y z
#
# Youngs Moduli (GPa) = 20.68550 93.95287 111.21893
#
# Poissons Ratio (x) = 1.00700 0.61173
# Poissons Ratio (y) = 0.22171 0.27566
# Poissons Ratio (z) = 0.11377 0.23287
#
# Static dielectric constant tensor:
#      x y z
#    x 2.890960 0.000000 -0.081030 
#    y 0.000000 3.159680 0.000000 
#    z -0.081030 0.000000 3.767350 
# 
# 
# High freq. dielectric constant tensor:
#      x y z
#    x 1.627090 0.000000 -0.003300 
#    y 0.000000 1.658180 0.000000 
#    z -0.003300 0.000000 1.662740 
# 
# From -- ./inp_files/307802.got.cif
#   From: 2010.06.25/outbox.cif.g09.slc.cpg/sg15_154_cif.got.tgz:307802.got - 2010.06.28 07:06:18.
