data_PCOD8156641
_publ_section_title
;
Structure prediction by ZEFSAII (Michael W. Deem and Ramdas Pophale) SiO2 
 PCOD8156641
Probable space group: P 21 21 21
;
_chemical_formula_sum "Si O2"
_cell_formula_units_Z 28
_cell_length_a 11.355129
_cell_length_b 18.655110
_cell_length_c 7.489028
_cell_angle_alpha 90.000000
_cell_angle_beta 90.000000
_cell_angle_gamma 90.000000
_cell_volume 1586.409642
_symmetry_space_group_name_H-M "P 21 21 21"
_symmetry_group_IT_number 19
_symmetry_cell_setting 'orthorhombic'
loop_
_space_group_symop_operation_xyz
x,y,z
1/2-x,-y,1/2+z
1/2+x,1/2-y,-z
-x,1/2+y,1/2-z
loop_
_atom_site_type_symbol
_atom_site_label
_atom_site_fract_x
_atom_site_fract_y
_atom_site_fract_z
Si Si1 0.511610 0.190119 0.485734
Si Si2 0.231698 0.854307 0.608506
Si Si3 0.696245 0.195252 0.799698
Si Si4 0.452464 0.320285 0.267468
Si Si5 0.183295 0.924376 0.961785
Si Si6 0.144703 0.068199 0.789715
Si Si7 0.473167 0.683609 0.397098
O O1 0.610925 0.192323 0.632056
O O2 0.460314 0.270714 0.447833
O O3 0.404785 0.136689 0.536942
O O4 0.570752 0.161593 0.301551
O O5 0.271171 0.774866 0.649676
O O6 0.258656 0.897337 0.791211
O O7 0.296640 0.880584 0.434150
O O8 0.093108 0.859076 0.562303
O O9 0.817615 0.153481 0.760559
O O10 0.626631 0.159905 0.964602
O O11 0.527926 0.392674 0.283182
O O12 0.497886 0.269874 0.102306
O O13 0.112800 0.994431 0.891288
O O14 0.270683 0.946424 0.121070
#
# Coordination Sequence:
#
# PCOD8156641 Si02
#       7
#     4   4   4   4   4   4   4
#     4   9  20  36  54  83 111 148 188 232 284 337
#     4  10  19  35  54  86 109 143 188 229 285 330
#     4  11  17  36  58  77 113 144 182 234 285 321
#     4   9  21  33  54  86 109 136 195 236 261 339
#     4  11  22  35  60  80 116 152 184 229 294 335
#     4  12  21  37  56  88 115 147 185 242 280 340
#     4   8  18  32  52  80 107 142 180 230 273 330
#
# _framework density 17.649918
#
# number of rings (size 3 to 8) (size 9 to 14) (size 15 to 20)
#    0.857    1.143    4.286    1.714    0.000    0.000 
#    5.143    0.000    6.286    0.000    0.000    0.000 
#    0.000    0.000    0.000    0.000    0.000    0.000 
#
# Total GULP energy -346882.329284 kJ/mol
# GULP energy per Si atom -12388.654617 kJ/mol
# Density = 1.760975 g / cm^3
# Si number density = 17.649918 Si / 1000 Ang^3
#
#
#
# Elastic Constant Matrix: (Units=GPa)
#
#
# Indices 1 2 3 4 5 6 
#
# 1 88.1107 18.6066 45.2147 0.0000 0.0000 0.0000
# 2 18.6066 53.2485 9.2147 0.0000 0.0000 0.0000
# 3 45.2147 9.2147 79.7596 0.0000 0.0000 0.0000
# 4 0.0000 0.0000 0.0000 20.9391 0.0000 0.0000
# 5 0.0000 0.0000 0.0000 0.0000 24.7883 0.0000
# 6 0.0000 0.0000 0.0000 0.0000 0.0000 21.5426
#
#
#
# Elastic Compliance Matrix: (Units=1/GPa)
#
#
# Indices 1 2 3 4 5 6 
#
# 1 0.016936 -0.004343 -0.009099 0.000000 0.000000 0.000000
# 2 -0.004343 0.020277 0.000120 0.000000 0.000000 0.000000
# 3 -0.009099 0.000120 0.017682 0.000000 0.000000 0.000000
# 4 0.000000 0.000000 0.000000 0.047758 0.000000 0.000000
# 5 0.000000 0.000000 0.000000 0.000000 0.040342 0.000000
# 6 0.000000 0.000000 0.000000 0.000000 0.000000 0.046420
#
#
# Mechanical properties :
#
#
# Convention : Reuss Voigt Hill
#
# Bulk Modulus (GPa) = 35.39914 40.79897 38.09906
# Shear Modulus (GPa) = 22.17542 23.32618 22.75080
#
# Velocity S-wave (km/s) = 3.54842 3.63933 3.59416
# Velocity P-wave (km/s) = 6.07357 6.38948 6.23353
#
# Compressibility (1/GPa) = 0.02824927
#
# Stress axis : x y z
#
# Youngs Moduli (GPa) = 59.04699 49.31733 56.55509
#
# Poissons Ratio (x) = 0.21420 0.51458
# Poissons Ratio (y) = 0.25646 -0.00676
# Poissons Ratio (z) = 0.53726 -0.00589
#
# Static dielectric constant tensor:
#      x y z
#    x 3.280680 0.000000 0.000000 
#    y 0.000000 3.157970 0.000000 
#    z 0.000000 0.000000 3.312430 
# 
# 
# High freq. dielectric constant tensor:
#      x y z
#    x 1.668120 0.000000 0.000000 
#    y 0.000000 1.658950 0.000000 
#    z 0.000000 0.000000 1.684620 
# 
# From -- ./inp_files/3056.got.cif
#   From: 2010.03.12/outbox.cif.g09.slc.cpg/sg19_2_cif.got.tgz:3056.got - 2010.04.10 18:59:41.
