data_PCOD8156411
_publ_section_title
;
Structure prediction by ZEFSAII (Michael W. Deem and Ramdas Pophale) SiO2 
 PCOD8156411
Probable space group: P 21 21 2
;
_chemical_formula_sum "Si O2"
_cell_formula_units_Z 22
_cell_length_a 14.398005
_cell_length_b 5.380437
_cell_length_c 12.268748
_cell_angle_alpha 90.000000
_cell_angle_beta 90.000000
_cell_angle_gamma 90.000000
_cell_volume 950.429957
_symmetry_space_group_name_H-M "P 21 21 2"
_symmetry_group_IT_number 18
_symmetry_cell_setting 'orthorhombic'
loop_
_space_group_symop_operation_xyz
x,y,z
-x,-y,z
1/2+x,1/2-y,-z
1/2-x,1/2+y,-z
loop_
_atom_site_type_symbol
_atom_site_label
_atom_site_fract_x
_atom_site_fract_y
_atom_site_fract_z
Si Si1 0.500000 0.500000 0.168668
Si Si2 0.667010 0.758917 0.251064
Si Si3 0.059398 0.747658 0.317225
Si Si4 0.367296 0.852569 0.065497
Si Si5 0.692640 0.933354 0.852002
Si Si6 0.805925 0.336423 0.512517
O O1 0.584788 0.557303 0.249971
O O2 0.465564 0.719898 0.088989
O O3 0.767760 0.633067 0.234807
O O4 0.661486 0.905387 0.365037
O O5 0.645510 0.927423 0.148936
O O6 0.136134 0.768001 0.220351
O O7 0.107788 0.720498 0.434539
O O8 0.000000 0.500000 0.294963
O O9 0.000000 0.000000 0.316033
O O10 0.278328 0.674591 0.078912
O O11 0.374718 0.941802 0.940716
O O12 0.751745 0.580382 0.472872
#
# Coordination Sequence:
#
# PCOD8156411 Si02
#       6
#     2   4   4   4   4   4
#     4  10  26  42  66 114 138 190 240 320 362 444
#     4  11  24  45  73 102 143 189 251 299 376 440
#     4  12  29  49  73 112 156 194 252 310 378 443
#     4  11  23  46  74 101 145 187 255 295 385 437
#     4  11  24  46  72 104 141 202 238 309 366 467
#     4  12  26  49  80 105 145 198 253 306 371 444
#
# _framework density 23.147421000000001
#
# number of rings (size 3 to 8) (size 9 to 14) (size 15 to 20)
#    0.000    0.727    3.636    2.727    6.364    2.909 
#    3.273    0.000    0.000    0.000    0.000    0.000 
#    0.000    0.000    0.000    0.000    0.000    0.000 
#
# Total GULP energy -272801.852528 kJ/mol
# GULP energy per Si atom -12400.084206 kJ/mol
# Density = 2.309474 g / cm^3
# Si number density = 23.147421 Si / 1000 Ang^3
#
#
#
# Elastic Constant Matrix: (Units=GPa)
#
#
# Indices 1 2 3 4 5 6 
#
# 1 86.7739 25.7999 27.7479 0.0000 0.0000 0.0000
# 2 25.7999 98.4010 -4.9605 0.0000 0.0000 0.0000
# 3 27.7479 -4.9605 115.8992 0.0000 0.0000 0.0000
# 4 0.0000 0.0000 0.0000 27.7918 0.0000 0.0000
# 5 0.0000 0.0000 0.0000 0.0000 22.5580 0.0000
# 6 0.0000 0.0000 0.0000 0.0000 0.0000 43.4635
#
#
#
# Elastic Compliance Matrix: (Units=1/GPa)
#
#
# Indices 1 2 3 4 5 6 
#
# 1 0.013753 -0.003780 -0.003454 0.000000 0.000000 0.000000
# 2 -0.003780 0.011223 0.001385 0.000000 0.000000 0.000000
# 3 -0.003454 0.001385 0.009515 0.000000 0.000000 0.000000
# 4 0.000000 0.000000 0.000000 0.035982 0.000000 0.000000
# 5 0.000000 0.000000 0.000000 0.000000 0.044330 0.000000
# 6 0.000000 0.000000 0.000000 0.000000 0.000000 0.023008
#
#
# Mechanical properties :
#
#
# Convention : Reuss Voigt Hill
#
# Bulk Modulus (GPa) = 43.87388 44.24985 44.06187
# Shear Modulus (GPa) = 31.82562 35.59509 33.71035
#
# Velocity S-wave (km/s) = 3.71200 3.92568 3.82033
# Velocity P-wave (km/s) = 6.11287 6.30127 6.20778
#
# Compressibility (1/GPa) = 0.02279260
#
# Stress axis : x y z
#
# Youngs Moduli (GPa) = 72.71302 89.09938 105.10263
#
# Poissons Ratio (x) = 0.33679 0.36306
# Poissons Ratio (y) = 0.27485 -0.14560
# Poissons Ratio (z) = 0.25118 -0.12343
#
# Static dielectric constant tensor:
#      x y z
#    x 4.572210 0.000000 0.000000 
#    y 0.000000 4.279110 0.000000 
#    z 0.000000 0.000000 4.123470 
# 
# 
# High freq. dielectric constant tensor:
#      x y z
#    x 1.919260 0.000000 0.000000 
#    y 0.000000 1.916810 0.000000 
#    z 0.000000 0.000000 1.924280 
# 
# From -- ./inp_files/5088.got.cif
#   From: 2010.03.12/outbox.cif.g09.slc.cpg/sg18_3_cif.got.tgz:5088.got - 2010.04.10 18:53:55.
