data_PCOD8156816
_publ_section_title
;
Structure prediction by ZEFSAII (Michael W. Deem and Ramdas Pophale) SiO2 
 PCOD8156816
Probable space group: P 21 21 21
;
_chemical_formula_sum "Si O2"
_cell_formula_units_Z 28
_cell_length_a 9.232569
_cell_length_b 17.987223
_cell_length_c 8.742857
_cell_angle_alpha 90.000000
_cell_angle_beta 90.000000
_cell_angle_gamma 90.000000
_cell_volume 1451.911202
_symmetry_space_group_name_H-M "P 21 21 21"
_symmetry_group_IT_number 19
_symmetry_cell_setting 'orthorhombic'
loop_
_space_group_symop_operation_xyz
x,y,z
1/2-x,-y,1/2+z
1/2+x,1/2-y,-z
-x,1/2+y,1/2-z
loop_
_atom_site_type_symbol
_atom_site_label
_atom_site_fract_x
_atom_site_fract_y
_atom_site_fract_z
Si Si1 0.000387 0.107256 0.227804
Si Si2 0.513029 0.227292 0.338374
Si Si3 0.846621 0.965632 0.197037
Si Si4 0.207596 0.408948 0.641523
Si Si5 0.379480 0.683121 0.643306
Si Si6 0.306176 0.792647 0.904555
Si Si7 0.418564 0.281040 0.018713
O O1 0.863816 0.131161 0.335795
O O2 0.144580 0.130576 0.320739
O O3 0.990282 0.018720 0.191960
O O4 0.994245 0.149596 0.065427
O O5 0.586184 0.147937 0.299624
O O6 0.365774 0.206797 0.428531
O O7 0.618027 0.281250 0.432952
O O8 0.476931 0.275683 0.190251
O O9 0.875180 0.904632 0.327754
O O10 0.709135 0.016082 0.253306
O O11 0.813759 0.928765 0.035514
O O12 0.357141 0.722864 0.804561
O O13 0.535012 0.705902 0.571804
O O14 0.254837 0.708309 0.522262
#
# Coordination Sequence:
#
# PCOD8156816 Si02
#       7
#     4   4   4   4   4   4   4
#     4   9  21  37  60  85 120 160 203 264 309 373
#     4  11  21  35  62  88 123 162 211 258 318 365
#     4  10  21  37  65  84 125 161 209 250 323 375
#     4  10  21  37  63  87 120 161 206 256 318 384
#     4  10  20  38  60  88 122 159 201 261 308 375
#     4  10  21  37  58  87 124 159 212 262 302 372
#     4  10  21  35  60  91 120 156 212 253 310 366
#
# _framework density 19.284925000000001
#
# number of rings (size 3 to 8) (size 9 to 14) (size 15 to 20)
#    0.857    1.143    1.429    2.571    4.000    1.143 
#    0.000    0.000   15.714    0.000    0.000    0.000 
#    0.000    0.000    0.000    0.000    0.000    0.000 
#
# Total GULP energy -346989.881848 kJ/mol
# GULP energy per Si atom -12392.495780 kJ/mol
# Density = 1.924103 g / cm^3
# Si number density = 19.284925 Si / 1000 Ang^3
#
#
#
# Elastic Constant Matrix: (Units=GPa)
#
#
# Indices 1 2 3 4 5 6 
#
# 1 69.9205 33.7623 15.5048 0.0000 0.0000 0.0000
# 2 33.7623 92.1191 34.7978 0.0000 0.0000 0.0000
# 3 15.5048 34.7978 56.0122 0.0000 0.0000 0.0000
# 4 0.0000 0.0000 0.0000 28.9587 0.0000 0.0000
# 5 0.0000 0.0000 0.0000 0.0000 26.1450 0.0000
# 6 0.0000 0.0000 0.0000 0.0000 0.0000 29.2726
#
#
#
# Elastic Compliance Matrix: (Units=1/GPa)
#
#
# Indices 1 2 3 4 5 6 
#
# 1 0.017431 -0.005966 -0.001119 0.000000 0.000000 0.000000
# 2 -0.005966 0.016226 -0.008429 0.000000 0.000000 0.000000
# 3 -0.001119 -0.008429 0.023400 0.000000 0.000000 0.000000
# 4 0.000000 0.000000 0.000000 0.034532 0.000000 0.000000
# 5 0.000000 0.000000 0.000000 0.000000 0.038248 0.000000
# 6 0.000000 0.000000 0.000000 0.000000 0.000000 0.034162
#
#
# Mechanical properties :
#
#
# Convention : Reuss Voigt Hill
#
# Bulk Modulus (GPa) = 38.41869 42.90907 40.66388
# Shear Modulus (GPa) = 24.54567 25.80774 25.17670
#
# Velocity S-wave (km/s) = 3.57149 3.66216 3.61711
# Velocity P-wave (km/s) = 6.08048 6.33879 6.21098
#
# Compressibility (1/GPa) = 0.02602900
#
# Stress axis : x y z
#
# Youngs Moduli (GPa) = 57.36981 61.62894 42.73589
#
# Poissons Ratio (x) = 0.36767 0.04781
# Poissons Ratio (y) = 0.34226 0.36023
# Poissons Ratio (z) = 0.06418 0.51948
#
# Static dielectric constant tensor:
#      x y z
#    x 3.479480 0.000000 0.000000 
#    y 0.000000 3.484800 0.000000 
#    z 0.000000 0.000000 3.452090 
# 
# 
# High freq. dielectric constant tensor:
#      x y z
#    x 1.728100 0.000000 0.000000 
#    y 0.000000 1.739820 0.000000 
#    z 0.000000 0.000000 1.757930 
# 
# From -- ./inp_files/3088.got.cif
#   From: 2010.03.12/outbox.cif.g09.slc.cpg/sg19_2_cif.got.tgz:3088.got - 2010.04.10 18:59:41.
