data_PCOD8156292
_publ_section_title
;
Structure prediction by ZEFSAII (Michael W. Deem and Ramdas Pophale) SiO2 
 PCOD8156292
Probable space group: P 21 21 2
;
_chemical_formula_sum "Si O2"
_cell_formula_units_Z 20
_cell_length_a 13.879073
_cell_length_b 9.707383
_cell_length_c 5.897494
_cell_angle_alpha 90.000000
_cell_angle_beta 90.000000
_cell_angle_gamma 90.000000
_cell_volume 794.566284
_symmetry_space_group_name_H-M "P 21 21 2"
_symmetry_group_IT_number 18
_symmetry_cell_setting 'orthorhombic'
loop_
_space_group_symop_operation_xyz
x,y,z
-x,-y,z
1/2+x,1/2-y,-z
1/2-x,1/2+y,-z
loop_
_atom_site_type_symbol
_atom_site_label
_atom_site_fract_x
_atom_site_fract_y
_atom_site_fract_z
Si Si1 0.459936 0.740029 0.775859
Si Si2 0.000000 0.000000 0.540910
Si Si3 0.298690 0.036941 0.240500
Si Si4 0.343463 0.594995 0.141581
Si Si5 0.000000 0.500000 0.973417
Si Si6 0.771710 0.713535 0.490790
O O1 0.517184 0.637232 0.610111
O O2 0.369450 0.801337 0.646942
O O3 0.429570 0.656665 0.995836
O O4 0.522461 0.868955 0.865055
O O5 0.900306 0.001998 0.681553
O O6 0.406289 0.982952 0.187149
O O7 0.300845 0.195816 0.332347
O O8 0.247145 0.945052 0.440815
O O9 0.232903 0.015209 0.016747
O O10 0.284932 0.713819 0.267677
#
# Coordination Sequence:
#
# PCOD8156292 Si02
#       6
#     4   2   4   4   2   4
#     4  10  23  48  73 104 151 189 254 306 373 453
#     4  10  22  48  74 104 148 200 252 308 376 450
#     4  11  26  50  76 110 154 201 250 314 378 448
#     4  10  22  49  71 107 152 190 252 314 366 456
#     4  12  26  52  74 110 158 194 250 322 380 440
#     4  10  24  50  72 104 148 198 249 308 373 452
#
# _framework density 25.170966
#
# number of rings (size 3 to 8) (size 9 to 14) (size 15 to 20)
#    0.000    1.600    2.000    0.600    2.800    0.800 
#   28.800    2.000    0.000    0.000    0.000    0.000 
#    0.000    0.000    0.000    0.000    0.000    0.000 
#
# Total GULP energy -247885.850113 kJ/mol
# GULP energy per Si atom -12394.292506 kJ/mol
# Density = 2.511368 g / cm^3
# Si number density = 25.170966 Si / 1000 Ang^3
#
#
#
# Elastic Constant Matrix: (Units=GPa)
#
#
# Indices 1 2 3 4 5 6 
#
# 1 86.5572 45.5099 38.0702 0.0000 0.0000 0.0000
# 2 45.5099 125.4387 47.7761 0.0000 0.0000 0.0000
# 3 38.0702 47.7761 115.1827 0.0000 0.0000 0.0000
# 4 0.0000 0.0000 0.0000 39.0697 0.0000 0.0000
# 5 0.0000 0.0000 0.0000 0.0000 31.2127 0.0000
# 6 0.0000 0.0000 0.0000 0.0000 0.0000 32.7706
#
#
#
# Elastic Compliance Matrix: (Units=1/GPa)
#
#
# Indices 1 2 3 4 5 6 
#
# 1 0.015241 -0.004288 -0.003259 0.000000 0.000000 0.000000
# 2 -0.004288 0.010674 -0.003010 0.000000 0.000000 0.000000
# 3 -0.003259 -0.003010 0.011008 0.000000 0.000000 0.000000
# 4 0.000000 0.000000 0.000000 0.025595 0.000000 0.000000
# 5 0.000000 0.000000 0.000000 0.000000 0.032038 0.000000
# 6 0.000000 0.000000 0.000000 0.000000 0.000000 0.030515
#
#
# Mechanical properties :
#
#
# Convention : Reuss Voigt Hill
#
# Bulk Modulus (GPa) = 63.25759 65.54343 64.40051
# Shear Modulus (GPa) = 33.01297 33.66543 33.33920
#
# Velocity S-wave (km/s) = 3.62546 3.66111 3.64333
# Velocity P-wave (km/s) = 6.53537 6.63080 6.58326
#
# Compressibility (1/GPa) = 0.01580838
#
# Stress axis : x y z
#
# Youngs Moduli (GPa) = 65.61222 93.68246 90.84707
#
# Poissons Ratio (x) = 0.40175 0.29605
# Poissons Ratio (y) = 0.28137 0.27346
# Poissons Ratio (z) = 0.21381 0.28200
#
# Static dielectric constant tensor:
#      x y z
#    x 4.130610 0.000000 0.000000 
#    y 0.000000 4.506320 0.000000 
#    z 0.000000 0.000000 4.937350 
# 
# 
# High freq. dielectric constant tensor:
#      x y z
#    x 1.981460 0.000000 0.000000 
#    y 0.000000 2.004050 0.000000 
#    z 0.000000 0.000000 2.026180 
# 
# From -- ./inp_files/558.got.cif
#   From: 2010.03.12/outbox.cif.g09.slc.cpg/sg18_1_cif.got.tgz:558.got - 2010.04.10 18:53:55.
