data_PCOD8156228
_publ_section_title
;
Structure prediction by ZEFSAII (Michael W. Deem and Ramdas Pophale) SiO2 
 PCOD8156228
Probable space group: P 21 21 2
;
_chemical_formula_sum "Si O2"
_cell_formula_units_Z 30
_cell_length_a 12.224784
_cell_length_b 5.560642
_cell_length_c 19.086723
_cell_angle_alpha 90.000000
_cell_angle_beta 90.000000
_cell_angle_gamma 90.000000
_cell_volume 1297.470525
_symmetry_space_group_name_H-M "P 21 21 2"
_symmetry_group_IT_number 18
_symmetry_cell_setting 'orthorhombic'
loop_
_space_group_symop_operation_xyz
x,y,z
-x,-y,z
1/2+x,1/2-y,-z
1/2-x,1/2+y,-z
loop_
_atom_site_type_symbol
_atom_site_label
_atom_site_fract_x
_atom_site_fract_y
_atom_site_fract_z
Si Si1 0.381056 0.492505 0.649266
Si Si2 0.626476 0.536679 0.256824
Si Si3 0.280647 0.373713 0.399329
Si Si4 0.500000 0.000000 0.937090
Si Si5 0.110714 0.650888 0.478897
Si Si6 0.889834 0.113772 0.968497
Si Si7 0.312633 0.683711 0.903706
Si Si8 0.233857 0.439276 0.774205
O O1 0.500000 0.500000 0.685238
O O2 0.324470 0.746620 0.635430
O O3 0.399316 0.369148 0.574564
O O4 0.304903 0.364004 0.706453
O O5 0.500000 0.500000 0.246647
O O6 0.657070 0.485051 0.338017
O O7 0.671522 0.311488 0.210494
O O8 0.664018 0.811365 0.237255
O O9 0.227162 0.534378 0.459486
O O10 0.373682 0.218483 0.439317
O O11 0.422417 0.155798 0.986676
O O12 0.582505 0.148519 0.887041
O O13 0.000000 0.500000 0.472358
O O14 0.831544 0.924719 0.019583
O O15 0.804828 0.178818 0.906626
O O16 0.000000 0.000000 0.934270
O O17 0.308670 0.485635 0.842536
#
# Coordination Sequence:
#
# PCOD8156228 Si02
#       8
#     4   4   4   2   4   4   4   4
#     4  11  23  42  64  95 136 184 234 297 356 438
#     4  11  26  50  71 100 144 193 244 301 360 438
#     4  11  24  40  67  99 136 176 238 295 366 428
#     4  10  22  42  68 108 142 188 232 304 372 434
#     4  12  23  39  69 101 134 177 234 299 371 434
#     4  10  22  41  71 104 145 189 233 308 371 437
#     4  11  23  44  73 107 148 185 250 301 372 446
#     4  11  27  46  74 105 143 196 241 301 361 436
#
# _framework density 23.121914
#
# number of rings (size 3 to 8) (size 9 to 14) (size 15 to 20)
#    0.000    1.067    5.333    0.400    1.867    5.867 
#    2.400    0.000    1.467    0.000    0.000    0.000 
#    0.000    0.000    0.000    0.000    0.000    0.000 
#
# Total GULP energy -371686.055772 kJ/mol
# GULP energy per Si atom -12389.535192 kJ/mol
# Density = 2.306929 g / cm^3
# Si number density = 23.121914 Si / 1000 Ang^3
#
#
#
# Elastic Constant Matrix: (Units=GPa)
#
#
# Indices 1 2 3 4 5 6 
#
# 1 119.7412 34.6302 19.5606 0.0000 0.0000 0.0000
# 2 34.6302 98.7227 7.0289 0.0000 0.0000 0.0000
# 3 19.5606 7.0289 59.4489 0.0000 0.0000 0.0000
# 4 0.0000 0.0000 0.0000 24.5045 0.0000 0.0000
# 5 0.0000 0.0000 0.0000 0.0000 13.7862 0.0000
# 6 0.0000 0.0000 0.0000 0.0000 0.0000 26.8403
#
#
#
# Elastic Compliance Matrix: (Units=1/GPa)
#
#
# Indices 1 2 3 4 5 6 
#
# 1 0.009743 -0.003217 -0.002826 0.000000 0.000000 0.000000
# 2 -0.003217 0.011277 -0.000275 0.000000 0.000000 0.000000
# 3 -0.002826 -0.000275 0.017783 0.000000 0.000000 0.000000
# 4 0.000000 0.000000 0.000000 0.040809 0.000000 0.000000
# 5 0.000000 0.000000 0.000000 0.000000 0.072536 0.000000
# 6 0.000000 0.000000 0.000000 0.000000 0.000000 0.037257
#
#
# Mechanical properties :
#
#
# Convention : Reuss Voigt Hill
#
# Bulk Modulus (GPa) = 38.21217 44.48356 41.34786
# Shear Modulus (GPa) = 23.72325 27.47241 25.59783
#
# Velocity S-wave (km/s) = 3.20661 3.45070 3.33089
# Velocity P-wave (km/s) = 5.50200 5.92933 5.71966
#
# Compressibility (1/GPa) = 0.02616967
#
# Stress axis : x y z
#
# Youngs Moduli (GPa) = 102.63601 88.67393 56.23228
#
# Poissons Ratio (x) = 0.28522 0.15888
# Poissons Ratio (y) = 0.33013 0.01546
# Poissons Ratio (z) = 0.29000 0.02439
#
# Static dielectric constant tensor:
#      x y z
#    x 4.597640 0.000000 0.000000 
#    y 0.000000 4.297650 0.000000 
#    z 0.000000 0.000000 3.986570 
# 
# 
# High freq. dielectric constant tensor:
#      x y z
#    x 1.926850 0.000000 0.000000 
#    y 0.000000 1.910970 0.000000 
#    z 0.000000 0.000000 1.904340 
# 
# From -- ./inp_files/7589.got.cif
#   From: 2010.03.12/outbox.cif.g09.slc.cpg/sg18_4_cif.got.tgz:7589.got - 2010.04.10 18:53:55.
