data_PCOD8156838
_publ_section_title
;
Structure prediction by ZEFSAII (Michael W. Deem and Ramdas Pophale) SiO2 
 PCOD8156838
Probable space group: P 21 21 21
;
_chemical_formula_sum "Si O2"
_cell_formula_units_Z 20
_cell_length_a 8.162006
_cell_length_b 9.104021
_cell_length_c 11.650107
_cell_angle_alpha 90.000000
_cell_angle_beta 90.000000
_cell_angle_gamma 90.000000
_cell_volume 865.685363
_symmetry_space_group_name_H-M "P 21 21 21"
_symmetry_group_IT_number 19
_symmetry_cell_setting 'orthorhombic'
loop_
_space_group_symop_operation_xyz
x,y,z
1/2-x,-y,1/2+z
1/2+x,1/2-y,-z
-x,1/2+y,1/2-z
loop_
_atom_site_type_symbol
_atom_site_label
_atom_site_fract_x
_atom_site_fract_y
_atom_site_fract_z
Si Si1 0.980295 0.964469 0.197303
Si Si2 0.411407 0.789452 0.973148
Si Si3 0.462601 0.335156 0.008605
Si Si4 0.771447 0.067725 0.400864
Si Si5 0.787484 0.421020 0.099805
O O1 0.913537 0.817616 0.137621
O O2 0.140453 0.925078 0.271642
O O3 0.836888 0.040843 0.273063
O O4 0.033309 0.085403 0.104737
O O5 0.583959 0.874274 0.985146
O O6 0.272908 0.913823 0.950922
O O7 0.368615 0.695168 0.088020
O O8 0.298066 0.414277 0.052676
O O9 0.608763 0.344676 0.102478
O O10 0.415810 0.168508 0.980016
#
# Coordination Sequence:
#
# PCOD8156838 Si02
#       5
#     4   4   4   4   4
#     4  10  22  42  63  88 126 166 204 257 316 367
#     4  10  20  38  65  91 122 166 206 253 309 370
#     4  11  24  41  62  93 128 165 208 262 312 371
#     4  10  21  40  64  91 125 164 210 255 310 370
#     4  11  21  39  64  91 125 165 208 255 311 370
#
# _framework density 23.103083000000002
#
# number of rings (size 3 to 8) (size 9 to 14) (size 15 to 20)
#    0.000    1.600    0.000    7.200    0.000    0.000 
#    0.000   24.000    0.000    0.000    0.000    0.000 
#    0.000    0.000    0.000    0.000    0.000    0.000 
#
# Total GULP energy -247939.331745 kJ/mol
# GULP energy per Si atom -12396.966587 kJ/mol
# Density = 2.305050 g / cm^3
# Si number density = 23.103083 Si / 1000 Ang^3
#
#
#
# Elastic Constant Matrix: (Units=GPa)
#
#
# Indices 1 2 3 4 5 6 
#
# 1 106.7753 20.1083 43.5598 0.0000 0.0000 0.0000
# 2 20.1083 112.4287 29.9414 0.0000 0.0000 0.0000
# 3 43.5598 29.9414 82.7007 0.0000 0.0000 0.0000
# 4 0.0000 0.0000 0.0000 38.6145 0.0000 0.0000
# 5 0.0000 0.0000 0.0000 0.0000 34.7570 0.0000
# 6 0.0000 0.0000 0.0000 0.0000 0.0000 46.8186
#
#
#
# Elastic Compliance Matrix: (Units=1/GPa)
#
#
# Indices 1 2 3 4 5 6 
#
# 1 0.011955 -0.000510 -0.006112 0.000000 0.000000 0.000000
# 2 -0.000510 0.009865 -0.003303 0.000000 0.000000 0.000000
# 3 -0.006112 -0.003303 0.016507 0.000000 0.000000 0.000000
# 4 0.000000 0.000000 0.000000 0.025897 0.000000 0.000000
# 5 0.000000 0.000000 0.000000 0.000000 0.028771 0.000000
# 6 0.000000 0.000000 0.000000 0.000000 0.000000 0.021359
#
#
# Mechanical properties :
#
#
# Convention : Reuss Voigt Hill
#
# Bulk Modulus (GPa) = 54.12266 54.34707 54.23487
# Shear Modulus (GPa) = 35.62157 37.92438 36.77297
#
# Velocity S-wave (km/s) = 3.93090 4.05597 3.99393
# Velocity P-wave (km/s) = 6.63929 6.74606 6.69289
#
# Compressibility (1/GPa) = 0.01847655
#
# Stress axis : x y z
#
# Youngs Moduli (GPa) = 83.64642 101.36411 60.58058
#
# Poissons Ratio (x) = 0.05174 0.37028
# Poissons Ratio (y) = 0.04270 0.20009
# Poissons Ratio (z) = 0.51126 0.33479
#
# Static dielectric constant tensor:
#      x y z
#    x 4.172260 0.000000 0.000000 
#    y 0.000000 4.502410 0.000000 
#    z 0.000000 0.000000 3.867010 
# 
# 
# High freq. dielectric constant tensor:
#      x y z
#    x 1.908510 0.000000 0.000000 
#    y 0.000000 1.939500 0.000000 
#    z 0.000000 0.000000 1.877580 
# 
# From -- ./inp_files/2623.got.cif
#   From: 2010.03.12/outbox.cif.g09.slc.cpg/sg19_2_cif.got.tgz:2623.got - 2010.04.10 18:59:41.
