data_PCOD8156893
_publ_section_title
;
Structure prediction by ZEFSAII (Michael W. Deem and Ramdas Pophale) SiO2 
 PCOD8156893
Probable space group: P 21 21 21
;
_chemical_formula_sum "Si O2"
_cell_formula_units_Z 32
_cell_length_a 15.328030
_cell_length_b 5.541567
_cell_length_c 15.607864
_cell_angle_alpha 90.000000
_cell_angle_beta 90.000000
_cell_angle_gamma 90.000000
_cell_volume 1325.752340
_symmetry_space_group_name_H-M "P 21 21 21"
_symmetry_group_IT_number 19
_symmetry_cell_setting 'orthorhombic'
loop_
_space_group_symop_operation_xyz
x,y,z
1/2-x,-y,1/2+z
1/2+x,1/2-y,-z
-x,1/2+y,1/2-z
loop_
_atom_site_type_symbol
_atom_site_label
_atom_site_fract_x
_atom_site_fract_y
_atom_site_fract_z
Si Si1 0.809464 0.661443 0.821677
Si Si2 0.113951 0.492167 0.800849
Si Si3 0.681722 0.963941 0.463477
Si Si4 0.553580 0.728003 0.354190
Si Si5 0.506508 0.423968 0.860220
Si Si6 0.684089 0.423957 0.934257
Si Si7 0.747797 0.718641 0.097604
Si Si8 0.419181 0.925623 0.828241
O O1 0.882817 0.461978 0.809516
O O2 0.713882 0.560271 0.846340
O O3 0.808971 0.813380 0.732978
O O4 0.839333 0.811127 0.904141
O O5 0.056566 0.558982 0.716852
O O6 0.161947 0.707756 0.849815
O O7 0.045744 0.363824 0.866231
O O8 0.595074 0.796452 0.448206
O O9 0.770533 0.837243 0.430845
O O10 0.698687 0.049029 0.560607
O O11 0.580027 0.405402 0.934109
O O12 0.457906 0.681402 0.873365
O O13 0.555650 0.415298 0.770050
O O14 0.448785 0.180748 0.870100
O O15 0.716304 0.552479 0.020283
O O16 0.814109 0.578694 0.160275
#
# Coordination Sequence:
#
# PCOD8156893 Si02
#       8
#     4   4   4   4   4   4   4   4
#     4   9  20  38  67  96 132 178 226 288 348 428
#     4  11  22  39  68 102 138 179 239 293 354 439
#     4   9  22  43  62  93 138 185 225 280 362 427
#     4  10  20  41  65 100 135 182 230 286 356 430
#     4  10  24  48  75 101 137 191 247 298 357 429
#     4  10  23  45  68  97 137 185 234 283 374 437
#     4  11  26  44  65 107 140 184 238 300 368 431
#     4  10  25  46  74 106 137 184 251 310 347 411
#
# _framework density 24.137239000000001
#
# number of rings (size 3 to 8) (size 9 to 14) (size 15 to 20)
#    0.000    2.000    1.250    0.000   10.500    3.000 
#    9.000    0.000    0.000    0.000    0.000    0.000 
#    0.000    0.000    0.000    0.000    0.000    0.000 
#
# Total GULP energy -396487.817489 kJ/mol
# GULP energy per Si atom -12390.244297 kJ/mol
# Density = 2.408230 g / cm^3
# Si number density = 24.137239 Si / 1000 Ang^3
#
#
#
# Elastic Constant Matrix: (Units=GPa)
#
#
# Indices 1 2 3 4 5 6 
#
# 1 104.4446 19.7976 22.6463 0.0000 0.0000 0.0000
# 2 19.7976 95.2727 2.5246 0.0000 0.0000 0.0000
# 3 22.6463 2.5246 43.5847 0.0000 0.0000 0.0000
# 4 0.0000 0.0000 0.0000 28.8417 0.0000 0.0000
# 5 0.0000 0.0000 0.0000 0.0000 31.7160 0.0000
# 6 0.0000 0.0000 0.0000 0.0000 0.0000 33.3252
#
#
#
# Elastic Compliance Matrix: (Units=1/GPa)
#
#
# Indices 1 2 3 4 5 6 
#
# 1 0.011225 -0.002181 -0.005706 0.000000 0.000000 0.000000
# 2 -0.002181 0.010936 0.000500 0.000000 0.000000 0.000000
# 3 -0.005706 0.000500 0.025880 0.000000 0.000000 0.000000
# 4 0.000000 0.000000 0.000000 0.034672 0.000000 0.000000
# 5 0.000000 0.000000 0.000000 0.000000 0.031530 0.000000
# 6 0.000000 0.000000 0.000000 0.000000 0.000000 0.030007
#
#
# Mechanical properties :
#
#
# Convention : Reuss Voigt Hill
#
# Bulk Modulus (GPa) = 30.06073 37.02657 33.54365
# Shear Modulus (GPa) = 29.39203 31.99883 30.69543
#
# Velocity S-wave (km/s) = 3.49335 3.64497 3.56996
# Velocity P-wave (km/s) = 5.36213 5.75219 5.56058
#
# Compressibility (1/GPa) = 0.03326599
#
# Stress axis : x y z
#
# Youngs Moduli (GPa) = 89.08539 91.43915 38.64022
#
# Poissons Ratio (x) = 0.19946 0.22049
# Poissons Ratio (y) = 0.19433 -0.01932
# Poissons Ratio (z) = 0.50834 -0.04572
#
# Static dielectric constant tensor:
#      x y z
#    x 4.179680 0.000000 0.000000 
#    y 0.000000 4.617970 0.000000 
#    z 0.000000 0.000000 4.099200 
# 
# 
# High freq. dielectric constant tensor:
#      x y z
#    x 1.950770 0.000000 0.000000 
#    y 0.000000 1.966580 0.000000 
#    z 0.000000 0.000000 1.944210 
# 
# From -- ./inp_files/6799.got.cif
#   From: 2010.03.12/outbox.cif.g09.slc.cpg/sg19_4_cif.got.tgz:6799.got - 2010.04.10 18:59:41.
