data_PCOD8156336
_publ_section_title
;
Structure prediction by ZEFSAII (Michael W. Deem and Ramdas Pophale) SiO2 
 PCOD8156336
Probable space group: P 21 21 2
;
_chemical_formula_sum "Si O2"
_cell_formula_units_Z 24
_cell_length_a 14.143900
_cell_length_b 8.638884
_cell_length_c 8.716651
_cell_angle_alpha 90.000000
_cell_angle_beta 90.000000
_cell_angle_gamma 90.000000
_cell_volume 1065.065893
_symmetry_space_group_name_H-M "P 21 21 2"
_symmetry_group_IT_number 18
_symmetry_cell_setting 'orthorhombic'
loop_
_space_group_symop_operation_xyz
x,y,z
-x,-y,z
1/2+x,1/2-y,-z
1/2-x,1/2+y,-z
loop_
_atom_site_type_symbol
_atom_site_label
_atom_site_fract_x
_atom_site_fract_y
_atom_site_fract_z
Si Si1 0.000000 0.000000 0.369094
Si Si2 0.359328 0.212237 0.144347
Si Si3 0.006756 0.236626 0.609223
Si Si4 0.139336 0.553858 0.171285
Si Si5 0.643795 0.309667 0.837962
Si Si6 0.147272 0.075227 0.836922
Si Si7 0.500000 0.000000 0.591032
O O1 0.954909 0.128401 0.483208
O O2 0.083394 0.076117 0.268745
O O3 0.430200 0.178233 0.283035
O O4 0.254745 0.150438 0.186341
O O5 0.362291 0.396040 0.119002
O O6 0.394921 0.123150 0.991480
O O7 0.082483 0.130942 0.697986
O O8 0.056821 0.377450 0.516847
O O9 0.125833 0.369930 0.188828
O O10 0.244638 0.612663 0.206111
O O11 0.069904 0.609016 0.306584
O O12 0.614084 0.333179 0.013922
#
# Coordination Sequence:
#
# PCOD8156336 Si02
#       7
#     2   4   4   4   4   4   2
#     4  12  24  44  70 102 142 188 234 284 358 424
#     4  10  23  45  71 102 135 183 240 289 344 418
#     4  12  26  44  69 104 142 186 231 287 360 419
#     4  10  24  46  69 101 139 182 240 290 345 415
#     4  10  24  44  71 102 136 185 239 289 343 419
#     4  10  23  45  72 101 134 186 241 286 343 422
#     4  12  28  44  64 106 146 186 226 294 364 416
#
# _framework density 22.533816999999999
#
# number of rings (size 3 to 8) (size 9 to 14) (size 15 to 20)
#    0.000    1.333    3.333    0.000    9.333    1.333 
#    0.000    0.000    0.000    0.000    0.000    0.000 
#    0.000    0.000    0.000    0.000    0.000    0.000 
#
# Total GULP energy -297434.466642 kJ/mol
# GULP energy per Si atom -12393.102777 kJ/mol
# Density = 2.248253 g / cm^3
# Si number density = 22.533817 Si / 1000 Ang^3
#
#
#
# Elastic Constant Matrix: (Units=GPa)
#
#
# Indices 1 2 3 4 5 6 
#
# 1 101.9244 42.4404 75.3557 0.0000 0.0000 0.0000
# 2 42.4404 83.0669 64.3268 0.0000 0.0000 0.0000
# 3 75.3557 64.3268 129.0538 0.0000 0.0000 0.0000
# 4 0.0000 0.0000 0.0000 61.0811 0.0000 0.0000
# 5 0.0000 0.0000 0.0000 0.0000 12.8761 0.0000
# 6 0.0000 0.0000 0.0000 0.0000 0.0000 33.8981
#
#
#
# Elastic Compliance Matrix: (Units=1/GPa)
#
#
# Indices 1 2 3 4 5 6 
#
# 1 0.017404 -0.001665 -0.009333 0.000000 0.000000 0.000000
# 2 -0.001665 0.019766 -0.008880 0.000000 0.000000 0.000000
# 3 -0.009333 -0.008880 0.017624 0.000000 0.000000 0.000000
# 4 0.000000 0.000000 0.000000 0.016372 0.000000 0.000000
# 5 0.000000 0.000000 0.000000 0.000000 0.077663 0.000000
# 6 0.000000 0.000000 0.000000 0.000000 0.000000 0.029500
#
#
# Mechanical properties :
#
#
# Convention : Reuss Voigt Hill
#
# Bulk Modulus (GPa) = 66.49305 75.36565 70.92935
# Shear Modulus (GPa) = 22.41166 30.36588 26.38877
#
# Velocity S-wave (km/s) = 3.15712 3.67491 3.42581
# Velocity P-wave (km/s) = 6.54691 7.17808 6.86974
#
# Compressibility (1/GPa) = 0.01503917
#
# Stress axis : x y z
#
# Youngs Moduli (GPa) = 57.45677 50.59220 56.73951
#
# Poissons Ratio (x) = 0.08424 0.52953
# Poissons Ratio (y) = 0.09567 0.50385
# Poissons Ratio (z) = 0.53622 0.44926
#
# Static dielectric constant tensor:
#      x y z
#    x 4.013660 0.000000 0.000000 
#    y 0.000000 4.136510 0.000000 
#    z 0.000000 0.000000 4.298720 
# 
# 
# High freq. dielectric constant tensor:
#      x y z
#    x 1.874950 0.000000 0.000000 
#    y 0.000000 1.899680 0.000000 
#    z 0.000000 0.000000 1.900940 
# 
# From -- ./inp_files/4195.got.cif
#   From: 2010.03.12/outbox.cif.g09.slc.cpg/sg18_3_cif.got.tgz:4195.got - 2010.04.10 18:53:55.
