data_PCOD8156495
_publ_section_title
;
Structure prediction by ZEFSAII (Michael W. Deem and Ramdas Pophale) SiO2 
 PCOD8156495
Probable space group: P 21 21 2
;
_chemical_formula_sum "Si O2"
_cell_formula_units_Z 20
_cell_length_a 9.891034
_cell_length_b 14.714590
_cell_length_c 5.257970
_cell_angle_alpha 90.000000
_cell_angle_beta 90.000000
_cell_angle_gamma 90.000000
_cell_volume 765.258151
_symmetry_space_group_name_H-M "P 21 21 2"
_symmetry_group_IT_number 18
_symmetry_cell_setting 'orthorhombic'
loop_
_space_group_symop_operation_xyz
x,y,z
-x,-y,z
1/2+x,1/2-y,-z
1/2-x,1/2+y,-z
loop_
_atom_site_type_symbol
_atom_site_label
_atom_site_fract_x
_atom_site_fract_y
_atom_site_fract_z
Si Si1 0.710630 0.295574 0.566590
Si Si2 0.000000 0.000000 0.795673
Si Si3 0.641297 0.838939 0.946961
Si Si4 0.500000 0.000000 0.680227
Si Si5 0.032768 0.845136 0.147901
Si Si6 0.258651 0.408410 0.497337
O O1 0.755377 0.318021 0.282919
O O2 0.553310 0.325764 0.592798
O O3 0.733240 0.189198 0.636694
O O4 0.787060 0.355485 0.781955
O O5 0.867203 0.026922 0.639834
O O6 0.046093 0.085225 0.967503
O O7 0.551212 0.924200 0.874683
O O8 0.546322 0.751185 0.992106
O O9 0.383000 0.961907 0.494059
O O10 0.179290 0.888182 0.222985
#
# Coordination Sequence:
#
# PCOD8156495 Si02
#       6
#     4   2   4   2   4   4
#     4  11  25  49  74 111 152 207 250 321 388 453
#     4  12  24  46  78 106 152 196 274 310 384 468
#     4  11  26  47  76 107 157 199 254 321 384 459
#     4  12  26  52  72 118 154 206 258 322 386 462
#     4  11  25  46  74 113 151 199 258 321 387 461
#     4  11  26  47  74 110 154 205 261 316 390 455
#
# _framework density 26.134974
#
# number of rings (size 3 to 8) (size 9 to 14) (size 15 to 20)
#    0.000    0.800    4.000    1.800    8.400    0.800 
#    3.600    0.000    0.000    0.000    0.000    0.000 
#    0.000    0.000    0.000    0.000    0.000    0.000 
#
# Total GULP energy -247970.143926 kJ/mol
# GULP energy per Si atom -12398.507196 kJ/mol
# Density = 2.607549 g / cm^3
# Si number density = 26.134974 Si / 1000 Ang^3
#
#
#
# Elastic Constant Matrix: (Units=GPa)
#
#
# Indices 1 2 3 4 5 6 
#
# 1 129.1653 50.4992 6.7407 0.0000 0.0000 0.0000
# 2 50.4992 136.1794 10.6712 0.0000 0.0000 0.0000
# 3 6.7407 10.6712 56.6051 0.0000 0.0000 0.0000
# 4 0.0000 0.0000 0.0000 21.1434 0.0000 0.0000
# 5 0.0000 0.0000 0.0000 0.0000 26.8347 0.0000
# 6 0.0000 0.0000 0.0000 0.0000 0.0000 49.7428
#
#
#
# Elastic Compliance Matrix: (Units=1/GPa)
#
#
# Indices 1 2 3 4 5 6 
#
# 1 0.009066 -0.003327 -0.000453 0.000000 0.000000 0.000000
# 2 -0.003327 0.008674 -0.001239 0.000000 0.000000 0.000000
# 3 -0.000453 -0.001239 0.017954 0.000000 0.000000 0.000000
# 4 0.000000 0.000000 0.000000 0.047296 0.000000 0.000000
# 5 0.000000 0.000000 0.000000 0.000000 0.037265 0.000000
# 6 0.000000 0.000000 0.000000 0.000000 0.000000 0.020103
#
#
# Mechanical properties :
#
#
# Convention : Reuss Voigt Hill
#
# Bulk Modulus (GPa) = 38.97483 50.86356 44.91919
# Shear Modulus (GPa) = 31.45694 36.48007 33.96851
#
# Velocity S-wave (km/s) = 3.47311 3.74014 3.60909
# Velocity P-wave (km/s) = 5.57033 6.17703 5.88151
#
# Compressibility (1/GPa) = 0.02565759
#
# Stress axis : x y z
#
# Youngs Moduli (GPa) = 110.29981 115.28803 55.69878
#
# Poissons Ratio (x) = 0.38351 0.02520
# Poissons Ratio (y) = 0.36692 0.06902
# Poissons Ratio (z) = 0.04991 0.14285
#
# Static dielectric constant tensor:
#      x y z
#    x 4.849260 0.000000 0.000000 
#    y 0.000000 5.188370 0.000000 
#    z 0.000000 0.000000 4.235290 
# 
# 
# High freq. dielectric constant tensor:
#      x y z
#    x 2.047720 0.000000 0.000000 
#    y 0.000000 2.071310 0.000000 
#    z 0.000000 0.000000 2.026150 
# 
# From -- ./inp_files/1013.got.cif
#   From: 2010.03.12/outbox.cif.g09.slc.cpg/sg18_1_cif.got.tgz:1013.got - 2010.04.10 18:53:55.
