data_PCOD8156125
_publ_section_title
;
Structure prediction by ZEFSAII (Michael W. Deem and Ramdas Pophale) SiO2 
 PCOD8156125
Probable space group: P 21 21 2
;
_chemical_formula_sum "Si O2"
_cell_formula_units_Z 26
_cell_length_a 10.435562
_cell_length_b 9.759421
_cell_length_c 12.444451
_cell_angle_alpha 90.000000
_cell_angle_beta 90.000000
_cell_angle_gamma 90.000000
_cell_volume 1267.405646
_symmetry_space_group_name_H-M "P 21 21 2"
_symmetry_group_IT_number 18
_symmetry_cell_setting 'orthorhombic'
loop_
_space_group_symop_operation_xyz
x,y,z
-x,-y,z
1/2+x,1/2-y,-z
1/2-x,1/2+y,-z
loop_
_atom_site_type_symbol
_atom_site_label
_atom_site_fract_x
_atom_site_fract_y
_atom_site_fract_z
Si Si1 0.500000 0.500000 0.729161
Si Si2 0.295195 0.503374 0.895407
Si Si3 0.131637 0.422657 0.556855
Si Si4 0.818020 0.253894 0.783443
Si Si5 0.184580 0.157235 0.417525
Si Si6 0.143880 0.024876 0.858177
Si Si7 0.387790 0.814616 0.204948
O O1 0.394005 0.434216 0.809604
O O2 0.559744 0.383333 0.652074
O O3 0.274299 0.659599 0.860036
O O4 0.163981 0.416442 0.887573
O O5 0.348678 0.508839 0.014260
O O6 0.142211 0.275875 0.498702
O O7 0.252053 0.522243 0.526001
O O8 0.139245 0.389212 0.682836
O O9 0.000000 0.500000 0.525816
O O10 0.797880 0.286242 0.658408
O O11 0.963209 0.288999 0.815550
O O12 0.775952 0.096734 0.802932
O O13 0.188871 0.170907 0.810771
O O14 0.000000 0.000000 0.820362
#
# Coordination Sequence:
#
# PCOD8156125 Si02
#       7
#     2   4   4   4   4   4   4
#     4  10  22  40  62  88 126 170 200 258 326 372
#     4  11  19  39  64  86 128 165 210 254 322 378
#     4  12  25  45  67  96 126 171 221 270 331 392
#     4  10  21  41  60  91 122 163 213 263 314 377
#     4  11  26  42  68  90 129 170 215 273 324 391
#     4  10  22  35  61  95 123 162 209 258 313 384
#     4  11  21  40  65  89 128 165 209 266 314 386
#
# _framework density 20.514347999999998
#
# number of rings (size 3 to 8) (size 9 to 14) (size 15 to 20)
#    0.000    1.231    5.385    1.385    4.308    0.000 
#    1.385    0.000    0.000    0.000    0.000    0.000 
#    0.000    0.000    0.000    0.000    0.000    0.000 
#
# Total GULP energy -322284.107882 kJ/mol
# GULP energy per Si atom -12395.542611 kJ/mol
# Density = 2.046766 g / cm^3
# Si number density = 20.514348 Si / 1000 Ang^3
#
#
#
# Elastic Constant Matrix: (Units=GPa)
#
#
# Indices 1 2 3 4 5 6 
#
# 1 67.9633 30.7963 14.9598 0.0000 0.0000 0.0000
# 2 30.7963 136.5013 33.5522 0.0000 0.0000 0.0000
# 3 14.9598 33.5522 46.6485 0.0000 0.0000 0.0000
# 4 0.0000 0.0000 0.0000 36.5137 0.0000 0.0000
# 5 0.0000 0.0000 0.0000 0.0000 21.9693 0.0000
# 6 0.0000 0.0000 0.0000 0.0000 0.0000 26.7366
#
#
#
# Elastic Compliance Matrix: (Units=1/GPa)
#
#
# Indices 1 2 3 4 5 6 
#
# 1 0.016780 -0.002992 -0.003229 0.000000 0.000000 0.000000
# 2 -0.002992 0.009433 -0.005825 0.000000 0.000000 0.000000
# 3 -0.003229 -0.005825 0.026662 0.000000 0.000000 0.000000
# 4 0.000000 0.000000 0.000000 0.027387 0.000000 0.000000
# 5 0.000000 0.000000 0.000000 0.000000 0.045518 0.000000
# 6 0.000000 0.000000 0.000000 0.000000 0.000000 0.037402
#
#
# Mechanical properties :
#
#
# Convention : Reuss Voigt Hill
#
# Bulk Modulus (GPa) = 34.74320 45.52554 40.13437
# Shear Modulus (GPa) = 25.39752 28.49757 26.94754
#
# Velocity S-wave (km/s) = 3.52239 3.73118 3.62829
# Velocity P-wave (km/s) = 5.78928 6.38768 6.09583
#
# Compressibility (1/GPa) = 0.02878261
#
# Stress axis : x y z
#
# Youngs Moduli (GPa) = 59.59309 106.01309 37.50623
#
# Poissons Ratio (x) = 0.31720 0.12112
# Poissons Ratio (y) = 0.17831 0.21848
# Poissons Ratio (z) = 0.19244 0.61753
#
# Static dielectric constant tensor:
#      x y z
#    x 3.731260 0.000000 0.000000 
#    y 0.000000 4.159560 0.000000 
#    z 0.000000 0.000000 3.529100 
# 
# 
# High freq. dielectric constant tensor:
#      x y z
#    x 1.793130 0.000000 0.000000 
#    y 0.000000 1.815430 0.000000 
#    z 0.000000 0.000000 1.787500 
# 
# From -- ./inp_files/5565.got.cif
#   From: 2010.03.12/outbox.cif.g09.slc.cpg/sg18_3_cif.got.tgz:5565.got - 2010.04.10 18:53:55.
