data_PCOD8156295
_publ_section_title
;
Structure prediction by ZEFSAII (Michael W. Deem and Ramdas Pophale) SiO2 
 PCOD8156295
Probable space group: P 21 21 2
;
_chemical_formula_sum "Si O2"
_cell_formula_units_Z 14
_cell_length_a 18.831398
_cell_length_b 5.337188
_cell_length_c 5.058495
_cell_angle_alpha 90.000000
_cell_angle_beta 90.000000
_cell_angle_gamma 90.000000
_cell_volume 508.412697
_symmetry_space_group_name_H-M "P 21 21 2"
_symmetry_group_IT_number 18
_symmetry_cell_setting 'orthorhombic'
loop_
_space_group_symop_operation_xyz
x,y,z
-x,-y,z
1/2+x,1/2-y,-z
1/2-x,1/2+y,-z
loop_
_atom_site_type_symbol
_atom_site_label
_atom_site_fract_x
_atom_site_fract_y
_atom_site_fract_z
Si Si1 0.094734 0.135526 0.712137
Si Si2 0.000000 0.500000 0.421490
Si Si3 0.113236 0.822700 0.198073
Si Si4 0.759444 0.655203 0.656782
O O1 0.160810 0.322756 0.774291
O O2 0.023837 0.274871 0.612766
O O3 0.117494 0.939426 0.490256
O O4 0.074939 0.997802 0.984715
O O5 0.933836 0.428594 0.230586
O O6 0.196942 0.779235 0.125454
O O7 0.750514 0.368352 0.566860
#
# Coordination Sequence:
#
# PCOD8156295 Si02
#       4
#     4   2   4   4
#     4  11  27  48  81 116 162 212 272 334 411 489
#     4  12  26  54  80 120 164 216 262 350 410 502
#     4  11  27  48  81 116 162 212 272 334 411 489
#     4  10  22  50  80 124 160 216 276 340 406 490
#
# _framework density 27.536686
#
# number of rings (size 3 to 8) (size 9 to 14) (size 15 to 20)
#    0.000    1.143    2.857    0.857    0.000   18.286 
#    0.000    0.000    0.000    0.000    0.000    0.000 
#    0.000    0.000    0.000    0.000    0.000    0.000 
#
# Total GULP energy -173573.922741 kJ/mol
# GULP energy per Si atom -12398.137339 kJ/mol
# Density = 2.747401 g / cm^3
# Si number density = 27.536686 Si / 1000 Ang^3
#
#
#
# Elastic Constant Matrix: (Units=GPa)
#
#
# Indices 1 2 3 4 5 6 
#
# 1 133.9907 -4.7772 22.7154 0.0000 0.0000 0.0000
# 2 -4.7772 65.8029 22.9542 0.0000 0.0000 0.0000
# 3 22.7154 22.9542 82.8339 0.0000 0.0000 0.0000
# 4 0.0000 0.0000 0.0000 33.4072 0.0000 0.0000
# 5 0.0000 0.0000 0.0000 0.0000 23.7234 0.0000
# 6 0.0000 0.0000 0.0000 0.0000 0.0000 47.6617
#
#
#
# Elastic Compliance Matrix: (Units=1/GPa)
#
#
# Indices 1 2 3 4 5 6 
#
# 1 0.007955 0.001482 -0.002592 0.000000 0.000000 0.000000
# 2 0.001482 0.017099 -0.005145 0.000000 0.000000 0.000000
# 3 -0.002592 -0.005145 0.014209 0.000000 0.000000 0.000000
# 4 0.000000 0.000000 0.000000 0.029934 0.000000 0.000000
# 5 0.000000 0.000000 0.000000 0.000000 0.042152 0.000000
# 6 0.000000 0.000000 0.000000 0.000000 0.000000 0.020981
#
#
# Mechanical properties :
#
#
# Convention : Reuss Voigt Hill
#
# Bulk Modulus (GPa) = 37.37870 40.49025 38.93447
# Shear Modulus (GPa) = 32.51845 37.07414 34.79629
#
# Velocity S-wave (km/s) = 3.44017 3.67325 3.55862
# Velocity P-wave (km/s) = 5.42064 5.72070 5.57269
#
# Compressibility (1/GPa) = 0.02675321
#
# Stress axis : x y z
#
# Youngs Moduli (GPa) = 125.69926 58.48256 70.37850
#
# Poissons Ratio (x) = -0.08666 0.18244
# Poissons Ratio (y) = -0.18626 0.36208
# Poissons Ratio (z) = 0.32584 0.30088
#
# Static dielectric constant tensor:
#      x y z
#    x 5.893440 0.000000 0.000000 
#    y 0.000000 4.806700 0.000000 
#    z 0.000000 0.000000 4.427460 
# 
# 
# High freq. dielectric constant tensor:
#      x y z
#    x 2.147500 0.000000 0.000000 
#    y 0.000000 2.105960 0.000000 
#    z 0.000000 0.000000 2.077620 
# 
# From -- ./inp_files/143.got.cif
#   From: 2010.03.12/outbox.cif.g09.slc.cpg/sg18_1_cif.got.tgz:143.got - 2010.04.10 18:53:55.
