data_PCOD8156931
_publ_section_title
;
Structure prediction by ZEFSAII (Michael W. Deem and Ramdas Pophale) SiO2 
 PCOD8156931
Probable space group: P 21 21 21
;
_chemical_formula_sum "Si O2"
_cell_formula_units_Z 28
_cell_length_a 12.147561
_cell_length_b 5.499592
_cell_length_c 20.822367
_cell_angle_alpha 90.000000
_cell_angle_beta 90.000000
_cell_angle_gamma 90.000000
_cell_volume 1391.072153
_symmetry_space_group_name_H-M "P 21 21 21"
_symmetry_group_IT_number 19
_symmetry_cell_setting 'orthorhombic'
loop_
_space_group_symop_operation_xyz
x,y,z
1/2-x,-y,1/2+z
1/2+x,1/2-y,-z
-x,1/2+y,1/2-z
loop_
_atom_site_type_symbol
_atom_site_label
_atom_site_fract_x
_atom_site_fract_y
_atom_site_fract_z
Si Si1 0.251032 0.506053 0.088629
Si Si2 0.274768 0.122248 0.916403
Si Si3 0.989229 0.058607 0.095742
Si Si4 0.610055 0.327580 0.675556
Si Si5 0.144380 0.998731 0.551031
Si Si6 0.097852 0.379552 0.194215
Si Si7 0.587049 0.163518 0.015208
O O1 0.326641 0.747791 0.086245
O O2 0.186901 0.540190 0.156036
O O3 0.320007 0.251793 0.087420
O O4 0.163442 0.504683 0.030088
O O5 0.372975 0.306853 0.902600
O O6 0.156041 0.250183 0.922255
O O7 0.279070 0.942010 0.855070
O O8 0.294356 0.984026 0.983124
O O9 0.076840 0.143962 0.149527
O O10 0.957907 0.784882 0.114726
O O11 0.043364 0.100602 0.025672
O O12 0.522461 0.509507 0.707071
O O13 0.649049 0.161332 0.734777
O O14 0.013047 0.996643 0.541470
#
# Coordination Sequence:
#
# PCOD8156931 Si02
#       7
#     4   4   4   4   4   4   4
#     4  10  23  38  59  91 123 164 205 252 310 368
#     4   9  21  34  54  88 120 160 197 250 305 367
#     4   9  19  36  51  84 120 154 201 244 304 377
#     4  11  20  34  57  88 124 156 207 248 315 373
#     4  10  22  39  59  89 127 162 209 246 306 386
#     4  10  21  34  57  85 122 164 197 260 308 364
#     4   9  20  39  57  85 128 162 200 256 316 361
#
# _framework density 20.128359
#
# number of rings (size 3 to 8) (size 9 to 14) (size 15 to 20)
#    0.000    2.286    1.429    0.857   12.000    2.286 
#    0.000    0.000    0.000    0.000    3.714    0.000 
#    0.000    0.000    0.000    0.000    0.000    0.000 
#
# Total GULP energy -346867.649965 kJ/mol
# GULP energy per Si atom -12388.130356 kJ/mol
# Density = 2.008255 g / cm^3
# Si number density = 20.128359 Si / 1000 Ang^3
#
#
#
# Elastic Constant Matrix: (Units=GPa)
#
#
# Indices 1 2 3 4 5 6 
#
# 1 104.6069 36.9805 41.4610 0.0000 0.0000 0.0000
# 2 36.9805 85.1270 31.7849 0.0000 0.0000 0.0000
# 3 41.4610 31.7849 94.9508 0.0000 0.0000 0.0000
# 4 0.0000 0.0000 0.0000 23.7985 0.0000 0.0000
# 5 0.0000 0.0000 0.0000 0.0000 29.8648 0.0000
# 6 0.0000 0.0000 0.0000 0.0000 0.0000 28.2016
#
#
#
# Elastic Compliance Matrix: (Units=1/GPa)
#
#
# Indices 1 2 3 4 5 6 
#
# 1 0.012604 -0.003909 -0.004195 0.000000 0.000000 0.000000
# 2 -0.003909 0.014638 -0.003193 0.000000 0.000000 0.000000
# 3 -0.004195 -0.003193 0.013432 0.000000 0.000000 0.000000
# 4 0.000000 0.000000 0.000000 0.042019 0.000000 0.000000
# 5 0.000000 0.000000 0.000000 0.000000 0.033484 0.000000
# 6 0.000000 0.000000 0.000000 0.000000 0.000000 0.035459
#
#
# Mechanical properties :
#
#
# Convention : Reuss Voigt Hill
#
# Bulk Modulus (GPa) = 55.31043 56.12636 55.71840
# Shear Modulus (GPa) = 27.73802 28.00356 27.87079
#
# Velocity S-wave (km/s) = 3.71625 3.73399 3.72513
# Velocity P-wave (km/s) = 6.77883 6.82166 6.80028
#
# Compressibility (1/GPa) = 0.01807977
#
# Stress axis : x y z
#
# Youngs Moduli (GPa) = 79.33804 68.31751 74.44639
#
# Poissons Ratio (x) = 0.26706 0.31232
# Poissons Ratio (y) = 0.31014 0.23771
# Poissons Ratio (z) = 0.33284 0.21814
#
# Static dielectric constant tensor:
#      x y z
#    x 3.685260 0.000000 0.000000 
#    y 0.000000 3.597180 0.000000 
#    z 0.000000 0.000000 3.629420 
# 
# 
# High freq. dielectric constant tensor:
#      x y z
#    x 1.765840 0.000000 0.000000 
#    y 0.000000 1.778940 0.000000 
#    z 0.000000 0.000000 1.760330 
# 
# From -- ./inp_files/1037.got.cif
#   From: 2010.03.12/outbox.cif.g09.slc.cpg/sg19_1_cif.got.tgz:1037.got - 2010.04.10 18:59:41.
