data_PCOD8156826
_publ_section_title
;
Structure prediction by ZEFSAII (Michael W. Deem and Ramdas Pophale) SiO2 
 PCOD8156826
Probable space group: P 21 21 21
;
_chemical_formula_sum "Si O2"
_cell_formula_units_Z 32
_cell_length_a 11.567500
_cell_length_b 18.971167
_cell_length_c 6.205942
_cell_angle_alpha 90.000000
_cell_angle_beta 90.000000
_cell_angle_gamma 90.000000
_cell_volume 1361.887606
_symmetry_space_group_name_H-M "P 21 21 21"
_symmetry_group_IT_number 19
_symmetry_cell_setting 'orthorhombic'
loop_
_space_group_symop_operation_xyz
x,y,z
1/2-x,-y,1/2+z
1/2+x,1/2-y,-z
-x,1/2+y,1/2-z
loop_
_atom_site_type_symbol
_atom_site_label
_atom_site_fract_x
_atom_site_fract_y
_atom_site_fract_z
Si Si1 0.002578 0.117570 0.432732
Si Si2 0.186667 0.192828 0.173609
Si Si3 0.114536 0.753704 0.960441
Si Si4 0.491316 0.525546 0.801600
Si Si5 0.644909 0.638523 0.653194
Si Si6 0.308314 0.579875 0.499644
Si Si7 0.946448 0.796983 0.613674
Si Si8 0.588271 0.965605 0.295504
O O1 0.900544 0.176659 0.431403
O O2 0.004774 0.083715 0.672818
O O3 0.127602 0.147837 0.364812
O O4 0.972229 0.054756 0.271086
O O5 0.283406 0.243876 0.281087
O O6 0.236737 0.142320 0.983659
O O7 0.086107 0.236497 0.056321
O O8 0.989269 0.768165 0.845961
O O9 0.145464 0.809545 0.143603
O O10 0.615856 0.559136 0.736168
O O11 0.390594 0.576556 0.711259
O O12 0.482621 0.521798 0.060502
O O13 0.550108 0.657860 0.478622
O O14 0.336700 0.650364 0.361016
O O15 0.174026 0.583480 0.564426
O O16 0.330341 0.508943 0.365805
#
# Coordination Sequence:
#
# PCOD8156826 Si02
#       8
#     4   4   4   4   4   4   4   4
#     4  11  26  43  67 106 141 185 238 293 346 422
#     4  11  25  45  68 102 140 184 237 288 356 419
#     4  11  24  44  70 100 134 184 237 288 358 417
#     4  10  23  43  67  96 144 182 233 293 342 422
#     4  10  23  45  69  96 137 185 236 288 357 421
#     4  10  20  38  63 105 134 181 228 280 358 413
#     4  10  22  41  67  94 137 174 231 295 341 414
#     4  11  21  39  67 101 147 181 230 283 352 420
#
# _framework density 23.496797000000001
#
# number of rings (size 3 to 8) (size 9 to 14) (size 15 to 20)
#    0.000    1.500    2.500    1.500    3.500    2.000 
#    2.250    0.000    0.000    0.000    0.000    0.000 
#    0.000    0.000    0.000    0.000    0.000    0.000 
#
# Total GULP energy -396655.058676 kJ/mol
# GULP energy per Si atom -12395.470584 kJ/mol
# Density = 2.344332 g / cm^3
# Si number density = 23.496797 Si / 1000 Ang^3
#
#
#
# Elastic Constant Matrix: (Units=GPa)
#
#
# Indices 1 2 3 4 5 6 
#
# 1 75.2934 31.9680 41.5175 0.0000 0.0000 0.0000
# 2 31.9680 94.4232 37.2559 0.0000 0.0000 0.0000
# 3 41.5175 37.2559 101.7904 0.0000 0.0000 0.0000
# 4 0.0000 0.0000 0.0000 35.3990 0.0000 0.0000
# 5 0.0000 0.0000 0.0000 0.0000 46.8340 0.0000
# 6 0.0000 0.0000 0.0000 0.0000 0.0000 26.9048
#
#
#
# Elastic Compliance Matrix: (Units=1/GPa)
#
#
# Indices 1 2 3 4 5 6 
#
# 1 0.018222 -0.003783 -0.006048 0.000000 0.000000 0.000000
# 2 -0.003783 0.013164 -0.003275 0.000000 0.000000 0.000000
# 3 -0.006048 -0.003275 0.013489 0.000000 0.000000 0.000000
# 4 0.000000 0.000000 0.000000 0.028249 0.000000 0.000000
# 5 0.000000 0.000000 0.000000 0.000000 0.021352 0.000000
# 6 0.000000 0.000000 0.000000 0.000000 0.000000 0.037168
#
#
# Mechanical properties :
#
#
# Convention : Reuss Voigt Hill
#
# Bulk Modulus (GPa) = 53.57965 54.77665 54.17815
# Shear Modulus (GPa) = 30.47333 32.54527 31.50930
#
# Velocity S-wave (km/s) = 3.60518 3.72572 3.66594
# Velocity P-wave (km/s) = 6.33894 6.47078 6.40520
#
# Compressibility (1/GPa) = 0.01866380
#
# Stress axis : x y z
#
# Youngs Moduli (GPa) = 54.87746 75.96701 74.13200
#
# Poissons Ratio (x) = 0.28740 0.44833
# Poissons Ratio (y) = 0.20761 0.24277
# Poissons Ratio (z) = 0.33189 0.24878
#
# Static dielectric constant tensor:
#      x y z
#    x 4.109140 0.000000 0.000000 
#    y 0.000000 4.241530 0.000000 
#    z 0.000000 0.000000 4.385280 
# 
# 
# High freq. dielectric constant tensor:
#      x y z
#    x 1.909490 0.000000 0.000000 
#    y 0.000000 1.921340 0.000000 
#    z 0.000000 0.000000 1.938570 
# 
# From -- ./inp_files/1219.got.cif
#   From: 2010.03.12/outbox.cif.g09.slc.cpg/sg19_1_cif.got.tgz:1219.got - 2010.04.10 18:59:41.
