data_PCOD8156987
_publ_section_title
;
Structure prediction by ZEFSAII (Michael W. Deem and Ramdas Pophale) SiO2 
 PCOD8156987
Probable space group: P 21 21 21
;
_chemical_formula_sum "Si O2"
_cell_formula_units_Z 28
_cell_length_a 8.420579
_cell_length_b 6.727610
_cell_length_c 24.057431
_cell_angle_alpha 90.000000
_cell_angle_beta 90.000000
_cell_angle_gamma 90.000000
_cell_volume 1362.862403
_symmetry_space_group_name_H-M "P 21 21 21"
_symmetry_group_IT_number 19
_symmetry_cell_setting 'orthorhombic'
loop_
_space_group_symop_operation_xyz
x,y,z
1/2-x,-y,1/2+z
1/2+x,1/2-y,-z
-x,1/2+y,1/2-z
loop_
_atom_site_type_symbol
_atom_site_label
_atom_site_fract_x
_atom_site_fract_y
_atom_site_fract_z
Si Si1 0.141618 0.136502 0.305281
Si Si2 0.836318 0.961781 0.997359
Si Si3 0.623455 0.319271 0.970778
Si Si4 0.924176 0.248401 0.130799
Si Si5 0.834764 0.627687 0.908786
Si Si6 0.298664 0.415461 0.389415
Si Si7 0.865154 0.439021 0.305483
O O1 0.272339 0.265146 0.337901
O O2 0.989100 0.267848 0.288043
O O3 0.084676 0.967109 0.346334
O O4 0.214859 0.032205 0.250095
O O5 0.812366 0.851702 0.057322
O O6 0.796734 0.822987 0.945077
O O7 0.019216 0.035779 0.989076
O O8 0.709277 0.140790 0.002246
O O9 0.489484 0.226027 0.931162
O O10 0.757602 0.439163 0.938157
O O11 0.753815 0.136316 0.130336
O O12 0.048384 0.117946 0.164463
O O13 0.766933 0.655418 0.846371
O O14 0.019834 0.584727 0.906275
#
# Coordination Sequence:
#
# PCOD8156987 Si02
#       7
#     4   4   4   4   4   4   4
#     4  11  20  40  63  86 117 161 200 256 294 356
#     4  11  22  40  63  90 125 165 200 250 306 371
#     4  10  22  36  61  89 119 160 203 242 305 365
#     4   9  20  39  61  88 117 156 205 249 301 362
#     4  11  23  41  59  92 125 159 202 252 303 370
#     4  10  24  38  58  92 126 156 202 245 307 368
#     4  10  21  38  65  89 115 159 210 248 304 360
#
# _framework density 20.544992000000001
#
# number of rings (size 3 to 8) (size 9 to 14) (size 15 to 20)
#    0.000    1.714    1.429    3.429    0.000    6.857 
#    2.571    0.000    0.000    0.000    0.000    0.000 
#    0.000    0.000    0.000    0.000    0.000    0.000 
#
# Total GULP energy -347130.545101 kJ/mol
# GULP energy per Si atom -12397.519468 kJ/mol
# Density = 2.049823 g / cm^3
# Si number density = 20.544992 Si / 1000 Ang^3
#
#
#
# Elastic Constant Matrix: (Units=GPa)
#
#
# Indices 1 2 3 4 5 6 
#
# 1 93.7767 24.1067 26.4158 0.0000 0.0000 0.0000
# 2 24.1067 75.1802 37.6387 0.0000 0.0000 0.0000
# 3 26.4158 37.6387 108.8050 0.0000 0.0000 0.0000
# 4 0.0000 0.0000 0.0000 39.7888 0.0000 0.0000
# 5 0.0000 0.0000 0.0000 0.0000 27.1035 0.0000
# 6 0.0000 0.0000 0.0000 0.0000 0.0000 20.9375
#
#
#
# Elastic Compliance Matrix: (Units=1/GPa)
#
#
# Indices 1 2 3 4 5 6 
#
# 1 0.011939 -0.002875 -0.001904 0.000000 0.000000 0.000000
# 2 -0.002875 0.016780 -0.005107 0.000000 0.000000 0.000000
# 3 -0.001904 -0.005107 0.011420 0.000000 0.000000 0.000000
# 4 0.000000 0.000000 0.000000 0.025133 0.000000 0.000000
# 5 0.000000 0.000000 0.000000 0.000000 0.036896 0.000000
# 6 0.000000 0.000000 0.000000 0.000000 0.000000 0.047761
#
#
# Mechanical properties :
#
#
# Convention : Reuss Voigt Hill
#
# Bulk Modulus (GPa) = 49.09881 50.45381 49.77631
# Shear Modulus (GPa) = 28.33048 30.20601 29.26824
#
# Velocity S-wave (km/s) = 3.71745 3.83853 3.77847
# Velocity P-wave (km/s) = 6.50968 6.65257 6.58152
#
# Compressibility (1/GPa) = 0.02036709
#
# Stress axis : x y z
#
# Youngs Moduli (GPa) = 83.75887 59.59525 87.56921
#
# Poissons Ratio (x) = 0.17134 0.16673
# Poissons Ratio (y) = 0.24081 0.44718
# Poissons Ratio (z) = 0.15948 0.30433
#
# Static dielectric constant tensor:
#      x y z
#    x 3.597820 0.000000 0.000000 
#    y 0.000000 3.714290 0.000000 
#    z 0.000000 0.000000 3.923990 
# 
# 
# High freq. dielectric constant tensor:
#      x y z
#    x 1.787870 0.000000 0.000000 
#    y 0.000000 1.803640 0.000000 
#    z 0.000000 0.000000 1.809150 
# 
# From -- ./inp_files/548.got.cif
#   From: 2010.03.12/outbox.cif.g09.slc.cpg/sg19_1_cif.got.tgz:548.got - 2010.04.10 18:59:41.
