data_PCOD8156263
_publ_section_title
;
Structure prediction by ZEFSAII (Michael W. Deem and Ramdas Pophale) SiO2 
 PCOD8156263
Probable space group: P 21 21 2
;
_chemical_formula_sum "Si O2"
_cell_formula_units_Z 20
_cell_length_a 8.481049
_cell_length_b 8.873213
_cell_length_c 11.943770
_cell_angle_alpha 90.000000
_cell_angle_beta 90.000000
_cell_angle_gamma 90.000000
_cell_volume 898.818310
_symmetry_space_group_name_H-M "P 21 21 2"
_symmetry_group_IT_number 18
_symmetry_cell_setting 'orthorhombic'
loop_
_space_group_symop_operation_xyz
x,y,z
-x,-y,z
1/2+x,1/2-y,-z
1/2-x,1/2+y,-z
loop_
_atom_site_type_symbol
_atom_site_label
_atom_site_fract_x
_atom_site_fract_y
_atom_site_fract_z
Si Si1 0.799805 0.166946 0.574675
Si Si2 0.698775 0.795350 0.851860
Si Si3 0.663351 0.329471 0.377495
Si Si4 0.315802 0.504488 0.966353
Si Si5 0.905524 0.848263 0.248636
O O1 0.763069 0.205642 0.445689
O O2 0.697486 0.279564 0.651826
O O3 0.983362 0.191785 0.590818
O O4 0.760754 0.992916 0.596939
O O5 0.827978 0.800104 0.754262
O O6 0.745175 0.660655 0.935266
O O7 0.527990 0.778424 0.794672
O O8 0.710527 0.944359 0.928408
O O9 0.500000 0.500000 0.000307
O O10 0.293524 0.609357 0.856138
O O11 0.000000 0.000000 0.288161
#
# Coordination Sequence:
#
# PCOD8156263 Si02
#       5
#     4   4   4   4   4
#     4  11  26  46  72 101 139 179 230 293 344 418
#     4  10  22  43  68 100 133 185 224 280 341 405
#     4  11  27  44  71 102 139 178 232 283 354 411
#     4   9  22  41  65  96 140 172 230 277 332 402
#     4   9  22  44  69  96 139 181 228 284 340 405
#
# _framework density 22.251439000000001
#
# number of rings (size 3 to 8) (size 9 to 14) (size 15 to 20)
#    0.000    2.400    0.000    1.200   14.000    4.800 
#    3.600    8.000    0.000    0.000    0.000    0.000 
#    0.000    0.000    0.000    0.000    0.000    0.000 
#
# Total GULP energy -247988.420011 kJ/mol
# GULP energy per Si atom -12399.421001 kJ/mol
# Density = 2.220079 g / cm^3
# Si number density = 22.251439 Si / 1000 Ang^3
#
#
#
# Elastic Constant Matrix: (Units=GPa)
#
#
# Indices 1 2 3 4 5 6 
#
# 1 56.7936 52.6997 36.7186 0.0000 0.0000 0.0000
# 2 52.6997 104.4199 62.5910 0.0000 0.0000 0.0000
# 3 36.7186 62.5910 131.1390 0.0000 0.0000 0.0000
# 4 0.0000 0.0000 0.0000 39.9122 0.0000 0.0000
# 5 0.0000 0.0000 0.0000 0.0000 24.6278 0.0000
# 6 0.0000 0.0000 0.0000 0.0000 0.0000 35.9322
#
#
#
# Elastic Compliance Matrix: (Units=1/GPa)
#
#
# Indices 1 2 3 4 5 6 
#
# 1 0.033427 -0.015773 -0.001832 0.000000 0.000000 0.000000
# 2 -0.015773 0.020857 -0.005538 0.000000 0.000000 0.000000
# 3 -0.001832 -0.005538 0.010782 0.000000 0.000000 0.000000
# 4 0.000000 0.000000 0.000000 0.025055 0.000000 0.000000
# 5 0.000000 0.000000 0.000000 0.000000 0.040605 0.000000
# 6 0.000000 0.000000 0.000000 0.000000 0.000000 0.027830
#
#
# Mechanical properties :
#
#
# Convention : Reuss Voigt Hill
#
# Bulk Modulus (GPa) = 53.24567 66.26345 59.75456
# Shear Modulus (GPa) = 23.68532 29.45065 26.56798
#
# Velocity S-wave (km/s) = 3.26611 3.64199 3.45916
# Velocity P-wave (km/s) = 6.18097 6.89417 6.54729
#
# Compressibility (1/GPa) = 0.01878087
#
# Stress axis : x y z
#
# Youngs Moduli (GPa) = 29.91550 47.94589 92.74958
#
# Poissons Ratio (x) = 0.75624 0.16987
# Poissons Ratio (y) = 0.47185 0.51368
# Poissons Ratio (z) = 0.05479 0.26554
#
# Static dielectric constant tensor:
#      x y z
#    x 3.715620 0.000000 0.000000 
#    y 0.000000 4.090320 0.000000 
#    z 0.000000 0.000000 4.069630 
# 
# 
# High freq. dielectric constant tensor:
#      x y z
#    x 1.858010 0.000000 0.000000 
#    y 0.000000 1.878850 0.000000 
#    z 0.000000 0.000000 1.890230 
# 
# From -- ./inp_files/5428.got.cif
#   From: 2010.03.12/outbox.cif.g09.slc.cpg/sg18_3_cif.got.tgz:5428.got - 2010.04.10 18:53:55.
