data_PCOD8156312
_publ_section_title
;
Structure prediction by ZEFSAII (Michael W. Deem and Ramdas Pophale) SiO2 
 PCOD8156312
Probable space group: P 21 21 2
;
_chemical_formula_sum "Si O2"
_cell_formula_units_Z 10
_cell_length_a 7.033931
_cell_length_b 4.802650
_cell_length_c 12.137158
_cell_angle_alpha 90.000000
_cell_angle_beta 90.000000
_cell_angle_gamma 90.000000
_cell_volume 410.011509
_symmetry_space_group_name_H-M "P 21 21 2"
_symmetry_group_IT_number 18
_symmetry_cell_setting 'orthorhombic'
loop_
_space_group_symop_operation_xyz
x,y,z
-x,-y,z
1/2+x,1/2-y,-z
1/2-x,1/2+y,-z
loop_
_atom_site_type_symbol
_atom_site_label
_atom_site_fract_x
_atom_site_fract_y
_atom_site_fract_z
Si Si1 0.352435 0.716431 0.963973
Si Si2 0.500000 0.500000 0.753423
Si Si3 0.291488 0.903393 0.426398
O O1 0.500000 0.500000 0.024865
O O2 0.395549 0.726261 0.832619
O O3 0.156457 0.537018 0.991610
O O4 0.660286 0.651144 0.680094
O O5 0.314187 0.623302 0.495352
O O6 0.500000 0.000000 0.388407
#
# Coordination Sequence:
#
# PCOD8156312 Si02
#       3
#     4   2   4
#     4  10  23  42  68  95 136 173 232 277 332 405
#     4  10  26  44  74  98 146 176 234 274 360 390
#     4  12  24  44  71 101 139 180 228 281 340 413
#
# _framework density 24.389558999999998
#
# number of rings (size 3 to 8) (size 9 to 14) (size 15 to 20)
#    1.200    0.000    4.000    1.200    0.000    9.600 
#    0.000    0.000    0.000    0.000    0.000    0.000 
#    0.000    0.000    0.000    0.000    0.000    0.000 
#
# Total GULP energy -123908.848888 kJ/mol
# GULP energy per Si atom -12390.884889 kJ/mol
# Density = 2.433405 g / cm^3
# Si number density = 24.389559 Si / 1000 Ang^3
#
#
#
# Elastic Constant Matrix: (Units=GPa)
#
#
# Indices 1 2 3 4 5 6 
#
# 1 95.4390 -6.5781 54.2976 0.0000 0.0000 0.0000
# 2 -6.5781 148.4049 44.1235 0.0000 0.0000 0.0000
# 3 54.2976 44.1235 159.5478 0.0000 0.0000 0.0000
# 4 0.0000 0.0000 0.0000 9.2737 0.0000 0.0000
# 5 0.0000 0.0000 0.0000 0.0000 103.5700 0.0000
# 6 0.0000 0.0000 0.0000 0.0000 0.0000 26.6726
#
#
#
# Elastic Compliance Matrix: (Units=1/GPa)
#
#
# Indices 1 2 3 4 5 6 
#
# 1 0.013599 0.002156 -0.005224 0.000000 0.000000 0.000000
# 2 0.002156 0.007684 -0.002859 0.000000 0.000000 0.000000
# 3 -0.005224 -0.002859 0.008836 0.000000 0.000000 0.000000
# 4 0.000000 0.000000 0.000000 0.107832 0.000000 0.000000
# 5 0.000000 0.000000 0.000000 0.000000 0.009655 0.000000
# 6 0.000000 0.000000 0.000000 0.000000 0.000000 0.037492
#
#
# Mechanical properties :
#
#
# Convention : Reuss Voigt Hill
#
# Bulk Modulus (GPa) = 54.74977 65.23086 59.99031
# Shear Modulus (GPa) = 24.62574 48.67317 36.64946
#
# Velocity S-wave (km/s) = 3.18100 4.47212 3.88063
# Velocity P-wave (km/s) = 5.99904 7.31232 6.68799
#
# Compressibility (1/GPa) = 0.01826492
#
# Stress axis : x y z
#
# Youngs Moduli (GPa) = 73.53667 130.14323 113.17077
#
# Poissons Ratio (x) = -0.28059 0.59122
# Poissons Ratio (y) = -0.15855 0.32352
# Poissons Ratio (z) = 0.38417 0.37204
#
# Static dielectric constant tensor:
#      x y z
#    x 5.012270 0.000000 0.000000 
#    y 0.000000 3.705660 0.000000 
#    z 0.000000 0.000000 3.997740 
# 
# 
# High freq. dielectric constant tensor:
#      x y z
#    x 2.016610 0.000000 0.000000 
#    y 0.000000 1.971810 0.000000 
#    z 0.000000 0.000000 1.929980 
# 
# From -- ./inp_files/4901.got.cif
#   From: 2010.03.12/outbox.cif.g09.slc.cpg/sg18_3_cif.got.tgz:4901.got - 2010.04.10 18:53:55.
