data_PCOD8156741
_publ_section_title
;
Structure prediction by ZEFSAII (Michael W. Deem and Ramdas Pophale) SiO2 
 PCOD8156741
Probable space group: P 21 21 21
;
_chemical_formula_sum "Si O2"
_cell_formula_units_Z 32
_cell_length_a 9.870183
_cell_length_b 9.004004
_cell_length_c 19.948813
_cell_angle_alpha 90.000000
_cell_angle_beta 90.000000
_cell_angle_gamma 90.000000
_cell_volume 1772.874296
_symmetry_space_group_name_H-M "P 21 21 21"
_symmetry_group_IT_number 19
_symmetry_cell_setting 'orthorhombic'
loop_
_space_group_symop_operation_xyz
x,y,z
1/2-x,-y,1/2+z
1/2+x,1/2-y,-z
-x,1/2+y,1/2-z
loop_
_atom_site_type_symbol
_atom_site_label
_atom_site_fract_x
_atom_site_fract_y
_atom_site_fract_z
Si Si1 0.099460 0.816479 0.946933
Si Si2 0.396299 0.822766 0.304022
Si Si3 0.591698 0.818075 0.560419
Si Si4 0.914206 0.331978 0.199604
Si Si5 0.128447 0.335500 0.445690
Si Si6 0.398914 0.821819 0.806800
Si Si7 0.089442 0.837675 0.797342
Si Si8 0.363979 0.838658 0.453372
O O1 0.220946 0.708375 0.969642
O O2 0.053771 0.775106 0.871278
O O3 0.156186 0.984370 0.948468
O O4 0.972865 0.792188 0.994880
O O5 0.241312 0.799009 0.281645
O O6 0.494098 0.727298 0.258905
O O7 0.413637 0.775342 0.381661
O O8 0.442213 0.989945 0.294846
O O9 0.546107 0.749885 0.631014
O O10 0.469033 0.791894 0.509745
O O11 0.719830 0.733364 0.528874
O O12 0.624770 0.990696 0.570476
O O13 0.941579 0.506563 0.191320
O O14 0.005014 0.270581 0.258815
O O15 0.084489 0.242680 0.381002
O O16 0.245702 0.802541 0.780595
#
# Coordination Sequence:
#
# PCOD8156741 Si02
#       8
#     4   4   4   4   4   4   4   4
#     4   9  20  37  53  75 108 139 173 218 262 310
#     4   9  19  35  53  75 104 136 171 214 260 308
#     4  10  20  35  56  80 105 138 179 219 263 313
#     4  10  21  37  55  78 108 139 174 217 264 315
#     4  10  20  35  56  80 105 138 179 219 263 313
#     4  10  21  37  55  78 108 139 174 217 264 315
#     4   9  19  35  53  75 104 136 171 214 260 308
#     4   9  20  37  53  75 108 139 173 218 262 310
#
# _framework density 18.049785
#
# number of rings (size 3 to 8) (size 9 to 14) (size 15 to 20)
#    0.000    2.500    0.000    3.000    0.000    9.000 
#    0.000    5.000    0.000    0.000    0.000    0.000 
#    0.000    0.000    0.000    0.000    0.000    0.000 
#
# Total GULP energy -396843.309013 kJ/mol
# GULP energy per Si atom -12401.353407 kJ/mol
# Density = 1.800870 g / cm^3
# Si number density = 18.049785 Si / 1000 Ang^3
#
#
#
# Elastic Constant Matrix: (Units=GPa)
#
#
# Indices 1 2 3 4 5 6 
#
# 1 31.2689 0.7410 17.8439 0.0000 0.0000 0.0000
# 2 0.7410 37.0267 6.1470 0.0000 0.0000 0.0000
# 3 17.8439 6.1470 54.8512 0.0000 0.0000 0.0000
# 4 0.0000 0.0000 0.0000 32.1411 0.0000 0.0000
# 5 0.0000 0.0000 0.0000 0.0000 38.2202 0.0000
# 6 0.0000 0.0000 0.0000 0.0000 0.0000 35.3369
#
#
#
# Elastic Compliance Matrix: (Units=1/GPa)
#
#
# Indices 1 2 3 4 5 6 
#
# 1 0.039338 0.001363 -0.012950 0.000000 0.000000 0.000000
# 2 0.001363 0.027567 -0.003533 0.000000 0.000000 0.000000
# 3 -0.012950 -0.003533 0.022840 0.000000 0.000000 0.000000
# 4 0.000000 0.000000 0.000000 0.031113 0.000000 0.000000
# 5 0.000000 0.000000 0.000000 0.000000 0.026164 0.000000
# 6 0.000000 0.000000 0.000000 0.000000 0.000000 0.028299
#
#
# Mechanical properties :
#
#
# Convention : Reuss Voigt Hill
#
# Bulk Modulus (GPa) = 16.80533 19.17895 17.99214
# Shear Modulus (GPa) = 22.18318 27.70062 24.94190
#
# Velocity S-wave (km/s) = 3.50951 3.92175 3.72134
# Velocity P-wave (km/s) = 5.07474 5.58171 5.33425
#
# Compressibility (1/GPa) = 0.05950494
#
# Stress axis : x y z
#
# Youngs Moduli (GPa) = 25.42048 36.27560 43.78309
#
# Poissons Ratio (x) = -0.04943 0.56699
# Poissons Ratio (y) = -0.03464 0.15467
# Poissons Ratio (z) = 0.32920 0.12815
#
# Static dielectric constant tensor:
#      x y z
#    x 3.511610 0.000000 0.000000 
#    y 0.000000 3.422170 0.000000 
#    z 0.000000 0.000000 3.416510 
# 
# 
# High freq. dielectric constant tensor:
#      x y z
#    x 1.698320 0.000000 0.000000 
#    y 0.000000 1.706460 0.000000 
#    z 0.000000 0.000000 1.703290 
# 
# From -- ./inp_files/3145.got.cif
#   From: 2010.03.12/outbox.cif.g09.slc.cpg/sg19_2_cif.got.tgz:3145.got - 2010.04.10 18:59:41.
