data_PCOD8156955
_publ_section_title
;
Structure prediction by ZEFSAII (Michael W. Deem and Ramdas Pophale) SiO2 
 PCOD8156955
Probable space group: P 21 21 21
;
_chemical_formula_sum "Si O2"
_cell_formula_units_Z 32
_cell_length_a 9.033772
_cell_length_b 8.939984
_cell_length_c 20.233949
_cell_angle_alpha 90.000000
_cell_angle_beta 90.000000
_cell_angle_gamma 90.000000
_cell_volume 1634.129680
_symmetry_space_group_name_H-M "P 21 21 21"
_symmetry_group_IT_number 19
_symmetry_cell_setting 'orthorhombic'
loop_
_space_group_symop_operation_xyz
x,y,z
1/2-x,-y,1/2+z
1/2+x,1/2-y,-z
-x,1/2+y,1/2-z
loop_
_atom_site_type_symbol
_atom_site_label
_atom_site_fract_x
_atom_site_fract_y
_atom_site_fract_z
Si Si1 0.574135 0.899884 0.796388
Si Si2 0.910270 0.329585 0.925098
Si Si3 0.896039 0.829133 0.450454
Si Si4 0.085528 0.805434 0.324852
Si Si5 0.588117 0.136141 0.316275
Si Si6 0.133101 0.174548 0.558410
Si Si7 0.430722 0.325294 0.563531
Si Si8 0.426260 0.831160 0.310436
O O1 0.547053 0.823395 0.726691
O O2 0.748069 0.932852 0.808128
O O3 0.515970 0.804496 0.860163
O O4 0.479247 0.048180 0.790854
O O5 0.756888 0.256880 0.946275
O O6 0.892133 0.506778 0.916758
O O7 0.962944 0.262343 0.856058
O O8 0.032166 0.289527 0.979621
O O9 0.007248 0.770037 0.394005
O O10 0.867605 0.006184 0.443704
O O11 0.259944 0.820095 0.337899
O O12 0.566056 0.211463 0.387909
O O13 0.560562 0.265197 0.262805
O O14 0.469762 0.004826 0.308377
O O15 0.306240 0.203348 0.547961
O O16 0.063200 0.204237 0.486726
#
# Coordination Sequence:
#
# PCOD8156955 Si02
#       8
#     4   4   4   4   4   4   4   4
#     4   9  20  38  55  79 112 146 187 234 281 339
#     4  11  22  38  60  86 116 151 194 239 290 346
#     4  10  22  39  58  82 116 151 189 237 287 343
#     4  10  21  37  58  83 111 148 191 236 287 340
#     4  10  22  39  58  82 116 151 189 237 287 343
#     4  10  21  37  58  83 111 148 191 236 287 340
#     4   9  20  38  55  79 112 146 187 234 281 339
#     4  11  22  38  60  86 116 151 194 239 290 346
#
# _framework density 19.582288999999999
#
# number of rings (size 3 to 8) (size 9 to 14) (size 15 to 20)
#    0.000    2.000    0.000    3.750    0.000   10.000 
#    0.000    5.000    0.000    0.000    0.000    0.000 
#    0.000    0.000    0.000    0.000    0.000    0.000 
#
# Total GULP energy -396851.266742 kJ/mol
# GULP energy per Si atom -12401.602086 kJ/mol
# Density = 1.953772 g / cm^3
# Si number density = 19.582289 Si / 1000 Ang^3
#
#
#
# Elastic Constant Matrix: (Units=GPa)
#
#
# Indices 1 2 3 4 5 6 
#
# 1 63.4351 22.7481 3.0245 0.0000 0.0000 0.0000
# 2 22.7481 55.0113 0.7524 0.0000 0.0000 0.0000
# 3 3.0245 0.7524 52.4414 0.0000 0.0000 0.0000
# 4 0.0000 0.0000 0.0000 25.1098 0.0000 0.0000
# 5 0.0000 0.0000 0.0000 0.0000 35.0958 0.0000
# 6 0.0000 0.0000 0.0000 0.0000 0.0000 34.8356
#
#
#
# Elastic Compliance Matrix: (Units=1/GPa)
#
#
# Indices 1 2 3 4 5 6 
#
# 1 0.018557 -0.007660 -0.000960 0.000000 0.000000 0.000000
# 2 -0.007660 0.021344 0.000136 0.000000 0.000000 0.000000
# 3 -0.000960 0.000136 0.019122 0.000000 0.000000 0.000000
# 4 0.000000 0.000000 0.000000 0.039825 0.000000 0.000000
# 5 0.000000 0.000000 0.000000 0.000000 0.028493 0.000000
# 6 0.000000 0.000000 0.000000 0.000000 0.000000 0.028706
#
#
# Mechanical properties :
#
#
# Convention : Reuss Voigt Hill
#
# Bulk Modulus (GPa) = 23.77962 24.88197 24.33080
# Shear Modulus (GPa) = 26.73278 28.63243 27.68261
#
# Velocity S-wave (km/s) = 3.69880 3.82797 3.76394
# Velocity P-wave (km/s) = 5.51465 5.68082 5.59835
#
# Compressibility (1/GPa) = 0.04205281
#
# Stress axis : x y z
#
# Youngs Moduli (GPa) = 53.88800 46.85164 52.29485
#
# Poissons Ratio (x) = 0.35891 0.05022
# Poissons Ratio (y) = 0.41281 -0.00709
# Poissons Ratio (z) = 0.05175 -0.00635
#
# Static dielectric constant tensor:
#      x y z
#    x 3.564990 0.000000 0.000000 
#    y 0.000000 3.482650 0.000000 
#    z 0.000000 0.000000 3.773140 
# 
# 
# High freq. dielectric constant tensor:
#      x y z
#    x 1.761520 0.000000 0.000000 
#    y 0.000000 1.759190 0.000000 
#    z 0.000000 0.000000 1.780280 
# 
# From -- ./inp_files/7073.got.cif
#   From: 2010.03.12/outbox.cif.g09.slc.cpg/sg19_4_cif.got.tgz:7073.got - 2010.04.10 18:59:41.
