data_PCOD8156783
_publ_section_title
;
Structure prediction by ZEFSAII (Michael W. Deem and Ramdas Pophale) SiO2 
 PCOD8156783
Probable space group: P 21 21 21
;
_chemical_formula_sum "Si O2"
_cell_formula_units_Z 32
_cell_length_a 17.359740
_cell_length_b 9.475256
_cell_length_c 9.647733
_cell_angle_alpha 90.000000
_cell_angle_beta 90.000000
_cell_angle_gamma 90.000000
_cell_volume 1586.936118
_symmetry_space_group_name_H-M "P 21 21 21"
_symmetry_group_IT_number 19
_symmetry_cell_setting 'orthorhombic'
loop_
_space_group_symop_operation_xyz
x,y,z
1/2-x,-y,1/2+z
1/2+x,1/2-y,-z
-x,1/2+y,1/2-z
loop_
_atom_site_type_symbol
_atom_site_label
_atom_site_fract_x
_atom_site_fract_y
_atom_site_fract_z
Si Si1 0.345647 0.349494 0.213360
Si Si2 0.724210 0.684677 0.528853
Si Si3 0.768274 0.862500 0.773864
Si Si4 0.627263 0.451906 0.926152
Si Si5 0.499749 0.985749 0.356922
Si Si6 0.424698 0.782998 0.145462
Si Si7 0.195614 0.766989 0.981146
Si Si8 0.849594 0.601381 0.115001
O O1 0.287717 0.475733 0.249855
O O2 0.419383 0.405980 0.132107
O O3 0.365982 0.281621 0.364048
O O4 0.305092 0.234105 0.119639
O O5 0.719994 0.808999 0.641762
O O6 0.813481 0.642505 0.513438
O O7 0.668483 0.558575 0.573254
O O8 0.842382 0.762126 0.793252
O O9 0.715618 0.857072 0.911569
O O10 0.544696 0.451211 0.001098
O O11 0.661579 0.609191 0.924334
O O12 0.616844 0.394394 0.770531
O O13 0.453040 0.922578 0.226720
O O14 0.514494 0.153799 0.339330
O O15 0.414191 0.830135 0.985473
O O16 0.271149 0.810187 0.894012
#
# Coordination Sequence:
#
# PCOD8156783 Si02
#       8
#     4   4   4   4   4   4   4   4
#     4  11  23  37  61  93 132 168 208 261 329 378
#     4  11  21  38  66  95 120 165 217 266 310 380
#     4  10  20  39  61  94 125 161 208 268 315 374
#     4  11  21  39  65  88 121 167 215 262 314 380
#     4  11  24  42  63  91 129 173 209 264 322 394
#     4  10  23  41  64  89 129 164 214 259 318 388
#     4  10  20  36  62  91 119 155 209 265 314 369
#     4  10  22  38  62  91 119 159 214 271 310 371
#
# _framework density 20.164642000000001
#
# number of rings (size 3 to 8) (size 9 to 14) (size 15 to 20)
#    0.000    1.500    3.750    1.500    3.500    0.000 
#    2.250    0.000    0.000    0.000    0.000    0.000 
#    0.000    0.000    0.000    0.000    0.000    0.000 
#
# Total GULP energy -396818.330785 kJ/mol
# GULP energy per Si atom -12400.572837 kJ/mol
# Density = 2.011875 g / cm^3
# Si number density = 20.164642 Si / 1000 Ang^3
#
#
#
# Elastic Constant Matrix: (Units=GPa)
#
#
# Indices 1 2 3 4 5 6 
#
# 1 47.7262 12.2485 14.9874 0.0000 0.0000 0.0000
# 2 12.2485 50.4810 31.6230 0.0000 0.0000 0.0000
# 3 14.9874 31.6230 117.3977 0.0000 0.0000 0.0000
# 4 0.0000 0.0000 0.0000 33.6234 0.0000 0.0000
# 5 0.0000 0.0000 0.0000 0.0000 31.3277 0.0000
# 6 0.0000 0.0000 0.0000 0.0000 0.0000 23.0787
#
#
#
# Elastic Compliance Matrix: (Units=1/GPa)
#
#
# Indices 1 2 3 4 5 6 
#
# 1 0.022621 -0.004427 -0.001696 0.000000 0.000000 0.000000
# 2 -0.004427 0.024697 -0.006087 0.000000 0.000000 0.000000
# 3 -0.001696 -0.006087 0.010374 0.000000 0.000000 0.000000
# 4 0.000000 0.000000 0.000000 0.029741 0.000000 0.000000
# 5 0.000000 0.000000 0.000000 0.000000 0.031921 0.000000
# 6 0.000000 0.000000 0.000000 0.000000 0.000000 0.043330
#
#
# Mechanical properties :
#
#
# Convention : Reuss Voigt Hill
#
# Bulk Modulus (GPa) = 30.05407 37.03586 33.54496
# Shear Modulus (GPa) = 25.22778 28.05571 26.64175
#
# Velocity S-wave (km/s) = 3.54091 3.73410 3.63879
# Velocity P-wave (km/s) = 5.62620 6.08260 5.85884
#
# Compressibility (1/GPa) = 0.03327337
#
# Stress axis : x y z
#
# Youngs Moduli (GPa) = 44.20606 40.49110 96.39259
#
# Poissons Ratio (x) = 0.17924 0.16344
# Poissons Ratio (y) = 0.19568 0.58678
# Poissons Ratio (z) = 0.07495 0.24648
#
# Static dielectric constant tensor:
#      x y z
#    x 3.471210 0.000000 0.000000 
#    y 0.000000 3.648090 0.000000 
#    z 0.000000 0.000000 3.591600 
# 
# 
# High freq. dielectric constant tensor:
#      x y z
#    x 1.767100 0.000000 0.000000 
#    y 0.000000 1.789590 0.000000 
#    z 0.000000 0.000000 1.793670 
# 
# From -- ./inp_files/4318.got.cif
#   From: 2010.03.12/outbox.cif.g09.slc.cpg/sg19_3_cif.got.tgz:4318.got - 2010.04.10 18:59:41.
