data_PCOD8156405
_publ_section_title
;
Structure prediction by ZEFSAII (Michael W. Deem and Ramdas Pophale) SiO2 
 PCOD8156405
Probable space group: P 21 21 2
;
_chemical_formula_sum "Si O2"
_cell_formula_units_Z 26
_cell_length_a 11.743206
_cell_length_b 7.902322
_cell_length_c 11.926289
_cell_angle_alpha 90.000000
_cell_angle_beta 90.000000
_cell_angle_gamma 90.000000
_cell_volume 1106.742864
_symmetry_space_group_name_H-M "P 21 21 2"
_symmetry_group_IT_number 18
_symmetry_cell_setting 'orthorhombic'
loop_
_space_group_symop_operation_xyz
x,y,z
-x,-y,z
1/2+x,1/2-y,-z
1/2-x,1/2+y,-z
loop_
_atom_site_type_symbol
_atom_site_label
_atom_site_fract_x
_atom_site_fract_y
_atom_site_fract_z
Si Si1 0.313835 0.408115 0.026701
Si Si2 0.269681 0.081072 0.402862
Si Si3 0.500000 0.000000 0.728489
Si Si4 0.171510 0.249689 0.204540
Si Si5 0.162049 0.260280 0.850685
Si Si6 0.500000 0.000000 0.273537
Si Si7 0.500000 0.500000 0.896731
Si Si8 0.314230 0.223635 0.638441
O O1 0.279230 0.276124 0.122654
O O2 0.345707 0.597968 0.068205
O O3 0.220864 0.408155 0.925390
O O4 0.435176 0.354879 0.970818
O O5 0.217133 0.234876 0.330983
O O6 0.262955 0.125395 0.532583
O O7 0.396619 0.050766 0.355591
O O8 0.185525 0.922115 0.387486
O O9 0.596430 0.081333 0.806639
O O10 0.442390 0.151569 0.656311
O O11 0.098293 0.084439 0.176993
O O12 0.237095 0.192297 0.747144
O O13 0.043806 0.341542 0.803519
#
# Coordination Sequence:
#
# PCOD8156405 Si02
#       8
#     4   4   2   4   4   2   2   4
#     4  12  26  44  71 105 147 193 246 302 365 435
#     4  11  25  47  74 107 145 189 241 311 370 444
#     4  12  23  43  72 100 144 189 243 292 370 436
#     4  12  26  44  71 104 144 192 242 303 364 447
#     4  11  25  47  73 109 149 197 246 309 365 445
#     4  10  25  47  76 104 152 189 245 300 384 436
#     4  12  26  44  70 104 148 188 248 296 374 440
#     4  11  24  45  75 106 148 188 250 301 371 439
#
# _framework density 23.492359
#
# number of rings (size 3 to 8) (size 9 to 14) (size 15 to 20)
#    0.000    0.615    3.077    5.077    2.154    1.846 
#    0.000    0.000    0.000    0.000    0.000    0.000 
#    0.000    0.000    0.000    0.000    0.000    0.000 
#
# Total GULP energy -322167.134628 kJ/mol
# GULP energy per Si atom -12391.043640 kJ/mol
# Density = 2.343889 g / cm^3
# Si number density = 23.492359 Si / 1000 Ang^3
#
#
#
# Elastic Constant Matrix: (Units=GPa)
#
#
# Indices 1 2 3 4 5 6 
#
# 1 91.7304 40.7215 34.4670 0.0000 0.0000 0.0000
# 2 40.7215 86.6801 32.3405 0.0000 0.0000 0.0000
# 3 34.4670 32.3405 127.5011 0.0000 0.0000 0.0000
# 4 0.0000 0.0000 0.0000 44.4779 0.0000 0.0000
# 5 0.0000 0.0000 0.0000 0.0000 27.6768 0.0000
# 6 0.0000 0.0000 0.0000 0.0000 0.0000 49.1488
#
#
#
# Elastic Compliance Matrix: (Units=1/GPa)
#
#
# Indices 1 2 3 4 5 6 
#
# 1 0.014413 -0.005873 -0.002406 0.000000 0.000000 0.000000
# 2 -0.005873 0.015136 -0.002252 0.000000 0.000000 0.000000
# 3 -0.002406 -0.002252 0.009065 0.000000 0.000000 0.000000
# 4 0.000000 0.000000 0.000000 0.022483 0.000000 0.000000
# 5 0.000000 0.000000 0.000000 0.000000 0.036131 0.000000
# 6 0.000000 0.000000 0.000000 0.000000 0.000000 0.020346
#
#
# Mechanical properties :
#
#
# Convention : Reuss Voigt Hill
#
# Bulk Modulus (GPa) = 56.97631 57.88551 57.43091
# Shear Modulus (GPa) = 34.60512 37.48620 36.04566
#
# Velocity S-wave (km/s) = 3.84218 3.99893 3.92134
# Velocity P-wave (km/s) = 6.63241 6.78347 6.70837
#
# Compressibility (1/GPa) = 0.01755115
#
# Stress axis : x y z
#
# Youngs Moduli (GPa) = 69.38178 66.06811 110.31806
#
# Poissons Ratio (x) = 0.38803 0.26548
# Poissons Ratio (y) = 0.40749 0.24838
# Poissons Ratio (z) = 0.16697 0.14875
#
# Static dielectric constant tensor:
#      x y z
#    x 4.300320 0.000000 0.000000 
#    y 0.000000 4.139660 0.000000 
#    z 0.000000 0.000000 4.441040 
# 
# 
# High freq. dielectric constant tensor:
#      x y z
#    x 1.930920 0.000000 0.000000 
#    y 0.000000 1.925490 0.000000 
#    z 0.000000 0.000000 1.941970 
# 
# From -- ./inp_files/5894.got.cif
#   From: 2010.03.12/outbox.cif.g09.slc.cpg/sg18_3_cif.got.tgz:5894.got - 2010.04.10 18:53:55.
