data_PCOD8156082
_publ_section_title
;
Structure prediction by ZEFSAII (Michael W. Deem and Ramdas Pophale) SiO2 
 PCOD8156082
Probable space group: P 21 21 2
;
_chemical_formula_sum "Si O2"
_cell_formula_units_Z 16
_cell_length_a 8.241634
_cell_length_b 14.485202
_cell_length_c 6.918828
_cell_angle_alpha 90.000000
_cell_angle_beta 90.000000
_cell_angle_gamma 90.000000
_cell_volume 825.981679
_symmetry_space_group_name_H-M "P 21 21 2"
_symmetry_group_IT_number 18
_symmetry_cell_setting 'orthorhombic'
loop_
_space_group_symop_operation_xyz
x,y,z
-x,-y,z
1/2+x,1/2-y,-z
1/2-x,1/2+y,-z
loop_
_atom_site_type_symbol
_atom_site_label
_atom_site_fract_x
_atom_site_fract_y
_atom_site_fract_z
Si Si1 0.890314 0.585796 0.407467
Si Si2 0.177071 0.350370 0.821682
Si Si3 0.394865 0.179889 0.904960
Si Si4 0.309695 0.501368 0.085986
O O1 0.828253 0.642086 0.591062
O O2 0.736624 0.547332 0.288094
O O3 0.000000 0.500000 0.474847
O O4 0.990511 0.656576 0.275676
O O5 0.318202 0.279816 0.878482
O O6 0.221119 0.449512 0.910368
O O7 0.002089 0.317762 0.900178
O O8 0.250845 0.106161 0.922326
O O9 0.500000 0.500000 0.057585
#
# Coordination Sequence:
#
# PCOD8156082 Si02
#       4
#     4   4   4   4
#     4   9  20  38  57  79 111 148 185 228 275 326
#     4  11  21  38  60  81 112 151 184 224 283 331
#     4  10  22  36  56  84 112 144 186 233 271 326
#     4  10  21  38  57  84 116 143 184 233 273 327
#
# _framework density 19.370891
#
# number of rings (size 3 to 8) (size 9 to 14) (size 15 to 20)
#    0.000    2.000    0.000    5.250    0.000    7.000 
#    0.000    5.000    0.000    0.000    0.000    0.000 
#    0.000    0.000    0.000    0.000    0.000    0.000 
#
# Total GULP energy -198480.567499 kJ/mol
# GULP energy per Si atom -12405.035469 kJ/mol
# Density = 1.932680 g / cm^3
# Si number density = 19.370891 Si / 1000 Ang^3
#
#
#
# Elastic Constant Matrix: (Units=GPa)
#
#
# Indices 1 2 3 4 5 6 
#
# 1 69.1367 -11.9545 6.8158 0.0000 0.0000 0.0000
# 2 -11.9545 42.6636 8.0771 0.0000 0.0000 0.0000
# 3 6.8158 8.0771 88.3355 0.0000 0.0000 0.0000
# 4 0.0000 0.0000 0.0000 18.8142 0.0000 0.0000
# 5 0.0000 0.0000 0.0000 0.0000 15.0307 0.0000
# 6 0.0000 0.0000 0.0000 0.0000 0.0000 32.9228
#
#
#
# Elastic Compliance Matrix: (Units=1/GPa)
#
#
# Indices 1 2 3 4 5 6 
#
# 1 0.015423 0.004627 -0.001613 0.000000 0.000000 0.000000
# 2 0.004627 0.025240 -0.002665 0.000000 0.000000 0.000000
# 3 -0.001613 -0.002665 0.011689 0.000000 0.000000 0.000000
# 4 0.000000 0.000000 0.000000 0.053151 0.000000 0.000000
# 5 0.000000 0.000000 0.000000 0.000000 0.066530 0.000000
# 6 0.000000 0.000000 0.000000 0.000000 0.000000 0.030374
#
#
# Mechanical properties :
#
#
# Convention : Reuss Voigt Hill
#
# Bulk Modulus (GPa) = 18.85013 22.89030 20.87022
# Shear Modulus (GPa) = 22.79014 26.50004 24.64509
#
# Velocity S-wave (km/s) = 3.43376 3.70271 3.57077
# Velocity P-wave (km/s) = 5.04710 5.48840 5.27237
#
# Compressibility (1/GPa) = 0.05305004
#
# Stress axis : x y z
#
# Youngs Moduli (GPa) = 64.83740 39.61934 85.55339
#
# Poissons Ratio (x) = -0.18332 0.13801
# Poissons Ratio (y) = -0.30000 0.22799
# Poissons Ratio (z) = 0.10459 0.10558
#
# Static dielectric constant tensor:
#      x y z
#    x 3.462600 0.000000 0.000000 
#    y 0.000000 3.510190 0.000000 
#    z 0.000000 0.000000 3.424890 
# 
# 
# High freq. dielectric constant tensor:
#      x y z
#    x 1.757300 0.000000 0.000000 
#    y 0.000000 1.758050 0.000000 
#    z 0.000000 0.000000 1.750280 
# 
# From -- ./inp_files/403.got.cif
#   From: 2010.03.12/outbox.cif.g09.slc.cpg/sg18_1_cif.got.tgz:403.got - 2010.04.10 18:53:55.
