data_PCOD8156887
_publ_section_title
;
Structure prediction by ZEFSAII (Michael W. Deem and Ramdas Pophale) SiO2 
 PCOD8156887
Probable space group: P 21 21 21
;
_chemical_formula_sum "Si O2"
_cell_formula_units_Z 24
_cell_length_a 8.811849
_cell_length_b 11.932046
_cell_length_c 8.412082
_cell_angle_alpha 90.000000
_cell_angle_beta 90.000000
_cell_angle_gamma 90.000000
_cell_volume 884.474798
_symmetry_space_group_name_H-M "P 21 21 21"
_symmetry_group_IT_number 19
_symmetry_cell_setting 'orthorhombic'
loop_
_space_group_symop_operation_xyz
x,y,z
1/2-x,-y,1/2+z
1/2+x,1/2-y,-z
-x,1/2+y,1/2-z
loop_
_atom_site_type_symbol
_atom_site_label
_atom_site_fract_x
_atom_site_fract_y
_atom_site_fract_z
Si Si1 0.674525 0.242907 0.605116
Si Si2 0.957421 0.286479 0.125093
Si Si3 0.872410 0.417153 0.767129
Si Si4 0.386803 0.908396 0.487797
Si Si5 0.816602 0.819271 0.759223
Si Si6 0.607921 0.022294 0.731369
O O1 0.525699 0.274056 0.712584
O O2 0.805110 0.333319 0.634885
O O3 0.636463 0.246046 0.418538
O O4 0.722839 0.116728 0.659379
O O5 0.772947 0.267414 0.138378
O O6 0.030751 0.214545 0.979240
O O7 0.007254 0.417524 0.128398
O O8 0.875921 0.540989 0.690348
O O9 0.780838 0.406591 0.932190
O O10 0.036912 0.374266 0.822301
O O11 0.494892 0.989087 0.589811
O O12 0.702210 0.920469 0.802114
#
# Coordination Sequence:
#
# PCOD8156887 Si02
#       6
#     4   4   4   4   4   4
#     4   9  18  38  62  85 122 164 213 261 312 381
#     4   8  19  37  59  82 123 168 201 263 320 367
#     4  11  22  39  65  95 127 166 222 260 320 385
#     4  10  20  41  60  88 132 166 208 271 317 379
#     4  11  18  34  64  92 116 169 214 262 306 394
#     4   9  19  39  58  88 126 167 204 267 319 370
#
# _framework density 27.134747999999998
#
# number of rings (size 3 to 8) (size 9 to 14) (size 15 to 20)
#    1.000    1.333    1.667    2.000    0.000    0.000 
#   15.000    1.667    3.667    0.000    0.000    0.000 
#    0.000    0.000    0.000    0.000    0.000    0.000 
#
# Total GULP energy -297493.301763 kJ/mol
# GULP energy per Si atom -12395.554240 kJ/mol
# Density = 2.707299 g / cm^3
# Si number density = 27.134748 Si / 1000 Ang^3
#
#
#
# Elastic Constant Matrix: (Units=GPa)
#
#
# Indices 1 2 3 4 5 6 
#
# 1 138.5082 19.4614 16.9952 0.0000 0.0000 0.0000
# 2 19.4614 112.7194 26.1583 0.0000 0.0000 0.0000
# 3 16.9952 26.1583 94.6761 0.0000 0.0000 0.0000
# 4 0.0000 0.0000 0.0000 60.9954 0.0000 0.0000
# 5 0.0000 0.0000 0.0000 0.0000 31.8294 0.0000
# 6 0.0000 0.0000 0.0000 0.0000 0.0000 21.1389
#
#
#
# Elastic Compliance Matrix: (Units=1/GPa)
#
#
# Indices 1 2 3 4 5 6 
#
# 1 0.007497 -0.001049 -0.001056 0.000000 0.000000 0.000000
# 2 -0.001049 0.009626 -0.002471 0.000000 0.000000 0.000000
# 3 -0.001056 -0.002471 0.011435 0.000000 0.000000 0.000000
# 4 0.000000 0.000000 0.000000 0.016395 0.000000 0.000000
# 5 0.000000 0.000000 0.000000 0.000000 0.031418 0.000000
# 6 0.000000 0.000000 0.000000 0.000000 0.000000 0.047306
#
#
# Mechanical properties :
#
#
# Convention : Reuss Voigt Hill
#
# Bulk Modulus (GPa) = 51.53360 52.34815 51.94087
# Shear Modulus (GPa) = 35.89446 41.67865 38.78655
#
# Velocity S-wave (km/s) = 3.64101 3.92342 3.78485
# Velocity P-wave (km/s) = 6.05879 6.31333 6.18737
#
# Compressibility (1/GPa) = 0.01940482
#
# Stress axis : x y z
#
# Youngs Moduli (GPa) = 133.39067 103.88248 87.45339
#
# Poissons Ratio (x) = 0.10901 0.09234
# Poissons Ratio (y) = 0.13997 0.21612
# Poissons Ratio (z) = 0.14084 0.25672
#
# Static dielectric constant tensor:
#      x y z
#    x 4.952300 0.000000 0.000000 
#    y 0.000000 4.999080 0.000000 
#    z 0.000000 0.000000 4.432010 
# 
# 
# High freq. dielectric constant tensor:
#      x y z
#    x 2.093580 0.000000 0.000000 
#    y 0.000000 2.107020 0.000000 
#    z 0.000000 0.000000 2.086170 
# 
# From -- ./inp_files/2820.got.cif
#   From: 2010.03.12/outbox.cif.g09.slc.cpg/sg19_2_cif.got.tgz:2820.got - 2010.04.10 18:59:41.
