data_PCOD8156281
_publ_section_title
;
Structure prediction by ZEFSAII (Michael W. Deem and Ramdas Pophale) SiO2 
 PCOD8156281
Probable space group: P 21 21 2
;
_chemical_formula_sum "Si O2"
_cell_formula_units_Z 24
_cell_length_a 11.106966
_cell_length_b 8.927587
_cell_length_c 10.830586
_cell_angle_alpha 90.000000
_cell_angle_beta 90.000000
_cell_angle_gamma 90.000000
_cell_volume 1073.943636
_symmetry_space_group_name_H-M "P 21 21 2"
_symmetry_group_IT_number 18
_symmetry_cell_setting 'orthorhombic'
loop_
_space_group_symop_operation_xyz
x,y,z
-x,-y,z
1/2+x,1/2-y,-z
1/2-x,1/2+y,-z
loop_
_atom_site_type_symbol
_atom_site_label
_atom_site_fract_x
_atom_site_fract_y
_atom_site_fract_z
Si Si1 0.434922 0.348381 0.444287
Si Si2 0.089928 0.121291 0.916498
Si Si3 0.666033 0.729818 0.698385
Si Si4 0.536021 0.164244 0.873423
Si Si5 0.067973 0.349928 0.718859
Si Si6 0.742606 0.040414 0.730055
O O1 0.500000 0.500000 0.408438
O O2 0.401885 0.351789 0.587656
O O3 0.521057 0.205304 0.415773
O O4 0.320554 0.346889 0.352579
O O5 0.024439 0.217234 0.809683
O O6 0.203404 0.032447 0.857937
O O7 0.112630 0.238171 0.027880
O O8 0.000000 0.000000 0.971397
O O9 0.580639 0.746244 0.819714
O O10 0.786714 0.633220 0.729526
O O11 0.705112 0.894669 0.649521
O O12 0.625795 0.137899 0.760026
O O13 0.500000 0.000000 0.928808
O O14 0.000000 0.500000 0.757910
#
# Coordination Sequence:
#
# PCOD8156281 Si02
#       6
#     4   4   4   4   4   4
#     4  12  23  44  69  96 139 182 233 291 347 418
#     4  11  21  45  67  98 136 180 230 288 348 423
#     4  10  25  42  68 103 139 179 234 291 348 418
#     4  10  24  44  68 101 142 180 236 293 352 415
#     4  11  24  43  67 101 135 184 238 281 353 423
#     4  10  22  45  67 101 135 185 230 286 357 413
#
# _framework density 22.347542000000001
#
# number of rings (size 3 to 8) (size 9 to 14) (size 15 to 20)
#    0.000    1.333    5.000    0.500    4.667    5.333 
#    6.000    0.000    0.000    0.000    0.000    0.000 
#    0.000    0.000    0.000    0.000    0.000    0.000 
#
# Total GULP energy -297416.305385 kJ/mol
# GULP energy per Si atom -12392.346058 kJ/mol
# Density = 2.229668 g / cm^3
# Si number density = 22.347542 Si / 1000 Ang^3
#
#
#
# Elastic Constant Matrix: (Units=GPa)
#
#
# Indices 1 2 3 4 5 6 
#
# 1 97.0617 33.8668 23.6493 0.0000 0.0000 0.0000
# 2 33.8668 70.4578 18.0646 0.0000 0.0000 0.0000
# 3 23.6493 18.0646 68.3433 0.0000 0.0000 0.0000
# 4 0.0000 0.0000 0.0000 30.3865 0.0000 0.0000
# 5 0.0000 0.0000 0.0000 0.0000 25.2445 0.0000
# 6 0.0000 0.0000 0.0000 0.0000 0.0000 32.7921
#
#
#
# Elastic Compliance Matrix: (Units=1/GPa)
#
#
# Indices 1 2 3 4 5 6 
#
# 1 0.012942 -0.005441 -0.003040 0.000000 0.000000 0.000000
# 2 -0.005441 0.017512 -0.002746 0.000000 0.000000 0.000000
# 3 -0.003040 -0.002746 0.016410 0.000000 0.000000 0.000000
# 4 0.000000 0.000000 0.000000 0.032909 0.000000 0.000000
# 5 0.000000 0.000000 0.000000 0.000000 0.039613 0.000000
# 6 0.000000 0.000000 0.000000 0.000000 0.000000 0.030495
#
#
# Mechanical properties :
#
#
# Convention : Reuss Voigt Hill
#
# Bulk Modulus (GPa) = 40.96803 43.00271 41.98537
# Shear Modulus (GPa) = 27.70499 28.37010 28.03754
#
# Velocity S-wave (km/s) = 3.52480 3.56686 3.54590
# Velocity P-wave (km/s) = 5.91081 6.02062 5.96597
#
# Compressibility (1/GPa) = 0.02440928
#
# Stress axis : x y z
#
# Youngs Moduli (GPa) = 77.26733 57.10225 60.93903
#
# Poissons Ratio (x) = 0.31072 0.18526
# Poissons Ratio (y) = 0.42044 0.16734
# Poissons Ratio (z) = 0.23491 0.15680
#
# Static dielectric constant tensor:
#      x y z
#    x 4.127650 0.000000 0.000000 
#    y 0.000000 3.960780 0.000000 
#    z 0.000000 0.000000 3.659740 
# 
# 
# High freq. dielectric constant tensor:
#      x y z
#    x 1.883040 0.000000 0.000000 
#    y 0.000000 1.875390 0.000000 
#    z 0.000000 0.000000 1.858630 
# 
# From -- ./inp_files/5853.got.cif
#   From: 2010.03.12/outbox.cif.g09.slc.cpg/sg18_3_cif.got.tgz:5853.got - 2010.04.10 18:53:55.
