data_PCOD8157557
_publ_section_title
;
Structure prediction by ZEFSAII (Michael W. Deem and Ramdas Pophale) SiO2 
 PCOD8157557
Probable space group: P 21 21 21
;
_chemical_formula_sum "Si O2"
_cell_formula_units_Z 28
_cell_length_a 16.963910
_cell_length_b 12.265692
_cell_length_c 6.570242
_cell_angle_alpha 90.000000
_cell_angle_beta 90.000000
_cell_angle_gamma 90.000000
_cell_volume 1367.097159
_symmetry_space_group_name_H-M "P 21 21 21"
_symmetry_group_IT_number 19
_symmetry_cell_setting 'orthorhombic'
loop_
_space_group_symop_operation_xyz
x,y,z
1/2-x,-y,1/2+z
1/2+x,1/2-y,-z
-x,1/2+y,1/2-z
loop_
_atom_site_type_symbol
_atom_site_label
_atom_site_fract_x
_atom_site_fract_y
_atom_site_fract_z
Si Si1 0.549754 0.637717 0.166325
Si Si2 0.953527 0.721327 0.539563
Si Si3 0.585500 0.493811 0.520168
Si Si4 0.356187 0.189862 0.692538
Si Si5 0.407918 0.638566 0.854553
Si Si6 0.323771 0.800112 0.125392
Si Si7 0.052296 0.589108 0.273944
O O1 0.523953 0.725635 0.332446
O O2 0.569519 0.528292 0.287951
O O3 0.629224 0.671004 0.047573
O O4 0.485635 0.628891 0.990059
O O5 0.928504 0.798068 0.351237
O O6 0.877982 0.701161 0.676191
O O7 0.989412 0.607554 0.457636
O O8 0.610078 0.592286 0.668150
O O9 0.655860 0.405098 0.514026
O O10 0.503384 0.435729 0.580729
O O11 0.262946 0.198467 0.717205
O O12 0.396194 0.303064 0.753716
O O13 0.387520 0.512069 0.806836
O O14 0.337503 0.693967 0.982133
#
# Coordination Sequence:
#
# PCOD8157557 Si02
#       7
#     4   4   4   4   4   4   4
#     4  11  20  42  68  99 122 174 236 276 339 392
#     4  11  21  44  68  97 132 179 230 283 331 396
#     4  12  24  42  72  99 132 182 229 290 336 401
#     4  12  27  45  64 109 139 176 234 281 350 410
#     4  11  22  43  67  98 134 176 229 282 338 405
#     4  11  28  42  66 100 146 179 216 285 364 400
#     4  12  20  46  71  96 135 174 240 287 314 418
#
# _framework density 20.481352999999999
#
# number of rings (size 3 to 8) (size 9 to 14) (size 15 to 20)
#    0.000    0.571    7.143    1.714    2.000    1.143 
#    2.571    0.000    0.000    0.000    0.000    0.000 
#    0.000    0.000    0.000    0.000    0.000    0.000 
#
# Total GULP energy -347084.864950 kJ/mol
# GULP energy per Si atom -12395.888034 kJ/mol
# Density = 2.043474 g / cm^3
# Si number density = 20.481353 Si / 1000 Ang^3
#
#
#
# Elastic Constant Matrix: (Units=GPa)
#
#
# Indices 1 2 3 4 5 6 
#
# 1 95.9716 41.9069 35.1079 0.0000 0.0000 0.0000
# 2 41.9069 127.0501 45.0058 0.0000 0.0000 0.0000
# 3 35.1079 45.0058 116.4484 0.0000 0.0000 0.0000
# 4 0.0000 0.0000 0.0000 30.8761 0.0000 0.0000
# 5 0.0000 0.0000 0.0000 0.0000 22.0961 0.0000
# 6 0.0000 0.0000 0.0000 0.0000 0.0000 23.3818
#
#
#
# Elastic Compliance Matrix: (Units=1/GPa)
#
#
# Indices 1 2 3 4 5 6 
#
# 1 0.012810 -0.003310 -0.002583 0.000000 0.000000 0.000000
# 2 -0.003310 0.009975 -0.002857 0.000000 0.000000 0.000000
# 3 -0.002583 -0.002857 0.010470 0.000000 0.000000 0.000000
# 4 0.000000 0.000000 0.000000 0.032387 0.000000 0.000000
# 5 0.000000 0.000000 0.000000 0.000000 0.045257 0.000000
# 6 0.000000 0.000000 0.000000 0.000000 0.000000 0.042768
#
#
# Mechanical properties :
#
#
# Convention : Reuss Voigt Hill
#
# Bulk Modulus (GPa) = 63.47223 64.83461 64.15342
# Shear Modulus (GPa) = 28.34142 29.76743 29.05443
#
# Velocity S-wave (km/s) = 3.72394 3.81647 3.77049
# Velocity P-wave (km/s) = 7.03902 7.15156 7.09551
#
# Compressibility (1/GPa) = 0.01575492
#
# Stress axis : x y z
#
# Youngs Moduli (GPa) = 78.06360 100.25108 95.50761
#
# Poissons Ratio (x) = 0.33188 0.24666
# Poissons Ratio (y) = 0.25843 0.27288
# Poissons Ratio (z) = 0.20161 0.28643
#
# Static dielectric constant tensor:
#      x y z
#    x 3.480710 0.000000 0.000000 
#    y 0.000000 4.056730 0.000000 
#    z 0.000000 0.000000 4.100850 
# 
# 
# High freq. dielectric constant tensor:
#      x y z
#    x 1.768850 0.000000 0.000000 
#    y 0.000000 1.817290 0.000000 
#    z 0.000000 0.000000 1.819620 
# 
# From -- ./inp_files/1754.got.cif
#   From: 2010.03.12/outbox.cif.g09.slc.cpg/sg19_1_cif.got.tgz:1754.got - 2010.04.10 18:59:41.
