data_PCOD8157072
_publ_section_title
;
Structure prediction by ZEFSAII (Michael W. Deem and Ramdas Pophale) SiO2 
 PCOD8157072
Probable space group: P 21 21 21
;
_chemical_formula_sum "Si O2"
_cell_formula_units_Z 28
_cell_length_a 14.194844
_cell_length_b 16.620415
_cell_length_c 5.269152
_cell_angle_alpha 90.000000
_cell_angle_beta 90.000000
_cell_angle_gamma 90.000000
_cell_volume 1243.120460
_symmetry_space_group_name_H-M "P 21 21 21"
_symmetry_group_IT_number 19
_symmetry_cell_setting 'orthorhombic'
loop_
_space_group_symop_operation_xyz
x,y,z
1/2-x,-y,1/2+z
1/2+x,1/2-y,-z
-x,1/2+y,1/2-z
loop_
_atom_site_type_symbol
_atom_site_label
_atom_site_fract_x
_atom_site_fract_y
_atom_site_fract_z
Si Si1 0.790362 0.685713 0.596540
Si Si2 0.858311 0.969262 0.843376
Si Si3 0.695376 0.483959 0.904106
Si Si4 0.388403 0.662606 0.547234
Si Si5 0.213195 0.621044 0.869637
Si Si6 0.968866 0.399754 0.381868
Si Si7 0.674028 0.708352 0.097029
O O1 0.839562 0.602448 0.509902
O O2 0.869125 0.756718 0.619530
O O3 0.741503 0.673402 0.871356
O O4 0.712353 0.703581 0.382503
O O5 0.885736 0.922067 0.593159
O O6 0.753014 0.938544 0.914115
O O7 0.852295 0.065807 0.809530
O O8 0.940187 0.951814 0.043006
O O9 0.761799 0.471491 0.655916
O O10 0.608969 0.535963 0.792378
O O11 0.493370 0.662784 0.667924
O O12 0.305484 0.662694 0.752333
O O13 0.153482 0.697264 0.971470
O O14 0.923711 0.341845 0.596638
#
# Coordination Sequence:
#
# PCOD8157072 Si02
#       7
#     4   4   4   4   4   4   4
#     4  11  22  45  69  97 127 186 232 276 342 436
#     4  11  21  41  65  96 138 172 234 286 351 406
#     4  12  24  45  73  98 138 188 234 280 356 427
#     4  10  23  41  67  93 139 171 230 286 347 405
#     4  10  21  41  68  96 127 191 224 278 352 432
#     4  11  26  42  65 104 135 179 229 309 335 410
#     4  11  23  43  71  94 134 179 235 277 351 414
#
# _framework density 22.523963999999999
#
# number of rings (size 3 to 8) (size 9 to 14) (size 15 to 20)
#    0.000    1.143    5.714    0.000    4.000    0.000 
#    5.143    0.000    0.000    0.000    0.000    0.000 
#    0.000    0.000    0.000    0.000    0.000    0.000 
#
# Total GULP energy -346890.925954 kJ/mol
# GULP energy per Si atom -12388.961641 kJ/mol
# Density = 2.247270 g / cm^3
# Si number density = 22.523964 Si / 1000 Ang^3
#
#
#
# Elastic Constant Matrix: (Units=GPa)
#
#
# Indices 1 2 3 4 5 6 
#
# 1 74.5081 33.3356 6.1729 0.0000 0.0000 0.0000
# 2 33.3356 115.4526 -5.6025 0.0000 0.0000 0.0000
# 3 6.1729 -5.6025 72.1740 0.0000 0.0000 0.0000
# 4 0.0000 0.0000 0.0000 37.6256 0.0000 0.0000
# 5 0.0000 0.0000 0.0000 0.0000 18.0993 0.0000
# 6 0.0000 0.0000 0.0000 0.0000 0.0000 37.4743
#
#
#
# Elastic Compliance Matrix: (Units=1/GPa)
#
#
# Indices 1 2 3 4 5 6 
#
# 1 0.015616 -0.004591 -0.001692 0.000000 0.000000 0.000000
# 2 -0.004591 0.010044 0.001172 0.000000 0.000000 0.000000
# 3 -0.001692 0.001172 0.014091 0.000000 0.000000 0.000000
# 4 0.000000 0.000000 0.000000 0.026578 0.000000 0.000000
# 5 0.000000 0.000000 0.000000 0.000000 0.055251 0.000000
# 6 0.000000 0.000000 0.000000 0.000000 0.000000 0.026685
#
#
# Mechanical properties :
#
#
# Convention : Reuss Voigt Hill
#
# Bulk Modulus (GPa) = 33.86432 36.66077 35.26254
# Shear Modulus (GPa) = 29.70387 33.85508 31.77947
#
# Velocity S-wave (km/s) = 3.63542 3.88115 3.76029
# Velocity P-wave (km/s) = 5.71744 6.03292 5.87730
#
# Compressibility (1/GPa) = 0.02952961
#
# Stress axis : x y z
#
# Youngs Moduli (GPa) = 64.03872 99.56162 70.96669
#
# Poissons Ratio (x) = 0.45708 0.12007
# Poissons Ratio (y) = 0.29400 -0.08320
# Poissons Ratio (z) = 0.10835 -0.11672
#
# Static dielectric constant tensor:
#      x y z
#    x 4.018120 0.000000 0.000000 
#    y 0.000000 4.603310 0.000000 
#    z 0.000000 0.000000 3.961670 
# 
# 
# High freq. dielectric constant tensor:
#      x y z
#    x 1.852900 0.000000 0.000000 
#    y 0.000000 1.908600 0.000000 
#    z 0.000000 0.000000 1.881910 
# 
# From -- ./inp_files/1015.got.cif
#   From: 2010.03.12/outbox.cif.g09.slc.cpg/sg19_1_cif.got.tgz:1015.got - 2010.04.10 18:59:41.
