data_PCOD8157246
_publ_section_title
;
Structure prediction by ZEFSAII (Michael W. Deem and Ramdas Pophale) SiO2 
 PCOD8157246
Probable space group: P 21 21 21
;
_chemical_formula_sum "Si O2"
_cell_formula_units_Z 28
_cell_length_a 24.248685
_cell_length_b 10.301316
_cell_length_c 5.025216
_cell_angle_alpha 90.000000
_cell_angle_beta 90.000000
_cell_angle_gamma 90.000000
_cell_volume 1255.265623
_symmetry_space_group_name_H-M "P 21 21 21"
_symmetry_group_IT_number 19
_symmetry_cell_setting 'orthorhombic'
loop_
_space_group_symop_operation_xyz
x,y,z
1/2-x,-y,1/2+z
1/2+x,1/2-y,-z
-x,1/2+y,1/2-z
loop_
_atom_site_type_symbol
_atom_site_label
_atom_site_fract_x
_atom_site_fract_y
_atom_site_fract_z
Si Si1 0.106021 0.504442 0.304303
Si Si2 0.125312 0.651512 0.798879
Si Si3 0.081616 0.227511 0.473751
Si Si4 0.522215 0.667718 0.265215
Si Si5 0.818556 0.550197 0.034151
Si Si6 0.518184 0.492623 0.787930
Si Si7 0.303562 0.116637 0.456478
O O1 0.143417 0.585879 0.517611
O O2 0.110775 0.350160 0.337556
O O3 0.043561 0.549325 0.355037
O O4 0.120773 0.531496 0.000350
O O5 0.066899 0.719212 0.745612
O O6 0.169159 0.742197 0.951528
O O7 0.131983 0.139368 0.572370
O O8 0.038568 0.272392 0.702433
O O9 0.049445 0.142217 0.255300
O O10 0.521307 0.595168 0.546454
O O11 0.542421 0.563382 0.046777
O O12 0.827806 0.483641 0.323431
O O13 0.762217 0.632320 0.010867
O O14 0.817008 0.430515 0.837234
#
# Coordination Sequence:
#
# PCOD8157246 Si02
#       7
#     4   4   4   4   4   4   4
#     4  11  25  38  57  90 127 161 206 244 304 381
#     4  12  22  42  59  90 125 165 200 255 302 375
#     4  11  24  40  63  87 132 159 207 253 313 360
#     4  11  24  36  62  85 120 160 209 241 309 364
#     4  10  22  42  66 100 116 160 209 269 304 364
#     4  11  23  40  57  87 118 167 201 254 297 358
#     4  10  22  42  70  91 124 154 216 260 313 356
#
# _framework density 22.306035999999999
#
# number of rings (size 3 to 8) (size 9 to 14) (size 15 to 20)
#    0.000    1.143    1.429    5.143    2.000    4.571 
#    0.000    1.429    0.000    0.000    0.000    0.000 
#    0.000    0.000    0.000    0.000    0.000    0.000 
#
# Total GULP energy -347086.747160 kJ/mol
# GULP energy per Si atom -12395.955256 kJ/mol
# Density = 2.225527 g / cm^3
# Si number density = 22.306036 Si / 1000 Ang^3
#
#
#
# Elastic Constant Matrix: (Units=GPa)
#
#
# Indices 1 2 3 4 5 6 
#
# 1 47.0673 23.4055 -1.6036 0.0000 0.0000 0.0000
# 2 23.4055 76.1756 -0.1670 0.0000 0.0000 0.0000
# 3 -1.6036 -0.1670 80.8838 0.0000 0.0000 0.0000
# 4 0.0000 0.0000 0.0000 20.5090 0.0000 0.0000
# 5 0.0000 0.0000 0.0000 0.0000 21.9541 0.0000
# 6 0.0000 0.0000 0.0000 0.0000 0.0000 25.0903
#
#
#
# Elastic Compliance Matrix: (Units=1/GPa)
#
#
# Indices 1 2 3 4 5 6 
#
# 1 0.025097 -0.007710 0.000482 0.000000 0.000000 0.000000
# 2 -0.007710 0.015496 -0.000121 0.000000 0.000000 0.000000
# 3 0.000482 -0.000121 0.012373 0.000000 0.000000 0.000000
# 4 0.000000 0.000000 0.000000 0.048759 0.000000 0.000000
# 5 0.000000 0.000000 0.000000 0.000000 0.045550 0.000000
# 6 0.000000 0.000000 0.000000 0.000000 0.000000 0.039856
#
#
# Mechanical properties :
#
#
# Convention : Reuss Voigt Hill
#
# Bulk Modulus (GPa) = 26.13214 27.48849 26.81031
# Shear Modulus (GPa) = 23.30083 25.67680 24.48881
#
# Velocity S-wave (km/s) = 3.23553 3.39649 3.31699
# Velocity P-wave (km/s) = 5.06941 5.26608 5.16868
#
# Compressibility (1/GPa) = 0.03826706
#
# Stress axis : x y z
#
# Youngs Moduli (GPa) = 39.84598 64.53171 80.82299
#
# Poissons Ratio (x) = 0.49754 -0.03893
# Poissons Ratio (y) = 0.30721 0.00977
# Poissons Ratio (z) = -0.01919 0.00780
#
# Static dielectric constant tensor:
#      x y z
#    x 4.108910 0.000000 0.000000 
#    y 0.000000 4.147440 0.000000 
#    z 0.000000 0.000000 4.099460 
# 
# 
# High freq. dielectric constant tensor:
#      x y z
#    x 1.852030 0.000000 0.000000 
#    y 0.000000 1.885670 0.000000 
#    z 0.000000 0.000000 1.890260 
# 
# From -- ./inp_files/2242.got.cif
#   From: 2010.03.12/outbox.cif.g09.slc.cpg/sg19_2_cif.got.tgz:2242.got - 2010.04.10 18:59:41.
