data_PCOD8157790
_publ_section_title
;
Structure prediction by ZEFSAII (Michael W. Deem and Ramdas Pophale) SiO2 
 PCOD8157790
Probable space group: P 21 21 21
;
_chemical_formula_sum "Si O2"
_cell_formula_units_Z 24
_cell_length_a 14.182754
_cell_length_b 6.725861
_cell_length_c 11.751862
_cell_angle_alpha 90.000000
_cell_angle_beta 90.000000
_cell_angle_gamma 90.000000
_cell_volume 1121.024594
_symmetry_space_group_name_H-M "P 21 21 21"
_symmetry_group_IT_number 19
_symmetry_cell_setting 'orthorhombic'
loop_
_space_group_symop_operation_xyz
x,y,z
1/2-x,-y,1/2+z
1/2+x,1/2-y,-z
-x,1/2+y,1/2-z
loop_
_atom_site_type_symbol
_atom_site_label
_atom_site_fract_x
_atom_site_fract_y
_atom_site_fract_z
Si Si1 0.362244 0.725865 0.439737
Si Si2 0.076074 0.242099 0.351886
Si Si3 0.936525 0.419643 0.957628
Si Si4 0.888063 0.491704 0.359928
Si Si5 0.310070 0.808765 0.187357
Si Si6 0.822123 0.024421 0.987069
O O1 0.455432 0.596419 0.417730
O O2 0.318350 0.797567 0.322003
O O3 0.285488 0.594334 0.505787
O O4 0.387745 0.920269 0.513109
O O5 0.154499 0.389558 0.403077
O O6 0.976272 0.349081 0.342456
O O7 0.068492 0.045637 0.427690
O O8 0.109575 0.177020 0.227055
O O9 0.879472 0.518368 0.855003
O O10 0.894527 0.205269 0.985305
O O11 0.796403 0.359160 0.343586
O O12 0.337024 0.600535 0.128407
#
# Coordination Sequence:
#
# PCOD8157790 Si02
#       6
#     4   4   4   4   4   4
#     4  12  26  44  74 100 144 188 232 291 359 422
#     4  11  26  45  76 103 144 181 241 293 350 428
#     4  11  24  49  69 105 143 182 236 287 358 429
#     4  12  25  46  74 105 140 188 235 296 356 415
#     4  11  28  44  72 102 142 183 234 292 354 429
#     4  11  25  48  69 105 139 190 236 291 353 427
#
# _framework density 21.408988000000001
#
# number of rings (size 3 to 8) (size 9 to 14) (size 15 to 20)
#    0.000    0.667    3.333    3.000    9.333    0.000 
#    0.000    0.000    0.000    0.000    0.000    0.000 
#    0.000    0.000    0.000    0.000    0.000    0.000 
#
# Total GULP energy -297815.298548 kJ/mol
# GULP energy per Si atom -12408.970773 kJ/mol
# Density = 2.136026 g / cm^3
# Si number density = 21.408988 Si / 1000 Ang^3
#
#
#
# Elastic Constant Matrix: (Units=GPa)
#
#
# Indices 1 2 3 4 5 6 
#
# 1 98.3618 14.1406 -11.9032 0.0000 0.0000 0.0000
# 2 14.1406 105.0176 27.8940 0.0000 0.0000 0.0000
# 3 -11.9032 27.8940 101.8527 0.0000 0.0000 0.0000
# 4 0.0000 0.0000 0.0000 26.8089 0.0000 0.0000
# 5 0.0000 0.0000 0.0000 0.0000 25.0767 0.0000
# 6 0.0000 0.0000 0.0000 0.0000 0.0000 48.1632
#
#
#
# Elastic Compliance Matrix: (Units=1/GPa)
#
#
# Indices 1 2 3 4 5 6 
#
# 1 0.010654 -0.001904 0.001766 0.000000 0.000000 0.000000
# 2 -0.001904 0.010609 -0.003128 0.000000 0.000000 0.000000
# 3 0.001766 -0.003128 0.010881 0.000000 0.000000 0.000000
# 4 0.000000 0.000000 0.000000 0.037301 0.000000 0.000000
# 5 0.000000 0.000000 0.000000 0.000000 0.039878 0.000000
# 6 0.000000 0.000000 0.000000 0.000000 0.000000 0.020763
#
#
# Mechanical properties :
#
#
# Convention : Reuss Voigt Hill
#
# Bulk Modulus (GPa) = 39.04122 40.61056 39.82589
# Shear Modulus (GPa) = 34.44600 38.34979 36.39789
#
# Velocity S-wave (km/s) = 4.01552 4.23696 4.12773
# Velocity P-wave (km/s) = 6.30672 6.55331 6.43120
#
# Compressibility (1/GPa) = 0.02561395
#
# Stress axis : x y z
#
# Youngs Moduli (GPa) = 93.86140 94.25608 91.90163
#
# Poissons Ratio (x) = 0.17944 -0.16234
# Poissons Ratio (y) = 0.17869 0.28747
# Poissons Ratio (z) = -0.16580 0.29484
#
# Static dielectric constant tensor:
#      x y z
#    x 4.006260 0.000000 0.000000 
#    y 0.000000 3.990670 0.000000 
#    z 0.000000 0.000000 3.881680 
# 
# 
# High freq. dielectric constant tensor:
#      x y z
#    x 1.857450 0.000000 0.000000 
#    y 0.000000 1.850290 0.000000 
#    z 0.000000 0.000000 1.842800 
# 
# From -- ./inp_files/889.got.cif
#   From: 2010.03.12/outbox.cif.g09.slc.cpg/sg19_1_cif.got.tgz:889.got - 2010.04.10 18:59:41.
