data_PCOD8157224
_publ_section_title
;
Structure prediction by ZEFSAII (Michael W. Deem and Ramdas Pophale) SiO2 
 PCOD8157224
Probable space group: P 21 21 21
;
_chemical_formula_sum "Si O2"
_cell_formula_units_Z 24
_cell_length_a 10.492677
_cell_length_b 20.918327
_cell_length_c 5.139670
_cell_angle_alpha 90.000000
_cell_angle_beta 90.000000
_cell_angle_gamma 90.000000
_cell_volume 1128.102306
_symmetry_space_group_name_H-M "P 21 21 21"
_symmetry_group_IT_number 19
_symmetry_cell_setting 'orthorhombic'
loop_
_space_group_symop_operation_xyz
x,y,z
1/2-x,-y,1/2+z
1/2+x,1/2-y,-z
-x,1/2+y,1/2-z
loop_
_atom_site_type_symbol
_atom_site_label
_atom_site_fract_x
_atom_site_fract_y
_atom_site_fract_z
Si Si1 0.183871 0.477833 0.032541
Si Si2 0.298641 0.918626 0.323205
Si Si3 0.090683 0.021453 0.323369
Si Si4 0.400017 0.662704 0.472620
Si Si5 0.215538 0.224840 0.710471
Si Si6 0.012724 0.787916 0.013271
O O1 0.213838 0.513254 0.761946
O O2 0.175194 0.403216 0.968976
O O3 0.056474 0.508324 0.144235
O O4 0.391458 0.944753 0.546082
O O5 0.278261 0.843103 0.353651
O O6 0.162555 0.953565 0.343640
O O7 0.359464 0.930742 0.042855
O O8 0.296003 0.719562 0.429596
O O9 0.503948 0.665076 0.237403
O O10 0.475735 0.670208 0.738643
O O11 0.343726 0.238131 0.543578
O O12 0.089567 0.229881 0.524374
#
# Coordination Sequence:
#
# PCOD8157224 Si02
#       6
#     4   4   4   4   4   4
#     4  12  25  45  68  96 140 187 221 283 342 411
#     4  10  22  41  71  94 131 170 235 281 333 386
#     4  10  23  42  64 101 126 179 228 281 330 408
#     4  10  25  43  66 100 135 185 230 272 350 411
#     4  10  25  43  71 100 138 181 223 289 337 411
#     4  10  24  42  68  99 140 180 223 282 342 409
#
# _framework density 21.274666
#
# number of rings (size 3 to 8) (size 9 to 14) (size 15 to 20)
#    1.000    0.667    0.000    3.000    4.667    5.333 
#    6.000    0.000    0.000    0.000    0.000    0.000 
#    0.000    0.000    0.000    0.000    0.000    0.000 
#
# Total GULP energy -297567.488881 kJ/mol
# GULP energy per Si atom -12398.645370 kJ/mol
# Density = 2.122624 g / cm^3
# Si number density = 21.274666 Si / 1000 Ang^3
#
#
#
# Elastic Constant Matrix: (Units=GPa)
#
#
# Indices 1 2 3 4 5 6 
#
# 1 91.3702 40.1373 -1.1503 0.0000 0.0000 0.0000
# 2 40.1373 62.6240 -6.5981 0.0000 0.0000 0.0000
# 3 -1.1503 -6.5981 82.4016 0.0000 0.0000 0.0000
# 4 0.0000 0.0000 0.0000 25.8480 0.0000 0.0000
# 5 0.0000 0.0000 0.0000 0.0000 22.2252 0.0000
# 6 0.0000 0.0000 0.0000 0.0000 0.0000 16.0900
#
#
#
# Elastic Compliance Matrix: (Units=1/GPa)
#
#
# Indices 1 2 3 4 5 6 
#
# 1 0.015260 -0.009841 -0.000575 0.000000 0.000000 0.000000
# 2 -0.009841 0.022451 0.001660 0.000000 0.000000 0.000000
# 3 -0.000575 0.001660 0.012261 0.000000 0.000000 0.000000
# 4 0.000000 0.000000 0.000000 0.038688 0.000000 0.000000
# 5 0.000000 0.000000 0.000000 0.000000 0.044994 0.000000
# 6 0.000000 0.000000 0.000000 0.000000 0.000000 0.062150
#
#
# Mechanical properties :
#
#
# Convention : Reuss Voigt Hill
#
# Bulk Modulus (GPa) = 30.80741 33.46376 32.13559
# Shear Modulus (GPa) = 22.30792 26.43312 24.37052
#
# Velocity S-wave (km/s) = 3.24167 3.52869 3.38822
# Velocity P-wave (km/s) = 5.34074 5.68909 5.51766
#
# Compressibility (1/GPa) = 0.03245972
#
# Stress axis : x y z
#
# Youngs Moduli (GPa) = 65.52914 44.54182 81.56206
#
# Poissons Ratio (x) = 0.43835 0.04690
# Poissons Ratio (y) = 0.64490 -0.13542
# Poissons Ratio (z) = 0.03768 -0.07395
#
# Static dielectric constant tensor:
#      x y z
#    x 3.821660 0.000000 0.000000 
#    y 0.000000 3.617380 0.000000 
#    z 0.000000 0.000000 3.899450 
# 
# 
# High freq. dielectric constant tensor:
#      x y z
#    x 1.832170 0.000000 0.000000 
#    y 0.000000 1.826460 0.000000 
#    z 0.000000 0.000000 1.846050 
# 
# From -- ./inp_files/1013.got.cif
#   From: 2010.03.12/outbox.cif.g09.slc.cpg/sg19_1_cif.got.tgz:1013.got - 2010.04.10 18:59:41.
