data_PCOD8157131
_publ_section_title
;
Structure prediction by ZEFSAII (Michael W. Deem and Ramdas Pophale) SiO2 
 PCOD8157131
Probable space group: P 21 21 21
;
_chemical_formula_sum "Si O2"
_cell_formula_units_Z 24
_cell_length_a 11.244790
_cell_length_b 11.244498
_cell_length_c 10.304993
_cell_angle_alpha 90.000000
_cell_angle_beta 90.000000
_cell_angle_gamma 90.000000
_cell_volume 1302.984117
_symmetry_space_group_name_H-M "P 21 21 21"
_symmetry_group_IT_number 19
_symmetry_cell_setting 'orthorhombic'
loop_
_space_group_symop_operation_xyz
x,y,z
1/2-x,-y,1/2+z
1/2+x,1/2-y,-z
-x,1/2+y,1/2-z
loop_
_atom_site_type_symbol
_atom_site_label
_atom_site_fract_x
_atom_site_fract_y
_atom_site_fract_z
Si Si1 0.099656 0.013893 0.022205
Si Si2 0.827112 0.946256 0.024470
Si Si3 0.263905 0.849675 0.727842
Si Si4 0.796176 0.672904 0.985521
Si Si5 0.196235 0.577129 0.725537
Si Si6 0.577116 0.453796 0.264435
O O1 0.173740 0.893582 0.050762
O O2 0.966839 0.966732 0.033380
O O3 0.133937 0.116043 0.125030
O O4 0.121726 0.076099 0.881918
O O5 0.778019 0.982194 0.164951
O O6 0.785825 0.814104 0.986577
O O7 0.767826 0.028057 0.914952
O O8 0.216738 0.716857 0.716658
O O9 0.143606 0.923771 0.699271
O O10 0.326093 0.871736 0.868141
O O11 0.892823 0.642869 0.874966
O O12 0.064080 0.535856 0.763415
#
# Coordination Sequence:
#
# PCOD8157131 Si02
#       6
#     4   4   4   4   4   4
#     4   9  19  38  56  80 112 145 185 226 272 328
#     4  10  22  37  55  84 117 142 184 231 276 331
#     4   9  19  38  56  80 112 145 185 226 272 328
#     4   9  19  34  61  81 105 147 185 223 271 330
#     4  10  22  37  55  84 117 142 184 231 276 331
#     4   9  19  34  61  81 105 147 185 223 271 330
#
# _framework density 18.419257000000002
#
# number of rings (size 3 to 8) (size 9 to 14) (size 15 to 20)
#    0.000    2.667    0.000    0.000    9.333    2.667 
#    6.000    0.000    7.333    0.000    0.000    0.000 
#    0.000    0.000    0.000    0.000    0.000    0.000 
#
# Total GULP energy -297383.982833 kJ/mol
# GULP energy per Si atom -12390.999285 kJ/mol
# Density = 1.837733 g / cm^3
# Si number density = 18.419257 Si / 1000 Ang^3
#
#
#
# Elastic Constant Matrix: (Units=GPa)
#
#
# Indices 1 2 3 4 5 6 
#
# 1 65.2664 36.5650 53.2742 0.0000 0.0000 0.0000
# 2 36.5650 65.2140 53.2168 0.0000 0.0000 0.0000
# 3 53.2742 53.2168 130.5228 0.0000 0.0000 0.0000
# 4 0.0000 0.0000 0.0000 32.4184 0.0000 0.0000
# 5 0.0000 0.0000 0.0000 0.0000 32.4203 0.0000
# 6 0.0000 0.0000 0.0000 0.0000 0.0000 19.2260
#
#
#
# Elastic Compliance Matrix: (Units=1/GPa)
#
#
# Indices 1 2 3 4 5 6 
#
# 1 0.026002 -0.008870 -0.006997 0.000000 0.000000 0.000000
# 2 -0.008870 0.026005 -0.006983 0.000000 0.000000 0.000000
# 3 -0.006997 -0.006983 0.013364 0.000000 0.000000 0.000000
# 4 0.000000 0.000000 0.000000 0.030847 0.000000 0.000000
# 5 0.000000 0.000000 0.000000 0.000000 0.030845 0.000000
# 6 0.000000 0.000000 0.000000 0.000000 0.000000 0.052013
#
#
# Mechanical properties :
#
#
# Convention : Reuss Voigt Hill
#
# Bulk Modulus (GPa) = 50.82936 60.79058 55.80997
# Shear Modulus (GPa) = 21.61397 24.67610 23.14503
#
# Velocity S-wave (km/s) = 3.42927 3.66415 3.54865
# Velocity P-wave (km/s) = 6.58298 7.13980 6.86704
#
# Compressibility (1/GPa) = 0.01967367
#
# Stress axis : x y z
#
# Youngs Moduli (GPa) = 38.45850 38.45360 74.82654
#
# Poissons Ratio (x) = 0.34107 0.52354
# Poissons Ratio (y) = 0.34111 0.52249
# Poissons Ratio (z) = 0.26908 0.26851
#
# Static dielectric constant tensor:
#      x y z
#    x 3.280890 0.000000 0.000000 
#    y 0.000000 3.280830 0.000000 
#    z 0.000000 0.000000 3.896390 
# 
# 
# High freq. dielectric constant tensor:
#      x y z
#    x 1.703150 0.000000 0.000000 
#    y 0.000000 1.703150 0.000000 
#    z 0.000000 0.000000 1.734570 
# 
# From -- ./inp_files/3351.got.cif
#   From: 2010.03.12/outbox.cif.g09.slc.cpg/sg19_2_cif.got.tgz:3351.got - 2010.04.10 18:59:41.
