data_PCOD8157593
_publ_section_title
;
Structure prediction by ZEFSAII (Michael W. Deem and Ramdas Pophale) SiO2 
 PCOD8157593
Probable space group: P 21 21 21
;
_chemical_formula_sum "Si O2"
_cell_formula_units_Z 32
_cell_length_a 10.513550
_cell_length_b 6.508415
_cell_length_c 21.557943
_cell_angle_alpha 90.000000
_cell_angle_beta 90.000000
_cell_angle_gamma 90.000000
_cell_volume 1475.135590
_symmetry_space_group_name_H-M "P 21 21 21"
_symmetry_group_IT_number 19
_symmetry_cell_setting 'orthorhombic'
loop_
_space_group_symop_operation_xyz
x,y,z
1/2-x,-y,1/2+z
1/2+x,1/2-y,-z
-x,1/2+y,1/2-z
loop_
_atom_site_type_symbol
_atom_site_label
_atom_site_fract_x
_atom_site_fract_y
_atom_site_fract_z
Si Si1 0.896454 0.564284 0.565711
Si Si2 0.136132 0.651708 0.267770
Si Si3 0.627243 0.604376 0.616703
Si Si4 0.103405 0.105195 0.076847
Si Si5 0.126427 0.543018 0.729542
Si Si6 0.473926 0.704151 0.840323
Si Si7 0.378840 0.160020 0.122196
Si Si8 0.022873 0.726949 0.846282
O O1 0.755527 0.656344 0.578560
O O2 0.913594 0.530196 0.493047
O O3 0.905231 0.338425 0.597148
O O4 0.007046 0.718205 0.588458
O O5 0.154337 0.851583 0.310498
O O6 0.253552 0.606411 0.222959
O O7 0.123523 0.465779 0.316434
O O8 0.019639 0.676640 0.221036
O O9 0.504370 0.724843 0.591021
O O10 0.596387 0.361557 0.613415
O O11 0.245897 0.193522 0.086005
O O12 0.086763 0.909684 0.122217
O O13 0.142536 0.754096 0.691659
O O14 0.109337 0.581210 0.803134
O O15 0.015245 0.410168 0.699776
O O16 0.411818 0.917360 0.125457
#
# Coordination Sequence:
#
# PCOD8157593 Si02
#       8
#     4   4   4   4   4   4   4   4
#     4  11  26  45  67  96 132 182 233 277 334 401
#     4  11  22  37  64  98 132 169 210 267 340 403
#     4  11  24  44  69  99 135 176 224 284 339 398
#     4  11  26  45  67  96 132 182 233 277 334 401
#     4  11  22  37  64  98 132 169 210 267 340 403
#     4  11  23  40  64  99 132 171 215 272 339 402
#     4  11  24  44  69  99 135 176 224 284 339 398
#     4  11  23  40  64  99 132 171 215 272 339 402
#
# _framework density 21.692920000000001
#
# number of rings (size 3 to 8) (size 9 to 14) (size 15 to 20)
#    0.000    1.000    2.500    3.750    3.500    6.000 
#    0.000    0.000    0.000    0.000    0.000    0.000 
#    0.000    0.000    0.000    0.000    0.000    0.000 
#
# Total GULP energy -396712.140404 kJ/mol
# GULP energy per Si atom -12397.254388 kJ/mol
# Density = 2.164355 g / cm^3
# Si number density = 21.692920 Si / 1000 Ang^3
#
#
#
# Elastic Constant Matrix: (Units=GPa)
#
#
# Indices 1 2 3 4 5 6 
#
# 1 128.0707 37.6138 34.3940 0.0000 0.0000 0.0000
# 2 37.6138 95.2761 28.8489 0.0000 0.0000 0.0000
# 3 34.3940 28.8489 110.6076 0.0000 0.0000 0.0000
# 4 0.0000 0.0000 0.0000 21.8769 0.0000 0.0000
# 5 0.0000 0.0000 0.0000 0.0000 26.1465 0.0000
# 6 0.0000 0.0000 0.0000 0.0000 0.0000 29.6865
#
#
#
# Elastic Compliance Matrix: (Units=1/GPa)
#
#
# Indices 1 2 3 4 5 6 
#
# 1 0.009257 -0.003022 -0.002090 0.000000 0.000000 0.000000
# 2 -0.003022 0.012382 -0.002290 0.000000 0.000000 0.000000
# 3 -0.002090 -0.002290 0.010288 0.000000 0.000000 0.000000
# 4 0.000000 0.000000 0.000000 0.045710 0.000000 0.000000
# 5 0.000000 0.000000 0.000000 0.000000 0.038246 0.000000
# 6 0.000000 0.000000 0.000000 0.000000 0.000000 0.033685
#
#
# Mechanical properties :
#
#
# Convention : Reuss Voigt Hill
#
# Bulk Modulus (GPa) = 58.39944 59.51865 58.95905
# Shear Modulus (GPa) = 29.39779 31.08182 30.23981
#
# Velocity S-wave (km/s) = 3.68527 3.78935 3.73767
# Velocity P-wave (km/s) = 6.71474 6.82950 6.77236
#
# Compressibility (1/GPa) = 0.01712345
#
# Stress axis : x y z
#
# Youngs Moduli (GPa) = 108.02632 80.76197 97.19816
#
# Poissons Ratio (x) = 0.24403 0.20318
# Poissons Ratio (y) = 0.32641 0.22258
# Poissons Ratio (z) = 0.22582 0.18494
#
# Static dielectric constant tensor:
#      x y z
#    x 3.863530 0.000000 0.000000 
#    y 0.000000 3.922890 0.000000 
#    z 0.000000 0.000000 3.851360 
# 
# 
# High freq. dielectric constant tensor:
#      x y z
#    x 1.854580 0.000000 0.000000 
#    y 0.000000 1.854290 0.000000 
#    z 0.000000 0.000000 1.844840 
# 
# From -- ./inp_files/7410.got.cif
#   From: 2010.03.12/outbox.cif.g09.slc.cpg/sg19_4_cif.got.tgz:7410.got - 2010.04.10 18:59:41.
