data_PCOD8157630
_publ_section_title
;
Structure prediction by ZEFSAII (Michael W. Deem and Ramdas Pophale) SiO2 
 PCOD8157630
Probable space group: P 21 21 21
;
_chemical_formula_sum "Si O2"
_cell_formula_units_Z 32
_cell_length_a 14.069734
_cell_length_b 11.159444
_cell_length_c 8.849509
_cell_angle_alpha 90.000000
_cell_angle_beta 90.000000
_cell_angle_gamma 90.000000
_cell_volume 1389.465025
_symmetry_space_group_name_H-M "P 21 21 21"
_symmetry_group_IT_number 19
_symmetry_cell_setting 'orthorhombic'
loop_
_space_group_symop_operation_xyz
x,y,z
1/2-x,-y,1/2+z
1/2+x,1/2-y,-z
-x,1/2+y,1/2-z
loop_
_atom_site_type_symbol
_atom_site_label
_atom_site_fract_x
_atom_site_fract_y
_atom_site_fract_z
Si Si1 0.477061 0.274053 0.891533
Si Si2 0.300970 0.267797 0.480791
Si Si3 0.618189 0.535794 0.567954
Si Si4 0.417396 0.434683 0.650418
Si Si5 0.489016 0.170241 0.377450
Si Si6 0.618274 0.165968 0.676782
Si Si7 0.272315 0.913527 0.200267
Si Si8 0.533442 0.403808 0.175485
O O1 0.414556 0.315046 0.750613
O O2 0.577531 0.234786 0.821746
O O3 0.419865 0.167591 0.972033
O O4 0.494901 0.380780 0.008196
O O5 0.347261 0.399572 0.512851
O O6 0.379206 0.170637 0.429367
O O7 0.223530 0.283981 0.349686
O O8 0.249554 0.216053 0.629506
O O9 0.524964 0.453488 0.590162
O O10 0.678490 0.529826 0.723266
O O11 0.683380 0.496973 0.429891
O O12 0.374942 0.531654 0.762818
O O13 0.556549 0.174756 0.523891
O O14 0.500910 0.294084 0.283553
O O15 0.502591 0.041993 0.286204
O O16 0.352405 0.898209 0.328426
#
# Coordination Sequence:
#
# PCOD8157630 Si02
#       8
#     4   4   4   4   4   4   4   4
#     4  11  23  45  70 104 143 196 244 304 376 446
#     4  12  24  47  73 105 143 195 253 306 380 446
#     4  11  25  44  71 106 145 191 246 310 383 433
#     4  11  22  45  73  99 148 198 241 309 379 451
#     4  12  25  49  74 108 153 198 248 316 374 446
#     4  11  24  47  75 104 147 201 248 303 383 453
#     4  12  24  43  70 107 141 189 251 311 360 454
#     4  12  27  46  74 109 152 194 253 309 375 445
#
# _framework density 23.030446000000001
#
# number of rings (size 3 to 8) (size 9 to 14) (size 15 to 20)
#    0.000    0.500    5.000    3.750    1.750    2.000 
#    6.750    0.000    0.000    0.000    0.000    0.000 
#    0.000    0.000    0.000    0.000    0.000    0.000 
#
# Total GULP energy -396528.752448 kJ/mol
# GULP energy per Si atom -12391.523514 kJ/mol
# Density = 2.297803 g / cm^3
# Si number density = 23.030446 Si / 1000 Ang^3
#
#
#
# Elastic Constant Matrix: (Units=GPa)
#
#
# Indices 1 2 3 4 5 6 
#
# 1 101.4000 33.9976 33.1384 0.0000 0.0000 0.0000
# 2 33.9976 130.8591 36.3354 0.0000 0.0000 0.0000
# 3 33.1384 36.3354 67.2882 0.0000 0.0000 0.0000
# 4 0.0000 0.0000 0.0000 47.0846 0.0000 0.0000
# 5 0.0000 0.0000 0.0000 0.0000 36.8113 0.0000
# 6 0.0000 0.0000 0.0000 0.0000 0.0000 16.3555
#
#
#
# Elastic Compliance Matrix: (Units=1/GPa)
#
#
# Indices 1 2 3 4 5 6 
#
# 1 0.012085 -0.001749 -0.005007 0.000000 0.000000 0.000000
# 2 -0.001749 0.009243 -0.004130 0.000000 0.000000 0.000000
# 3 -0.005007 -0.004130 0.019557 0.000000 0.000000 0.000000
# 4 0.000000 0.000000 0.000000 0.021238 0.000000 0.000000
# 5 0.000000 0.000000 0.000000 0.000000 0.027166 0.000000
# 6 0.000000 0.000000 0.000000 0.000000 0.000000 0.061141
#
#
# Mechanical properties :
#
#
# Convention : Reuss Voigt Hill
#
# Bulk Modulus (GPa) = 52.31997 56.27668 54.29833
# Shear Modulus (GPa) = 27.99972 33.12200 30.56086
#
# Velocity S-wave (km/s) = 3.49057 3.79645 3.64672
# Velocity P-wave (km/s) = 6.24600 6.61107 6.43113
#
# Compressibility (1/GPa) = 0.01911316
#
# Stress axis : x y z
#
# Youngs Moduli (GPa) = 82.74876 108.19031 51.13192
#
# Poissons Ratio (x) = 0.18927 0.25601
# Poissons Ratio (y) = 0.14476 0.21116
# Poissons Ratio (z) = 0.41431 0.44678
#
# Static dielectric constant tensor:
#      x y z
#    x 4.258070 0.000000 0.000000 
#    y 0.000000 4.737460 0.000000 
#    z 0.000000 0.000000 4.050970 
# 
# 
# High freq. dielectric constant tensor:
#      x y z
#    x 1.908480 0.000000 0.000000 
#    y 0.000000 1.921010 0.000000 
#    z 0.000000 0.000000 1.906300 
# 
# From -- ./inp_files/3943.got.cif
#   From: 2010.03.12/outbox.cif.g09.slc.cpg/sg19_2_cif.got.tgz:3943.got - 2010.04.10 18:59:41.
