data_PCOD8157517
_publ_section_title
;
Structure prediction by ZEFSAII (Michael W. Deem and Ramdas Pophale) SiO2 
 PCOD8157517
Probable space group: P 21 21 21
;
_chemical_formula_sum "Si O2"
_cell_formula_units_Z 32
_cell_length_a 23.097631
_cell_length_b 11.596494
_cell_length_c 5.043182
_cell_angle_alpha 90.000000
_cell_angle_beta 90.000000
_cell_angle_gamma 90.000000
_cell_volume 1350.824062
_symmetry_space_group_name_H-M "P 21 21 21"
_symmetry_group_IT_number 19
_symmetry_cell_setting 'orthorhombic'
loop_
_space_group_symop_operation_xyz
x,y,z
1/2-x,-y,1/2+z
1/2+x,1/2-y,-z
-x,1/2+y,1/2-z
loop_
_atom_site_type_symbol
_atom_site_label
_atom_site_fract_x
_atom_site_fract_y
_atom_site_fract_z
Si Si1 0.951067 0.669262 0.066257
Si Si2 0.106816 0.344448 0.758174
Si Si3 0.269860 0.197643 0.014347
Si Si4 0.664131 0.632329 0.982257
Si Si5 0.644054 0.380812 0.935534
Si Si6 0.507738 0.541760 0.283819
Si Si7 0.267218 0.565010 0.286205
Si Si8 0.955405 0.328172 0.274970
O O1 0.900244 0.592462 0.196283
O O2 0.007314 0.709305 0.234890
O O3 0.920775 0.792860 0.008367
O O4 0.975759 0.592978 0.820939
O O5 0.059336 0.433953 0.872491
O O6 0.114684 0.225675 0.917334
O O7 0.166410 0.410095 0.711246
O O8 0.313230 0.199769 0.261527
O O9 0.209327 0.154444 0.139176
O O10 0.265874 0.326309 0.904282
O O11 0.289668 0.120444 0.761573
O O12 0.647384 0.503491 0.086564
O O13 0.609629 0.702783 0.866361
O O14 0.546599 0.619661 0.480383
O O15 0.519384 0.576171 0.980658
O O16 0.235420 0.532699 0.012500
#
# Coordination Sequence:
#
# PCOD8157517 Si02
#       8
#     4   4   4   4   4   4   4   4
#     4  11  24  41  72 100 135 185 229 291 353 415
#     4  10  25  43  71 101 138 182 240 287 344 436
#     4  11  27  42  68 102 139 175 236 282 342 415
#     4  12  24  44  65 101 143 179 220 291 350 408
#     4  11  23  40  71  96 137 184 229 277 350 421
#     4  11  23  43  66 103 131 179 232 287 352 412
#     4  11  26  47  74  99 139 188 238 291 350 415
#     4  11  24  42  65  98 138 174 230 286 345 422
#
# _framework density 23.689243000000001
#
# number of rings (size 3 to 8) (size 9 to 14) (size 15 to 20)
#    0.000    1.000    2.500    3.000    8.750    2.000 
#    0.000    0.000    0.000    0.000    0.000    0.000 
#    0.000    0.000    0.000    0.000    0.000    0.000 
#
# Total GULP energy -396569.065169 kJ/mol
# GULP energy per Si atom -12392.783287 kJ/mol
# Density = 2.363533 g / cm^3
# Si number density = 23.689243 Si / 1000 Ang^3
#
#
#
# Elastic Constant Matrix: (Units=GPa)
#
#
# Indices 1 2 3 4 5 6 
#
# 1 134.3118 46.2260 18.3177 0.0000 0.0000 0.0000
# 2 46.2260 68.8211 3.7949 0.0000 0.0000 0.0000
# 3 18.3177 3.7949 66.7318 0.0000 0.0000 0.0000
# 4 0.0000 0.0000 0.0000 36.3581 0.0000 0.0000
# 5 0.0000 0.0000 0.0000 0.0000 27.8158 0.0000
# 6 0.0000 0.0000 0.0000 0.0000 0.0000 43.7299
#
#
#
# Elastic Compliance Matrix: (Units=1/GPa)
#
#
# Indices 1 2 3 4 5 6 
#
# 1 0.010048 -0.006618 -0.002382 0.000000 0.000000 0.000000
# 2 -0.006618 0.018935 0.000740 0.000000 0.000000 0.000000
# 3 -0.002382 0.000740 0.015597 0.000000 0.000000 0.000000
# 4 0.000000 0.000000 0.000000 0.027504 0.000000 0.000000
# 5 0.000000 0.000000 0.000000 0.000000 0.035951 0.000000
# 6 0.000000 0.000000 0.000000 0.000000 0.000000 0.022868
#
#
# Mechanical properties :
#
#
# Convention : Reuss Voigt Hill
#
# Bulk Modulus (GPa) = 35.63764 45.17131 40.40448
# Shear Modulus (GPa) = 31.89294 35.01586 33.45440
#
# Velocity S-wave (km/s) = 3.67318 3.84882 3.76203
# Velocity P-wave (km/s) = 5.75032 6.23385 5.99696
#
# Compressibility (1/GPa) = 0.02806022
#
# Stress axis : x y z
#
# Youngs Moduli (GPa) = 99.52472 52.81351 64.11456
#
# Poissons Ratio (x) = 0.34950 0.15271
# Poissons Ratio (y) = 0.65861 -0.04743
# Poissons Ratio (z) = 0.23704 -0.03907
#
# Static dielectric constant tensor:
#      x y z
#    x 4.629040 0.000000 0.000000 
#    y 0.000000 4.248450 0.000000 
#    z 0.000000 0.000000 4.120170 
# 
# 
# High freq. dielectric constant tensor:
#      x y z
#    x 1.955820 0.000000 0.000000 
#    y 0.000000 1.931380 0.000000 
#    z 0.000000 0.000000 1.925790 
# 
# From -- ./inp_files/1974.got.cif
#   From: 2010.03.12/outbox.cif.g09.slc.cpg/sg19_1_cif.got.tgz:1974.got - 2010.04.10 18:59:41.
