data_PCOD8157932
_publ_section_title
;
Structure prediction by ZEFSAII (Michael W. Deem and Ramdas Pophale) SiO2 
 PCOD8157932
Probable space group: P 21 21 21
;
_chemical_formula_sum "Si O2"
_cell_formula_units_Z 12
_cell_length_a 10.508652
_cell_length_b 8.669018
_cell_length_c 5.035327
_cell_angle_alpha 90.000000
_cell_angle_beta 90.000000
_cell_angle_gamma 90.000000
_cell_volume 458.716746
_symmetry_space_group_name_H-M "P 21 21 21"
_symmetry_group_IT_number 19
_symmetry_cell_setting 'orthorhombic'
loop_
_space_group_symop_operation_xyz
x,y,z
1/2-x,-y,1/2+z
1/2+x,1/2-y,-z
-x,1/2+y,1/2-z
loop_
_atom_site_type_symbol
_atom_site_label
_atom_site_fract_x
_atom_site_fract_y
_atom_site_fract_z
Si Si1 0.881270 0.328866 0.338642
Si Si2 0.380961 0.828936 0.838709
Si Si3 0.750105 0.103627 0.999922
O O1 0.917754 0.499907 0.249339
O O2 0.750203 0.329820 0.500117
O O3 0.865636 0.216229 0.084112
O O4 0.000283 0.250279 0.497992
O O5 0.365150 0.716888 0.583446
O O6 0.705626 0.999730 0.249499
#
# Coordination Sequence:
#
# PCOD8157932 Si02
#       3
#     4   4   4
#     4  12  28  55  87 129 171 226 285 356 422 510
#     4  12  28  55  87 129 171 226 285 356 422 510
#     4  12  26  52  84 126 166 222 278 346 422 500
#
# _framework density 26.159935000000001
#
# number of rings (size 3 to 8) (size 9 to 14) (size 15 to 20)
#    0.000    0.000    6.667    2.000    0.000    2.667 
#   12.000    0.000    0.000    0.000    0.000    0.000 
#    0.000    0.000    0.000    0.000    0.000    0.000 
#
# Total GULP energy -148685.903597 kJ/mol
# GULP energy per Si atom -12390.491966 kJ/mol
# Density = 2.610039 g / cm^3
# Si number density = 26.159935 Si / 1000 Ang^3
#
#
#
# Elastic Constant Matrix: (Units=GPa)
#
#
# Indices 1 2 3 4 5 6 
#
# 1 183.0990 84.5611 26.3669 0.0000 0.0000 0.0000
# 2 84.5611 264.1581 66.5710 0.0000 0.0000 0.0000
# 3 26.3669 66.5710 113.6464 0.0000 0.0000 0.0000
# 4 0.0000 0.0000 0.0000 27.5811 0.0000 0.0000
# 5 0.0000 0.0000 0.0000 0.0000 34.1516 0.0000
# 6 0.0000 0.0000 0.0000 0.0000 0.0000 53.5533
#
#
#
# Elastic Compliance Matrix: (Units=1/GPa)
#
#
# Indices 1 2 3 4 5 6 
#
# 1 0.006420 -0.001971 -0.000335 0.000000 0.000000 0.000000
# 2 -0.001971 0.005046 -0.002499 0.000000 0.000000 0.000000
# 3 -0.000335 -0.002499 0.010341 0.000000 0.000000 0.000000
# 4 0.000000 0.000000 0.000000 0.036257 0.000000 0.000000
# 5 0.000000 0.000000 0.000000 0.000000 0.029281 0.000000
# 6 0.000000 0.000000 0.000000 0.000000 0.000000 0.018673
#
#
# Mechanical properties :
#
#
# Convention : Reuss Voigt Hill
#
# Bulk Modulus (GPa) = 81.98219 101.76681 91.87450
# Shear Modulus (GPa) = 41.77375 48.61751 45.19563
#
# Velocity S-wave (km/s) = 4.00041 4.31568 4.16103
# Velocity P-wave (km/s) = 7.26254 7.98872 7.63427
#
# Compressibility (1/GPa) = 0.01219777
#
# Stress axis : x y z
#
# Youngs Moduli (GPa) = 155.76573 198.17089 96.70585
#
# Poissons Ratio (x) = 0.39053 0.03241
# Poissons Ratio (y) = 0.30696 0.24164
# Poissons Ratio (z) = 0.05220 0.49517
#
# Static dielectric constant tensor:
#      x y z
#    x 4.899250 0.000000 0.000000 
#    y 0.000000 5.806950 0.000000 
#    z 0.000000 0.000000 4.751770 
# 
# 
# High freq. dielectric constant tensor:
#      x y z
#    x 2.055390 0.000000 0.000000 
#    y 0.000000 2.091180 0.000000 
#    z 0.000000 0.000000 2.017290 
# 
# From -- ./inp_files/250.got.cif
#   From: 2010.03.12/outbox.cif.g09.slc.cpg/sg19_1_cif.got.tgz:250.got - 2010.04.10 18:59:41.
