data_PCOD8157283
_publ_section_title
;
Structure prediction by ZEFSAII (Michael W. Deem and Ramdas Pophale) SiO2 
 PCOD8157283
Probable space group: P 21 21 21
;
_chemical_formula_sum "Si O2"
_cell_formula_units_Z 32
_cell_length_a 14.044244
_cell_length_b 8.678475
_cell_length_c 11.220381
_cell_angle_alpha 90.000000
_cell_angle_beta 90.000000
_cell_angle_gamma 90.000000
_cell_volume 1367.569439
_symmetry_space_group_name_H-M "P 21 21 21"
_symmetry_group_IT_number 19
_symmetry_cell_setting 'orthorhombic'
loop_
_space_group_symop_operation_xyz
x,y,z
1/2-x,-y,1/2+z
1/2+x,1/2-y,-z
-x,1/2+y,1/2-z
loop_
_atom_site_type_symbol
_atom_site_label
_atom_site_fract_x
_atom_site_fract_y
_atom_site_fract_z
Si Si1 0.889678 0.760953 0.809762
Si Si2 0.157505 0.623819 0.939833
Si Si3 0.803119 0.689401 0.189928
Si Si4 0.272931 0.162405 0.838789
Si Si5 0.945681 0.100569 0.808625
Si Si6 0.830963 0.786849 0.446490
Si Si7 0.544402 0.718331 0.537638
Si Si8 0.533819 0.362504 0.535913
O O1 0.782046 0.770426 0.757577
O O2 0.946719 0.658022 0.713606
O O3 0.944513 0.919874 0.830008
O O4 0.889096 0.687961 0.938645
O O5 0.251876 0.726788 0.923564
O O6 0.118702 0.627925 0.805689
O O7 0.181897 0.456498 0.994479
O O8 0.074305 0.703013 0.022156
O O9 0.767621 0.514092 0.204490
O O10 0.787547 0.783335 0.312758
O O11 0.917339 0.683227 0.160769
O O12 0.381197 0.227706 0.851486
O O13 0.225483 0.168843 0.969591
O O14 0.908510 0.189954 0.926294
O O15 0.938754 0.720269 0.432898
O O16 0.525640 0.541959 0.506440
#
# Coordination Sequence:
#
# PCOD8157283 Si02
#       8
#     4   4   4   4   4   4   4   4
#     4  11  22  38  68 101 137 172 242 293 340 420
#     4  10  22  43  69 101 140 184 234 292 348 424
#     4  11  26  43  73 100 142 192 230 303 360 425
#     4  11  24  43  69 107 132 186 242 291 353 427
#     4  11  20  39  70  99 135 182 225 291 348 404
#     4  11  23  49  69 104 145 184 240 296 367 424
#     4  10  22  44  71  97 139 185 233 293 356 422
#     4   9  23  43  63 103 136 181 244 289 344 420
#
# _framework density 23.399177000000002
#
# number of rings (size 3 to 8) (size 9 to 14) (size 15 to 20)
#    0.000    1.500    2.500    2.250    8.750    2.000 
#    2.250    7.500    0.000    0.000    0.000    0.000 
#    0.000    0.000    0.000    0.000    0.000    0.000 
#
# Total GULP energy -396495.860439 kJ/mol
# GULP energy per Si atom -12390.495639 kJ/mol
# Density = 2.334592 g / cm^3
# Si number density = 23.399177 Si / 1000 Ang^3
#
#
#
# Elastic Constant Matrix: (Units=GPa)
#
#
# Indices 1 2 3 4 5 6 
#
# 1 90.0420 23.3255 9.1046 0.0000 0.0000 0.0000
# 2 23.3255 54.7367 18.8833 0.0000 0.0000 0.0000
# 3 9.1046 18.8833 60.9484 0.0000 0.0000 0.0000
# 4 0.0000 0.0000 0.0000 -919.2465 0.0000 0.0000
# 5 0.0000 0.0000 0.0000 0.0000 33.5040 0.0000
# 6 0.0000 0.0000 0.0000 0.0000 0.0000 25.9974
#
#
#
# Elastic Compliance Matrix: (Units=1/GPa)
#
#
# Indices 1 2 3 4 5 6 
#
# 1 0.012487 -0.005238 -0.000243 0.000000 0.000000 0.000000
# 2 -0.005238 0.022653 -0.006236 0.000000 0.000000 0.000000
# 3 -0.000243 -0.006236 0.018376 0.000000 0.000000 0.000000
# 4 0.000000 0.000000 0.000000 -0.001088 0.000000 0.000000
# 5 0.000000 0.000000 0.000000 0.000000 0.029847 0.000000
# 6 0.000000 0.000000 0.000000 0.000000 0.000000 0.038465
#
#
# Mechanical properties :
#
#
# Convention : Reuss Voigt Hill
#
# Bulk Modulus (GPa) = 33.24127 34.26156 33.75141
# Shear Modulus (GPa) = 32.42540 -161.65477 -64.61468
#
# Velocity S-wave (km/s) = 3.72660 -8.32080 -5.26061
# Velocity P-wave (km/s) = 5.72309 8.81137 4.73743
#
# Compressibility (1/GPa) = 0.03008309
#
# Stress axis : x y z
#
# Youngs Moduli (GPa) = 80.08158 44.14523 54.41996
#
# Poissons Ratio (x) = 0.23122 0.01320
# Poissons Ratio (y) = 0.41944 0.33936
# Poissons Ratio (z) = 0.01943 0.27528
#
# Static dielectric constant tensor:
#      x y z
#    x 21.176590 0.000000 0.000000 
#    y 0.000000 4.142400 0.000000 
#    z 0.000000 0.000000 4.070880 
# 
# 
# High freq. dielectric constant tensor:
#      x y z
#    x 1.939090 0.000000 0.000000 
#    y 0.000000 1.905060 0.000000 
#    z 0.000000 0.000000 1.917160 
# 
# From -- ./inp_files/5237.got.cif
#   From: 2010.03.12/outbox.cif.g09.slc.cpg/sg19_3_cif.got.tgz:5237.got - 2010.04.10 18:59:41.
