data_PCOD8157382
_publ_section_title
;
Structure prediction by ZEFSAII (Michael W. Deem and Ramdas Pophale) SiO2 
 PCOD8157382
Probable space group: P 21 21 21
;
_chemical_formula_sum "Si O2"
_cell_formula_units_Z 32
_cell_length_a 17.662551
_cell_length_b 5.227159
_cell_length_c 14.765455
_cell_angle_alpha 90.000000
_cell_angle_beta 90.000000
_cell_angle_gamma 90.000000
_cell_volume 1363.220078
_symmetry_space_group_name_H-M "P 21 21 21"
_symmetry_group_IT_number 19
_symmetry_cell_setting 'orthorhombic'
loop_
_space_group_symop_operation_xyz
x,y,z
1/2-x,-y,1/2+z
1/2+x,1/2-y,-z
-x,1/2+y,1/2-z
loop_
_atom_site_type_symbol
_atom_site_label
_atom_site_fract_x
_atom_site_fract_y
_atom_site_fract_z
Si Si1 0.946572 0.415769 0.844381
Si Si2 0.110805 0.639723 0.297710
Si Si3 0.874291 0.144838 0.507322
Si Si4 0.666555 0.545020 0.848387
Si Si5 0.539486 0.585608 0.142883
Si Si6 0.697919 0.596278 0.453832
Si Si7 0.039114 0.341478 0.129905
Si Si8 0.281878 0.586199 0.937253
O O1 0.920140 0.441402 0.739800
O O2 0.876588 0.494596 0.904010
O O3 0.010395 0.623174 0.862858
O O4 0.977086 0.133452 0.869460
O O5 0.167380 0.853785 0.254936
O O6 0.062501 0.514858 0.216099
O O7 0.167240 0.436821 0.345961
O O8 0.050481 0.773076 0.365993
O O9 0.827852 0.215566 0.416818
O O10 0.902413 0.404829 0.558629
O O11 0.943484 0.968465 0.469177
O O12 0.808887 0.014743 0.571805
O O13 0.737173 0.367275 0.876242
O O14 0.585528 0.418484 0.865410
O O15 0.682949 0.872607 0.496751
O O16 0.713288 0.379241 0.529231
#
# Coordination Sequence:
#
# PCOD8157382 Si02
#       8
#     4   4   4   4   4   4   4   4
#     4  10  23  44  65 101 133 174 233 282 350 413
#     4  11  25  42  69 103 138 190 240 296 358 436
#     4  10  24  44  67 100 137 186 232 296 355 425
#     4  10  23  44  67  96 140 181 231 289 356 417
#     4  10  23  43  69  98 131 176 234 285 342 424
#     4  11  24  46  67  98 143 183 224 295 352 417
#     4  11  22  43  67  97 142 180 241 295 357 420
#     4  11  26  44  69 103 140 180 243 282 352 434
#
# _framework density 23.473834
#
# number of rings (size 3 to 8) (size 9 to 14) (size 15 to 20)
#    0.000    1.500    2.500    0.750    5.250    2.000 
#    9.000    0.000    0.000    0.000    0.000    0.000 
#    0.000    0.000    0.000    0.000    0.000    0.000 
#
# Total GULP energy -396483.418792 kJ/mol
# GULP energy per Si atom -12390.106837 kJ/mol
# Density = 2.342041 g / cm^3
# Si number density = 23.473834 Si / 1000 Ang^3
#
#
#
# Elastic Constant Matrix: (Units=GPa)
#
#
# Indices 1 2 3 4 5 6 
#
# 1 68.7835 5.8439 35.1244 0.0000 0.0000 0.0000
# 2 5.8439 80.7964 18.4432 0.0000 0.0000 0.0000
# 3 35.1244 18.4432 66.6651 0.0000 0.0000 0.0000
# 4 0.0000 0.0000 0.0000 28.9783 0.0000 0.0000
# 5 0.0000 0.0000 0.0000 0.0000 33.5871 0.0000
# 6 0.0000 0.0000 0.0000 0.0000 0.0000 30.0460
#
#
#
# Elastic Compliance Matrix: (Units=1/GPa)
#
#
# Indices 1 2 3 4 5 6 
#
# 1 0.019968 0.001022 -0.010804 0.000000 0.000000 0.000000
# 2 0.001022 0.013263 -0.004208 0.000000 0.000000 0.000000
# 3 -0.010804 -0.004208 0.021857 0.000000 0.000000 0.000000
# 4 0.000000 0.000000 0.000000 0.034509 0.000000 0.000000
# 5 0.000000 0.000000 0.000000 0.000000 0.029773 0.000000
# 6 0.000000 0.000000 0.000000 0.000000 0.000000 0.033282
#
#
# Mechanical properties :
#
#
# Convention : Reuss Voigt Hill
#
# Bulk Modulus (GPa) = 36.88763 37.22977 37.05870
# Shear Modulus (GPa) = 26.36182 28.97785 27.66984
#
# Velocity S-wave (km/s) = 3.35480 3.51732 3.43702
# Velocity P-wave (km/s) = 5.54569 5.69122 5.61893
#
# Compressibility (1/GPa) = 0.02710936
#
# Stress axis : x y z
#
# Youngs Moduli (GPa) = 50.07902 75.39558 45.75267
#
# Poissons Ratio (x) = -0.07704 0.49429
# Poissons Ratio (y) = -0.05117 0.19252
# Poissons Ratio (z) = 0.54104 0.31725
#
# Static dielectric constant tensor:
#      x y z
#    x 4.183900 0.000000 0.000000 
#    y 0.000000 4.064970 0.000000 
#    z 0.000000 0.000000 4.496110 
# 
# 
# High freq. dielectric constant tensor:
#      x y z
#    x 1.919720 0.000000 0.000000 
#    y 0.000000 1.926840 0.000000 
#    z 0.000000 0.000000 1.930030 
# 
# From -- ./inp_files/1804.got.cif
#   From: 2010.03.12/outbox.cif.g09.slc.cpg/sg19_1_cif.got.tgz:1804.got - 2010.04.10 18:59:41.
