data_PCOD8157658
_publ_section_title
;
Structure prediction by ZEFSAII (Michael W. Deem and Ramdas Pophale) SiO2 
 PCOD8157658
Probable space group: P 21 21 21
;
_chemical_formula_sum "Si O2"
_cell_formula_units_Z 20
_cell_length_a 10.992452
_cell_length_b 14.889518
_cell_length_c 4.903004
_cell_angle_alpha 90.000000
_cell_angle_beta 90.000000
_cell_angle_gamma 90.000000
_cell_volume 802.486000
_symmetry_space_group_name_H-M "P 21 21 21"
_symmetry_group_IT_number 19
_symmetry_cell_setting 'orthorhombic'
loop_
_space_group_symop_operation_xyz
x,y,z
1/2-x,-y,1/2+z
1/2+x,1/2-y,-z
-x,1/2+y,1/2-z
loop_
_atom_site_type_symbol
_atom_site_label
_atom_site_fract_x
_atom_site_fract_y
_atom_site_fract_z
Si Si1 0.090226 0.187691 0.153386
Si Si2 0.113025 0.472478 0.731597
Si Si3 0.647214 0.878176 0.874582
Si Si4 0.749864 0.316505 0.370405
Si Si5 0.498082 0.615835 0.726317
O O1 0.190820 0.144476 0.354149
O O2 0.062101 0.287103 0.268687
O O3 0.967714 0.128408 0.169142
O O4 0.141982 0.189174 0.850063
O O5 0.250629 0.436607 0.781704
O O6 0.067775 0.457310 0.421952
O O7 0.110568 0.575545 0.836277
O O8 0.021015 0.414562 0.916842
O O9 0.697230 0.780580 0.944790
O O10 0.857395 0.382430 0.277607
#
# Coordination Sequence:
#
# PCOD8157658 Si02
#       5
#     4   4   4   4   4
#     4  11  23  44  68 103 136 182 239 287 347 416
#     4  12  24  44  66 106 140 179 229 288 361 406
#     4  11  26  42  73 102 143 178 232 293 351 412
#     4  11  24  44  72 101 137 185 240 288 347 415
#     4  11  23  42  67 100 140 180 228 290 346 419
#
# _framework density 24.922550999999999
#
# number of rings (size 3 to 8) (size 9 to 14) (size 15 to 20)
#    0.000    0.800    4.000    2.400    0.000   11.200 
#    0.000    4.000    0.000    0.000    0.000    0.000 
#    0.000    0.000    0.000    0.000    0.000    0.000 
#
# Total GULP energy -248093.429450 kJ/mol
# GULP energy per Si atom -12404.671473 kJ/mol
# Density = 2.486583 g / cm^3
# Si number density = 24.922551 Si / 1000 Ang^3
#
#
#
# Elastic Constant Matrix: (Units=GPa)
#
#
# Indices 1 2 3 4 5 6 
#
# 1 105.7109 26.3091 -0.9797 0.0000 0.0000 0.0000
# 2 26.3091 68.0292 10.7461 0.0000 0.0000 0.0000
# 3 -0.9797 10.7461 71.9140 0.0000 0.0000 0.0000
# 4 0.0000 0.0000 0.0000 35.3887 0.0000 0.0000
# 5 0.0000 0.0000 0.0000 0.0000 35.0860 0.0000
# 6 0.0000 0.0000 0.0000 0.0000 0.0000 32.3060
#
#
#
# Elastic Compliance Matrix: (Units=1/GPa)
#
#
# Indices 1 2 3 4 5 6 
#
# 1 0.010509 -0.004185 0.000769 0.000000 0.000000 0.000000
# 2 -0.004185 0.016722 -0.002556 0.000000 0.000000 0.000000
# 3 0.000769 -0.002556 0.014298 0.000000 0.000000 0.000000
# 4 0.000000 0.000000 0.000000 0.028258 0.000000 0.000000
# 5 0.000000 0.000000 0.000000 0.000000 0.028501 0.000000
# 6 0.000000 0.000000 0.000000 0.000000 0.000000 0.030954
#
#
# Mechanical properties :
#
#
# Convention : Reuss Voigt Hill
#
# Bulk Modulus (GPa) = 33.80304 35.31170 34.55737
# Shear Modulus (GPa) = 33.10217 34.52806 33.81512
#
# Velocity S-wave (km/s) = 3.64840 3.72615 3.68748
# Velocity P-wave (km/s) = 5.59826 5.71941 5.65916
#
# Compressibility (1/GPa) = 0.02958313
#
# Stress axis : x y z
#
# Youngs Moduli (GPa) = 95.16072 59.80177 69.94044
#
# Poissons Ratio (x) = 0.25029 -0.05375
# Poissons Ratio (y) = 0.39829 0.17875
# Poissons Ratio (z) = -0.07314 0.15284
#
# Static dielectric constant tensor:
#      x y z
#    x 4.766620 0.000000 0.000000 
#    y 0.000000 4.299690 0.000000 
#    z 0.000000 0.000000 4.125610 
# 
# 
# High freq. dielectric constant tensor:
#      x y z
#    x 2.006750 0.000000 0.000000 
#    y 0.000000 1.981240 0.000000 
#    z 0.000000 0.000000 1.992900 
# 
# From -- ./inp_files/833.got.cif
#   From: 2010.03.12/outbox.cif.g09.slc.cpg/sg19_1_cif.got.tgz:833.got - 2010.04.10 18:59:41.
