data_PCOD8157880
_publ_section_title
;
Structure prediction by ZEFSAII (Michael W. Deem and Ramdas Pophale) SiO2 
 PCOD8157880
Probable space group: P 21 21 21
;
_chemical_formula_sum "Si O2"
_cell_formula_units_Z 16
_cell_length_a 5.201137
_cell_length_b 22.134467
_cell_length_c 5.194584
_cell_angle_alpha 90.000000
_cell_angle_beta 90.000000
_cell_angle_gamma 90.000000
_cell_volume 598.023342
_symmetry_space_group_name_H-M "P 21 21 21"
_symmetry_group_IT_number 19
_symmetry_cell_setting 'orthorhombic'
loop_
_space_group_symop_operation_xyz
x,y,z
1/2-x,-y,1/2+z
1/2+x,1/2-y,-z
-x,1/2+y,1/2-z
loop_
_atom_site_type_symbol
_atom_site_label
_atom_site_fract_x
_atom_site_fract_y
_atom_site_fract_z
Si Si1 0.408420 0.634338 0.849035
Si Si2 0.737458 0.711276 0.531817
Si Si3 0.596717 0.503021 0.788937
Si Si4 0.397618 0.375070 0.832215
O O1 0.654055 0.677795 0.798693
O O2 0.475207 0.564402 0.890738
O O3 0.222674 0.641232 0.605575
O O4 0.265118 0.656356 0.105838
O O5 0.491534 0.747705 0.420969
O O6 0.819388 0.656902 0.333302
O O7 0.683917 0.513558 0.495857
O O8 0.401275 0.447006 0.790395
#
# Coordination Sequence:
#
# PCOD8157880 Si02
#       4
#     4   4   4   4
#     4  12  27  52  81 121 166 223 280 351 427 501
#     4  12  28  58  84 124 170 232 286 348 416 508
#     4  12  24  44  82 122 168 212 276 352 430 506
#     4  12  27  52  81 121 166 223 280 351 427 501
#
# _framework density 26.754809999999999
#
# number of rings (size 3 to 8) (size 9 to 14) (size 15 to 20)
#    0.000    0.000    5.000    4.500    0.000    0.000 
#    9.000    0.000    0.000    0.000    0.000    0.000 
#    0.000    0.000    0.000    0.000    0.000    0.000 
#
# Total GULP energy -198338.558562 kJ/mol
# GULP energy per Si atom -12396.159910 kJ/mol
# Density = 2.669391 g / cm^3
# Si number density = 26.754810 Si / 1000 Ang^3
#
#
#
# Elastic Constant Matrix: (Units=GPa)
#
#
# Indices 1 2 3 4 5 6 
#
# 1 116.7991 19.2621 9.9266 0.0000 0.0000 0.0000
# 2 19.2621 108.6929 -22.6428 0.0000 0.0000 0.0000
# 3 9.9266 -22.6428 88.6755 0.0000 0.0000 0.0000
# 4 0.0000 0.0000 0.0000 26.2526 0.0000 0.0000
# 5 0.0000 0.0000 0.0000 0.0000 51.4525 0.0000
# 6 0.0000 0.0000 0.0000 0.0000 0.0000 56.8685
#
#
#
# Elastic Compliance Matrix: (Units=1/GPa)
#
#
# Indices 1 2 3 4 5 6 
#
# 1 0.009003 -0.001907 -0.001495 0.000000 0.000000 0.000000
# 2 -0.001907 0.010121 0.002798 0.000000 0.000000 0.000000
# 3 -0.001495 0.002798 0.012159 0.000000 0.000000 0.000000
# 4 0.000000 0.000000 0.000000 0.038091 0.000000 0.000000
# 5 0.000000 0.000000 0.000000 0.000000 0.019435 0.000000
# 6 0.000000 0.000000 0.000000 0.000000 0.000000 0.017584
#
#
# Mechanical properties :
#
#
# Convention : Reuss Voigt Hill
#
# Bulk Modulus (GPa) = 33.24987 36.36215 34.80601
# Shear Modulus (GPa) = 42.50722 47.42285 44.96504
#
# Velocity S-wave (km/s) = 3.99026 4.21467 4.10400
# Velocity P-wave (km/s) = 5.80381 6.10778 5.95773
#
# Compressibility (1/GPa) = 0.03007531
#
# Stress axis : x y z
#
# Youngs Moduli (GPa) = 111.07127 98.80447 82.24490
#
# Poissons Ratio (x) = 0.18841 0.12294
# Poissons Ratio (y) = 0.21180 -0.23011
# Poissons Ratio (z) = 0.16603 -0.27644
#
# Static dielectric constant tensor:
#      x y z
#    x 5.026930 0.000000 0.000000 
#    y 0.000000 5.778910 0.000000 
#    z 0.000000 0.000000 4.663480 
# 
# 
# High freq. dielectric constant tensor:
#      x y z
#    x 2.074700 0.000000 0.000000 
#    y 0.000000 2.100940 0.000000 
#    z 0.000000 0.000000 2.067930 
# 
# From -- ./inp_files/124.got.cif
#   From: 2010.03.12/outbox.cif.g09.slc.cpg/sg19_1_cif.got.tgz:124.got - 2010.04.10 18:59:41.
