data_PCOD8157390
_publ_section_title
;
Structure prediction by ZEFSAII (Michael W. Deem and Ramdas Pophale) SiO2 
 PCOD8157390
Probable space group: P 21 21 21
;
_chemical_formula_sum "Si O2"
_cell_formula_units_Z 32
_cell_length_a 8.095337
_cell_length_b 14.249101
_cell_length_c 13.001846
_cell_angle_alpha 90.000000
_cell_angle_beta 90.000000
_cell_angle_gamma 90.000000
_cell_volume 1499.779507
_symmetry_space_group_name_H-M "P 21 21 21"
_symmetry_group_IT_number 19
_symmetry_cell_setting 'orthorhombic'
loop_
_space_group_symop_operation_xyz
x,y,z
1/2-x,-y,1/2+z
1/2+x,1/2-y,-z
-x,1/2+y,1/2-z
loop_
_atom_site_type_symbol
_atom_site_label
_atom_site_fract_x
_atom_site_fract_y
_atom_site_fract_z
Si Si1 0.829888 0.386821 0.984510
Si Si2 0.798843 0.455985 0.610272
Si Si3 0.524370 0.269930 0.916543
Si Si4 0.934551 0.710639 0.851945
Si Si5 0.252140 0.653902 0.290598
Si Si6 0.491440 0.002475 0.194306
Si Si7 0.897563 0.310722 0.473892
Si Si8 0.563148 0.295947 0.692225
O O1 0.985256 0.319604 0.011453
O O2 0.865805 0.443041 0.880325
O O3 0.820071 0.458567 0.079846
O O4 0.652194 0.336200 0.975961
O O5 0.931988 0.491682 0.689646
O O6 0.896199 0.420527 0.507266
O O7 0.696766 0.370442 0.657954
O O8 0.341696 0.315144 0.896075
O O9 0.604705 0.247397 0.803286
O O10 0.892071 0.770115 0.747793
O O11 0.000802 0.606997 0.829624
O O12 0.777865 0.711885 0.925518
O O13 0.082243 0.756662 0.917004
O O14 0.329820 0.551851 0.311179
O O15 0.111697 0.647755 0.201800
O O16 0.042009 0.286541 0.392612
#
# Coordination Sequence:
#
# PCOD8157390 Si02
#       8
#     4   4   4   4   4   4   4   4
#     4  12  24  41  70  94 132 178 229 271 343 413
#     4  12  23  41  67  98 131 176 225 274 334 407
#     4  10  23  44  63  96 130 180 217 278 339 405
#     4  11  22  39  64  97 131 179 218 275 336 390
#     4   9  21  41  62  89 137 170 217 282 319 403
#     4  12  22  40  66  98 133 174 224 282 333 395
#     4  11  20  40  65  96 128 169 221 268 329 392
#     4   9  21  42  63  90 134 170 217 274 335 387
#
# _framework density 21.336469999999998
#
# number of rings (size 3 to 8) (size 9 to 14) (size 15 to 20)
#    0.750    0.500    5.000    1.500    0.000    0.000 
#    2.250    5.000    0.000    0.000    0.000    0.000 
#    0.000    0.000    0.000    0.000    0.000    0.000 
#
# Total GULP energy -396471.547028 kJ/mol
# GULP energy per Si atom -12389.735845 kJ/mol
# Density = 2.128791 g / cm^3
# Si number density = 21.336470 Si / 1000 Ang^3
#
#
#
# Elastic Constant Matrix: (Units=GPa)
#
#
# Indices 1 2 3 4 5 6 
#
# 1 29.0918 14.2587 19.4783 0.0000 0.0000 0.0000
# 2 14.2587 77.3991 28.8302 0.0000 0.0000 0.0000
# 3 19.4783 28.8302 61.7544 0.0000 0.0000 0.0000
# 4 0.0000 0.0000 0.0000 33.0747 0.0000 0.0000
# 5 0.0000 0.0000 0.0000 0.0000 34.2856 0.0000
# 6 0.0000 0.0000 0.0000 0.0000 0.0000 23.6977
#
#
#
# Elastic Compliance Matrix: (Units=1/GPa)
#
#
# Indices 1 2 3 4 5 6 
#
# 1 0.044384 -0.003585 -0.012325 0.000000 0.000000 0.000000
# 2 -0.003585 0.015929 -0.006306 0.000000 0.000000 0.000000
# 3 -0.012325 -0.006306 0.023025 0.000000 0.000000 0.000000
# 4 0.000000 0.000000 0.000000 0.030235 0.000000 0.000000
# 5 0.000000 0.000000 0.000000 0.000000 0.029167 0.000000
# 6 0.000000 0.000000 0.000000 0.000000 0.000000 0.042198
#
#
# Mechanical properties :
#
#
# Convention : Reuss Voigt Hill
#
# Bulk Modulus (GPa) = 25.70401 32.59776 29.15088
# Shear Modulus (GPa) = 20.63229 25.25682 22.94455
#
# Velocity S-wave (km/s) = 3.11303 3.44428 3.28284
# Velocity P-wave (km/s) = 4.99944 5.57930 5.29731
#
# Compressibility (1/GPa) = 0.03890444
#
# Stress axis : x y z
#
# Youngs Moduli (GPa) = 22.53081 62.77710 43.43168
#
# Poissons Ratio (x) = 0.22508 0.53531
# Poissons Ratio (y) = 0.08078 0.27387
# Poissons Ratio (z) = 0.27770 0.39586
#
# Static dielectric constant tensor:
#      x y z
#    x 3.687690 0.000000 0.000000 
#    y 0.000000 3.826940 0.000000 
#    z 0.000000 0.000000 4.003090 
# 
# 
# High freq. dielectric constant tensor:
#      x y z
#    x 1.828860 0.000000 0.000000 
#    y 0.000000 1.819560 0.000000 
#    z 0.000000 0.000000 1.844920 
# 
# From -- ./inp_files/4706.got.cif
#   From: 2010.03.12/outbox.cif.g09.slc.cpg/sg19_3_cif.got.tgz:4706.got - 2010.04.10 18:59:41.
