data_PCOD8157295
_publ_section_title
;
Structure prediction by ZEFSAII (Michael W. Deem and Ramdas Pophale) SiO2 
 PCOD8157295
Probable space group: P 21 21 21
;
_chemical_formula_sum "Si O2"
_cell_formula_units_Z 32
_cell_length_a 8.950772
_cell_length_b 18.286075
_cell_length_c 8.953525
_cell_angle_alpha 90.000000
_cell_angle_beta 90.000000
_cell_angle_gamma 90.000000
_cell_volume 1465.463621
_symmetry_space_group_name_H-M "P 21 21 21"
_symmetry_group_IT_number 19
_symmetry_cell_setting 'orthorhombic'
loop_
_space_group_symop_operation_xyz
x,y,z
1/2-x,-y,1/2+z
1/2+x,1/2-y,-z
-x,1/2+y,1/2-z
loop_
_atom_site_type_symbol
_atom_site_label
_atom_site_fract_x
_atom_site_fract_y
_atom_site_fract_z
Si Si1 0.143850 0.959146 0.760222
Si Si2 0.396173 0.726627 0.078148
Si Si3 0.716850 0.695378 0.154375
Si Si4 0.149866 0.213376 0.896062
Si Si5 0.319189 0.310365 0.092806
Si Si6 0.344483 0.554469 0.723284
Si Si7 0.158104 0.925588 0.420719
Si Si8 0.335292 0.565377 0.073129
O O1 0.242868 0.889179 0.806690
O O2 0.131308 0.963322 0.580953
O O3 0.980503 0.955893 0.831680
O O4 0.225845 0.030417 0.819372
O O5 0.567962 0.704128 0.054914
O O6 0.368552 0.778116 0.219353
O O7 0.299972 0.651813 0.085295
O O8 0.358077 0.774538 0.934305
O O9 0.696635 0.739591 0.304706
O O10 0.277093 0.155519 0.938444
O O11 0.990948 0.186465 0.964287
O O12 0.203307 0.292977 0.958181
O O13 0.278916 0.385034 0.177743
O O14 0.503752 0.581414 0.666795
O O15 0.303310 0.477733 0.645640
O O16 0.352060 0.542641 0.900555
#
# Coordination Sequence:
#
# PCOD8157295 Si02
#       8
#     4   4   4   4   4   4   4   4
#     4  11  25  46  68  95 139 173 230 277 335 405
#     4  10  24  40  69  96 134 171 219 272 334 396
#     4  10  22  44  65  96 132 170 215 276 328 397
#     4  11  25  42  69 100 135 176 225 274 335 400
#     4  11  23  44  67  99 134 175 221 275 332 401
#     4  12  26  43  72  96 136 179 225 279 345 399
#     4  12  26  45  69 100 133 183 223 283 340 401
#     4  11  25  46  67 100 133 179 226 280 335 409
#
# _framework density 21.836093000000002
#
# number of rings (size 3 to 8) (size 9 to 14) (size 15 to 20)
#    0.000    1.000    2.500    3.000   10.500    2.000 
#    0.000    0.000    0.000    0.000    0.000    0.000 
#    0.000    0.000    0.000    0.000    0.000    0.000 
#
# Total GULP energy -396946.445066 kJ/mol
# GULP energy per Si atom -12404.576408 kJ/mol
# Density = 2.178639 g / cm^3
# Si number density = 21.836093 Si / 1000 Ang^3
#
#
#
# Elastic Constant Matrix: (Units=GPa)
#
#
# Indices 1 2 3 4 5 6 
#
# 1 66.3747 -9.5750 26.7803 0.0000 0.0000 0.0000
# 2 -9.5750 57.7237 5.5279 0.0000 0.0000 0.0000
# 3 26.7803 5.5279 112.7732 0.0000 0.0000 0.0000
# 4 0.0000 0.0000 0.0000 37.2997 0.0000 0.0000
# 5 0.0000 0.0000 0.0000 0.0000 33.0861 0.0000
# 6 0.0000 0.0000 0.0000 0.0000 0.0000 38.6297
#
#
#
# Elastic Compliance Matrix: (Units=1/GPa)
#
#
# Indices 1 2 3 4 5 6 
#
# 1 0.017256 0.003270 -0.004258 0.000000 0.000000 0.000000
# 2 0.003270 0.018025 -0.001660 0.000000 0.000000 0.000000
# 3 -0.004258 -0.001660 0.009960 0.000000 0.000000 0.000000
# 4 0.000000 0.000000 0.000000 0.026810 0.000000 0.000000
# 5 0.000000 0.000000 0.000000 0.000000 0.030224 0.000000
# 6 0.000000 0.000000 0.000000 0.000000 0.000000 0.025887
#
#
# Mechanical properties :
#
#
# Convention : Reuss Voigt Hill
#
# Bulk Modulus (GPa) = 25.03454 31.37088 28.20271
# Shear Modulus (GPa) = 34.06626 36.07899 35.07263
#
# Velocity S-wave (km/s) = 3.95408 4.06921 4.01206
# Velocity P-wave (km/s) = 5.68647 6.03951 5.86565
#
# Compressibility (1/GPa) = 0.03994482
#
# Stress axis : x y z
#
# Youngs Moduli (GPa) = 57.95188 55.47754 100.40283
#
# Poissons Ratio (x) = -0.18142 0.42752
# Poissons Ratio (y) = -0.18951 0.16668
# Poissons Ratio (z) = 0.24676 0.09210
#
# Static dielectric constant tensor:
#      x y z
#    x 3.998110 0.000000 0.000000 
#    y 0.000000 3.985210 0.000000 
#    z 0.000000 0.000000 3.915520 
# 
# 
# High freq. dielectric constant tensor:
#      x y z
#    x 1.855500 0.000000 0.000000 
#    y 0.000000 1.864260 0.000000 
#    z 0.000000 0.000000 1.864710 
# 
# From -- ./inp_files/3179.got.cif
#   From: 2010.03.12/outbox.cif.g09.slc.cpg/sg19_2_cif.got.tgz:3179.got - 2010.04.10 18:59:41.
