data_PCOD8157968
_publ_section_title
;
Structure prediction by ZEFSAII (Michael W. Deem and Ramdas Pophale) SiO2 
 PCOD8157968
Probable space group: C 2 2 21
;
_chemical_formula_sum "Si O2"
_cell_formula_units_Z 60
_cell_length_a 15.333475
_cell_length_b 18.809860
_cell_length_c 10.930958
_cell_angle_alpha 90.000000
_cell_angle_beta 90.000000
_cell_angle_gamma 90.000000
_cell_volume 3152.712569
_symmetry_space_group_name_H-M "C 2 2 21"
_symmetry_group_IT_number 20
_symmetry_cell_setting 'orthorhombic'
loop_
_space_group_symop_operation_xyz
x,y,z
-x,-y,1/2+z
x,-y,-z
-x,y,1/2-z
1/2+x,1/2+y,z
1/2-x,1/2-y,1/2+z
1/2+x,1/2-y,-z
1/2-x,1/2+y,1/2-z
loop_
_atom_site_type_symbol
_atom_site_label
_atom_site_fract_x
_atom_site_fract_y
_atom_site_fract_z
Si Si1 0.077052 0.434081 0.661074
Si Si2 0.574090 0.746796 0.330892
Si Si3 0.152356 0.680698 0.169208
Si Si4 0.248538 0.304635 0.229549
Si Si5 0.685126 0.348640 0.523272
Si Si6 0.168288 0.552756 0.785645
Si Si7 0.222218 0.000000 0.500000
Si Si8 0.527797 0.129835 0.958139
O O1 0.121250 0.360435 0.708340
O O2 0.139800 0.503185 0.671792
O O3 0.000000 0.455797 0.750000
O O4 0.038193 0.425209 0.524843
O O5 0.500000 0.708773 0.250000
O O6 0.658299 0.762455 0.247587
O O7 0.598008 0.692123 0.438165
O O8 0.535577 0.819061 0.384044
O O9 0.172389 0.764480 0.199229
O O10 0.243246 0.645946 0.129586
O O11 0.081376 0.673703 0.061123
O O12 0.232963 0.386783 0.270787
O O13 0.271140 0.305023 0.086692
O O14 0.660775 0.430295 0.493670
O O15 0.090074 0.590460 0.861863
O O16 0.216174 0.500820 0.880897
#
# Coordination Sequence:
#
# PCOD8157968 Si02
#       8
#     8   8   8   8   8   8   4   8
#     4  10  21  31  52  80 115 145 182 226 286 350
#     4  11  21  36  56  85 113 151 189 236 286 333
#     4  10  18  35  52  78 106 150 189 230 272 342
#     4  10  21  34  56  79 112 145 194 233 276 336
#     4  10  19  34  57  79 108 147 191 233 276 337
#     4  11  19  35  52  81 111 149 183 227 282 343
#     4  10  16  34  58  78 106 146 194 224 274 346
#     4  11  21  36  53  80 117 150 183 229 287 349
#
# _framework density 19.031230000000001
#
# number of rings (size 3 to 8) (size 9 to 14) (size 15 to 20)
#    0.000    1.600    5.333    1.600    1.867    0.000 
#    0.000    0.000    0.000    3.200    0.000    0.000 
#    0.000    0.000    0.000    0.000    0.000    0.000 
#
# Total GULP energy -371736.610679 kJ/mol
# GULP energy per Si atom -12391.220356 kJ/mol
# Density = 1.898791 g / cm^3
# Si number density = 19.031230 Si / 1000 Ang^3
#
#
#
# Elastic Constant Matrix: (Units=GPa)
#
#
# Indices 1 2 3 4 5 6 
#
# 1 66.0666 49.4189 31.4657 0.0000 0.0000 0.0000
# 2 49.4189 126.4157 49.0406 0.0000 0.0000 0.0000
# 3 31.4657 49.0406 56.8013 0.0000 0.0000 0.0000
# 4 0.0000 0.0000 0.0000 26.5480 0.0000 0.0000
# 5 0.0000 0.0000 0.0000 0.0000 34.0785 0.0000
# 6 0.0000 0.0000 0.0000 0.0000 0.0000 30.7294
#
#
#
# Elastic Compliance Matrix: (Units=1/GPa)
#
#
# Indices 1 2 3 4 5 6 
#
# 1 0.023394 -0.006192 -0.007614 0.000000 0.000000 0.000000
# 2 -0.006192 0.013533 -0.008254 0.000000 0.000000 0.000000
# 3 -0.007614 -0.008254 0.028949 0.000000 0.000000 0.000000
# 4 0.000000 0.000000 0.000000 0.037668 0.000000 0.000000
# 5 0.000000 0.000000 0.000000 0.000000 0.029344 0.000000
# 6 0.000000 0.000000 0.000000 0.000000 0.000000 0.032542
#
#
# Mechanical properties :
#
#
# Convention : Reuss Voigt Hill
#
# Bulk Modulus (GPa) = 45.96137 56.57043 51.26590
# Shear Modulus (GPa) = 23.06272 26.22842 24.64557
#
# Velocity S-wave (km/s) = 3.48492 3.71641 3.60252
# Velocity P-wave (km/s) = 6.35577 6.94300 6.65586
#
# Compressibility (1/GPa) = 0.02175740
#
# Stress axis : x y z
#
# Youngs Moduli (GPa) = 42.74625 73.89449 34.54349
#
# Poissons Ratio (x) = 0.45753 0.26300
# Poissons Ratio (y) = 0.26467 0.28512
# Poissons Ratio (z) = 0.32545 0.60992
#
# Static dielectric constant tensor:
#      x y z
#    x 3.567420 0.000000 0.000000 
#    y 0.000000 3.700990 0.000000 
#    z 0.000000 0.000000 3.683530 
# 
# 
# High freq. dielectric constant tensor:
#      x y z
#    x 1.711770 0.000000 0.000000 
#    y 0.000000 1.740730 0.000000 
#    z 0.000000 0.000000 1.733450 
# 
# From -- ./inp_files/15293.got.cif
#   From: 2010.03.12/outbox.cif.g09.slc.cpg/sg20_8_cif.got.tgz:15293.got - 2010.04.14 01:38:04.
