data_PCOD8157583
_publ_section_title
;
Structure prediction by ZEFSAII (Michael W. Deem and Ramdas Pophale) SiO2 
 PCOD8157583
Probable space group: P 21 21 21
;
_chemical_formula_sum "Si O2"
_cell_formula_units_Z 32
_cell_length_a 8.457252
_cell_length_b 19.499556
_cell_length_c 9.072869
_cell_angle_alpha 90.000000
_cell_angle_beta 90.000000
_cell_angle_gamma 90.000000
_cell_volume 1496.230951
_symmetry_space_group_name_H-M "P 21 21 21"
_symmetry_group_IT_number 19
_symmetry_cell_setting 'orthorhombic'
loop_
_space_group_symop_operation_xyz
x,y,z
1/2-x,-y,1/2+z
1/2+x,1/2-y,-z
-x,1/2+y,1/2-z
loop_
_atom_site_type_symbol
_atom_site_label
_atom_site_fract_x
_atom_site_fract_y
_atom_site_fract_z
Si Si1 0.576918 0.306678 0.953167
Si Si2 0.283632 0.073809 0.916014
Si Si3 0.932358 0.493708 0.796052
Si Si4 0.118865 0.685797 0.184380
Si Si5 0.491532 0.863508 0.105071
Si Si6 0.378694 0.155674 0.660475
Si Si7 0.036431 0.367789 0.635398
Si Si8 0.874461 0.252429 0.798624
O O1 0.439501 0.336245 0.846469
O O2 0.699833 0.258710 0.865202
O O3 0.650900 0.371988 0.033939
O O4 0.502527 0.255799 0.072799
O O5 0.410787 0.115494 0.814626
O O6 0.208019 0.013608 0.816559
O O7 0.364444 0.040706 0.056800
O O8 0.049260 0.441425 0.713565
O O9 0.034802 0.560115 0.840533
O O10 0.075058 0.765388 0.168801
O O11 0.302711 0.673561 0.156990
O O12 0.019467 0.641586 0.068612
O O13 0.308002 0.849891 0.131609
O O14 0.610683 0.811105 0.186263
O O15 0.487432 0.121352 0.534708
O O16 0.899995 0.323319 0.712402
#
# Coordination Sequence:
#
# PCOD8157583 Si02
#       8
#     4   4   4   4   4   4   4   4
#     4  12  25  42  71 105 138 179 237 299 357 415
#     4  11  23  43  71 102 139 185 234 287 352 429
#     4  11  24  44  68 101 141 187 232 284 354 435
#     4  12  25  42  67 106 137 183 234 295 353 417
#     4  11  24  44  66  99 140 182 232 288 351 424
#     4  11  21  44  71 102 135 177 240 289 348 412
#     4  12  24  43  70 100 142 183 236 285 353 427
#     4  12  22  44  68 103 138 180 235 297 354 415
#
# _framework density 21.387073000000001
#
# number of rings (size 3 to 8) (size 9 to 14) (size 15 to 20)
#    0.000    0.500    6.250    3.750    3.500    0.000 
#    2.250    0.000    0.000    0.000    0.000    0.000 
#    0.000    0.000    0.000    0.000    0.000    0.000 
#
# Total GULP energy -396871.662921 kJ/mol
# GULP energy per Si atom -12402.239466 kJ/mol
# Density = 2.133840 g / cm^3
# Si number density = 21.387073 Si / 1000 Ang^3
#
#
#
# Elastic Constant Matrix: (Units=GPa)
#
#
# Indices 1 2 3 4 5 6 
#
# 1 55.6762 16.7173 33.4865 0.0000 0.0000 0.0000
# 2 16.7173 117.6891 46.1132 0.0000 0.0000 0.0000
# 3 33.4865 46.1132 145.0277 0.0000 0.0000 0.0000
# 4 0.0000 0.0000 0.0000 52.3146 0.0000 0.0000
# 5 0.0000 0.0000 0.0000 0.0000 42.8487 0.0000
# 6 0.0000 0.0000 0.0000 0.0000 0.0000 16.8978
#
#
#
# Elastic Compliance Matrix: (Units=1/GPa)
#
#
# Indices 1 2 3 4 5 6 
#
# 1 0.021014 -0.001238 -0.004458 0.000000 0.000000 0.000000
# 2 -0.001238 0.009779 -0.002824 0.000000 0.000000 0.000000
# 3 -0.004458 -0.002824 0.008822 0.000000 0.000000 0.000000
# 4 0.000000 0.000000 0.000000 0.019115 0.000000 0.000000
# 5 0.000000 0.000000 0.000000 0.000000 0.023338 0.000000
# 6 0.000000 0.000000 0.000000 0.000000 0.000000 0.059179
#
#
# Mechanical properties :
#
#
# Convention : Reuss Voigt Hill
#
# Bulk Modulus (GPa) = 44.29529 56.78077 50.53803
# Shear Modulus (GPa) = 30.15431 37.21728 33.68580
#
# Velocity S-wave (km/s) = 3.75898 4.17607 3.97300
# Velocity P-wave (km/s) = 6.29254 7.06112 6.68788
#
# Compressibility (1/GPa) = 0.02257576
#
# Stress axis : x y z
#
# Youngs Moduli (GPa) = 47.58663 102.25838 113.34710
#
# Poissons Ratio (x) = 0.12660 0.50536
# Poissons Ratio (y) = 0.05892 0.32004
# Poissons Ratio (z) = 0.21216 0.28873
#
# Static dielectric constant tensor:
#      x y z
#    x 3.581310 0.000000 0.000000 
#    y 0.000000 4.071400 0.000000 
#    z 0.000000 0.000000 4.360490 
# 
# 
# High freq. dielectric constant tensor:
#      x y z
#    x 1.812890 0.000000 0.000000 
#    y 0.000000 1.838610 0.000000 
#    z 0.000000 0.000000 1.867440 
# 
# From -- ./inp_files/3109.got.cif
#   From: 2010.03.12/outbox.cif.g09.slc.cpg/sg19_2_cif.got.tgz:3109.got - 2010.04.10 18:59:41.
