data_PCOD8157144
_publ_section_title
;
Structure prediction by ZEFSAII (Michael W. Deem and Ramdas Pophale) SiO2 
 PCOD8157144
Probable space group: P 21 21 21
;
_chemical_formula_sum "Si O2"
_cell_formula_units_Z 24
_cell_length_a 8.514291
_cell_length_b 13.910538
_cell_length_c 9.570319
_cell_angle_alpha 90.000000
_cell_angle_beta 90.000000
_cell_angle_gamma 90.000000
_cell_volume 1133.492968
_symmetry_space_group_name_H-M "P 21 21 21"
_symmetry_group_IT_number 19
_symmetry_cell_setting 'orthorhombic'
loop_
_space_group_symop_operation_xyz
x,y,z
1/2-x,-y,1/2+z
1/2+x,1/2-y,-z
-x,1/2+y,1/2-z
loop_
_atom_site_type_symbol
_atom_site_label
_atom_site_fract_x
_atom_site_fract_y
_atom_site_fract_z
Si Si1 0.807924 0.985336 0.608059
Si Si2 0.955033 0.018271 0.319839
Si Si3 0.392894 0.178760 0.832365
Si Si4 0.557063 0.278020 0.600332
Si Si5 0.076912 0.276112 0.907175
Si Si6 0.889661 0.190264 0.672841
O O1 0.820089 0.004508 0.440441
O O2 0.888276 0.884076 0.646239
O O3 0.629626 0.980771 0.667847
O O4 0.894316 0.074337 0.684429
O O5 0.086098 0.935645 0.327668
O O6 0.056994 0.113478 0.342894
O O7 0.417143 0.221636 0.678691
O O8 0.221660 0.203881 0.889201
O O9 0.527480 0.224511 0.931266
O O10 0.719067 0.224178 0.625241
O O11 0.521071 0.274285 0.436082
O O12 0.929003 0.235335 0.821908
#
# Coordination Sequence:
#
# PCOD8157144 Si02
#       6
#     4   4   4   4   4   4
#     4  10  22  39  63  91 127 164 204 254 316 371
#     4  10  22  39  63  93 125 162 210 254 312 365
#     4  11  22  40  63  91 124 164 208 256 306 369
#     4  11  22  40  63  91 124 164 208 256 306 369
#     4  11  24  41  63  94 125 165 210 256 312 369
#     4  11  24  41  63  94 125 165 210 256 312 369
#
# _framework density 21.173490000000001
#
# number of rings (size 3 to 8) (size 9 to 14) (size 15 to 20)
#    0.000    1.333    3.333    2.000    4.667    1.333 
#    0.000    6.667    0.000    0.000    0.000    0.000 
#    0.000    0.000    0.000    0.000    0.000    0.000 
#
# Total GULP energy -297609.525571 kJ/mol
# GULP energy per Si atom -12400.396899 kJ/mol
# Density = 2.112530 g / cm^3
# Si number density = 21.173490 Si / 1000 Ang^3
#
#
#
# Elastic Constant Matrix: (Units=GPa)
#
#
# Indices 1 2 3 4 5 6 
#
# 1 55.9461 -0.8984 -0.6981 0.0000 0.0000 0.0000
# 2 -0.8984 92.8949 29.4880 0.0000 0.0000 0.0000
# 3 -0.6981 29.4880 37.2430 0.0000 0.0000 0.0000
# 4 0.0000 0.0000 0.0000 25.9701 0.0000 0.0000
# 5 0.0000 0.0000 0.0000 0.0000 36.9924 0.0000
# 6 0.0000 0.0000 0.0000 0.0000 0.0000 26.7637
#
#
#
# Elastic Compliance Matrix: (Units=1/GPa)
#
#
# Indices 1 2 3 4 5 6 
#
# 1 0.017879 0.000089 0.000265 0.000000 0.000000 0.000000
# 2 0.000089 0.014379 -0.011383 0.000000 0.000000 0.000000
# 3 0.000265 -0.011383 0.035869 0.000000 0.000000 0.000000
# 4 0.000000 0.000000 0.000000 0.038506 0.000000 0.000000
# 5 0.000000 0.000000 0.000000 0.000000 0.027033 0.000000
# 6 0.000000 0.000000 0.000000 0.000000 0.000000 0.037364
#
#
# Mechanical properties :
#
#
# Convention : Reuss Voigt Hill
#
# Bulk Modulus (GPa) = 21.70730 26.87411 24.29070
# Shear Modulus (GPa) = 23.98715 28.49139 26.23927
#
# Velocity S-wave (km/s) = 3.36949 3.67224 3.52412
# Velocity P-wave (km/s) = 5.04106 5.54079 5.29682
#
# Compressibility (1/GPa) = 0.04606746
#
# Stress axis : x y z
#
# Youngs Moduli (GPa) = 55.93127 69.54491 27.87946
#
# Poissons Ratio (x) = -0.00618 -0.00738
# Poissons Ratio (y) = -0.00497 0.31736
# Poissons Ratio (z) = -0.01481 0.79166
#
# Static dielectric constant tensor:
#      x y z
#    x 3.494750 0.000000 0.000000 
#    y 0.000000 4.030820 0.000000 
#    z 0.000000 0.000000 4.009700 
# 
# 
# High freq. dielectric constant tensor:
#      x y z
#    x 1.807410 0.000000 0.000000 
#    y 0.000000 1.847080 0.000000 
#    z 0.000000 0.000000 1.833960 
# 
# From -- ./inp_files/2829.got.cif
#   From: 2010.03.12/outbox.cif.g09.slc.cpg/sg19_2_cif.got.tgz:2829.got - 2010.04.10 18:59:41.
