data_PCOD8157183
_publ_section_title
;
Structure prediction by ZEFSAII (Michael W. Deem and Ramdas Pophale) SiO2 
 PCOD8157183
Probable space group: P 21 21 21
;
_chemical_formula_sum "Si O2"
_cell_formula_units_Z 32
_cell_length_a 11.258251
_cell_length_b 11.810797
_cell_length_c 11.758742
_cell_angle_alpha 90.000000
_cell_angle_beta 90.000000
_cell_angle_gamma 90.000000
_cell_volume 1563.547191
_symmetry_space_group_name_H-M "P 21 21 21"
_symmetry_group_IT_number 19
_symmetry_cell_setting 'orthorhombic'
loop_
_space_group_symop_operation_xyz
x,y,z
1/2-x,-y,1/2+z
1/2+x,1/2-y,-z
-x,1/2+y,1/2-z
loop_
_atom_site_type_symbol
_atom_site_label
_atom_site_fract_x
_atom_site_fract_y
_atom_site_fract_z
Si Si1 0.405030 0.998415 0.705707
Si Si2 0.600082 0.947709 0.874074
Si Si3 0.933450 0.966093 0.613212
Si Si4 0.689333 0.650120 0.357214
Si Si5 0.310937 0.402813 0.182947
Si Si6 0.050977 0.621617 0.467210
Si Si7 0.664946 0.264720 0.070793
Si Si8 0.162091 0.758007 0.257428
O O1 0.406341 0.133041 0.714122
O O2 0.472982 0.944886 0.812351
O O3 0.276523 0.938887 0.703628
O O4 0.474887 0.978163 0.588178
O O5 0.670548 0.831470 0.845312
O O6 0.675118 0.052479 0.820498
O O7 0.569170 0.947817 0.007251
O O8 0.837631 0.871809 0.575383
O O9 0.062865 0.911293 0.632802
O O10 0.890276 0.029904 0.726074
O O11 0.683669 0.768519 0.286776
O O12 0.740535 0.687735 0.479734
O O13 0.354232 0.430167 0.054105
O O14 0.101492 0.702117 0.368794
O O15 0.967875 0.695834 0.549523
O O16 0.708724 0.300706 0.197630
#
# Coordination Sequence:
#
# PCOD8157183 Si02
#       8
#     4   4   4   4   4   4   4   4
#     4  10  25  41  69 100 132 174 232 279 340 414
#     4  11  24  42  68  97 134 178 223 287 348 403
#     4  12  24  43  66 103 134 184 230 285 351 408
#     4  11  24  43  71 102 131 182 231 282 342 412
#     4  12  24  42  71  98 137 176 236 281 341 411
#     4  10  22  40  66  96 128 181 229 278 333 407
#     4  11  18  38  69  92 127 174 233 273 331 414
#     4  11  21  41  64  98 131 177 226 281 346 401
#
# _framework density 20.466284000000002
#
# number of rings (size 3 to 8) (size 9 to 14) (size 15 to 20)
#    0.000    1.000    5.000    1.500    7.000    0.000 
#    2.250    0.000    0.000    0.000    0.000    0.000 
#    0.000    0.000    0.000    0.000    0.000    0.000 
#
# Total GULP energy -396586.026623 kJ/mol
# GULP energy per Si atom -12393.313332 kJ/mol
# Density = 2.041970 g / cm^3
# Si number density = 20.466284 Si / 1000 Ang^3
#
#
#
# Elastic Constant Matrix: (Units=GPa)
#
#
# Indices 1 2 3 4 5 6 
#
# 1 99.5238 40.3695 45.2202 0.0000 0.0000 0.0000
# 2 40.3695 101.3225 59.9188 0.0000 0.0000 0.0000
# 3 45.2202 59.9188 102.6626 0.0000 0.0000 0.0000
# 4 0.0000 0.0000 0.0000 37.9541 0.0000 0.0000
# 5 0.0000 0.0000 0.0000 0.0000 29.9786 0.0000
# 6 0.0000 0.0000 0.0000 0.0000 0.0000 29.1125
#
#
#
# Elastic Compliance Matrix: (Units=1/GPa)
#
#
# Indices 1 2 3 4 5 6 
#
# 1 0.013044 -0.002748 -0.004142 0.000000 0.000000 0.000000
# 2 -0.002748 0.015650 -0.007924 0.000000 0.000000 0.000000
# 3 -0.004142 -0.007924 0.016190 0.000000 0.000000 0.000000
# 4 0.000000 0.000000 0.000000 0.026348 0.000000 0.000000
# 5 0.000000 0.000000 0.000000 0.000000 0.033357 0.000000
# 6 0.000000 0.000000 0.000000 0.000000 0.000000 0.034350
#
#
# Mechanical properties :
#
#
# Convention : Reuss Voigt Hill
#
# Bulk Modulus (GPa) = 65.54307 66.05842 65.80075
# Shear Modulus (GPa) = 28.79326 29.94238 29.36782
#
# Velocity S-wave (km/s) = 3.75489 3.82908 3.79217
# Velocity P-wave (km/s) = 7.13396 7.20388 7.16900
#
# Compressibility (1/GPa) = 0.01525714
#
# Stress axis : x y z
#
# Youngs Moduli (GPa) = 76.66126 63.89694 61.76711
#
# Poissons Ratio (x) = 0.17558 0.25584
# Poissons Ratio (y) = 0.21065 0.48944
# Poissons Ratio (z) = 0.31753 0.50631
#
# Static dielectric constant tensor:
#      x y z
#    x 3.965700 0.000000 0.000000 
#    y 0.000000 3.802750 0.000000 
#    z 0.000000 0.000000 3.716980 
# 
# 
# High freq. dielectric constant tensor:
#      x y z
#    x 1.816560 0.000000 0.000000 
#    y 0.000000 1.793100 0.000000 
#    z 0.000000 0.000000 1.788160 
# 
# From -- ./inp_files/5059.got.cif
#   From: 2010.03.12/outbox.cif.g09.slc.cpg/sg19_3_cif.got.tgz:5059.got - 2010.04.10 18:59:41.
