data_PCOD8157134
_publ_section_title
;
Structure prediction by ZEFSAII (Michael W. Deem and Ramdas Pophale) SiO2 
 PCOD8157134
Probable space group: P 21 21 21
;
_chemical_formula_sum "Si O2"
_cell_formula_units_Z 32
_cell_length_a 14.367503
_cell_length_b 12.416154
_cell_length_c 8.207413
_cell_angle_alpha 90.000000
_cell_angle_beta 90.000000
_cell_angle_gamma 90.000000
_cell_volume 1464.113263
_symmetry_space_group_name_H-M "P 21 21 21"
_symmetry_group_IT_number 19
_symmetry_cell_setting 'orthorhombic'
loop_
_space_group_symop_operation_xyz
x,y,z
1/2-x,-y,1/2+z
1/2+x,1/2-y,-z
-x,1/2+y,1/2-z
loop_
_atom_site_type_symbol
_atom_site_label
_atom_site_fract_x
_atom_site_fract_y
_atom_site_fract_z
Si Si1 0.003876 0.626144 0.352532
Si Si2 0.253511 0.126918 0.451094
Si Si3 0.198462 0.099873 0.079484
Si Si4 0.623820 0.819968 0.131091
Si Si5 0.559616 0.301333 0.523865
Si Si6 0.121023 0.428357 0.383803
Si Si7 0.212598 0.488680 0.039866
Si Si8 0.181320 0.712730 0.499494
O O1 0.034751 0.507644 0.409108
O O2 0.085407 0.711474 0.397077
O O3 0.905199 0.649950 0.440272
O O4 0.990756 0.624194 0.158290
O O5 0.231212 0.105905 0.263993
O O6 0.319100 0.231197 0.473811
O O7 0.155034 0.146693 0.543853
O O8 0.303514 0.023310 0.524551
O O9 0.271263 0.170783 0.974179
O O10 0.656591 0.815452 0.315078
O O11 0.513930 0.789421 0.123116
O O12 0.637130 0.940833 0.059855
O O13 0.582659 0.191678 0.620949
O O14 0.176699 0.458379 0.218605
O O15 0.192202 0.439502 0.536642
O O16 0.243556 0.378360 0.944823
#
# Coordination Sequence:
#
# PCOD8157134 Si02
#       8
#     4   4   4   4   4   4   4   4
#     4  10  22  37  62  90 119 167 208 249 314 373
#     4  10  22  41  62  87 122 166 200 256 316 367
#     4  10  22  43  61  87 126 162 204 256 311 375
#     4  11  21  40  64  90 125 162 205 258 312 378
#     4  11  22  39  63  92 122 161 213 253 318 376
#     4  11  21  38  62  93 125 162 212 264 308 379
#     4  11  19  39  63  89 122 161 207 257 314 359
#     4  10  23  41  61  90 129 163 207 265 311 365
#
# _framework density 21.856234000000001
#
# number of rings (size 3 to 8) (size 9 to 14) (size 15 to 20)
#    0.000    1.500    3.750    2.250    0.000    4.000 
#    2.250    5.000    0.000    0.000    0.000    0.000 
#    0.000    0.000    0.000    0.000    0.000    0.000 
#
# Total GULP energy -396610.307233 kJ/mol
# GULP energy per Si atom -12394.072101 kJ/mol
# Density = 2.180649 g / cm^3
# Si number density = 21.856234 Si / 1000 Ang^3
#
#
#
# Elastic Constant Matrix: (Units=GPa)
#
#
# Indices 1 2 3 4 5 6 
#
# 1 104.5650 10.7564 9.8036 0.0000 0.0000 0.0000
# 2 10.7564 66.7427 4.1806 0.0000 0.0000 0.0000
# 3 9.8036 4.1806 17.9310 0.0000 0.0000 0.0000
# 4 0.0000 0.0000 0.0000 24.6862 0.0000 0.0000
# 5 0.0000 0.0000 0.0000 0.0000 32.6231 0.0000
# 6 0.0000 0.0000 0.0000 0.0000 0.0000 37.0282
#
#
#
# Elastic Compliance Matrix: (Units=1/GPa)
#
#
# Indices 1 2 3 4 5 6 
#
# 1 0.010192 -0.001313 -0.005266 0.000000 0.000000 0.000000
# 2 -0.001313 0.015374 -0.002867 0.000000 0.000000 0.000000
# 3 -0.005266 -0.002867 0.059317 0.000000 0.000000 0.000000
# 4 0.000000 0.000000 0.000000 0.040508 0.000000 0.000000
# 5 0.000000 0.000000 0.000000 0.000000 0.030653 0.000000
# 6 0.000000 0.000000 0.000000 0.000000 0.000000 0.027006
#
#
# Mechanical properties :
#
#
# Convention : Reuss Voigt Hill
#
# Bulk Modulus (GPa) = 15.15343 26.52441 20.83892
# Shear Modulus (GPa) = 22.32738 29.83406 26.08072
#
# Velocity S-wave (km/s) = 3.19965 3.69862 3.45814
# Velocity P-wave (km/s) = 4.53857 5.51379 5.04978
#
# Compressibility (1/GPa) = 0.06599166
#
# Stress axis : x y z
#
# Youngs Moduli (GPa) = 98.11398 65.04475 16.85854
#
# Poissons Ratio (x) = 0.08539 0.08878
# Poissons Ratio (y) = 0.12880 0.04833
# Poissons Ratio (z) = 0.51671 0.18646
#
# Static dielectric constant tensor:
#      x y z
#    x 4.245480 0.000000 0.000000 
#    y 0.000000 4.051970 0.000000 
#    z 0.000000 0.000000 3.600860 
# 
# 
# High freq. dielectric constant tensor:
#      x y z
#    x 1.872740 0.000000 0.000000 
#    y 0.000000 1.859460 0.000000 
#    z 0.000000 0.000000 1.828110 
# 
# From -- ./inp_files/3973.got.cif
#   From: 2010.03.12/outbox.cif.g09.slc.cpg/sg19_2_cif.got.tgz:3973.got - 2010.04.10 18:59:41.
