data_PCOD8157478
_publ_section_title
;
Structure prediction by ZEFSAII (Michael W. Deem and Ramdas Pophale) SiO2 
 PCOD8157478
Probable space group: P 21 21 21
;
_chemical_formula_sum "Si O2"
_cell_formula_units_Z 32
_cell_length_a 11.452554
_cell_length_b 8.380708
_cell_length_c 14.745381
_cell_angle_alpha 90.000000
_cell_angle_beta 90.000000
_cell_angle_gamma 90.000000
_cell_volume 1415.269202
_symmetry_space_group_name_H-M "P 21 21 21"
_symmetry_group_IT_number 19
_symmetry_cell_setting 'orthorhombic'
loop_
_space_group_symop_operation_xyz
x,y,z
1/2-x,-y,1/2+z
1/2+x,1/2-y,-z
-x,1/2+y,1/2-z
loop_
_atom_site_type_symbol
_atom_site_label
_atom_site_fract_x
_atom_site_fract_y
_atom_site_fract_z
Si Si1 0.304962 0.081603 0.094724
Si Si2 0.949327 0.694187 0.861066
Si Si3 0.443873 0.996718 0.630884
Si Si4 0.870995 0.138001 0.788643
Si Si5 0.266577 0.342251 0.733561
Si Si6 0.206503 0.918392 0.388462
Si Si7 0.961255 0.486183 0.567722
Si Si8 0.482697 0.835641 0.810519
O O1 0.293233 0.225061 0.165826
O O2 0.427530 0.987395 0.108242
O O3 0.194927 0.965606 0.118946
O O4 0.308483 0.143691 0.991297
O O5 0.823773 0.757304 0.831715
O O6 0.038648 0.716026 0.779416
O O7 0.006654 0.797342 0.942577
O O8 0.522297 0.148630 0.661693
O O9 0.479010 0.934183 0.530854
O O10 0.459648 0.854221 0.702512
O O11 0.941869 0.057483 0.868486
O O12 0.788864 0.011884 0.735345
O O13 0.300703 0.230961 0.819818
O O14 0.382014 0.385098 0.674913
O O15 0.335150 0.996017 0.384637
O O16 0.109069 0.053312 0.365013
#
# Coordination Sequence:
#
# PCOD8157478 Si02
#       8
#     4   4   4   4   4   4   4   4
#     4  11  24  45  69 104 138 178 231 292 351 404
#     4  11  21  44  71  99 138 175 236 285 344 408
#     4  11  26  43  68  98 140 180 229 286 341 428
#     4  11  25  41  75 100 134 186 229 282 354 406
#     4  11  24  44  65 102 135 182 234 280 334 428
#     4  11  24  45  72  99 143 182 229 290 347 414
#     4  10  24  44  68 103 135 175 235 293 342 404
#     4  12  24  44  70  93 141 188 227 278 357 412
#
# _framework density 22.610537999999998
#
# number of rings (size 3 to 8) (size 9 to 14) (size 15 to 20)
#    0.000    1.000    3.750    2.250    5.250    0.000 
#    2.250    1.250    0.000    0.000    0.000    0.000 
#    0.000    0.000    0.000    0.000    0.000    0.000 
#
# Total GULP energy -396489.690107 kJ/mol
# GULP energy per Si atom -12390.302816 kJ/mol
# Density = 2.255908 g / cm^3
# Si number density = 22.610538 Si / 1000 Ang^3
#
#
#
# Elastic Constant Matrix: (Units=GPa)
#
#
# Indices 1 2 3 4 5 6 
#
# 1 86.1211 31.2291 34.6879 0.0000 0.0000 0.0000
# 2 31.2291 90.3966 32.0605 0.0000 0.0000 0.0000
# 3 34.6879 32.0605 90.5295 0.0000 0.0000 0.0000
# 4 0.0000 0.0000 0.0000 27.2040 0.0000 0.0000
# 5 0.0000 0.0000 0.0000 0.0000 32.7403 0.0000
# 6 0.0000 0.0000 0.0000 0.0000 0.0000 36.5521
#
#
#
# Elastic Compliance Matrix: (Units=1/GPa)
#
#
# Indices 1 2 3 4 5 6 
#
# 1 0.014644 -0.003510 -0.004368 0.000000 0.000000 0.000000
# 2 -0.003510 0.013493 -0.003434 0.000000 0.000000 0.000000
# 3 -0.004368 -0.003434 0.013936 0.000000 0.000000 0.000000
# 4 0.000000 0.000000 0.000000 0.036759 0.000000 0.000000
# 5 0.000000 0.000000 0.000000 0.000000 0.030543 0.000000
# 6 0.000000 0.000000 0.000000 0.000000 0.000000 0.027358
#
#
# Mechanical properties :
#
#
# Convention : Reuss Voigt Hill
#
# Bulk Modulus (GPa) = 51.41524 51.44470 51.42997
# Shear Modulus (GPa) = 30.14981 30.57059 30.36020
#
# Velocity S-wave (km/s) = 3.65559 3.68101 3.66832
# Velocity P-wave (km/s) = 6.37234 6.39284 6.38260
#
# Compressibility (1/GPa) = 0.01944949
#
# Stress axis : x y z
#
# Youngs Moduli (GPa) = 68.28927 74.11462 71.75786
#
# Poissons Ratio (x) = 0.26012 0.31344
# Poissons Ratio (y) = 0.23968 0.24638
# Poissons Ratio (z) = 0.29829 0.25447
#
# Static dielectric constant tensor:
#      x y z
#    x 4.330700 0.000000 0.000000 
#    y 0.000000 4.233120 0.000000 
#    z 0.000000 0.000000 4.024960 
# 
# 
# High freq. dielectric constant tensor:
#      x y z
#    x 1.906790 0.000000 0.000000 
#    y 0.000000 1.883480 0.000000 
#    z 0.000000 0.000000 1.885810 
# 
# From -- ./inp_files/6162.got.cif
#   From: 2010.03.12/outbox.cif.g09.slc.cpg/sg19_4_cif.got.tgz:6162.got - 2010.04.10 18:59:41.
