data_PCOD8157642
_publ_section_title
;
Structure prediction by ZEFSAII (Michael W. Deem and Ramdas Pophale) SiO2 
 PCOD8157642
Probable space group: P 21 21 21
;
_chemical_formula_sum "Si O2"
_cell_formula_units_Z 32
_cell_length_a 22.776964
_cell_length_b 5.114721
_cell_length_c 11.889467
_cell_angle_alpha 90.000000
_cell_angle_beta 90.000000
_cell_angle_gamma 90.000000
_cell_volume 1385.096940
_symmetry_space_group_name_H-M "P 21 21 21"
_symmetry_group_IT_number 19
_symmetry_cell_setting 'orthorhombic'
loop_
_space_group_symop_operation_xyz
x,y,z
1/2-x,-y,1/2+z
1/2+x,1/2-y,-z
-x,1/2+y,1/2-z
loop_
_atom_site_type_symbol
_atom_site_label
_atom_site_fract_x
_atom_site_fract_y
_atom_site_fract_z
Si Si1 0.350936 0.255236 0.159912
Si Si2 0.776937 0.736355 0.865506
Si Si3 0.173397 0.027422 0.233927
Si Si4 0.764317 0.876312 0.103392
Si Si5 0.370290 0.425934 0.392837
Si Si6 0.903915 0.582892 0.473520
Si Si7 0.876001 0.205594 0.083709
Si Si8 0.989225 0.989866 0.177777
O O1 0.300127 0.471221 0.147368
O O2 0.391095 0.339688 0.267065
O O3 0.322134 0.974016 0.186232
O O4 0.390813 0.226359 0.046745
O O5 0.713116 0.719333 0.806047
O O6 0.768765 0.674200 0.998509
O O7 0.125088 0.949843 0.329315
O O8 0.219461 0.235287 0.280995
O O9 0.138757 0.156945 0.130134
O O10 0.699030 0.992077 0.112961
O O11 0.809338 0.109420 0.083034
O O12 0.403064 0.687315 0.433882
O O13 0.383643 0.192288 0.477322
O O14 0.969744 0.556916 0.427827
O O15 0.922663 0.996575 0.130812
O O16 0.997358 0.201336 0.277003
#
# Coordination Sequence:
#
# PCOD8157642 Si02
#       8
#     4   4   4   4   4   4   4   4
#     4  11  24  43  63  96 138 180 223 274 344 418
#     4  11  23  36  61  98 139 175 218 273 343 428
#     4  12  23  40  67 104 134 185 228 293 351 422
#     4  11  24  38  68 103 145 180 228 286 363 429
#     4  12  26  44  66 100 145 189 224 284 353 442
#     4  12  28  44  70 102 141 186 240 289 358 418
#     4  11  26  43  71 104 134 184 238 300 351 417
#     4  12  26  50  74 103 140 181 239 303 357 412
#
# _framework density 23.103076999999999
#
# number of rings (size 3 to 8) (size 9 to 14) (size 15 to 20)
#    0.000    0.500    5.000    3.000    7.000    0.000 
#    0.000    1.250    0.000    0.000    0.000    0.000 
#    0.000    0.000    0.000    0.000    0.000    0.000 
#
# Total GULP energy -396782.255698 kJ/mol
# GULP energy per Si atom -12399.445491 kJ/mol
# Density = 2.305049 g / cm^3
# Si number density = 23.103077 Si / 1000 Ang^3
#
#
#
# Elastic Constant Matrix: (Units=GPa)
#
#
# Indices 1 2 3 4 5 6 
#
# 1 48.2071 8.1440 17.5301 0.0000 0.0000 0.0000
# 2 8.1440 65.6871 7.6036 0.0000 0.0000 0.0000
# 3 17.5301 7.6036 125.8461 0.0000 0.0000 0.0000
# 4 0.0000 0.0000 0.0000 28.2596 0.0000 0.0000
# 5 0.0000 0.0000 0.0000 0.0000 36.6616 0.0000
# 6 0.0000 0.0000 0.0000 0.0000 0.0000 21.4388
#
#
#
# Elastic Compliance Matrix: (Units=1/GPa)
#
#
# Indices 1 2 3 4 5 6 
#
# 1 0.022224 -0.002414 -0.002950 0.000000 0.000000 0.000000
# 2 -0.002414 0.015593 -0.000606 0.000000 0.000000 0.000000
# 3 -0.002950 -0.000606 0.008394 0.000000 0.000000 0.000000
# 4 0.000000 0.000000 0.000000 0.035386 0.000000 0.000000
# 5 0.000000 0.000000 0.000000 0.000000 0.027276 0.000000
# 6 0.000000 0.000000 0.000000 0.000000 0.000000 0.046644
#
#
# Mechanical properties :
#
#
# Convention : Reuss Voigt Hill
#
# Bulk Modulus (GPa) = 29.17865 34.03286 31.60575
# Shear Modulus (GPa) = 27.95141 31.03617 29.49379
#
# Velocity S-wave (km/s) = 3.48207 3.66919 3.57685
# Velocity P-wave (km/s) = 5.36876 5.71957 5.54694
#
# Compressibility (1/GPa) = 0.03427164
#
# Stress axis : x y z
#
# Youngs Moduli (GPa) = 44.99570 64.13091 119.13642
#
# Poissons Ratio (x) = 0.15481 0.35145
# Poissons Ratio (y) = 0.10862 0.07218
# Poissons Ratio (z) = 0.13273 0.03886
#
# Static dielectric constant tensor:
#      x y z
#    x 3.901400 0.000000 0.000000 
#    y 0.000000 3.835320 0.000000 
#    z 0.000000 0.000000 4.992580 
# 
# 
# High freq. dielectric constant tensor:
#      x y z
#    x 1.877330 0.000000 0.000000 
#    y 0.000000 1.908300 0.000000 
#    z 0.000000 0.000000 1.937730 
# 
# From -- ./inp_files/1176.got.cif
#   From: 2010.03.12/outbox.cif.g09.slc.cpg/sg19_1_cif.got.tgz:1176.got - 2010.04.10 18:59:41.
