data_PCOD8157521
_publ_section_title
;
Structure prediction by ZEFSAII (Michael W. Deem and Ramdas Pophale) SiO2 
 PCOD8157521
Probable space group: P 21 21 21
;
_chemical_formula_sum "Si O2"
_cell_formula_units_Z 32
_cell_length_a 8.353072
_cell_length_b 15.970787
_cell_length_c 11.194169
_cell_angle_alpha 90.000000
_cell_angle_beta 90.000000
_cell_angle_gamma 90.000000
_cell_volume 1493.359612
_symmetry_space_group_name_H-M "P 21 21 21"
_symmetry_group_IT_number 19
_symmetry_cell_setting 'orthorhombic'
loop_
_space_group_symop_operation_xyz
x,y,z
1/2-x,-y,1/2+z
1/2+x,1/2-y,-z
-x,1/2+y,1/2-z
loop_
_atom_site_type_symbol
_atom_site_label
_atom_site_fract_x
_atom_site_fract_y
_atom_site_fract_z
Si Si1 0.904751 0.008769 0.562731
Si Si2 0.100147 0.275394 0.499099
Si Si3 0.431536 0.104179 0.678000
Si Si4 0.072906 0.565795 0.361554
Si Si5 0.434416 0.845725 0.193951
Si Si6 0.409521 0.814341 0.459100
Si Si7 0.411035 0.350736 0.617899
Si Si8 0.460475 0.148068 0.943545
O O1 0.007203 0.926604 0.536394
O O2 0.728800 0.985216 0.603245
O O3 0.908808 0.057826 0.438066
O O4 0.975075 0.067368 0.666914
O O5 0.004762 0.231569 0.610625
O O6 0.274292 0.294351 0.553547
O O7 0.026193 0.358202 0.437610
O O8 0.079756 0.200078 0.399970
O O9 0.439488 0.003158 0.674171
O O10 0.251837 0.136689 0.670272
O O11 0.506652 0.130907 0.805476
O O12 0.113070 0.634224 0.258696
O O13 0.009187 0.615351 0.474027
O O14 0.477380 0.816496 0.325689
O O15 0.223857 0.832950 0.459350
O O16 0.428972 0.724229 0.516994
#
# Coordination Sequence:
#
# PCOD8157521 Si02
#       8
#     4   4   4   4   4   4   4   4
#     4  11  24  42  69  99 138 171 229 283 341 412
#     4  11  22  43  68  99 134 173 229 281 341 412
#     4  11  22  43  70  95 137 179 226 288 340 417
#     4  12  25  43  70  99 138 182 230 285 351 408
#     4  10  25  44  65  99 137 176 232 284 344 410
#     4  11  26  45  68  97 138 183 229 284 346 405
#     4  11  24  44  67 104 132 182 227 287 343 414
#     4  11  24  46  67  98 138 180 230 284 344 414
#
# _framework density 21.428193
#
# number of rings (size 3 to 8) (size 9 to 14) (size 15 to 20)
#    0.000    1.000    3.750    2.250    5.250    1.000 
#    4.500    1.250    0.000    0.000    0.000    0.000 
#    0.000    0.000    0.000    0.000    0.000    0.000 
#
# Total GULP energy -396586.736911 kJ/mol
# GULP energy per Si atom -12393.335528 kJ/mol
# Density = 2.137942 g / cm^3
# Si number density = 21.428193 Si / 1000 Ang^3
#
#
#
# Elastic Constant Matrix: (Units=GPa)
#
#
# Indices 1 2 3 4 5 6 
#
# 1 48.2591 28.2314 30.3592 0.0000 0.0000 0.0000
# 2 28.2314 133.0397 52.2818 0.0000 0.0000 0.0000
# 3 30.3592 52.2818 102.7967 0.0000 0.0000 0.0000
# 4 0.0000 0.0000 0.0000 35.5165 0.0000 0.0000
# 5 0.0000 0.0000 0.0000 0.0000 27.5624 0.0000
# 6 0.0000 0.0000 0.0000 0.0000 0.0000 49.8824
#
#
#
# Elastic Compliance Matrix: (Units=1/GPa)
#
#
# Indices 1 2 3 4 5 6 
#
# 1 0.026486 -0.003183 -0.006204 0.000000 0.000000 0.000000
# 2 -0.003183 0.009777 -0.004032 0.000000 0.000000 0.000000
# 3 -0.006204 -0.004032 0.013611 0.000000 0.000000 0.000000
# 4 0.000000 0.000000 0.000000 0.028156 0.000000 0.000000
# 5 0.000000 0.000000 0.000000 0.000000 0.036281 0.000000
# 6 0.000000 0.000000 0.000000 0.000000 0.000000 0.020047
#
#
# Mechanical properties :
#
#
# Convention : Reuss Voigt Hill
#
# Bulk Modulus (GPa) = 43.40956 56.20448 49.80702
# Shear Modulus (GPa) = 29.60800 34.14047 31.87423
#
# Velocity S-wave (km/s) = 3.72120 3.99588 3.86098
# Velocity P-wave (km/s) = 6.22617 6.89751 6.57042
#
# Compressibility (1/GPa) = 0.02303640
#
# Stress axis : x y z
#
# Youngs Moduli (GPa) = 37.75603 102.28577 73.47060
#
# Poissons Ratio (x) = 0.32553 0.45578
# Poissons Ratio (y) = 0.12016 0.29626
# Poissons Ratio (z) = 0.23422 0.41246
#
# Static dielectric constant tensor:
#      x y z
#    x 3.816790 0.000000 0.000000 
#    y 0.000000 4.228810 0.000000 
#    z 0.000000 0.000000 4.077130 
# 
# 
# High freq. dielectric constant tensor:
#      x y z
#    x 1.829840 0.000000 0.000000 
#    y 0.000000 1.860010 0.000000 
#    z 0.000000 0.000000 1.849040 
# 
# From -- ./inp_files/4681.got.cif
#   From: 2010.03.12/outbox.cif.g09.slc.cpg/sg19_3_cif.got.tgz:4681.got - 2010.04.10 18:59:41.
