data_PCOD8157619
_publ_section_title
;
Structure prediction by ZEFSAII (Michael W. Deem and Ramdas Pophale) SiO2 
 PCOD8157619
Probable space group: P 21 21 21
;
_chemical_formula_sum "Si O2"
_cell_formula_units_Z 32
_cell_length_a 11.572715
_cell_length_b 8.530647
_cell_length_c 14.594380
_cell_angle_alpha 90.000000
_cell_angle_beta 90.000000
_cell_angle_gamma 90.000000
_cell_volume 1440.797277
_symmetry_space_group_name_H-M "P 21 21 21"
_symmetry_group_IT_number 19
_symmetry_cell_setting 'orthorhombic'
loop_
_space_group_symop_operation_xyz
x,y,z
1/2-x,-y,1/2+z
1/2+x,1/2-y,-z
-x,1/2+y,1/2-z
loop_
_atom_site_type_symbol
_atom_site_label
_atom_site_fract_x
_atom_site_fract_y
_atom_site_fract_z
Si Si1 0.836871 0.367042 0.325700
Si Si2 0.752097 0.830911 0.198126
Si Si3 0.037900 0.218013 0.424840
Si Si4 0.360242 0.800004 0.623871
Si Si5 0.585289 0.616398 0.632704
Si Si6 0.147726 0.350823 0.750004
Si Si7 0.452178 0.139306 0.389990
Si Si8 0.333147 0.814753 0.424886
O O1 0.833925 0.515570 0.393353
O O2 0.886327 0.448522 0.233691
O O3 0.714435 0.284581 0.307299
O O4 0.920737 0.237586 0.367826
O O5 0.856735 0.804772 0.126962
O O6 0.772939 0.756372 0.298052
O O7 0.635945 0.763922 0.153140
O O8 0.736286 0.013651 0.219986
O O9 0.024913 0.284848 0.527026
O O10 0.053417 0.030662 0.431116
O O11 0.490771 0.752062 0.647578
O O12 0.344574 0.726980 0.522351
O O13 0.697502 0.699088 0.593450
O O14 0.098629 0.277763 0.844810
O O15 0.042368 0.413188 0.688715
O O16 0.381066 0.991311 0.426078
#
# Coordination Sequence:
#
# PCOD8157619 Si02
#       8
#     4   4   4   4   4   4   4   4
#     4  11  22  44  71 105 141 187 241 309 359 436
#     4  12  26  48  74 109 142 199 247 311 377 452
#     4  12  25  42  76 102 144 185 257 295 375 441
#     4  12  25  44  74 103 143 187 244 309 370 439
#     4  11  23  44  68 103 139 189 243 306 363 441
#     4  11  28  45  75 102 153 191 252 301 380 439
#     4  12  27  48  72 106 154 198 243 308 380 449
#     4  11  26  47  68 108 144 192 247 301 372 449
#
# _framework density 22.209924000000001
#
# number of rings (size 3 to 8) (size 9 to 14) (size 15 to 20)
#    0.000    0.500    5.000    2.250    8.750    3.000 
#    0.000    0.000    0.000    0.000    0.000    0.000 
#    0.000    0.000    0.000    0.000    0.000    0.000 
#
# Total GULP energy -396737.360544 kJ/mol
# GULP energy per Si atom -12398.042517 kJ/mol
# Density = 2.215937 g / cm^3
# Si number density = 22.209924 Si / 1000 Ang^3
#
#
#
# Elastic Constant Matrix: (Units=GPa)
#
#
# Indices 1 2 3 4 5 6 
#
# 1 77.7037 21.9091 50.7839 0.0000 0.0000 0.0000
# 2 21.9091 81.0355 17.4501 0.0000 0.0000 0.0000
# 3 50.7839 17.4501 141.6558 0.0000 0.0000 0.0000
# 4 0.0000 0.0000 0.0000 31.0769 0.0000 0.0000
# 5 0.0000 0.0000 0.0000 0.0000 25.7954 0.0000
# 6 0.0000 0.0000 0.0000 0.0000 0.0000 30.7487
#
#
#
# Elastic Compliance Matrix: (Units=1/GPa)
#
#
# Indices 1 2 3 4 5 6 
#
# 1 0.017733 -0.003519 -0.005924 0.000000 0.000000 0.000000
# 2 -0.003519 0.013375 -0.000386 0.000000 0.000000 0.000000
# 3 -0.005924 -0.000386 0.009231 0.000000 0.000000 0.000000
# 4 0.000000 0.000000 0.000000 0.032178 0.000000 0.000000
# 5 0.000000 0.000000 0.000000 0.000000 0.038767 0.000000
# 6 0.000000 0.000000 0.000000 0.000000 0.000000 0.032522
#
#
# Mechanical properties :
#
#
# Convention : Reuss Voigt Hill
#
# Bulk Modulus (GPa) = 48.35353 53.40903 50.88128
# Shear Modulus (GPa) = 29.35025 31.54101 30.44563
#
# Velocity S-wave (km/s) = 3.63918 3.77255 3.70646
# Velocity P-wave (km/s) = 6.28304 6.56321 6.42465
#
# Compressibility (1/GPa) = 0.02068102
#
# Stress axis : x y z
#
# Youngs Moduli (GPa) = 56.39152 74.76769 108.33459
#
# Poissons Ratio (x) = 0.26309 0.64176
# Poissons Ratio (y) = 0.19843 0.04183
# Poissons Ratio (z) = 0.33406 0.02887
#
# Static dielectric constant tensor:
#      x y z
#    x 3.885420 0.000000 0.000000 
#    y 0.000000 3.853820 0.000000 
#    z 0.000000 0.000000 4.365010 
# 
# 
# High freq. dielectric constant tensor:
#      x y z
#    x 1.868750 0.000000 0.000000 
#    y 0.000000 1.871150 0.000000 
#    z 0.000000 0.000000 1.892020 
# 
# From -- ./inp_files/6102.got.cif
#   From: 2010.03.12/outbox.cif.g09.slc.cpg/sg19_4_cif.got.tgz:6102.got - 2010.04.10 18:59:41.
