data_PCOD8157143
_publ_section_title
;
Structure prediction by ZEFSAII (Michael W. Deem and Ramdas Pophale) SiO2 
 PCOD8157143
Probable space group: P 21 21 21
;
_chemical_formula_sum "Si O2"
_cell_formula_units_Z 28
_cell_length_a 8.510813
_cell_length_b 12.394351
_cell_length_c 12.534410
_cell_angle_alpha 90.000000
_cell_angle_beta 90.000000
_cell_angle_gamma 90.000000
_cell_volume 1322.204819
_symmetry_space_group_name_H-M "P 21 21 21"
_symmetry_group_IT_number 19
_symmetry_cell_setting 'orthorhombic'
loop_
_space_group_symop_operation_xyz
x,y,z
1/2-x,-y,1/2+z
1/2+x,1/2-y,-z
-x,1/2+y,1/2-z
loop_
_atom_site_type_symbol
_atom_site_label
_atom_site_fract_x
_atom_site_fract_y
_atom_site_fract_z
Si Si1 0.916894 0.173601 0.281805
Si Si2 0.753654 0.380392 0.782545
Si Si3 0.823799 0.106995 0.060422
Si Si4 0.278772 0.874509 0.262104
Si Si5 0.262496 0.631922 0.014577
Si Si6 0.967884 0.249726 0.638131
Si Si7 0.657228 0.309452 0.005442
O O1 0.832897 0.104871 0.188545
O O2 0.861138 0.297602 0.278012
O O3 0.863611 0.118797 0.391345
O O4 0.103666 0.174233 0.273373
O O5 0.735404 0.508098 0.778487
O O6 0.907961 0.341940 0.719349
O O7 0.764519 0.347410 0.906314
O O8 0.676841 0.180338 0.023064
O O9 0.976407 0.167678 0.016107
O O10 0.813675 0.986661 0.019118
O O11 0.442807 0.838983 0.208799
O O12 0.288088 0.874448 0.390060
O O13 0.417434 0.696831 0.050764
O O14 0.180742 0.694170 0.917488
#
# Coordination Sequence:
#
# PCOD8157143 Si02
#       7
#     4   4   4   4   4   4   4
#     4   9  23  41  59  91 124 161 211 252 308 382
#     4  11  23  40  66  92 125 167 207 259 315 367
#     4  10  22  39  62  87 121 162 204 257 312 364
#     4  10  23  42  62  91 129 163 208 260 308 369
#     4  11  24  43  65  90 129 167 205 263 315 363
#     4  11  25  41  64  96 124 164 218 253 307 385
#     4  10  22  40  62  91 122 160 211 256 305 372
#
# _framework density 21.176748
#
# number of rings (size 3 to 8) (size 9 to 14) (size 15 to 20)
#    0.000    1.714    0.000    2.571    0.000   20.571 
#    0.000    0.000    0.000    0.000    0.000    0.000 
#    0.000    0.000    0.000    0.000    0.000    0.000 
#
# Total GULP energy -347317.239470 kJ/mol
# GULP energy per Si atom -12404.187124 kJ/mol
# Density = 2.112855 g / cm^3
# Si number density = 21.176748 Si / 1000 Ang^3
#
#
#
# Elastic Constant Matrix: (Units=GPa)
#
#
# Indices 1 2 3 4 5 6 
#
# 1 92.2663 47.8062 33.8750 0.0000 0.0000 0.0000
# 2 47.8062 113.4013 48.4115 0.0000 0.0000 0.0000
# 3 33.8750 48.4115 105.4253 0.0000 0.0000 0.0000
# 4 0.0000 0.0000 0.0000 20.6422 0.0000 0.0000
# 5 0.0000 0.0000 0.0000 0.0000 36.0960 0.0000
# 6 0.0000 0.0000 0.0000 0.0000 0.0000 27.6369
#
#
#
# Elastic Compliance Matrix: (Units=1/GPa)
#
#
# Indices 1 2 3 4 5 6 
#
# 1 0.014291 -0.005055 -0.002271 0.000000 0.000000 0.000000
# 2 -0.005055 0.012757 -0.004234 0.000000 0.000000 0.000000
# 3 -0.002271 -0.004234 0.012159 0.000000 0.000000 0.000000
# 4 0.000000 0.000000 0.000000 0.048444 0.000000 0.000000
# 5 0.000000 0.000000 0.000000 0.000000 0.027704 0.000000
# 6 0.000000 0.000000 0.000000 0.000000 0.000000 0.036184
#
#
# Mechanical properties :
#
#
# Convention : Reuss Voigt Hill
#
# Bulk Modulus (GPa) = 62.15824 63.47536 62.81680
# Shear Modulus (GPa) = 27.77463 28.94170 28.35817
#
# Velocity S-wave (km/s) = 3.62548 3.70087 3.66337
# Velocity P-wave (km/s) = 6.85137 6.94989 6.90081
#
# Compressibility (1/GPa) = 0.01608797
#
# Stress axis : x y z
#
# Youngs Moduli (GPa) = 69.97329 78.39001 82.24351
#
# Poissons Ratio (x) = 0.39629 0.18674
# Poissons Ratio (y) = 0.35374 0.34818
# Poissons Ratio (z) = 0.15888 0.33187
#
# Static dielectric constant tensor:
#      x y z
#    x 3.855520 0.000000 0.000000 
#    y 0.000000 3.616690 0.000000 
#    z 0.000000 0.000000 4.103930 
# 
# 
# High freq. dielectric constant tensor:
#      x y z
#    x 1.833480 0.000000 0.000000 
#    y 0.000000 1.823480 0.000000 
#    z 0.000000 0.000000 1.847740 
# 
# From -- ./inp_files/3458.got.cif
#   From: 2010.03.12/outbox.cif.g09.slc.cpg/sg19_2_cif.got.tgz:3458.got - 2010.04.10 18:59:41.
