data_PCOD8157375
_publ_section_title
;
Structure prediction by ZEFSAII (Michael W. Deem and Ramdas Pophale) SiO2 
 PCOD8157375
Probable space group: P 21 21 21
;
_chemical_formula_sum "Si O2"
_cell_formula_units_Z 28
_cell_length_a 5.292562
_cell_length_b 10.734570
_cell_length_c 20.629045
_cell_angle_alpha 90.000000
_cell_angle_beta 90.000000
_cell_angle_gamma 90.000000
_cell_volume 1172.005716
_symmetry_space_group_name_H-M "P 21 21 21"
_symmetry_group_IT_number 19
_symmetry_cell_setting 'orthorhombic'
loop_
_space_group_symop_operation_xyz
x,y,z
1/2-x,-y,1/2+z
1/2+x,1/2-y,-z
-x,1/2+y,1/2-z
loop_
_atom_site_type_symbol
_atom_site_label
_atom_site_fract_x
_atom_site_fract_y
_atom_site_fract_z
Si Si1 0.438040 0.431147 0.716834
Si Si2 0.131172 0.933510 0.534875
Si Si3 0.941409 0.287957 0.678502
Si Si4 0.650527 0.838133 0.301782
Si Si5 0.171492 0.196837 0.916297
Si Si6 0.060008 0.126386 0.145973
Si Si7 0.069330 0.697661 0.966603
O O1 0.707003 0.380876 0.693369
O O2 0.398228 0.573955 0.694625
O O3 0.400968 0.434830 0.795706
O O4 0.208896 0.355985 0.684601
O O5 0.274308 0.913579 0.467089
O O6 0.328208 0.970709 0.593018
O O7 0.008715 0.800692 0.551855
O O8 0.934897 0.046842 0.527798
O O9 0.953356 0.169671 0.728034
O O10 0.901331 0.234583 0.607613
O O11 0.445975 0.878930 0.355363
O O12 0.710515 0.694814 0.317821
O O13 0.420974 0.266477 0.893976
O O14 0.810218 0.754018 0.994254
#
# Coordination Sequence:
#
# PCOD8157375 Si02
#       7
#     4   4   4   4   4   4   4
#     4  11  25  44  75 105 150 195 246 315 371 450
#     4  11  26  44  77 104 154 196 251 318 366 456
#     4  11  26  48  69 110 149 196 250 305 381 448
#     4  10  25  42  75 106 145 193 248 314 378 445
#     4  11  22  45  71 112 143 193 252 311 385 431
#     4  10  23  43  67 111 143 192 251 303 383 439
#     4  12  31  52  76 110 154 211 258 302 380 465
#
# _framework density 23.890668000000002
#
# number of rings (size 3 to 8) (size 9 to 14) (size 15 to 20)
#    0.000    1.143    2.857    0.857    8.000    3.429 
#    0.000    0.000    0.000    0.000    0.000    0.000 
#    0.000    0.000    0.000    0.000    0.000    0.000 
#
# Total GULP energy -347051.085155 kJ/mol
# GULP energy per Si atom -12394.681613 kJ/mol
# Density = 2.383629 g / cm^3
# Si number density = 23.890668 Si / 1000 Ang^3
#
#
#
# Elastic Constant Matrix: (Units=GPa)
#
#
# Indices 1 2 3 4 5 6 
#
# 1 87.6255 11.4172 34.6608 0.0000 0.0000 0.0000
# 2 11.4172 63.4863 39.6965 0.0000 0.0000 0.0000
# 3 34.6608 39.6965 169.4555 0.0000 0.0000 0.0000
# 4 0.0000 0.0000 0.0000 13.8242 0.0000 0.0000
# 5 0.0000 0.0000 0.0000 0.0000 38.4158 0.0000
# 6 0.0000 0.0000 0.0000 0.0000 0.0000 35.9506
#
#
#
# Elastic Compliance Matrix: (Units=1/GPa)
#
#
# Indices 1 2 3 4 5 6 
#
# 1 0.012448 -0.000758 -0.002369 0.000000 0.000000 0.000000
# 2 -0.000758 0.018501 -0.004179 0.000000 0.000000 0.000000
# 3 -0.002369 -0.004179 0.007365 0.000000 0.000000 0.000000
# 4 0.000000 0.000000 0.000000 0.072337 0.000000 0.000000
# 5 0.000000 0.000000 0.000000 0.000000 0.026031 0.000000
# 6 0.000000 0.000000 0.000000 0.000000 0.000000 0.027816
#
#
# Mechanical properties :
#
#
# Convention : Reuss Voigt Hill
#
# Bulk Modulus (GPa) = 42.18895 54.67959 48.43427
# Shear Modulus (GPa) = 26.73674 33.29097 30.01386
#
# Velocity S-wave (km/s) = 3.34897 3.73697 3.54828
# Velocity P-wave (km/s) = 5.71416 6.44648 6.09133
#
# Compressibility (1/GPa) = 0.02370289
#
# Stress axis : x y z
#
# Youngs Moduli (GPa) = 80.33518 54.05201 135.78250
#
# Poissons Ratio (x) = 0.04095 0.32162
# Poissons Ratio (y) = 0.06085 0.56744
# Poissons Ratio (z) = 0.19029 0.22588
#
# Static dielectric constant tensor:
#      x y z
#    x 4.228010 0.000000 0.000000 
#    y 0.000000 4.078810 0.000000 
#    z 0.000000 0.000000 4.951330 
# 
# 
# High freq. dielectric constant tensor:
#      x y z
#    x 1.946450 0.000000 0.000000 
#    y 0.000000 1.928660 0.000000 
#    z 0.000000 0.000000 1.974420 
# 
# From -- ./inp_files/6894.got.cif
#   From: 2010.03.12/outbox.cif.g09.slc.cpg/sg19_4_cif.got.tgz:6894.got - 2010.04.10 18:59:41.
