data_PCOD8157840
_publ_section_title
;
Structure prediction by ZEFSAII (Michael W. Deem and Ramdas Pophale) SiO2 
 PCOD8157840
Probable space group: P 21 21 21
;
_chemical_formula_sum "Si O2"
_cell_formula_units_Z 20
_cell_length_a 10.028843
_cell_length_b 7.284103
_cell_length_c 11.489467
_cell_angle_alpha 90.000000
_cell_angle_beta 90.000000
_cell_angle_gamma 90.000000
_cell_volume 839.318494
_symmetry_space_group_name_H-M "P 21 21 21"
_symmetry_group_IT_number 19
_symmetry_cell_setting 'orthorhombic'
loop_
_space_group_symop_operation_xyz
x,y,z
1/2-x,-y,1/2+z
1/2+x,1/2-y,-z
-x,1/2+y,1/2-z
loop_
_atom_site_type_symbol
_atom_site_label
_atom_site_fract_x
_atom_site_fract_y
_atom_site_fract_z
Si Si1 0.863558 0.948871 0.463016
Si Si2 0.325781 0.862030 0.701744
Si Si3 0.414758 0.586063 0.093589
Si Si4 0.477991 0.203070 0.635655
Si Si5 0.452463 0.977280 0.181869
O O1 0.707018 0.993075 0.475223
O O2 0.912485 0.095829 0.367350
O O3 0.943824 0.956548 0.583570
O O4 0.878743 0.742531 0.413817
O O5 0.373544 0.737494 0.811480
O O6 0.391285 0.063582 0.712971
O O7 0.165607 0.874371 0.700104
O O8 0.382184 0.785164 0.149868
O O9 0.470591 0.455036 0.195494
O O10 0.523839 0.620439 0.994077
#
# Coordination Sequence:
#
# PCOD8157840 Si02
#       5
#     4   4   4   4   4
#     4  11  26  47  71 108 147 192 252 313 370 439
#     4  12  25  48  73 107 147 202 249 301 380 439
#     4  11  26  48  73 110 150 195 248 316 368 446
#     4  11  26  46  72 107 150 193 248 315 368 437
#     4  11  27  47  77 108 148 202 249 307 374 451
#
# _framework density 23.828855000000001
#
# number of rings (size 3 to 8) (size 9 to 14) (size 15 to 20)
#    0.000    0.800    4.000    1.200   14.000    0.000 
#    0.000    0.000    0.000    0.000    0.000    0.000 
#    0.000    0.000    0.000    0.000    0.000    0.000 
#
# Total GULP energy -247931.657343 kJ/mol
# GULP energy per Si atom -12396.582867 kJ/mol
# Density = 2.377462 g / cm^3
# Si number density = 23.828855 Si / 1000 Ang^3
#
#
#
# Elastic Constant Matrix: (Units=GPa)
#
#
# Indices 1 2 3 4 5 6 
#
# 1 123.7200 39.1168 42.1313 0.0000 0.0000 0.0000
# 2 39.1168 83.4758 20.8687 0.0000 0.0000 0.0000
# 3 42.1313 20.8687 101.4114 0.0000 0.0000 0.0000
# 4 0.0000 0.0000 0.0000 34.3878 0.0000 0.0000
# 5 0.0000 0.0000 0.0000 0.0000 39.9974 0.0000
# 6 0.0000 0.0000 0.0000 0.0000 0.0000 41.7762
#
#
#
# Elastic Compliance Matrix: (Units=1/GPa)
#
#
# Indices 1 2 3 4 5 6 
#
# 1 0.010581 -0.004069 -0.003559 0.000000 0.000000 0.000000
# 2 -0.004069 0.014194 -0.001231 0.000000 0.000000 0.000000
# 3 -0.003559 -0.001231 0.011592 0.000000 0.000000 0.000000
# 4 0.000000 0.000000 0.000000 0.029080 0.000000 0.000000
# 5 0.000000 0.000000 0.000000 0.000000 0.025002 0.000000
# 6 0.000000 0.000000 0.000000 0.000000 0.000000 0.023937
#
#
# Mechanical properties :
#
#
# Convention : Reuss Voigt Hill
#
# Bulk Modulus (GPa) = 53.61451 56.98232 55.29841
# Shear Modulus (GPa) = 36.14841 36.99830 36.57335
#
# Velocity S-wave (km/s) = 3.89910 3.94467 3.92195
# Velocity P-wave (km/s) = 6.54364 6.68672 6.61557
#
# Compressibility (1/GPa) = 0.01865167
#
# Stress axis : x y z
#
# Youngs Moduli (GPa) = 94.50914 70.45380 86.26287
#
# Poissons Ratio (x) = 0.28665 0.30698
# Poissons Ratio (y) = 0.38452 0.10615
# Poissons Ratio (z) = 0.33632 0.08669
#
# Static dielectric constant tensor:
#      x y z
#    x 4.049270 0.000000 0.000000 
#    y 0.000000 4.381440 0.000000 
#    z 0.000000 0.000000 4.008910 
# 
# 
# High freq. dielectric constant tensor:
#      x y z
#    x 1.936180 0.000000 0.000000 
#    y 0.000000 1.959220 0.000000 
#    z 0.000000 0.000000 1.933630 
# 
# From -- ./inp_files/2591.got.cif
#   From: 2010.03.12/outbox.cif.g09.slc.cpg/sg19_2_cif.got.tgz:2591.got - 2010.04.10 18:59:41.
