data_PCOD8158437
_publ_section_title
;
Structure prediction by ZEFSAII (Michael W. Deem and Ramdas Pophale) SiO2 
 PCOD8158437
Probable space group: C 2 2 21
;
_chemical_formula_sum "Si O2"
_cell_formula_units_Z 52
_cell_length_a 21.291416
_cell_length_b 8.128724
_cell_length_c 15.960406
_cell_angle_alpha 90.000000
_cell_angle_beta 90.000000
_cell_angle_gamma 90.000000
_cell_volume 2762.300093
_symmetry_space_group_name_H-M "C 2 2 21"
_symmetry_group_IT_number 20
_symmetry_cell_setting 'orthorhombic'
loop_
_space_group_symop_operation_xyz
x,y,z
-x,-y,1/2+z
x,-y,-z
-x,y,1/2-z
1/2+x,1/2+y,z
1/2-x,1/2-y,1/2+z
1/2+x,1/2-y,-z
1/2-x,1/2+y,1/2-z
loop_
_atom_site_type_symbol
_atom_site_label
_atom_site_fract_x
_atom_site_fract_y
_atom_site_fract_z
Si Si1 0.371007 0.329500 0.038482
Si Si2 0.294507 0.000000 0.000000
Si Si3 0.002379 0.315287 0.986377
Si Si4 0.053326 0.800713 0.180936
Si Si5 0.720982 0.420044 0.841757
Si Si6 0.328677 0.687780 0.778864
Si Si7 0.593764 0.394328 0.917026
O O1 0.443619 0.308101 0.013731
O O2 0.366107 0.357087 0.137333
O O3 0.344835 0.500000 0.000000
O O4 0.334086 0.168219 0.006949
O O5 0.252841 0.023901 0.916697
O O6 0.037362 0.313830 0.897483
O O7 0.978653 0.500000 0.000000
O O8 0.049144 0.259516 0.060889
O O9 0.119423 0.731175 0.217399
O O10 0.000000 0.788291 0.250000
O O11 0.060394 0.990690 0.152217
O O12 0.699359 0.529304 0.764915
O O13 0.770102 0.299479 0.800276
O O14 0.660095 0.326948 0.880769
O O15 0.606991 0.500000 0.000000
#
# Coordination Sequence:
#
# PCOD8158437 Si02
#       7
#     8   4   8   8   8   8   8
#     4  11  22  39  63  93 123 161 204 252 317 369
#     4  10  22  40  62  88 126 162 206 252 294 372
#     4  11  22  38  61  90 122 153 203 257 309 373
#     4  10  19  37  60  83 117 154 199 246 309 356
#     4  10  21  40  59  86 122 158 208 245 307 359
#     4  10  23  37  62  87 120 164 198 259 303 362
#     4   9  19  37  60  83 110 160 197 238 298 366
#
# _framework density 18.824891000000001
#
# number of rings (size 3 to 8) (size 9 to 14) (size 15 to 20)
#    0.000    1.846    3.077    1.385    2.154    1.231 
#    0.000    3.846    0.000    0.000    0.000    0.000 
#    0.000    0.000    0.000    0.000    0.000    0.000 
#
# Total GULP energy -322301.316617 kJ/mol
# GULP energy per Si atom -12396.204485 kJ/mol
# Density = 1.878204 g / cm^3
# Si number density = 18.824891 Si / 1000 Ang^3
#
#
#
# Elastic Constant Matrix: (Units=GPa)
#
#
# Indices 1 2 3 4 5 6 
#
# 1 116.4572 39.3609 42.7035 0.0000 0.0000 0.0000
# 2 39.3609 90.9046 36.7939 0.0000 0.0000 0.0000
# 3 42.7035 36.7939 87.3297 0.0000 0.0000 0.0000
# 4 0.0000 0.0000 0.0000 25.5383 0.0000 0.0000
# 5 0.0000 0.0000 0.0000 0.0000 33.8172 0.0000
# 6 0.0000 0.0000 0.0000 0.0000 0.0000 18.7252
#
#
#
# Elastic Compliance Matrix: (Units=1/GPa)
#
#
# Indices 1 2 3 4 5 6 
#
# 1 0.011171 -0.003166 -0.004129 0.000000 0.000000 0.000000
# 2 -0.003166 0.014159 -0.004418 0.000000 0.000000 0.000000
# 3 -0.004129 -0.004418 0.015331 0.000000 0.000000 0.000000
# 4 0.000000 0.000000 0.000000 0.039157 0.000000 0.000000
# 5 0.000000 0.000000 0.000000 0.000000 0.029571 0.000000
# 6 0.000000 0.000000 0.000000 0.000000 0.000000 0.053404
#
#
# Mechanical properties :
#
#
# Convention : Reuss Voigt Hill
#
# Bulk Modulus (GPa) = 58.01445 59.15645 58.58545
# Shear Modulus (GPa) = 26.04678 27.33835 26.69256
#
# Velocity S-wave (km/s) = 3.72376 3.81497 3.76964
# Velocity P-wave (km/s) = 7.02662 7.13429 7.08066
#
# Compressibility (1/GPa) = 0.01723709
#
# Stress axis : x y z
#
# Youngs Moduli (GPa) = 89.51962 70.62482 65.22755
#
# Poissons Ratio (x) = 0.22358 0.26930
# Poissons Ratio (y) = 0.28340 0.28815
# Poissons Ratio (z) = 0.36959 0.31199
#
# Static dielectric constant tensor:
#      x y z
#    x 3.732920 0.000000 0.000000 
#    y 0.000000 3.114250 0.000000 
#    z 0.000000 0.000000 3.792220 
# 
# 
# High freq. dielectric constant tensor:
#      x y z
#    x 1.751240 0.000000 0.000000 
#    y 0.000000 1.699260 0.000000 
#    z 0.000000 0.000000 1.744420 
# 
# From -- ./inp_files/19135.got.cif
#   From: 2010.03.12/outbox.cif.g09.slc.cpg/sg20_10_cif.got.tgz:19135.got - 2010.04.14 01:38:04.
