data_PCOD8158534
_publ_section_title
;
Structure prediction by ZEFSAII (Michael W. Deem and Ramdas Pophale) SiO2 
 PCOD8158534
Probable space group: C 2 2 21
;
_chemical_formula_sum "Si O2"
_cell_formula_units_Z 56
_cell_length_a 13.105892
_cell_length_b 14.909135
_cell_length_c 14.076534
_cell_angle_alpha 90.000000
_cell_angle_beta 90.000000
_cell_angle_gamma 90.000000
_cell_volume 2750.519737
_symmetry_space_group_name_H-M "C 2 2 21"
_symmetry_group_IT_number 20
_symmetry_cell_setting 'orthorhombic'
loop_
_space_group_symop_operation_xyz
x,y,z
-x,-y,1/2+z
x,-y,-z
-x,y,1/2-z
1/2+x,1/2+y,z
1/2-x,1/2-y,1/2+z
1/2+x,1/2-y,-z
1/2-x,1/2+y,1/2-z
loop_
_atom_site_type_symbol
_atom_site_label
_atom_site_fract_x
_atom_site_fract_y
_atom_site_fract_z
Si Si1 0.180056 0.961407 0.755700
Si Si2 0.500000 0.804058 0.250000
Si Si3 0.212979 0.632796 0.727049
Si Si4 0.500000 0.573499 0.750000
Si Si5 0.723023 0.188524 0.120688
Si Si6 0.028045 0.211615 0.905397
Si Si7 0.793060 0.209219 0.916242
Si Si8 0.895904 0.174209 0.395666
O O1 0.242746 0.889967 0.692480
O O2 0.113405 0.917903 0.839598
O O3 0.255242 0.033179 0.805548
O O4 0.089978 0.015078 0.699630
O O5 0.408719 0.869559 0.222790
O O6 0.465988 0.743148 0.337961
O O7 0.244080 0.714439 0.659021
O O8 0.258781 0.641218 0.833664
O O9 0.555249 0.637879 0.826199
O O10 0.599619 0.199128 0.107913
O O11 0.776324 0.165307 0.020297
O O12 0.909657 0.240534 0.900326
O O13 0.050204 0.161391 0.003986
O O14 0.721172 0.295478 0.908432
#
# Coordination Sequence:
#
# PCOD8158534 Si02
#       8
#     8   4   8   4   8   8   8   8
#     4  12  24  42  63 100 129 169 215 266 324 388
#     4  10  19  42  67  88 128 182 207 264 317 388
#     4  11  22  43  60  97 134 161 220 268 314 389
#     4  12  25  40  67 100 130 164 215 272 323 378
#     4  11  23  42  66  91 132 173 209 269 326 385
#     4  11  22  43  66  97 129 169 212 272 327 375
#     4  10  21  41  66  94 129 169 212 270 320 386
#     4  10  23  40  68  95 127 172 222 255 328 386
#
# _framework density 20.359787000000001
#
# number of rings (size 3 to 8) (size 9 to 14) (size 15 to 20)
#    0.000    1.143    5.714    1.286    2.000    1.143 
#    2.571    0.000    0.000    0.000    0.000    0.000 
#    0.000    0.000    0.000    0.000    0.000    0.000 
#
# Total GULP energy -346992.761576 kJ/mol
# GULP energy per Si atom -12392.598628 kJ/mol
# Density = 2.031345 g / cm^3
# Si number density = 20.359787 Si / 1000 Ang^3
#
#
#
# Elastic Constant Matrix: (Units=GPa)
#
#
# Indices 1 2 3 4 5 6 
#
# 1 160.7431 35.8316 26.2077 0.0000 0.0000 0.0000
# 2 35.8316 76.2641 20.8776 0.0000 0.0000 0.0000
# 3 26.2077 20.8776 104.6673 0.0000 0.0000 0.0000
# 4 0.0000 0.0000 0.0000 6.9081 0.0000 0.0000
# 5 0.0000 0.0000 0.0000 0.0000 29.8381 0.0000
# 6 0.0000 0.0000 0.0000 0.0000 0.0000 22.0934
#
#
#
# Elastic Compliance Matrix: (Units=1/GPa)
#
#
# Indices 1 2 3 4 5 6 
#
# 1 0.007083 -0.003006 -0.001174 0.000000 0.000000 0.000000
# 2 -0.003006 0.015146 -0.002268 0.000000 0.000000 0.000000
# 3 -0.001174 -0.002268 0.010300 0.000000 0.000000 0.000000
# 4 0.000000 0.000000 0.000000 0.144757 0.000000 0.000000
# 5 0.000000 0.000000 0.000000 0.000000 0.033514 0.000000
# 6 0.000000 0.000000 0.000000 0.000000 0.000000 0.045262
#
#
# Mechanical properties :
#
#
# Convention : Reuss Voigt Hill
#
# Bulk Modulus (GPa) = 50.93724 56.38981 53.66353
# Shear Modulus (GPa) = 18.14860 29.01844 23.58352
#
# Velocity S-wave (km/s) = 2.98886 3.77939 3.40713
# Velocity P-wave (km/s) = 6.08144 6.84118 6.47247
#
# Compressibility (1/GPa) = 0.01963200
#
# Stress axis : x y z
#
# Youngs Moduli (GPa) = 141.19047 66.02500 97.08336
#
# Poissons Ratio (x) = 0.19849 0.11395
# Poissons Ratio (y) = 0.42447 0.22021
# Poissons Ratio (z) = 0.16572 0.14977
#
# Static dielectric constant tensor:
#      x y z
#    x 4.121990 0.000000 0.000000 
#    y 0.000000 3.478570 0.000000 
#    z 0.000000 0.000000 3.897260 
# 
# 
# High freq. dielectric constant tensor:
#      x y z
#    x 1.820720 0.000000 0.000000 
#    y 0.000000 1.767180 0.000000 
#    z 0.000000 0.000000 1.794080 
# 
# From -- ./inp_files/20899.got.cif
#   From: 2010.03.12/outbox.cif.g09.slc.cpg/sg20_11_cif.got.tgz:20899.got - 2010.04.14 01:38:04.
