data_PCOD8158140
_publ_section_title
;
Structure prediction by ZEFSAII (Michael W. Deem and Ramdas Pophale) SiO2 
 PCOD8158140
Probable space group: C 2 2 21
;
_chemical_formula_sum "Si O2"
_cell_formula_units_Z 44
_cell_length_a 15.454373
_cell_length_b 27.849584
_cell_length_c 5.117511
_cell_angle_alpha 90.000000
_cell_angle_beta 90.000000
_cell_angle_gamma 90.000000
_cell_volume 2202.565778
_symmetry_space_group_name_H-M "C 2 2 21"
_symmetry_group_IT_number 20
_symmetry_cell_setting 'orthorhombic'
loop_
_space_group_symop_operation_xyz
x,y,z
-x,-y,1/2+z
x,-y,-z
-x,y,1/2-z
1/2+x,1/2+y,z
1/2-x,1/2-y,1/2+z
1/2+x,1/2-y,-z
1/2-x,1/2+y,1/2-z
loop_
_atom_site_type_symbol
_atom_site_label
_atom_site_fract_x
_atom_site_fract_y
_atom_site_fract_z
Si Si1 0.744121 0.603582 0.017179
Si Si2 0.134444 0.246106 0.037109
Si Si3 0.242503 0.000000 0.000000
Si Si4 0.375500 0.603596 0.983670
Si Si5 0.000000 0.824970 0.750000
Si Si6 0.176921 0.299167 0.533716
Si Si7 0.873563 0.000000 0.000000
O O1 0.696616 0.606004 0.293641
O O2 0.820234 0.642981 0.023987
O O3 0.792283 0.551331 0.976295
O O4 0.673180 0.613849 0.789900
O O5 0.126591 0.282061 0.279208
O O6 0.224958 0.218743 0.040441
O O7 0.060071 0.206661 0.062031
O O8 0.123561 0.278101 0.777860
O O9 0.184166 0.993890 0.750634
O O10 0.424560 0.550908 0.975714
O O11 0.447559 0.643304 0.040048
#
# Coordination Sequence:
#
# PCOD8158140 Si02
#       7
#     8   8   4   8   4   8   4
#     4  10  18  35  55  78 105 141 180 219 272 318
#     4  10  23  34  54  74 104 137 189 225 261 315
#     4   8  16  28  53  78 102 130 175 228 256 308
#     4  10  21  32  54  75 106 144 181 226 260 313
#     4  12  24  38  54  82 110 144 192 230 268 308
#     4  10  20  38  53  75 100 143 181 221 271 320
#     4   8  16  34  45  72 104 140 181 214 262 300
#
# _framework density 19.976702
#
# number of rings (size 3 to 8) (size 9 to 14) (size 15 to 20)
#    0.000    2.182    1.818    1.091    5.091    2.909 
#    0.000    5.455    0.000    0.000    0.000    0.000 
#    0.000    2.909    0.000    0.000    0.000    0.545 
#
# Total GULP energy -272558.756731 kJ/mol
# GULP energy per Si atom -12389.034397 kJ/mol
# Density = 1.993123 g / cm^3
# Si number density = 19.976702 Si / 1000 Ang^3
#
#
#
# Elastic Constant Matrix: (Units=GPa)
#
#
# Indices 1 2 3 4 5 6 
#
# 1 19.7489 31.4451 -5.7890 0.0000 0.0000 0.0000
# 2 31.4451 185.8183 15.9915 0.0000 0.0000 0.0000
# 3 -5.7890 15.9915 76.3562 0.0000 0.0000 0.0000
# 4 0.0000 0.0000 0.0000 28.0037 0.0000 0.0000
# 5 0.0000 0.0000 0.0000 0.0000 13.8385 0.0000
# 6 0.0000 0.0000 0.0000 0.0000 0.0000 17.2364
#
#
#
# Elastic Compliance Matrix: (Units=1/GPa)
#
#
# Indices 1 2 3 4 5 6 
#
# 1 0.074266 -0.013292 0.008414 0.000000 0.000000 0.000000
# 2 -0.013292 0.007859 -0.002654 0.000000 0.000000 0.000000
# 3 0.008414 -0.002654 0.014290 0.000000 0.000000 0.000000
# 4 0.000000 0.000000 0.000000 0.035710 0.000000 0.000000
# 5 0.000000 0.000000 0.000000 0.000000 0.072262 0.000000
# 6 0.000000 0.000000 0.000000 0.000000 0.000000 0.058017
#
#
# Mechanical properties :
#
#
# Convention : Reuss Voigt Hill
#
# Bulk Modulus (GPa) = 12.29207 40.57983 26.43595
# Shear Modulus (GPa) = 16.41580 27.83410 22.12495
#
# Velocity S-wave (km/s) = 2.86972 3.73678 3.33158
# Velocity P-wave (km/s) = 4.14089 6.24305 5.29730
#
# Compressibility (1/GPa) = 0.08135324
#
# Stress axis : x y z
#
# Youngs Moduli (GPa) = 13.46507 127.23785 69.97783
#
# Poissons Ratio (x) = 1.69123 -0.58882
# Poissons Ratio (y) = 0.17898 0.18570
# Poissons Ratio (z) = -0.11330 0.33766
#
# Static dielectric constant tensor:
#      x y z
#    x 2.947950 0.000000 0.000000 
#    y 0.000000 4.535240 0.000000 
#    z 0.000000 0.000000 3.908410 
# 
# 
# High freq. dielectric constant tensor:
#      x y z
#    x 1.691650 0.000000 0.000000 
#    y 0.000000 1.807630 0.000000 
#    z 0.000000 0.000000 1.807880 
# 
# From -- ./inp_files/1982.got.cif
#   From: 2010.03.12/outbox.cif.g09.slc.cpg/sg20_1_cif.got.tgz:1982.got - 2010.04.14 01:38:04.
