data_PCOD8158800
_publ_section_title
;
Structure prediction by ZEFSAII (Michael W. Deem and Ramdas Pophale) SiO2 
 PCOD8158800
Probable space group: C 2 2 21
;
_chemical_formula_sum "Si O2"
_cell_formula_units_Z 60
_cell_length_a 11.953734
_cell_length_b 25.654959
_cell_length_c 8.817319
_cell_angle_alpha 90.000000
_cell_angle_beta 90.000000
_cell_angle_gamma 90.000000
_cell_volume 2704.029752
_symmetry_space_group_name_H-M "C 2 2 21"
_symmetry_group_IT_number 20
_symmetry_cell_setting 'orthorhombic'
loop_
_space_group_symop_operation_xyz
x,y,z
-x,-y,1/2+z
x,-y,-z
-x,y,1/2-z
1/2+x,1/2+y,z
1/2-x,1/2-y,1/2+z
1/2+x,1/2-y,-z
1/2-x,1/2+y,1/2-z
loop_
_atom_site_type_symbol
_atom_site_label
_atom_site_fract_x
_atom_site_fract_y
_atom_site_fract_z
Si Si1 0.388573 0.803318 0.418253
Si Si2 0.626826 0.173794 0.249076
Si Si3 0.500000 0.108158 0.750000
Si Si4 0.175737 0.106250 0.138610
Si Si5 0.707670 0.954896 0.385856
Si Si6 0.656093 0.287657 0.308041
Si Si7 0.036496 0.805424 0.995645
Si Si8 0.616449 0.492929 0.680548
O O1 0.334093 0.810138 0.582274
O O2 0.463926 0.853688 0.385980
O O3 0.285577 0.802181 0.302298
O O4 0.458446 0.749622 0.405834
O O5 0.500000 0.152514 0.250000
O O6 0.706283 0.129296 0.309938
O O7 0.635217 0.226566 0.348210
O O8 0.400169 0.073596 0.817179
O O9 0.130288 0.067095 0.266966
O O10 0.202916 0.079837 0.977512
O O11 0.079621 0.149587 0.116235
O O12 0.664551 0.000000 0.500000
O O13 0.776832 0.975869 0.242416
O O14 0.614262 0.302899 0.143113
O O15 0.588891 0.317420 0.443444
O O16 0.612562 0.500000 0.500000
O O17 0.500000 0.514581 0.750000
#
# Coordination Sequence:
#
# PCOD8158800 Si02
#       8
#     8   8   4   8   8   8   8   8
#     4  11  23  38  62  97 141 184 234 288 336 432
#     4  11  21  38  62  94 141 192 237 279 348 412
#     4  12  26  44  70 104 138 186 238 294 372 420
#     4  11  23  44  72 104 139 190 239 296 361 431
#     4  10  25  49  73 102 137 183 239 305 368 429
#     4  10  20  38  59  93 143 196 233 286 335 405
#     4  10  21  40  63  96 144 190 234 282 345 429
#     4  11  26  53  80 105 141 174 234 312 374 427
#
# _framework density 22.189105000000001
#
# number of rings (size 3 to 8) (size 9 to 14) (size 15 to 20)
#    0.000    1.333    4.000    2.800    1.867    3.733 
#   18.000    0.000    0.000    0.000    0.000    0.000 
#    0.000    0.000    0.000    0.000    0.000    0.000 
#
# Total GULP energy -371969.568908 kJ/mol
# GULP energy per Si atom -12398.985630 kJ/mol
# Density = 2.213860 g / cm^3
# Si number density = 22.189105 Si / 1000 Ang^3
#
#
#
# Elastic Constant Matrix: (Units=GPa)
#
#
# Indices 1 2 3 4 5 6 
#
# 1 119.6832 52.5125 46.5516 0.0000 0.0000 0.0000
# 2 52.5125 128.6990 53.3050 0.0000 0.0000 0.0000
# 3 46.5516 53.3050 113.3466 0.0000 0.0000 0.0000
# 4 0.0000 0.0000 0.0000 24.8540 0.0000 0.0000
# 5 0.0000 0.0000 0.0000 0.0000 30.3799 0.0000
# 6 0.0000 0.0000 0.0000 0.0000 0.0000 37.5220
#
#
#
# Elastic Compliance Matrix: (Units=1/GPa)
#
#
# Indices 1 2 3 4 5 6 
#
# 1 0.010927 -0.003229 -0.002969 0.000000 0.000000 0.000000
# 2 -0.003229 0.010604 -0.003661 0.000000 0.000000 0.000000
# 3 -0.002969 -0.003661 0.011764 0.000000 0.000000 0.000000
# 4 0.000000 0.000000 0.000000 0.040235 0.000000 0.000000
# 5 0.000000 0.000000 0.000000 0.000000 0.032916 0.000000
# 6 0.000000 0.000000 0.000000 0.000000 0.000000 0.026651
#
#
# Mechanical properties :
#
#
# Convention : Reuss Voigt Hill
#
# Bulk Modulus (GPa) = 73.65504 74.05189 73.85346
# Shear Modulus (GPa) = 31.77841 32.50851 32.14346
#
# Velocity S-wave (km/s) = 3.78850 3.83177 3.81020
# Velocity P-wave (km/s) = 7.23901 7.28163 7.26035
#
# Compressibility (1/GPa) = 0.01357680
#
# Stress axis : x y z
#
# Youngs Moduli (GPa) = 91.51698 94.30738 85.00819
#
# Poissons Ratio (x) = 0.30448 0.25242
# Poissons Ratio (y) = 0.29547 0.31119
# Poissons Ratio (z) = 0.27175 0.34523
#
# Static dielectric constant tensor:
#      x y z
#    x 3.999750 0.000000 0.000000 
#    y 0.000000 4.093530 0.000000 
#    z 0.000000 0.000000 3.920010 
# 
# 
# High freq. dielectric constant tensor:
#      x y z
#    x 1.880830 0.000000 0.000000 
#    y 0.000000 1.865770 0.000000 
#    z 0.000000 0.000000 1.876810 
# 
# From -- ./inp_files/7558.got.cif
#   From: 2010.03.12/outbox.cif.g09.slc.cpg/sg20_4_cif.got.tgz:7558.got - 2010.04.14 01:38:04.
