data_PCOD8158405
_publ_section_title
;
Structure prediction by ZEFSAII (Michael W. Deem and Ramdas Pophale) SiO2 
 PCOD8158405
Probable space group: C 2 2 21
;
_chemical_formula_sum "Si O2"
_cell_formula_units_Z 32
_cell_length_a 4.934648
_cell_length_b 18.861262
_cell_length_c 12.834653
_cell_angle_alpha 90.000000
_cell_angle_beta 90.000000
_cell_angle_gamma 90.000000
_cell_volume 1194.568499
_symmetry_space_group_name_H-M "C 2 2 21"
_symmetry_group_IT_number 20
_symmetry_cell_setting 'orthorhombic'
loop_
_space_group_symop_operation_xyz
x,y,z
-x,-y,1/2+z
x,-y,-z
-x,y,1/2-z
1/2+x,1/2+y,z
1/2-x,1/2-y,1/2+z
1/2+x,1/2-y,-z
1/2-x,1/2+y,1/2-z
loop_
_atom_site_type_symbol
_atom_site_label
_atom_site_fract_x
_atom_site_fract_y
_atom_site_fract_z
Si Si1 0.558404 0.901951 0.914191
Si Si2 0.795282 0.388618 0.345457
Si Si3 0.044324 0.985393 0.884193
Si Si4 0.145176 0.745973 0.429607
O O1 0.841898 0.919687 0.856279
O O2 0.355473 0.963331 0.871377
O O3 0.462608 0.825217 0.873995
O O4 0.558503 0.901515 0.041572
O O5 0.671297 0.309235 0.345709
O O6 0.000000 0.396616 0.250000
O O7 0.547821 0.443738 0.323436
O O8 0.958921 0.000000 0.000000
O O9 0.935228 0.771624 0.518530
#
# Coordination Sequence:
#
# PCOD8158405 Si02
#       4
#     8   8   8   8
#     4  10  20  38  61  82 114 165 204 231 295 383
#     4  10  22  39  63  97 125 152 206 273 308 339
#     4  10  19  36  59  83 115 159 201 237 296 375
#     4  10  20  37  59  84 116 160 200 235 296 375
#
# _framework density 26.787915999999999
#
# number of rings (size 3 to 8) (size 9 to 14) (size 15 to 20)
#    0.000    2.000    0.000    6.750    0.000    2.000 
#    0.000   33.750    0.000    0.000    0.000    0.000 
#    0.000    0.000    0.000    0.000    0.000    0.000 
#
# Total GULP energy -198234.395229 kJ/mol
# GULP energy per Si atom -12389.649702 kJ/mol
# Density = 2.672695 g / cm^3
# Si number density = 26.787916 Si / 1000 Ang^3
#
#
#
# Elastic Constant Matrix: (Units=GPa)
#
#
# Indices 1 2 3 4 5 6 
#
# 1 105.6269 6.5956 3.4004 0.0000 0.0000 0.0000
# 2 6.5956 128.9957 -17.3296 0.0000 0.0000 0.0000
# 3 3.4004 -17.3296 68.9791 0.0000 0.0000 0.0000
# 4 0.0000 0.0000 0.0000 -141.9554 0.0000 0.0000
# 5 0.0000 0.0000 0.0000 0.0000 31.3047 0.0000
# 6 0.0000 0.0000 0.0000 0.0000 0.0000 66.1550
#
#
#
# Elastic Compliance Matrix: (Units=1/GPa)
#
#
# Indices 1 2 3 4 5 6 
#
# 1 0.009523 -0.000569 -0.000612 0.000000 0.000000 0.000000
# 2 -0.000569 0.008057 0.002052 0.000000 0.000000 0.000000
# 3 -0.000612 0.002052 0.015043 0.000000 0.000000 0.000000
# 4 0.000000 0.000000 0.000000 -0.007044 0.000000 0.000000
# 5 0.000000 0.000000 0.000000 0.000000 0.031944 0.000000
# 6 0.000000 0.000000 0.000000 0.000000 0.000000 0.015116
#
#
# Mechanical properties :
#
#
# Convention : Reuss Voigt Hill
#
# Bulk Modulus (GPa) = 29.10047 32.10385 30.60216
# Shear Modulus (GPa) = 60.71538 11.82986 36.27262
#
# Velocity S-wave (km/s) = 4.76596 2.10374 3.68376
# Velocity P-wave (km/s) = 6.41660 4.23219 5.43526
#
# Compressibility (1/GPa) = 0.03436371
#
# Stress axis : x y z
#
# Youngs Moduli (GPa) = 105.01399 124.11574 66.47645
#
# Poissons Ratio (x) = 0.07064 0.04071
# Poissons Ratio (y) = 0.05977 -0.13642
# Poissons Ratio (z) = 0.06431 -0.25471
#
# Static dielectric constant tensor:
#      x y z
#    x 4.844190 0.000000 0.000000 
#    y 0.000000 5.396920 0.000000 
#    z 0.000000 0.000000 4.493430 
# 
# 
# High freq. dielectric constant tensor:
#      x y z
#    x 2.084930 0.000000 0.000000 
#    y 0.000000 2.089950 0.000000 
#    z 0.000000 0.000000 2.056400 
# 
# From -- ./inp_files/17430.got.cif
#   From: 2010.03.12/outbox.cif.g09.slc.cpg/sg20_9_cif.got.tgz:17430.got - 2010.04.14 01:38:04.
