data_PCOD8158199
_publ_section_title
;
Structure prediction by ZEFSAII (Michael W. Deem and Ramdas Pophale) SiO2 
 PCOD8158199
Probable space group: C 2 2 21
;
_chemical_formula_sum "Si O2"
_cell_formula_units_Z 52
_cell_length_a 7.611214
_cell_length_b 15.963128
_cell_length_c 20.102365
_cell_angle_alpha 90.000000
_cell_angle_beta 90.000000
_cell_angle_gamma 90.000000
_cell_volume 2442.412889
_symmetry_space_group_name_H-M "C 2 2 21"
_symmetry_group_IT_number 20
_symmetry_cell_setting 'orthorhombic'
loop_
_space_group_symop_operation_xyz
x,y,z
-x,-y,1/2+z
x,-y,-z
-x,y,1/2-z
1/2+x,1/2+y,z
1/2-x,1/2-y,1/2+z
1/2+x,1/2-y,-z
1/2-x,1/2+y,1/2-z
loop_
_atom_site_type_symbol
_atom_site_label
_atom_site_fract_x
_atom_site_fract_y
_atom_site_fract_z
Si Si1 0.751514 0.448013 0.639023
Si Si2 0.715291 0.634511 0.135748
Si Si3 0.084222 0.483734 0.424538
Si Si4 0.500000 0.435676 0.750000
Si Si5 0.943866 0.714507 0.322462
Si Si6 0.928000 0.164350 0.039820
Si Si7 0.202340 0.180455 0.930697
O O1 0.609569 0.487669 0.692287
O O2 0.815547 0.365000 0.677662
O O3 0.665933 0.420142 0.568143
O O4 0.912568 0.510133 0.623382
O O5 0.763021 0.546978 0.098920
O O6 0.641982 0.619684 0.209881
O O7 0.573508 0.687781 0.094844
O O8 0.886227 0.691250 0.134802
O O9 0.026680 0.500000 0.500000
O O10 0.153404 0.390074 0.420405
O O11 0.854124 0.793854 0.356793
O O12 0.000000 0.743168 0.250000
O O13 0.789122 0.239901 0.031361
O O14 0.030865 0.147564 0.970822
#
# Coordination Sequence:
#
# PCOD8158199 Si02
#       7
#     8   8   8   4   8   8   8
#     4   9  21  38  68  91 122 162 219 255 320 374
#     4  10  20  39  68  89 126 164 220 253 313 379
#     4  11  23  42  60  93 129 172 203 273 319 382
#     4  10  18  38  64  98 116 164 222 260 294 392
#     4  10  19  38  66  93 121 171 209 259 306 389
#     4  10  21  39  63  97 115 167 205 258 311 386
#     4  11  23  39  63  93 135 159 213 266 328 365
#
# _framework density 21.290420999999998
#
# number of rings (size 3 to 8) (size 9 to 14) (size 15 to 20)
#    0.000    1.846    3.077    0.923    4.308    0.000 
#    6.923    0.000    3.385    0.000    0.000    0.000 
#    0.000    0.000    0.000    0.000    0.000    0.000 
#
# Total GULP energy -322224.854747 kJ/mol
# GULP energy per Si atom -12393.263644 kJ/mol
# Density = 2.124196 g / cm^3
# Si number density = 21.290421 Si / 1000 Ang^3
#
#
#
# Elastic Constant Matrix: (Units=GPa)
#
#
# Indices 1 2 3 4 5 6 
#
# 1 97.2538 23.2812 37.9454 0.0000 0.0000 0.0000
# 2 23.2812 54.3432 36.4379 0.0000 0.0000 0.0000
# 3 37.9454 36.4379 120.9157 0.0000 0.0000 0.0000
# 4 0.0000 0.0000 0.0000 12.3361 0.0000 0.0000
# 5 0.0000 0.0000 0.0000 0.0000 55.6151 0.0000
# 6 0.0000 0.0000 0.0000 0.0000 0.0000 12.9019
#
#
#
# Elastic Compliance Matrix: (Units=1/GPa)
#
#
# Indices 1 2 3 4 5 6 
#
# 1 0.012179 -0.003327 -0.002819 0.000000 0.000000 0.000000
# 2 -0.003327 0.023970 -0.006179 0.000000 0.000000 0.000000
# 3 -0.002819 -0.006179 0.011017 0.000000 0.000000 0.000000
# 4 0.000000 0.000000 0.000000 0.081063 0.000000 0.000000
# 5 0.000000 0.000000 0.000000 0.000000 0.017981 0.000000
# 6 0.000000 0.000000 0.000000 0.000000 0.000000 0.077508
#
#
# Mechanical properties :
#
#
# Convention : Reuss Voigt Hill
#
# Bulk Modulus (GPa) = 44.41546 51.98242 48.19894
# Shear Modulus (GPa) = 19.54087 27.82717 23.68402
#
# Velocity S-wave (km/s) = 3.03285 3.61921 3.33892
# Velocity P-wave (km/s) = 5.75945 6.47563 6.12801
#
# Compressibility (1/GPa) = 0.02251468
#
# Stress axis : x y z
#
# Youngs Moduli (GPa) = 82.10958 41.71832 90.76802
#
# Poissons Ratio (x) = 0.13880 0.25590
# Poissons Ratio (y) = 0.27319 0.56088
# Poissons Ratio (z) = 0.23149 0.25779
#
# Static dielectric constant tensor:
#      x y z
#    x 4.178730 0.000000 0.000000 
#    y 0.000000 3.320160 0.000000 
#    z 0.000000 0.000000 3.870270 
# 
# 
# High freq. dielectric constant tensor:
#      x y z
#    x 1.859570 0.000000 0.000000 
#    y 0.000000 1.780210 0.000000 
#    z 0.000000 0.000000 1.840940 
# 
# From -- ./inp_files/23719.got.cif
#   From: 2010.03.12/outbox.cif.g09.slc.cpg/sg20_12_cif.got.tgz:23719.got - 2010.04.14 01:38:04.
