data_PCOD8158397
_publ_section_title
;
Structure prediction by ZEFSAII (Michael W. Deem and Ramdas Pophale) SiO2 
 PCOD8158397
Probable space group: C 2 2 21
;
_chemical_formula_sum "Si O2"
_cell_formula_units_Z 44
_cell_length_a 8.872483
_cell_length_b 10.915672
_cell_length_c 22.280509
_cell_angle_alpha 90.000000
_cell_angle_beta 90.000000
_cell_angle_gamma 90.000000
_cell_volume 2157.847562
_symmetry_space_group_name_H-M "C 2 2 21"
_symmetry_group_IT_number 20
_symmetry_cell_setting 'orthorhombic'
loop_
_space_group_symop_operation_xyz
x,y,z
-x,-y,1/2+z
x,-y,-z
-x,y,1/2-z
1/2+x,1/2+y,z
1/2-x,1/2-y,1/2+z
1/2+x,1/2-y,-z
1/2-x,1/2+y,1/2-z
loop_
_atom_site_type_symbol
_atom_site_label
_atom_site_fract_x
_atom_site_fract_y
_atom_site_fract_z
Si Si1 0.276582 0.106120 0.842773
Si Si2 0.907676 0.623631 0.467979
Si Si3 0.231687 0.628344 0.519401
Si Si4 0.765859 0.630815 0.215816
Si Si5 0.000000 0.693030 0.750000
Si Si6 0.414737 0.839117 0.667696
O O1 0.320929 0.113959 0.912092
O O2 0.432651 0.112778 0.804583
O O3 0.154930 0.205341 0.825587
O O4 0.198132 0.979310 0.823790
O O5 0.844202 0.500000 0.500000
O O6 0.830006 0.749450 0.491089
O O7 0.881417 0.603215 0.397177
O O8 0.084017 0.640932 0.478980
O O9 0.315769 0.500000 0.500000
O O10 0.632762 0.727502 0.220962
O O11 0.827269 0.582657 0.280988
O O12 0.908896 0.682880 0.179145
#
# Coordination Sequence:
#
# PCOD8158397 Si02
#       6
#     8   8   8   8   4   8
#     4  10  21  37  55  80 113 144 182 231 277 332
#     4  10  21  39  59  82 112 150 191 233 278 333
#     4  10  22  38  57  84 116 148 189 236 283 333
#     4  10  19  36  57  79 110 143 178 226 281 331
#     4  10  22  34  56  86 106 142 190 224 270 338
#     4   9  20  37  55  80 112 143 182 228 279 331
#
# _framework density 20.390688999999998
#
# number of rings (size 3 to 8) (size 9 to 14) (size 15 to 20)
#    0.000    2.182    0.000    3.273    0.000    6.545 
#    0.000   14.545    0.000    0.000    0.000    0.000 
#    0.000    0.000    0.000    0.000    0.000    0.000 
#
# Total GULP energy -272655.566705 kJ/mol
# GULP energy per Si atom -12393.434850 kJ/mol
# Density = 2.034428 g / cm^3
# Si number density = 20.390689 Si / 1000 Ang^3
#
#
#
# Elastic Constant Matrix: (Units=GPa)
#
#
# Indices 1 2 3 4 5 6 
#
# 1 49.6787 26.9397 17.4941 0.0000 0.0000 0.0000
# 2 26.9397 94.7679 29.3085 0.0000 0.0000 0.0000
# 3 17.4941 29.3085 87.4604 0.0000 0.0000 0.0000
# 4 0.0000 0.0000 0.0000 36.5073 0.0000 0.0000
# 5 0.0000 0.0000 0.0000 0.0000 23.5066 0.0000
# 6 0.0000 0.0000 0.0000 0.0000 0.0000 22.5453
#
#
#
# Elastic Compliance Matrix: (Units=1/GPa)
#
#
# Indices 1 2 3 4 5 6 
#
# 1 0.024420 -0.006059 -0.002854 0.000000 0.000000 0.000000
# 2 -0.006059 0.013276 -0.003237 0.000000 0.000000 0.000000
# 3 -0.002854 -0.003237 0.013089 0.000000 0.000000 0.000000
# 4 0.000000 0.000000 0.000000 0.027392 0.000000 0.000000
# 5 0.000000 0.000000 0.000000 0.000000 0.042541 0.000000
# 6 0.000000 0.000000 0.000000 0.000000 0.000000 0.044355
#
#
# Mechanical properties :
#
#
# Convention : Reuss Voigt Hill
#
# Bulk Modulus (GPa) = 37.75742 42.15463 39.95602
# Shear Modulus (GPa) = 25.22680 27.05614 26.14147
#
# Velocity S-wave (km/s) = 3.52116 3.64660 3.58443
# Velocity P-wave (km/s) = 5.92357 6.20069 6.06371
#
# Compressibility (1/GPa) = 0.02648486
#
# Stress axis : x y z
#
# Youngs Moduli (GPa) = 40.94966 75.32636 76.39835
#
# Poissons Ratio (x) = 0.45642 0.21805
# Poissons Ratio (y) = 0.24812 0.24728
# Poissons Ratio (z) = 0.11688 0.24381
#
# Static dielectric constant tensor:
#      x y z
#    x 3.532650 0.000000 0.000000 
#    y 0.000000 3.951370 0.000000 
#    z 0.000000 0.000000 4.357710 
# 
# 
# High freq. dielectric constant tensor:
#      x y z
#    x 1.778630 0.000000 0.000000 
#    y 0.000000 1.803210 0.000000 
#    z 0.000000 0.000000 1.811180 
# 
# From -- ./inp_files/28645.got.cif
#   From: 2010.03.12/outbox.cif.g09.slc.cpg/sg20_15_cif.got.tgz:28645.got - 2010.04.14 01:38:04.
