data_PCOD8158313
_publ_section_title
;
Structure prediction by ZEFSAII (Michael W. Deem and Ramdas Pophale) SiO2 
 PCOD8158313
Probable space group: C 2 2 21
;
_chemical_formula_sum "Si O2"
_cell_formula_units_Z 64
_cell_length_a 13.502414
_cell_length_b 11.600825
_cell_length_c 21.570023
_cell_angle_alpha 90.000000
_cell_angle_beta 90.000000
_cell_angle_gamma 90.000000
_cell_volume 3378.709893
_symmetry_space_group_name_H-M "C 2 2 21"
_symmetry_group_IT_number 20
_symmetry_cell_setting 'orthorhombic'
loop_
_space_group_symop_operation_xyz
x,y,z
-x,-y,1/2+z
x,-y,-z
-x,y,1/2-z
1/2+x,1/2+y,z
1/2-x,1/2-y,1/2+z
1/2+x,1/2-y,-z
1/2-x,1/2+y,1/2-z
loop_
_atom_site_type_symbol
_atom_site_label
_atom_site_fract_x
_atom_site_fract_y
_atom_site_fract_z
Si Si1 0.058600 0.476819 0.639080
Si Si2 0.260565 0.895155 0.790647
Si Si3 0.104372 0.079277 0.778001
Si Si4 0.836143 0.612406 0.958232
Si Si5 0.362370 0.287774 0.401998
Si Si6 0.290872 0.657606 0.843368
Si Si7 0.159276 0.440547 0.838684
Si Si8 0.567924 0.747246 0.560355
O O1 0.147735 0.474042 0.687687
O O2 0.080689 0.584782 0.593657
O O3 0.058104 0.360812 0.600548
O O4 0.953357 0.483606 0.674166
O O5 0.241732 0.783507 0.833805
O O6 0.158895 0.963530 0.799046
O O7 0.286653 0.875815 0.718444
O O8 0.097638 0.165552 0.835925
O O9 0.160026 0.142933 0.723072
O O10 0.000000 0.041986 0.750000
O O11 0.731065 0.643164 0.927655
O O12 0.817104 0.500000 0.000000
O O13 0.878073 0.722148 0.995864
O O14 0.455911 0.301107 0.449448
O O15 0.335356 0.152390 0.394317
O O16 0.214378 0.557039 0.858854
O O17 0.366645 0.655893 0.901044
#
# Coordination Sequence:
#
# PCOD8158313 Si02
#       8
#     8   8   8   8   8   8   8   8
#     4   9  18  34  57  82 111 147 199 239 278 339
#     4  10  19  34  55  84 116 153 180 231 293 355
#     4  11  20  34  59  86 116 149 191 235 288 361
#     4  10  21  39  59  85 114 154 207 246 286 345
#     4  11  20  38  61  87 115 153 201 245 294 348
#     4  10  20  36  55  85 123 147 188 235 294 352
#     4  10  21  33  56  90 115 148 188 241 294 347
#     4   9  20  35  59  81 110 157 195 237 286 354
#
# _framework density 18.942140999999999
#
# number of rings (size 3 to 8) (size 9 to 14) (size 15 to 20)
#    0.000    2.000    3.750    0.375    0.000    1.000 
#    0.000    8.125    0.000    0.000    0.000    0.000 
#    0.000    0.000    0.000    0.000    0.000    0.000 
#
# Total GULP energy -396616.946097 kJ/mol
# GULP energy per Si atom -12394.279566 kJ/mol
# Density = 1.889903 g / cm^3
# Si number density = 18.942141 Si / 1000 Ang^3
#
#
#
# Elastic Constant Matrix: (Units=GPa)
#
#
# Indices 1 2 3 4 5 6 
#
# 1 111.8676 48.2806 12.6800 0.0000 0.0000 0.0000
# 2 48.2806 81.2456 20.1669 0.0000 0.0000 0.0000
# 3 12.6800 20.1669 33.8996 0.0000 0.0000 0.0000
# 4 0.0000 0.0000 0.0000 10.8764 0.0000 0.0000
# 5 0.0000 0.0000 0.0000 0.0000 29.2006 0.0000
# 6 0.0000 0.0000 0.0000 0.0000 0.0000 23.7075
#
#
#
# Elastic Compliance Matrix: (Units=1/GPa)
#
#
# Indices 1 2 3 4 5 6 
#
# 1 0.012025 -0.007074 -0.000290 0.000000 0.000000 0.000000
# 2 -0.007074 0.018602 -0.008421 0.000000 0.000000 0.000000
# 3 -0.000290 -0.008421 0.034617 0.000000 0.000000 0.000000
# 4 0.000000 0.000000 0.000000 0.091942 0.000000 0.000000
# 5 0.000000 0.000000 0.000000 0.000000 0.034246 0.000000
# 6 0.000000 0.000000 0.000000 0.000000 0.000000 0.042181
#
#
# Mechanical properties :
#
#
# Convention : Reuss Voigt Hill
#
# Bulk Modulus (GPa) = 29.69503 43.25199 36.47351
# Shear Modulus (GPa) = 18.08932 22.48258 20.28595
#
# Velocity S-wave (km/s) = 3.09362 3.44889 3.27608
# Velocity P-wave (km/s) = 5.33586 6.22440 5.79718
#
# Compressibility (1/GPa) = 0.03367567
#
# Stress axis : x y z
#
# Youngs Moduli (GPa) = 83.15980 53.75670 28.88785
#
# Poissons Ratio (x) = 0.38028 0.00836
# Poissons Ratio (y) = 0.58828 0.24325
# Poissons Ratio (z) = 0.02408 0.45266
#
# Static dielectric constant tensor:
#      x y z
#    x 3.756940 0.000000 0.000000 
#    y 0.000000 3.371260 0.000000 
#    z 0.000000 0.000000 3.406730 
# 
# 
# High freq. dielectric constant tensor:
#      x y z
#    x 1.739210 0.000000 0.000000 
#    y 0.000000 1.721970 0.000000 
#    z 0.000000 0.000000 1.722490 
# 
# From -- ./inp_files/29153.got.cif
#   From: 2010.03.12/outbox.cif.g09.slc.cpg/sg20_15_cif.got.tgz:29153.got - 2010.04.14 01:38:04.
