data_PCOD8158150
_publ_section_title
;
Structure prediction by ZEFSAII (Michael W. Deem and Ramdas Pophale) SiO2 
 PCOD8158150
Probable space group: C 2 2 21
;
_chemical_formula_sum "Si O2"
_cell_formula_units_Z 48
_cell_length_a 15.973300
_cell_length_b 9.363524
_cell_length_c 17.145642
_cell_angle_alpha 90.000000
_cell_angle_beta 90.000000
_cell_angle_gamma 90.000000
_cell_volume 2564.411571
_symmetry_space_group_name_H-M "C 2 2 21"
_symmetry_group_IT_number 20
_symmetry_cell_setting 'orthorhombic'
loop_
_space_group_symop_operation_xyz
x,y,z
-x,-y,1/2+z
x,-y,-z
-x,y,1/2-z
1/2+x,1/2+y,z
1/2-x,1/2-y,1/2+z
1/2+x,1/2-y,-z
1/2-x,1/2+y,1/2-z
loop_
_atom_site_type_symbol
_atom_site_label
_atom_site_fract_x
_atom_site_fract_y
_atom_site_fract_z
Si Si1 0.129563 0.113647 0.938321
Si Si2 0.852986 0.635784 0.548244
Si Si3 0.212150 0.049835 0.194026
Si Si4 0.207806 0.841144 0.335137
Si Si5 0.521326 0.580593 0.661173
Si Si6 0.454415 0.286358 0.676802
O O1 0.048874 0.164192 0.888801
O O2 0.202045 0.042128 0.885210
O O3 0.168774 0.244893 0.984570
O O4 0.095556 0.000000 0.000000
O O5 0.883662 0.500000 0.500000
O O6 0.767618 0.609150 0.594840
O O7 0.927717 0.678734 0.608159
O O8 0.282408 0.172554 0.184853
O O9 0.125544 0.130611 0.212439
O O10 0.234332 0.940252 0.262461
O O11 0.112747 0.863985 0.361827
O O12 0.500000 0.616763 0.750000
O O13 0.515496 0.410125 0.643806
O O14 0.500000 0.206058 0.750000
#
# Coordination Sequence:
#
# PCOD8158150 Si02
#       6
#     8   8   8   8   8   8
#     4  11  19  41  64  84 124 170 203 262 325 374
#     4  11  25  39  60  97 132 162 211 272 329 362
#     4  10  21  35  64  94 126 161 209 262 313 378
#     4  11  21  38  61 100 122 166 215 258 315 384
#     4  10  18  35  68  93 114 163 231 243 300 400
#     4   9  16  38  64  89 117 167 213 246 312 382
#
# _framework density 18.717744
#
# number of rings (size 3 to 8) (size 9 to 14) (size 15 to 20)
#    0.000    1.667   10.000    0.000    2.333    0.667 
#    0.000    4.167    3.667    0.000    0.000    0.000 
#    0.000    0.000    0.000    0.000    0.000    0.000 
#
# Total GULP energy -297472.732222 kJ/mol
# GULP energy per Si atom -12394.697176 kJ/mol
# Density = 1.867514 g / cm^3
# Si number density = 18.717744 Si / 1000 Ang^3
#
#
#
# Elastic Constant Matrix: (Units=GPa)
#
#
# Indices 1 2 3 4 5 6 
#
# 1 100.7161 53.2992 51.0902 0.0000 0.0000 0.0000
# 2 53.2992 108.7021 65.6982 0.0000 0.0000 0.0000
# 3 51.0902 65.6982 137.4560 0.0000 0.0000 0.0000
# 4 0.0000 0.0000 0.0000 41.6152 0.0000 0.0000
# 5 0.0000 0.0000 0.0000 0.0000 -30.9796 0.0000
# 6 0.0000 0.0000 0.0000 0.0000 0.0000 24.2556
#
#
#
# Elastic Compliance Matrix: (Units=1/GPa)
#
#
# Indices 1 2 3 4 5 6 
#
# 1 0.014097 -0.005267 -0.002722 0.000000 0.000000 0.000000
# 2 -0.005267 0.014904 -0.005166 0.000000 0.000000 0.000000
# 3 -0.002722 -0.005166 0.010756 0.000000 0.000000 0.000000
# 4 0.000000 0.000000 0.000000 0.024030 0.000000 0.000000
# 5 0.000000 0.000000 0.000000 0.000000 -0.032279 0.000000
# 6 0.000000 0.000000 0.000000 0.000000 0.000000 0.041228
#
#
# Mechanical properties :
#
#
# Convention : Reuss Voigt Hill
#
# Bulk Modulus (GPa) = 74.36592 76.33883 75.35237
# Shear Modulus (GPa) = 48.29620 18.76400 33.53010
#
# Velocity S-wave (km/s) = 5.08511 3.16962 4.23703
# Velocity P-wave (km/s) = 8.61941 7.36668 8.01755
#
# Compressibility (1/GPa) = 0.01344702
#
# Stress axis : x y z
#
# Youngs Moduli (GPa) = 70.93682 67.09550 92.97110
#
# Poissons Ratio (x) = 0.35338 0.25310
# Poissons Ratio (y) = 0.37361 0.48029
# Poissons Ratio (z) = 0.19312 0.34661
#
# Static dielectric constant tensor:
#      x y z
#    x 3.376250 0.000000 0.000000 
#    y 0.000000 3.944540 0.000000 
#    z 0.000000 0.000000 4.162360 
# 
# 
# High freq. dielectric constant tensor:
#      x y z
#    x 1.706620 0.000000 0.000000 
#    y 0.000000 1.709840 0.000000 
#    z 0.000000 0.000000 1.737950 
# 
# From -- ./inp_files/25155.got.cif
#   From: 2010.03.12/outbox.cif.g09.slc.cpg/sg20_13_cif.got.tgz:25155.got - 2010.04.14 01:38:04.
