data_PCOD8158044
_publ_section_title
;
Structure prediction by ZEFSAII (Michael W. Deem and Ramdas Pophale) SiO2 
 PCOD8158044
Probable space group: C 2 2 21
;
_chemical_formula_sum "Si O2"
_cell_formula_units_Z 64
_cell_length_a 25.084660
_cell_length_b 12.050102
_cell_length_c 11.980987
_cell_angle_alpha 90.000000
_cell_angle_beta 90.000000
_cell_angle_gamma 90.000000
_cell_volume 3621.525429
_symmetry_space_group_name_H-M "C 2 2 21"
_symmetry_group_IT_number 20
_symmetry_cell_setting 'orthorhombic'
loop_
_space_group_symop_operation_xyz
x,y,z
-x,-y,1/2+z
x,-y,-z
-x,y,1/2-z
1/2+x,1/2+y,z
1/2-x,1/2-y,1/2+z
1/2+x,1/2-y,-z
1/2-x,1/2+y,1/2-z
loop_
_atom_site_type_symbol
_atom_site_label
_atom_site_fract_x
_atom_site_fract_y
_atom_site_fract_z
Si Si1 0.871165 0.910366 0.581085
Si Si2 0.062385 0.768960 0.764413
Si Si3 0.121951 0.891312 0.564171
Si Si4 0.196923 0.714395 0.002925
Si Si5 0.687626 0.095055 0.224305
Si Si6 0.189416 0.224815 0.608085
Si Si7 0.385728 0.938459 0.391183
Si Si8 0.699896 0.505331 0.727755
O O1 0.921554 0.860046 0.644886
O O2 0.840001 0.821290 0.507912
O O3 0.828738 0.969786 0.659804
O O4 0.897463 0.000000 0.500000
O O5 0.085606 0.816552 0.647108
O O6 0.081124 0.649757 0.815939
O O7 0.000000 0.760574 0.750000
O O8 0.140955 0.802565 0.473811
O O9 0.174835 0.935765 0.625659
O O10 0.094980 0.000000 0.500000
O O11 0.202933 0.686172 0.132113
O O12 0.254703 0.734692 0.953876
O O13 0.168714 0.614127 0.937640
O O14 0.676022 0.156330 0.340099
O O15 0.737308 0.013200 0.238759
O O16 0.632917 0.032023 0.195513
O O17 0.191795 0.134952 0.706871
O O18 0.414740 0.000000 0.500000
#
# Coordination Sequence:
#
# PCOD8158044 Si02
#       8
#     8   8   8   8   8   8   8   8
#     4  10  20  35  49  83 115 140 181 237 286 335
#     4  10  22  42  64  80 105 147 198 251 287 330
#     4   9  20  35  55  81 114 144 188 228 282 342
#     4  10  18  29  50  73 109 153 188 211 264 339
#     4  11  19  30  49  76 111 154 191 216 268 338
#     4  11  19  30  48  77 112 156 184 221 270 335
#     4   9  20  36  56  80 106 146 196 228 275 344
#     4  10  18  29  49  74 111 154 180 216 267 339
#
# _framework density 17.67211
#
# number of rings (size 3 to 8) (size 9 to 14) (size 15 to 20)
#    0.000    2.000    3.750    0.750    0.000    0.500 
#    2.250    1.875    0.000    0.000    0.000    2.625 
#    0.000    0.000    0.000    0.000    0.000    0.000 
#
# Total GULP energy -396502.653059 kJ/mol
# GULP energy per Si atom -12390.707908 kJ/mol
# Density = 1.763189 g / cm^3
# Si number density = 17.672110 Si / 1000 Ang^3
#
#
#
# Elastic Constant Matrix: (Units=GPa)
#
#
# Indices 1 2 3 4 5 6 
#
# 1 83.2388 38.7090 35.1153 0.0000 0.0000 0.0000
# 2 38.7090 91.6256 51.3853 0.0000 0.0000 0.0000
# 3 35.1153 51.3853 78.0914 0.0000 0.0000 0.0000
# 4 0.0000 0.0000 0.0000 24.6230 0.0000 0.0000
# 5 0.0000 0.0000 0.0000 0.0000 10.4012 0.0000
# 6 0.0000 0.0000 0.0000 0.0000 0.0000 -37.5721
#
#
#
# Elastic Compliance Matrix: (Units=1/GPa)
#
#
# Indices 1 2 3 4 5 6 
#
# 1 0.015813 -0.004268 -0.004303 0.000000 0.000000 0.000000
# 2 -0.004268 0.018449 -0.010221 0.000000 0.000000 0.000000
# 3 -0.004303 -0.010221 0.021465 0.000000 0.000000 0.000000
# 4 0.000000 0.000000 0.000000 0.040612 0.000000 0.000000
# 5 0.000000 0.000000 0.000000 0.000000 0.096143 0.000000
# 6 0.000000 0.000000 0.000000 0.000000 0.000000 -0.026615
#
#
# Mechanical properties :
#
#
# Convention : Reuss Voigt Hill
#
# Bulk Modulus (GPa) = 55.10838 55.93054 55.51946
# Shear Modulus (GPa) = 23.86661 8.00683 15.93672
#
# Velocity S-wave (km/s) = 3.67893 2.13087 3.00626
# Velocity P-wave (km/s) = 7.02122 6.14588 6.59809
#
# Compressibility (1/GPa) = 0.01814606
#
# Stress axis : x y z
#
# Youngs Moduli (GPa) = 63.23768 54.20400 46.58644
#
# Poissons Ratio (x) = 0.23133 0.20044
# Poissons Ratio (y) = 0.26988 0.47614
# Poissons Ratio (z) = 0.27208 0.55399
#
# Static dielectric constant tensor:
#      x y z
#    x 2.850780 0.000000 0.000000 
#    y 0.000000 3.508120 0.000000 
#    z 0.000000 0.000000 4.273080 
# 
# 
# High freq. dielectric constant tensor:
#      x y z
#    x 1.637540 0.000000 0.000000 
#    y 0.000000 1.692870 0.000000 
#    z 0.000000 0.000000 1.692780 
# 
# From -- ./inp_files/14481.got.cif
#   From: 2010.03.12/outbox.cif.g09.slc.cpg/sg20_8_cif.got.tgz:14481.got - 2010.04.14 01:38:04.
