data_PCOD8158190
_publ_section_title
;
Structure prediction by ZEFSAII (Michael W. Deem and Ramdas Pophale) SiO2 
 PCOD8158190
Probable space group: C 2 2 21
;
_chemical_formula_sum "Si O2"
_cell_formula_units_Z 52
_cell_length_a 18.713812
_cell_length_b 13.968437
_cell_length_c 9.827012
_cell_angle_alpha 90.000000
_cell_angle_beta 90.000000
_cell_angle_gamma 90.000000
_cell_volume 2568.807509
_symmetry_space_group_name_H-M "C 2 2 21"
_symmetry_group_IT_number 20
_symmetry_cell_setting 'orthorhombic'
loop_
_space_group_symop_operation_xyz
x,y,z
-x,-y,1/2+z
x,-y,-z
-x,y,1/2-z
1/2+x,1/2+y,z
1/2-x,1/2-y,1/2+z
1/2+x,1/2-y,-z
1/2-x,1/2+y,1/2-z
loop_
_atom_site_type_symbol
_atom_site_label
_atom_site_fract_x
_atom_site_fract_y
_atom_site_fract_z
Si Si1 0.908024 0.614632 0.997185
Si Si2 0.433976 0.839161 0.438629
Si Si3 0.212292 0.094767 0.368408
Si Si4 0.341888 0.000000 0.500000
Si Si5 0.919391 0.265141 0.736278
Si Si6 0.686066 0.389970 0.332386
Si Si7 0.325883 0.208211 0.763780
O O1 0.902200 0.654443 0.150415
O O2 0.903479 0.500000 0.000000
O O3 0.844095 0.659761 0.908890
O O4 0.981224 0.650287 0.925236
O O5 0.408910 0.809772 0.588732
O O6 0.398124 0.771170 0.324504
O O7 0.395534 0.939918 0.404023
O O8 0.293666 0.068082 0.405123
O O9 0.168624 0.118203 0.506965
O O10 0.211295 0.188236 0.276005
O O11 0.177990 0.002383 0.291278
O O12 0.868350 0.173280 0.746458
O O13 0.000000 0.226997 0.750000
O O14 0.768486 0.358737 0.311538
#
# Coordination Sequence:
#
# PCOD8158190 Si02
#       7
#     8   8   8   4   8   8   8
#     4  11  25  39  61  99 134 164 204 265 315 375
#     4  11  22  38  64  90 134 164 207 251 323 383
#     4  10  21  39  63  92 121 167 209 262 309 371
#     4  10  18  38  60  88 116 180 200 240 322 386
#     4  10  23  41  63  91 126 170 210 257 316 383
#     4  10  21  41  65  86 124 169 213 250 322 376
#     4  12  23  39  63  98 125 162 215 265 308 376
#
# _framework density 20.242854999999999
#
# number of rings (size 3 to 8) (size 9 to 14) (size 15 to 20)
#    0.000    1.538    5.385    1.385    2.154    2.462 
#    0.000    2.308    0.000    0.000    0.000    0.000 
#    0.000    0.000    0.000    0.000    0.000    0.000 
#
# Total GULP energy -322279.261009 kJ/mol
# GULP energy per Si atom -12395.356193 kJ/mol
# Density = 2.019678 g / cm^3
# Si number density = 20.242855 Si / 1000 Ang^3
#
#
#
# Elastic Constant Matrix: (Units=GPa)
#
#
# Indices 1 2 3 4 5 6 
#
# 1 71.9072 39.4165 18.7868 0.0000 0.0000 0.0000
# 2 39.4165 130.8741 36.1108 0.0000 0.0000 0.0000
# 3 18.7868 36.1108 73.1664 0.0000 0.0000 0.0000
# 4 0.0000 0.0000 0.0000 23.0013 0.0000 0.0000
# 5 0.0000 0.0000 0.0000 0.0000 21.0309 0.0000
# 6 0.0000 0.0000 0.0000 0.0000 0.0000 34.8292
#
#
#
# Elastic Compliance Matrix: (Units=1/GPa)
#
#
# Indices 1 2 3 4 5 6 
#
# 1 0.016936 -0.004516 -0.002120 0.000000 0.000000 0.000000
# 2 -0.004516 0.010050 -0.003800 0.000000 0.000000 0.000000
# 3 -0.002120 -0.003800 0.016087 0.000000 0.000000 0.000000
# 4 0.000000 0.000000 0.000000 0.043476 0.000000 0.000000
# 5 0.000000 0.000000 0.000000 0.000000 0.047549 0.000000
# 6 0.000000 0.000000 0.000000 0.000000 0.000000 0.028712
#
#
# Mechanical properties :
#
#
# Convention : Reuss Voigt Hill
#
# Bulk Modulus (GPa) = 45.04327 51.61955 48.33141
# Shear Modulus (GPa) = 26.16678 27.88120 27.02399
#
# Velocity S-wave (km/s) = 3.59923 3.71527 3.65771
# Velocity P-wave (km/s) = 6.29066 6.63022 6.46267
#
# Compressibility (1/GPa) = 0.02220087
#
# Stress axis : x y z
#
# Youngs Moduli (GPa) = 59.04563 99.50629 62.16027
#
# Poissons Ratio (x) = 0.44936 0.13177
# Poissons Ratio (y) = 0.26664 0.23623
# Poissons Ratio (z) = 0.12517 0.37816
#
# Static dielectric constant tensor:
#      x y z
#    x 3.619270 0.000000 0.000000 
#    y 0.000000 3.658930 0.000000 
#    z 0.000000 0.000000 3.596470 
# 
# 
# High freq. dielectric constant tensor:
#      x y z
#    x 1.787140 0.000000 0.000000 
#    y 0.000000 1.787700 0.000000 
#    z 0.000000 0.000000 1.782670 
# 
# From -- ./inp_files/10143.got.cif
#   From: 2010.03.12/outbox.cif.g09.slc.cpg/sg20_6_cif.got.tgz:10143.got - 2010.04.14 01:38:04.
