data_PCOD8158248
_publ_section_title
;
Structure prediction by ZEFSAII (Michael W. Deem and Ramdas Pophale) SiO2 
 PCOD8158248
Probable space group: C 2 2 21
;
_chemical_formula_sum "Si O2"
_cell_formula_units_Z 48
_cell_length_a 7.577556
_cell_length_b 38.370023
_cell_length_c 9.373140
_cell_angle_alpha 90.000000
_cell_angle_beta 90.000000
_cell_angle_gamma 90.000000
_cell_volume 2725.249809
_symmetry_space_group_name_H-M "C 2 2 21"
_symmetry_group_IT_number 20
_symmetry_cell_setting 'orthorhombic'
loop_
_space_group_symop_operation_xyz
x,y,z
-x,-y,1/2+z
x,-y,-z
-x,y,1/2-z
1/2+x,1/2+y,z
1/2-x,1/2-y,1/2+z
1/2+x,1/2-y,-z
1/2-x,1/2+y,1/2-z
loop_
_atom_site_type_symbol
_atom_site_label
_atom_site_fract_x
_atom_site_fract_y
_atom_site_fract_z
Si Si1 0.500000 0.836247 0.081048
Si Si2 0.500000 0.913654 0.419014
Si Si3 0.798898 0.784462 0.416030
Si Si4 0.201068 0.965393 0.416398
Si Si5 0.298932 0.534607 0.583602
Si Si6 0.201101 0.215538 0.583969
O O1 0.500000 0.839437 0.250000
O O2 0.500000 0.874946 0.012636
O O3 0.325251 0.815825 0.029475
O O4 0.674750 0.815826 0.029475
O O5 0.500000 0.910555 0.250000
O O6 0.325021 0.934011 0.470133
O O7 0.674979 0.934011 0.470133
O O8 0.765575 0.776711 0.249999
O O9 0.750000 0.750000 0.499999
O O10 0.999999 0.795590 0.445748
O O11 0.230180 0.973120 0.250000
O O12 0.000000 0.954527 0.449561
O O13 0.255789 0.000000 0.500000
O O14 0.244211 0.500000 0.500000
#
# Coordination Sequence:
#
# PCOD8158248 Si02
#       6
#     8   8   8   8   8   8
#     4   9  18  31  46  70  98 122 154 198 239 277
#     4   9  17  29  46  68  96 124 154 192 232 273
#     4  10  19  31  50  72  93 121 156 194 238 284
#     4   9  17  29  47  70  93 121 156 192 229 272
#     4   9  17  29  47  70  93 121 156 192 229 272
#     4  10  19  31  50  72  93 121 156 194 238 284
#
# _framework density 17.613066
#
# number of rings (size 3 to 8) (size 9 to 14) (size 15 to 20)
#    0.000    2.667    1.667    0.500    0.000    1.333 
#    0.000    6.667    0.000    4.000    0.000    4.667 
#    0.000    0.000    0.000    0.000    0.000    0.000 
#
# Total GULP energy -297571.619078 kJ/mol
# GULP energy per Si atom -12398.817462 kJ/mol
# Density = 1.757298 g / cm^3
# Si number density = 17.613066 Si / 1000 Ang^3
#
#
#
# Elastic Constant Matrix: (Units=GPa)
#
#
# Indices 1 2 3 4 5 6 
#
# 1 157.1345 104.3946 28.8037 0.0000 0.0000 0.0000
# 2 104.3946 186.8492 34.9044 0.0000 0.0000 0.0000
# 3 28.8037 34.9044 26.0400 0.0000 0.0000 0.0000
# 4 0.0000 0.0000 0.0000 21.7406 0.0000 0.0000
# 5 0.0000 0.0000 0.0000 0.0000 17.4176 0.0000
# 6 0.0000 0.0000 0.0000 0.0000 0.0000 29.2823
#
#
#
# Elastic Compliance Matrix: (Units=1/GPa)
#
#
# Indices 1 2 3 4 5 6 
#
# 1 0.010596 -0.004977 -0.005050 0.000000 0.000000 0.000000
# 2 -0.004977 0.009477 -0.007198 0.000000 0.000000 0.000000
# 3 -0.005050 -0.007198 0.053637 0.000000 0.000000 0.000000
# 4 0.000000 0.000000 0.000000 0.045997 0.000000 0.000000
# 5 0.000000 0.000000 0.000000 0.000000 0.057413 0.000000
# 6 0.000000 0.000000 0.000000 0.000000 0.000000 0.034150
#
#
# Mechanical properties :
#
#
# Convention : Reuss Voigt Hill
#
# Bulk Modulus (GPa) = 25.47092 78.46990 51.97041
# Shear Modulus (GPa) = 19.31944 27.14952 23.23448
#
# Velocity S-wave (km/s) = 3.31551 3.93038 3.63597
# Velocity P-wave (km/s) = 5.39904 8.07750 6.87007
#
# Compressibility (1/GPa) = 0.03926046
#
# Stress axis : x y z
#
# Youngs Moduli (GPa) = 94.37509 105.51640 18.64391
#
# Poissons Ratio (x) = 0.52514 0.09414
# Poissons Ratio (y) = 0.46969 0.13421
# Poissons Ratio (z) = 0.47656 0.75955
#
# Static dielectric constant tensor:
#      x y z
#    x 3.959530 0.000000 0.000000 
#    y 0.000000 3.538780 0.000000 
#    z 0.000000 0.000000 2.939070 
# 
# 
# High freq. dielectric constant tensor:
#      x y z
#    x 1.700900 0.000000 0.000000 
#    y 0.000000 1.677810 0.000000 
#    z 0.000000 0.000000 1.639180 
# 
# From -- ./inp_files/6518.got.cif
#   From: 2010.03.12/outbox.cif.g09.slc.cpg/sg20_4_cif.got.tgz:6518.got - 2010.04.14 01:38:04.
