data_PCOD8158678
_publ_section_title
;
Structure prediction by ZEFSAII (Michael W. Deem and Ramdas Pophale) SiO2 
 PCOD8158678
Probable space group: C 2 2 21
;
_chemical_formula_sum "Si O2"
_cell_formula_units_Z 64
_cell_length_a 10.978604
_cell_length_b 8.573682
_cell_length_c 31.277409
_cell_angle_alpha 90.000000
_cell_angle_beta 90.000000
_cell_angle_gamma 90.000000
_cell_volume 2944.050538
_symmetry_space_group_name_H-M "C 2 2 21"
_symmetry_group_IT_number 20
_symmetry_cell_setting 'orthorhombic'
loop_
_space_group_symop_operation_xyz
x,y,z
-x,-y,1/2+z
x,-y,-z
-x,y,1/2-z
1/2+x,1/2+y,z
1/2-x,1/2-y,1/2+z
1/2+x,1/2-y,-z
1/2-x,1/2+y,1/2-z
loop_
_atom_site_type_symbol
_atom_site_label
_atom_site_fract_x
_atom_site_fract_y
_atom_site_fract_z
Si Si1 0.521307 0.561363 0.350856
Si Si2 0.184589 0.140192 0.880948
Si Si3 0.400583 0.218166 0.593869
Si Si4 0.859707 0.591739 0.237859
Si Si5 0.493947 0.879662 0.910635
Si Si6 0.822773 0.234483 0.846604
Si Si7 0.733808 0.078900 0.455136
Si Si8 0.681685 0.248087 0.699453
O O1 0.393287 0.468303 0.347982
O O2 0.514689 0.671121 0.393474
O O3 0.629341 0.437932 0.356459
O O4 0.551088 0.663712 0.307871
O O5 0.258036 0.042845 0.915979
O O6 0.274765 0.231164 0.849781
O O7 0.098278 0.250506 0.909327
O O8 0.442338 0.045216 0.585466
O O9 0.313232 0.233873 0.635260
O O10 0.331614 0.282174 0.551573
O O11 0.821726 0.719440 0.202802
O O12 0.775903 0.634205 0.278156
O O13 0.835076 0.414282 0.223762
O O14 0.000000 0.613777 0.250000
O O15 0.404861 0.854606 0.951916
O O16 0.409318 0.864909 0.868510
O O17 0.760370 0.000000 0.500000
#
# Coordination Sequence:
#
# PCOD8158678 Si02
#       8
#     8   8   8   8   8   8   8   8
#     4  10  20  36  59  83 112 152 195 243 295 353
#     4  10  22  41  63  86 118 160 203 249 306 366
#     4  10  20  37  63  88 117 158 198 241 298 360
#     4  12  26  40  57  85 120 158 203 259 313 365
#     4  10  20  37  64  89 116 157 200 244 299 360
#     4  10  21  38  58  86 118 154 203 250 299 362
#     4  10  22  39  60  92 127 156 197 249 303 370
#     4  12  25  40  60  87 119 159 207 255 308 372
#
# _framework density 21.738755999999999
#
# number of rings (size 3 to 8) (size 9 to 14) (size 15 to 20)
#    0.000    1.500    0.000    6.750    0.000    5.000 
#    0.000    0.625    0.000    0.000    0.000    0.000 
#    0.000    0.000    0.000    0.000    0.000    0.000 
#
# Total GULP energy -396641.586817 kJ/mol
# GULP energy per Si atom -12395.049588 kJ/mol
# Density = 2.168928 g / cm^3
# Si number density = 21.738756 Si / 1000 Ang^3
#
#
#
# Elastic Constant Matrix: (Units=GPa)
#
#
# Indices 1 2 3 4 5 6 
#
# 1 63.4002 23.2988 20.3076 0.0000 0.0000 0.0000
# 2 23.2988 112.9128 16.0096 0.0000 0.0000 0.0000
# 3 20.3076 16.0096 67.3153 0.0000 0.0000 0.0000
# 4 0.0000 0.0000 0.0000 23.1910 0.0000 0.0000
# 5 0.0000 0.0000 0.0000 0.0000 23.4620 0.0000
# 6 0.0000 0.0000 0.0000 0.0000 0.0000 34.8026
#
#
#
# Elastic Compliance Matrix: (Units=1/GPa)
#
#
# Indices 1 2 3 4 5 6 
#
# 1 0.018468 -0.003126 -0.004828 0.000000 0.000000 0.000000
# 2 -0.003126 0.009695 -0.001363 0.000000 0.000000 0.000000
# 3 -0.004828 -0.001363 0.016636 0.000000 0.000000 0.000000
# 4 0.000000 0.000000 0.000000 0.043120 0.000000 0.000000
# 5 0.000000 0.000000 0.000000 0.000000 0.042622 0.000000
# 6 0.000000 0.000000 0.000000 0.000000 0.000000 0.028734
#
#
# Mechanical properties :
#
#
# Convention : Reuss Voigt Hill
#
# Bulk Modulus (GPa) = 38.21854 40.31784 39.26819
# Shear Modulus (GPa) = 26.79100 28.55859 27.67479
#
# Velocity S-wave (km/s) = 3.51437 3.62846 3.57187
# Velocity P-wave (km/s) = 5.83839 6.01174 5.92570
#
# Compressibility (1/GPa) = 0.02616531
#
# Stress axis : x y z
#
# Youngs Moduli (GPa) = 54.14741 103.14951 60.11061
#
# Poissons Ratio (x) = 0.32247 0.29021
# Poissons Ratio (y) = 0.16928 0.08190
# Poissons Ratio (z) = 0.26142 0.14055
#
# Static dielectric constant tensor:
#      x y z
#    x 4.071000 0.000000 0.000000 
#    y 0.000000 4.133530 0.000000 
#    z 0.000000 0.000000 3.656610 
# 
# 
# High freq. dielectric constant tensor:
#      x y z
#    x 1.867790 0.000000 0.000000 
#    y 0.000000 1.872760 0.000000 
#    z 0.000000 0.000000 1.816030 
# 
# From -- ./inp_files/31080.got.cif
#   From: 2010.03.12/outbox.cif.g09.slc.cpg/sg20_16_cif.got.tgz:31080.got - 2010.04.14 01:38:04.
