data_PCOD8158992
_publ_section_title
;
Structure prediction by ZEFSAII (Michael W. Deem and Ramdas Pophale) SiO2 
 PCOD8158992
Probable space group: C 2 2 21
;
_chemical_formula_sum "Si O2"
_cell_formula_units_Z 48
_cell_length_a 13.155919
_cell_length_b 13.330569
_cell_length_c 12.726804
_cell_angle_alpha 90.000000
_cell_angle_beta 90.000000
_cell_angle_gamma 90.000000
_cell_volume 2231.974527
_symmetry_space_group_name_H-M "C 2 2 21"
_symmetry_group_IT_number 20
_symmetry_cell_setting 'orthorhombic'
loop_
_space_group_symop_operation_xyz
x,y,z
-x,-y,1/2+z
x,-y,-z
-x,y,1/2-z
1/2+x,1/2+y,z
1/2-x,1/2-y,1/2+z
1/2+x,1/2-y,-z
1/2-x,1/2+y,1/2-z
loop_
_atom_site_type_symbol
_atom_site_label
_atom_site_fract_x
_atom_site_fract_y
_atom_site_fract_z
Si Si1 0.123540 0.287405 0.884147
Si Si2 0.783512 0.885316 0.514368
Si Si3 0.577935 0.256457 0.669057
Si Si4 0.695269 0.615756 0.492602
Si Si5 0.456281 0.115046 0.995346
Si Si6 0.761349 0.248928 0.810006
O O1 0.196955 0.371058 0.935326
O O2 0.140064 0.282720 0.758340
O O3 0.009171 0.323841 0.909381
O O4 0.147763 0.178761 0.934976
O O5 0.664210 0.867814 0.495690
O O6 0.794482 0.843833 0.633262
O O7 0.816854 0.000000 0.500000
O O8 0.500000 0.308882 0.750000
O O9 0.606601 0.334017 0.576751
O O10 0.513140 0.164640 0.616399
O O11 0.678125 0.210803 0.725567
O O12 0.667331 0.500000 0.500000
O O13 0.702937 0.663705 0.608929
O O14 0.488856 0.000000 0.000000
#
# Coordination Sequence:
#
# PCOD8158992 Si02
#       6
#     8   8   8   8   8   8
#     4  10  21  38  65  94 129 170 205 266 326 365
#     4  10  21  41  63  92 130 163 213 267 310 380
#     4  11  22  42  63  90 126 170 208 263 320 378
#     4  10  21  41  60  89 128 165 211 262 314 379
#     4  11  22  43  64  98 129 163 215 265 313 380
#     4  10  20  41  64  87 127 169 208 264 320 373
#
# _framework density 21.505621000000001
#
# number of rings (size 3 to 8) (size 9 to 14) (size 15 to 20)
#    0.000    1.667    5.000    2.500    0.000    3.333 
#    6.000    5.000    0.000    0.000    0.000    0.000 
#    0.000    0.000    0.000    0.000    0.000    0.000 
#
# Total GULP energy -297446.736920 kJ/mol
# GULP energy per Si atom -12393.614038 kJ/mol
# Density = 2.145667 g / cm^3
# Si number density = 21.505621 Si / 1000 Ang^3
#
#
#
# Elastic Constant Matrix: (Units=GPa)
#
#
# Indices 1 2 3 4 5 6 
#
# 1 50.5253 36.1736 24.7868 0.0000 0.0000 0.0000
# 2 36.1736 175.2994 68.7694 0.0000 0.0000 0.0000
# 3 24.7868 68.7694 148.0199 0.0000 0.0000 0.0000
# 4 0.0000 0.0000 0.0000 14.3927 0.0000 0.0000
# 5 0.0000 0.0000 0.0000 0.0000 45.5678 0.0000
# 6 0.0000 0.0000 0.0000 0.0000 0.0000 16.9204
#
#
#
# Elastic Compliance Matrix: (Units=1/GPa)
#
#
# Indices 1 2 3 4 5 6 
#
# 1 0.023734 -0.004083 -0.002078 0.000000 0.000000 0.000000
# 2 -0.004083 0.007678 -0.002884 0.000000 0.000000 0.000000
# 3 -0.002078 -0.002884 0.008443 0.000000 0.000000 0.000000
# 4 0.000000 0.000000 0.000000 0.069480 0.000000 0.000000
# 5 0.000000 0.000000 0.000000 0.000000 0.021945 0.000000
# 6 0.000000 0.000000 0.000000 0.000000 0.000000 0.059100
#
#
# Mechanical properties :
#
#
# Convention : Reuss Voigt Hill
#
# Bulk Modulus (GPa) = 45.93855 70.36714 58.15284
# Shear Modulus (GPa) = 23.17764 31.65049 27.41407
#
# Velocity S-wave (km/s) = 3.28647 3.84048 3.57422
# Velocity P-wave (km/s) = 5.98404 7.24272 6.64326
#
# Compressibility (1/GPa) = 0.02176821
#
# Stress axis : x y z
#
# Youngs Moduli (GPa) = 42.13315 130.23865 118.43450
#
# Poissons Ratio (x) = 0.53171 0.24607
# Poissons Ratio (y) = 0.17201 0.34152
# Poissons Ratio (z) = 0.08754 0.37556
#
# Static dielectric constant tensor:
#      x y z
#    x 3.770750 0.000000 0.000000 
#    y 0.000000 3.760080 0.000000 
#    z 0.000000 0.000000 4.152450 
# 
# 
# High freq. dielectric constant tensor:
#      x y z
#    x 1.838530 0.000000 0.000000 
#    y 0.000000 1.821380 0.000000 
#    z 0.000000 0.000000 1.856680 
# 
# From -- ./inp_files/15029.got.cif
#   From: 2010.03.12/outbox.cif.g09.slc.cpg/sg20_8_cif.got.tgz:15029.got - 2010.04.14 01:38:04.
