data_PCOD8158299
_publ_section_title
;
Structure prediction by ZEFSAII (Michael W. Deem and Ramdas Pophale) SiO2 
 PCOD8158299
Probable space group: C 2 2 21
;
_chemical_formula_sum "Si O2"
_cell_formula_units_Z 48
_cell_length_a 9.234322
_cell_length_b 18.632252
_cell_length_c 15.596877
_cell_angle_alpha 90.000000
_cell_angle_beta 90.000000
_cell_angle_gamma 90.000000
_cell_volume 2683.539615
_symmetry_space_group_name_H-M "C 2 2 21"
_symmetry_group_IT_number 20
_symmetry_cell_setting 'orthorhombic'
loop_
_space_group_symop_operation_xyz
x,y,z
-x,-y,1/2+z
x,-y,-z
-x,y,1/2-z
1/2+x,1/2+y,z
1/2-x,1/2-y,1/2+z
1/2+x,1/2-y,-z
1/2-x,1/2+y,1/2-z
loop_
_atom_site_type_symbol
_atom_site_label
_atom_site_fract_x
_atom_site_fract_y
_atom_site_fract_z
Si Si1 0.908397 0.408863 0.667652
Si Si2 0.055362 0.078327 0.657769
Si Si3 0.555650 0.325889 0.500210
Si Si4 0.645207 0.043512 0.916346
Si Si5 0.566985 0.582341 0.335457
Si Si6 0.604743 0.179180 0.007601
O O1 0.960876 0.486738 0.631059
O O2 0.738040 0.419497 0.681460
O O3 0.934819 0.342322 0.604522
O O4 0.000000 0.388618 0.750000
O O5 0.996079 0.131796 0.583622
O O6 0.229224 0.072777 0.646661
O O7 0.000000 0.108933 0.750000
O O8 0.997949 0.996731 0.648859
O O9 0.519663 0.371891 0.583473
O O10 0.476223 0.251215 0.515220
O O11 0.725098 0.310254 0.493072
O O12 0.553477 0.112660 0.947132
O O13 0.713305 0.000000 0.000000
O O14 0.500000 0.617323 0.250000
#
# Coordination Sequence:
#
# PCOD8158299 Si02
#       6
#     8   8   8   8   8   8
#     4   9  17  31  53  75  94 123 166 209 243 288
#     4   9  16  29  52  75  94 123 165 204 241 289
#     4  10  19  34  50  71 102 134 163 202 245 294
#     4   8  15  32  52  69  94 131 165 199 247 298
#     4   9  18  33  52  73  96 128 167 204 249 293
#     4   9  19  33  51  71  98 133 166 196 245 298
#
# _framework density 17.886824000000001
#
# number of rings (size 3 to 8) (size 9 to 14) (size 15 to 20)
#    0.000    3.000    0.000    3.500    0.000    2.000 
#    0.000   10.833    0.000    8.000    0.000    0.000 
#    0.000    0.000    0.000    0.000    0.000    0.000 
#
# Total GULP energy -297342.098265 kJ/mol
# GULP energy per Si atom -12389.254094 kJ/mol
# Density = 1.784611 g / cm^3
# Si number density = 17.886824 Si / 1000 Ang^3
#
#
#
# Elastic Constant Matrix: (Units=GPa)
#
#
# Indices 1 2 3 4 5 6 
#
# 1 29.0810 35.4913 44.4672 0.0000 0.0000 0.0000
# 2 35.4913 120.2968 64.0407 0.0000 0.0000 0.0000
# 3 44.4672 64.0407 139.6547 0.0000 0.0000 0.0000
# 4 0.0000 0.0000 0.0000 16.5980 0.0000 0.0000
# 5 0.0000 0.0000 0.0000 0.0000 31.4182 0.0000
# 6 0.0000 0.0000 0.0000 0.0000 0.0000 28.0519
#
#
#
# Elastic Compliance Matrix: (Units=1/GPa)
#
#
# Indices 1 2 3 4 5 6 
#
# 1 0.080550 -0.013376 -0.019514 0.000000 0.000000 0.000000
# 2 -0.013376 0.013219 -0.001803 0.000000 0.000000 0.000000
# 3 -0.019514 -0.001803 0.014200 0.000000 0.000000 0.000000
# 4 0.000000 0.000000 0.000000 0.060248 0.000000 0.000000
# 5 0.000000 0.000000 0.000000 0.000000 0.031829 0.000000
# 6 0.000000 0.000000 0.000000 0.000000 0.000000 0.035648
#
#
# Mechanical properties :
#
#
# Convention : Reuss Voigt Hill
#
# Bulk Modulus (GPa) = 25.91773 64.11454 45.01614
# Shear Modulus (GPa) = 15.72619 24.88249 20.30434
#
# Velocity S-wave (km/s) = 2.96836 3.73380 3.37286
# Velocity P-wave (km/s) = 5.12538 7.38314 6.35532
#
# Compressibility (1/GPa) = 0.03858362
#
# Stress axis : x y z
#
# Youngs Moduli (GPa) = 12.41468 75.64965 70.42051
#
# Poissons Ratio (x) = 1.01193 1.37417
# Poissons Ratio (y) = 0.16606 0.12693
# Poissons Ratio (z) = 0.24226 0.13636
#
# Static dielectric constant tensor:
#      x y z
#    x 2.869720 0.000000 0.000000 
#    y 0.000000 3.411110 0.000000 
#    z 0.000000 0.000000 3.477260 
# 
# 
# High freq. dielectric constant tensor:
#      x y z
#    x 1.647700 0.000000 0.000000 
#    y 0.000000 1.697140 0.000000 
#    z 0.000000 0.000000 1.697040 
# 
# From -- ./inp_files/15717.got.cif
#   From: 2010.03.12/outbox.cif.g09.slc.cpg/sg20_8_cif.got.tgz:15717.got - 2010.04.14 01:38:04.
