data_PCOD8158250
_publ_section_title
;
Structure prediction by ZEFSAII (Michael W. Deem and Ramdas Pophale) SiO2 
 PCOD8158250
Probable space group: C 2 2 21
;
_chemical_formula_sum "Si O2"
_cell_formula_units_Z 64
_cell_length_a 22.579249
_cell_length_b 9.261712
_cell_length_c 15.617366
_cell_angle_alpha 90.000000
_cell_angle_beta 90.000000
_cell_angle_gamma 90.000000
_cell_volume 3265.942643
_symmetry_space_group_name_H-M "C 2 2 21"
_symmetry_group_IT_number 20
_symmetry_cell_setting 'orthorhombic'
loop_
_space_group_symop_operation_xyz
x,y,z
-x,-y,1/2+z
x,-y,-z
-x,y,1/2-z
1/2+x,1/2+y,z
1/2-x,1/2-y,1/2+z
1/2+x,1/2-y,-z
1/2-x,1/2+y,1/2-z
loop_
_atom_site_type_symbol
_atom_site_label
_atom_site_fract_x
_atom_site_fract_y
_atom_site_fract_z
Si Si1 0.261108 0.842774 0.362145
Si Si2 0.307402 0.169110 0.000000
Si Si3 0.956658 0.830825 0.827934
Si Si4 0.055028 0.328741 0.500000
Si Si5 0.261107 0.842775 0.637855
Si Si6 0.159737 0.843109 0.767444
Si Si7 0.659737 0.343108 0.232555
Si Si8 0.043342 0.830825 0.327934
O O1 0.224107 0.733615 0.418362
O O2 0.326158 0.774076 0.341583
O O3 0.222559 0.867248 0.277706
O O4 0.271633 0.999999 0.405807
O O5 0.375949 0.211635 0.000001
O O6 0.275894 0.233619 0.918363
O O7 0.297967 0.000000 0.000000
O O8 0.890689 0.786616 0.797287
O O9 0.000000 0.788830 0.750000
O O10 0.960891 0.000000 0.850739
O O11 0.973101 0.740982 0.913723
O O12 0.043281 0.500000 0.500000
O O13 0.026899 0.259018 0.586277
O O14 0.222559 0.867248 0.722294
O O15 0.326158 0.774076 0.658416
O O16 0.139234 0.000001 0.805277
O O17 0.609311 0.286615 0.297287
O O18 0.000000 0.788829 0.250000
#
# Coordination Sequence:
#
# PCOD8158250 Si02
#       8
#     8   8   8   8   8   8   8   8
#     4  10  19  31  52  79 109 143 178 224 279 335
#     4  11  21  33  52  81 114 147 186 232 285 344
#     4  10  21  39  63  87 114 154 201 243 288 344
#     4  11  23  37  58  87 118 151 192 244 297 346
#     4  10  19  31  52  79 109 143 178 224 279 335
#     4   9  18  33  52  78 110 142 178 226 279 334
#     4   9  18  33  52  78 110 142 178 226 279 334
#     4  10  21  39  63  87 114 154 201 243 288 344
#
# _framework density 19.596178999999999
#
# number of rings (size 3 to 8) (size 9 to 14) (size 15 to 20)
#    0.000    2.000    2.500    1.500    0.000    3.500 
#    0.000    1.250    0.000    3.000    0.000    0.000 
#    0.000    0.000    0.000    0.000    0.000    0.000 
#
# Total GULP energy -396538.226910 kJ/mol
# GULP energy per Si atom -12391.819591 kJ/mol
# Density = 1.955158 g / cm^3
# Si number density = 19.596179 Si / 1000 Ang^3
#
#
#
# Elastic Constant Matrix: (Units=GPa)
#
#
# Indices 1 2 3 4 5 6 
#
# 1 54.5570 32.9215 38.5494 0.0000 0.0000 0.0000
# 2 32.9215 103.8030 62.9481 0.0000 0.0000 0.0000
# 3 38.5494 62.9481 108.5399 0.0000 0.0000 0.0000
# 4 0.0000 0.0000 0.0000 46.1659 0.0000 0.0000
# 5 0.0000 0.0000 0.0000 0.0000 28.0757 0.0000
# 6 0.0000 0.0000 0.0000 0.0000 0.0000 23.2490
#
#
#
# Elastic Compliance Matrix: (Units=1/GPa)
#
#
# Indices 1 2 3 4 5 6 
#
# 1 0.025506 -0.004004 -0.006736 0.000000 0.000000 0.000000
# 2 -0.004004 0.015488 -0.007560 0.000000 0.000000 0.000000
# 3 -0.006736 -0.007560 0.015990 0.000000 0.000000 0.000000
# 4 0.000000 0.000000 0.000000 0.021661 0.000000 0.000000
# 5 0.000000 0.000000 0.000000 0.000000 0.035618 0.000000
# 6 0.000000 0.000000 0.000000 0.000000 0.000000 0.043013
#
#
# Mechanical properties :
#
#
# Convention : Reuss Voigt Hill
#
# Bulk Modulus (GPa) = 49.06186 59.52642 54.29414
# Shear Modulus (GPa) = 24.91630 28.33019 26.62324
#
# Velocity S-wave (km/s) = 3.56966 3.80636 3.68991
# Velocity P-wave (km/s) = 6.48697 7.05410 6.77647
#
# Compressibility (1/GPa) = 0.02038243
#
# Stress axis : x y z
#
# Youngs Moduli (GPa) = 39.20714 64.56491 62.53743
#
# Poissons Ratio (x) = 0.25852 0.42128
# Poissons Ratio (y) = 0.15699 0.47281
# Poissons Ratio (z) = 0.26412 0.48814
#
# Static dielectric constant tensor:
#      x y z
#    x 3.367590 0.000000 0.000000 
#    y 0.000000 3.982680 0.000000 
#    z 0.000000 0.000000 3.193850 
# 
# 
# High freq. dielectric constant tensor:
#      x y z
#    x 1.737070 0.000000 0.000000 
#    y 0.000000 1.774050 0.000000 
#    z 0.000000 0.000000 1.745870 
# 
# From -- ./inp_files/22033.got.cif
#   From: 2010.03.12/outbox.cif.g09.slc.cpg/sg20_12_cif.got.tgz:22033.got - 2010.04.14 01:38:04.
