data_PCOD8158697
_publ_section_title
;
Structure prediction by ZEFSAII (Michael W. Deem and Ramdas Pophale) SiO2 
 PCOD8158697
Probable space group: C 2 2 21
;
_chemical_formula_sum "Si O2"
_cell_formula_units_Z 64
_cell_length_a 9.017577
_cell_length_b 20.435627
_cell_length_c 18.258373
_cell_angle_alpha 90.000000
_cell_angle_beta 90.000000
_cell_angle_gamma 90.000000
_cell_volume 3364.650055
_symmetry_space_group_name_H-M "C 2 2 21"
_symmetry_group_IT_number 20
_symmetry_cell_setting 'orthorhombic'
loop_
_space_group_symop_operation_xyz
x,y,z
-x,-y,1/2+z
x,-y,-z
-x,y,1/2-z
1/2+x,1/2+y,z
1/2-x,1/2-y,1/2+z
1/2+x,1/2-y,-z
1/2-x,1/2+y,1/2-z
loop_
_atom_site_type_symbol
_atom_site_label
_atom_site_fract_x
_atom_site_fract_y
_atom_site_fract_z
Si Si1 0.772978 0.190170 0.036202
Si Si2 0.197945 0.365567 0.666111
Si Si3 0.937077 0.056919 0.552200
Si Si4 0.135521 0.003730 0.201742
Si Si5 0.359756 0.867378 0.671051
Si Si6 0.212035 0.436888 0.044435
Si Si7 0.875226 0.183220 0.470803
Si Si8 0.363751 0.982317 0.305486
O O1 0.744783 0.176523 0.121081
O O2 0.949299 0.194099 0.030250
O O3 0.683441 0.132607 0.993632
O O4 0.705258 0.257640 0.010142
O O5 0.263066 0.438586 0.669102
O O6 0.180883 0.337928 0.748942
O O7 0.303493 0.324807 0.610695
O O8 0.027729 0.363237 0.639854
O O9 0.850425 0.120425 0.522601
O O10 0.112546 0.060162 0.549657
O O11 0.877104 0.000000 0.500000
O O12 0.904800 0.044337 0.636555
O O13 0.000000 0.032983 0.250000
O O14 0.226329 0.957351 0.257186
O O15 0.321111 0.944253 0.668979
O O16 0.125692 0.436867 0.122646
O O17 0.151807 0.500000 0.000000
O O18 0.500000 0.980892 0.250000
#
# Coordination Sequence:
#
# PCOD8158697 Si02
#       8
#     8   8   8   8   8   8   8   8
#     4  11  24  42  64  88 125 169 208 258 313 379
#     4  10  21  36  61  93 122 159 203 259 310 373
#     4  10  20  36  60  94 121 154 205 253 304 366
#     4  11  20  33  60  91 126 156 199 257 313 371
#     4  10  20  38  60  90 126 158 203 254 316 371
#     4  10  20  36  63  90 119 157 201 250 311 369
#     4  11  24  42  63  89 127 165 213 257 311 377
#     4  11  20  37  56  94 128 154 198 257 317 367
#
# _framework density 19.021294999999999
#
# number of rings (size 3 to 8) (size 9 to 14) (size 15 to 20)
#    0.000    1.500    6.250    0.750    3.500    0.000 
#    4.500    3.125    2.750    0.000    0.000    0.000 
#    0.000    0.000    0.000    0.000    0.000    0.000 
#
# Total GULP energy -396419.805502 kJ/mol
# GULP energy per Si atom -12388.118922 kJ/mol
# Density = 1.897800 g / cm^3
# Si number density = 19.021295 Si / 1000 Ang^3
#
#
#
# Elastic Constant Matrix: (Units=GPa)
#
#
# Indices 1 2 3 4 5 6 
#
# 1 57.6157 32.1118 29.3069 0.0000 0.0000 0.0000
# 2 32.1118 103.1330 52.3046 0.0000 0.0000 0.0000
# 3 29.3069 52.3046 119.5886 0.0000 0.0000 0.0000
# 4 0.0000 0.0000 0.0000 21.2814 0.0000 0.0000
# 5 0.0000 0.0000 0.0000 0.0000 35.3321 0.0000
# 6 0.0000 0.0000 0.0000 0.0000 0.0000 20.2426
#
#
#
# Elastic Compliance Matrix: (Units=1/GPa)
#
#
# Indices 1 2 3 4 5 6 
#
# 1 0.021836 -0.005249 -0.003055 0.000000 0.000000 0.000000
# 2 -0.005249 0.013722 -0.004715 0.000000 0.000000 0.000000
# 3 -0.003055 -0.004715 0.011173 0.000000 0.000000 0.000000
# 4 0.000000 0.000000 0.000000 0.046989 0.000000 0.000000
# 5 0.000000 0.000000 0.000000 0.000000 0.028303 0.000000
# 6 0.000000 0.000000 0.000000 0.000000 0.000000 0.049401
#
#
# Mechanical properties :
#
#
# Convention : Reuss Voigt Hill
#
# Bulk Modulus (GPa) = 48.32921 56.42041 52.37481
# Shear Modulus (GPa) = 24.46645 26.47882 25.47263
#
# Velocity S-wave (km/s) = 3.59035 3.73508 3.66343
# Velocity P-wave (km/s) = 6.53074 6.95178 6.74454
#
# Compressibility (1/GPa) = 0.02069142
#
# Stress axis : x y z
#
# Youngs Moduli (GPa) = 45.79534 72.87541 89.50124
#
# Poissons Ratio (x) = 0.38256 0.27345
# Poissons Ratio (y) = 0.24040 0.42201
# Poissons Ratio (z) = 0.13992 0.34362
#
# Static dielectric constant tensor:
#      x y z
#    x 3.643200 0.000000 0.000000 
#    y 0.000000 3.319970 0.000000 
#    z 0.000000 0.000000 3.881790 
# 
# 
# High freq. dielectric constant tensor:
#      x y z
#    x 1.744050 0.000000 0.000000 
#    y 0.000000 1.701120 0.000000 
#    z 0.000000 0.000000 1.756920 
# 
# From -- ./inp_files/23940.got.cif
#   From: 2010.03.12/outbox.cif.g09.slc.cpg/sg20_12_cif.got.tgz:23940.got - 2010.04.14 01:38:04.
