data_PCOD8158047
_publ_section_title
;
Structure prediction by ZEFSAII (Michael W. Deem and Ramdas Pophale) SiO2 
 PCOD8158047
Probable space group: C 2 2 21
;
_chemical_formula_sum "Si O2"
_cell_formula_units_Z 48
_cell_length_a 16.240649
_cell_length_b 13.921495
_cell_length_c 9.558200
_cell_angle_alpha 90.000000
_cell_angle_beta 90.000000
_cell_angle_gamma 90.000000
_cell_volume 2161.052759
_symmetry_space_group_name_H-M "C 2 2 21"
_symmetry_group_IT_number 20
_symmetry_cell_setting 'orthorhombic'
loop_
_space_group_symop_operation_xyz
x,y,z
-x,-y,1/2+z
x,-y,-z
-x,y,1/2-z
1/2+x,1/2+y,z
1/2-x,1/2-y,1/2+z
1/2+x,1/2-y,-z
1/2-x,1/2+y,1/2-z
loop_
_atom_site_type_symbol
_atom_site_label
_atom_site_fract_x
_atom_site_fract_y
_atom_site_fract_z
Si Si1 0.944086 0.707010 0.483419
Si Si2 0.312202 0.612570 0.990230
Si Si3 0.682813 0.890544 0.792335
Si Si4 0.007911 0.901358 0.417285
Si Si5 0.168879 0.615211 0.797563
Si Si6 0.117105 0.389805 0.504637
O O1 0.893259 0.667796 0.353312
O O2 0.906637 0.670479 0.629363
O O3 0.941854 0.823147 0.470562
O O4 0.037009 0.672093 0.469023
O O5 0.269141 0.644542 0.137436
O O6 0.319261 0.500000 0.000000
O O7 0.404463 0.647912 0.961259
O O8 0.255602 0.650146 0.862094
O O9 0.684820 0.872468 0.626288
O O10 0.662645 0.001647 0.826513
O O11 0.000000 0.919475 0.250000
O O12 0.990697 0.000000 0.500000
O O13 0.165056 0.641820 0.634857
O O14 0.088699 0.500000 0.500000
#
# Coordination Sequence:
#
# PCOD8158047 Si02
#       6
#     8   8   8   8   8   8
#     4  11  20  34  57  86 121 158 196 241 299 360
#     4   8  17  38  61  81 113 156 197 244 300 354
#     4   9  17  33  61  91 123 158 187 230 298 365
#     4  11  25  45  65  84 112 157 214 266 310 359
#     4   9  18  33  59  93 125 154 187 233 295 362
#     4  10  18  29  53  95 131 153 185 232 291 364
#
# _framework density 22.211397999999999
#
# number of rings (size 3 to 8) (size 9 to 14) (size 15 to 20)
#    0.000    2.333    0.000    4.500    0.000    4.000 
#    0.000   10.833    0.000   12.000    0.000    9.333 
#    0.000    0.000    0.000    0.000    0.000    0.000 
#
# Total GULP energy -297461.536357 kJ/mol
# GULP energy per Si atom -12394.230682 kJ/mol
# Density = 2.216084 g / cm^3
# Si number density = 22.211398 Si / 1000 Ang^3
#
#
#
# Elastic Constant Matrix: (Units=GPa)
#
#
# Indices 1 2 3 4 5 6 
#
# 1 79.9850 39.7988 48.4093 0.0000 0.0000 0.0000
# 2 39.7988 94.6272 47.4669 0.0000 0.0000 0.0000
# 3 48.4093 47.4669 189.9547 0.0000 0.0000 0.0000
# 4 0.0000 0.0000 0.0000 -5.3954 0.0000 0.0000
# 5 0.0000 0.0000 0.0000 0.0000 16.7278 0.0000
# 6 0.0000 0.0000 0.0000 0.0000 0.0000 23.2141
#
#
#
# Elastic Compliance Matrix: (Units=1/GPa)
#
#
# Indices 1 2 3 4 5 6 
#
# 1 0.017130 -0.005734 -0.002933 0.000000 0.000000 0.000000
# 2 -0.005734 0.014001 -0.002038 0.000000 0.000000 0.000000
# 3 -0.002933 -0.002038 0.006521 0.000000 0.000000 0.000000
# 4 0.000000 0.000000 0.000000 -0.185342 0.000000 0.000000
# 5 0.000000 0.000000 0.000000 0.000000 0.059781 0.000000
# 6 0.000000 0.000000 0.000000 0.000000 0.000000 0.043077
#
#
# Mechanical properties :
#
#
# Convention : Reuss Voigt Hill
#
# Bulk Modulus (GPa) = 61.55869 70.65743 66.10806
# Shear Modulus (GPa) = -277.63960 22.16877 -127.73542
#
# Velocity S-wave (km/s) = -11.19241 3.16267 -7.59169
# Velocity P-wave (km/s) = 11.80049 6.72436 6.85692
#
# Compressibility (1/GPa) = 0.01624466
#
# Stress axis : x y z
#
# Youngs Moduli (GPa) = 58.37604 71.42186 153.35079
#
# Poissons Ratio (x) = 0.40950 0.44976
# Poissons Ratio (y) = 0.33470 0.31246
# Poissons Ratio (z) = 0.17121 0.14552
#
# Static dielectric constant tensor:
#      x y z
#    x 4.328450 0.000000 0.000000 
#    y 0.000000 3.898750 0.000000 
#    z 0.000000 0.000000 4.173840 
# 
# 
# High freq. dielectric constant tensor:
#      x y z
#    x 1.858430 0.000000 0.000000 
#    y 0.000000 1.876080 0.000000 
#    z 0.000000 0.000000 1.880840 
# 
# From -- ./inp_files/9343.got.cif
#   From: 2010.03.12/outbox.cif.g09.slc.cpg/sg20_5_cif.got.tgz:9343.got - 2010.04.14 01:38:04.
