data_PCOD8158711
_publ_section_title
;
Structure prediction by ZEFSAII (Michael W. Deem and Ramdas Pophale) SiO2 
 PCOD8158711
Probable space group: C 2 2 21
;
_chemical_formula_sum "Si O2"
_cell_formula_units_Z 48
_cell_length_a 25.283261
_cell_length_b 6.738289
_cell_length_c 13.548793
_cell_angle_alpha 90.000000
_cell_angle_beta 90.000000
_cell_angle_gamma 90.000000
_cell_volume 2308.252577
_symmetry_space_group_name_H-M "C 2 2 21"
_symmetry_group_IT_number 20
_symmetry_cell_setting 'orthorhombic'
loop_
_space_group_symop_operation_xyz
x,y,z
-x,-y,1/2+z
x,-y,-z
-x,y,1/2-z
1/2+x,1/2+y,z
1/2-x,1/2-y,1/2+z
1/2+x,1/2-y,-z
1/2-x,1/2+y,1/2-z
loop_
_atom_site_type_symbol
_atom_site_label
_atom_site_fract_x
_atom_site_fract_y
_atom_site_fract_z
Si Si1 0.745138 0.544426 0.893652
Si Si2 0.838824 0.632968 0.405202
Si Si3 0.491801 0.469166 0.110832
Si Si4 0.957224 0.574967 0.390227
Si Si5 0.429292 0.312273 0.717821
Si Si6 0.190297 0.712393 0.773358
O O1 0.690458 0.658816 0.912872
O O2 0.786707 0.684029 0.836367
O O3 0.731764 0.342086 0.835831
O O4 0.771273 0.500000 0.000000
O O5 0.827943 0.500000 0.500000
O O6 0.900437 0.682475 0.394368
O O7 0.815741 0.509112 0.313984
O O8 0.497005 0.235074 0.137851
O O9 0.550993 0.559222 0.124032
O O10 0.452839 0.589807 0.182867
O O11 0.471340 0.500000 0.000000
O O12 0.971880 0.500000 0.500000
O O13 0.952862 0.407195 0.305078
O O14 0.366430 0.320201 0.728402
#
# Coordination Sequence:
#
# PCOD8158711 Si02
#       6
#     8   8   8   8   8   8
#     4  12  23  38  67  95 131 175 218 269 321 387
#     4  10  20  36  63 101 124 162 217 272 324 377
#     4  11  22  41  67  96 126 169 221 269 327 392
#     4  10  20  38  67  94 129 163 215 277 327 380
#     4  10  24  41  65  94 132 168 219 266 333 388
#     4  11  23  41  62  95 134 171 217 269 321 390
#
# _framework density 20.794953
#
# number of rings (size 3 to 8) (size 9 to 14) (size 15 to 20)
#    0.000    1.333    5.000    1.000    0.000    4.000 
#    0.000    2.500   14.667    0.000    0.000    0.000 
#    0.000    0.000    0.000    0.000    0.000    0.000 
#
# Total GULP energy -297441.378891 kJ/mol
# GULP energy per Si atom -12393.390787 kJ/mol
# Density = 2.074762 g / cm^3
# Si number density = 20.794953 Si / 1000 Ang^3
#
#
#
# Elastic Constant Matrix: (Units=GPa)
#
#
# Indices 1 2 3 4 5 6 
#
# 1 59.2262 8.4160 29.4145 0.0000 0.0000 0.0000
# 2 8.4160 72.8161 22.8969 0.0000 0.0000 0.0000
# 3 29.4145 22.8969 128.1811 0.0000 0.0000 0.0000
# 4 0.0000 0.0000 0.0000 32.5248 0.0000 0.0000
# 5 0.0000 0.0000 0.0000 0.0000 30.3620 0.0000
# 6 0.0000 0.0000 0.0000 0.0000 0.0000 34.2322
#
#
#
# Elastic Compliance Matrix: (Units=1/GPa)
#
#
# Indices 1 2 3 4 5 6 
#
# 1 0.019109 -0.000879 -0.004228 0.000000 0.000000 0.000000
# 2 -0.000879 0.014591 -0.002405 0.000000 0.000000 0.000000
# 3 -0.004228 -0.002405 0.009201 0.000000 0.000000 0.000000
# 4 0.000000 0.000000 0.000000 0.030746 0.000000 0.000000
# 5 0.000000 0.000000 0.000000 0.000000 0.032936 0.000000
# 6 0.000000 0.000000 0.000000 0.000000 0.000000 0.029212
#
#
# Mechanical properties :
#
#
# Convention : Reuss Voigt Hill
#
# Bulk Modulus (GPa) = 35.87089 42.40870 39.13980
# Shear Modulus (GPa) = 31.22821 32.72352 31.97587
#
# Velocity S-wave (km/s) = 3.87941 3.97120 3.92557
# Velocity P-wave (km/s) = 6.11176 6.43935 6.27770
#
# Compressibility (1/GPa) = 0.02787776
#
# Stress axis : x y z
#
# Youngs Moduli (GPa) = 52.33081 68.53556 108.68094
#
# Poissons Ratio (x) = 0.06025 0.45951
# Poissons Ratio (y) = 0.04600 0.26134
# Poissons Ratio (z) = 0.22126 0.16480
#
# Static dielectric constant tensor:
#      x y z
#    x 3.540880 0.000000 0.000000 
#    y 0.000000 3.915320 0.000000 
#    z 0.000000 0.000000 3.767340 
# 
# 
# High freq. dielectric constant tensor:
#      x y z
#    x 1.787970 0.000000 0.000000 
#    y 0.000000 1.827380 0.000000 
#    z 0.000000 0.000000 1.815470 
# 
# From -- ./inp_files/22146.got.cif
#   From: 2010.03.12/outbox.cif.g09.slc.cpg/sg20_12_cif.got.tgz:22146.got - 2010.04.14 01:38:04.
