data_PCOD8159748
_publ_section_title
;
Structure prediction by ZEFSAII (Michael W. Deem and Ramdas Pophale) SiO2 
 PCOD8159748
Probable space group: C 2 2 21
;
_chemical_formula_sum "Si O2"
_cell_formula_units_Z 48
_cell_length_a 18.986135
_cell_length_b 14.839019
_cell_length_c 8.105362
_cell_angle_alpha 90.000000
_cell_angle_beta 90.000000
_cell_angle_gamma 90.000000
_cell_volume 2283.569172
_symmetry_space_group_name_H-M "C 2 2 21"
_symmetry_group_IT_number 20
_symmetry_cell_setting 'orthorhombic'
loop_
_space_group_symop_operation_xyz
x,y,z
-x,-y,1/2+z
x,-y,-z
-x,y,1/2-z
1/2+x,1/2+y,z
1/2-x,1/2-y,1/2+z
1/2+x,1/2-y,-z
1/2-x,1/2+y,1/2-z
loop_
_atom_site_type_symbol
_atom_site_label
_atom_site_fract_x
_atom_site_fract_y
_atom_site_fract_z
Si Si1 0.570829 0.762877 0.144648
Si Si2 0.061220 0.587107 0.118236
Si Si3 0.432883 0.438289 0.646792
Si Si4 0.292885 0.508660 0.696290
Si Si5 0.799278 0.348602 0.784456
Si Si6 0.786245 0.316018 0.170202
O O1 0.500000 0.761951 0.250000
O O2 0.593954 0.661436 0.088615
O O3 0.639331 0.802715 0.238394
O O4 0.548711 0.824086 0.990475
O O5 0.126510 0.612691 0.231169
O O6 0.000000 0.566698 0.250000
O O7 0.072057 0.500000 0.000000
O O8 0.459367 0.500000 0.500000
O O9 0.500000 0.415945 0.750000
O O10 0.374318 0.494984 0.751038
O O11 0.294531 0.500000 0.500000
O O12 0.253207 0.425539 0.774508
O O13 0.254275 0.599387 0.752880
O O14 0.771484 0.262309 0.686119
O O15 0.802427 0.331005 0.979087
#
# Coordination Sequence:
#
# PCOD8159748 Si02
#       6
#     8   8   8   8   8   8
#     4  11  23  44  70  97 138 175 222 287 343 412
#     4  12  27  45  68  99 137 180 233 284 350 424
#     4  10  22  42  64  91 127 172 217 272 335 395
#     4   9  20  39  63  89 127 173 211 269 332 387
#     4  11  23  40  67 100 131 179 226 275 345 406
#     4  11  22  42  67 100 140 177 227 283 341 414
#
# _framework density 21.019725999999999
#
# number of rings (size 3 to 8) (size 9 to 14) (size 15 to 20)
#    0.000    1.333    1.667    3.500    4.667    2.667 
#    6.000    0.833    0.000    0.000    0.000    0.000 
#    0.000    0.000    0.000    0.000    0.000    0.000 
#
# Total GULP energy -297365.730299 kJ/mol
# GULP energy per Si atom -12390.238762 kJ/mol
# Density = 2.097188 g / cm^3
# Si number density = 21.019726 Si / 1000 Ang^3
#
#
#
# Elastic Constant Matrix: (Units=GPa)
#
#
# Indices 1 2 3 4 5 6 
#
# 1 116.2177 51.9195 32.3542 0.0000 0.0000 0.0000
# 2 51.9195 168.8358 51.1552 0.0000 0.0000 0.0000
# 3 32.3542 51.1552 80.3034 0.0000 0.0000 0.0000
# 4 0.0000 0.0000 0.0000 4.9577 0.0000 0.0000
# 5 0.0000 0.0000 0.0000 0.0000 30.5450 0.0000
# 6 0.0000 0.0000 0.0000 0.0000 0.0000 38.7231
#
#
#
# Elastic Compliance Matrix: (Units=1/GPa)
#
#
# Indices 1 2 3 4 5 6 
#
# 1 0.010418 -0.002394 -0.002672 0.000000 0.000000 0.000000
# 2 -0.002394 0.007890 -0.004061 0.000000 0.000000 0.000000
# 3 -0.002672 -0.004061 0.016117 0.000000 0.000000 0.000000
# 4 0.000000 0.000000 0.000000 0.201708 0.000000 0.000000
# 5 0.000000 0.000000 0.000000 0.000000 0.032739 0.000000
# 6 0.000000 0.000000 0.000000 0.000000 0.000000 0.025824
#
#
# Mechanical properties :
#
#
# Convention : Reuss Voigt Hill
#
# Bulk Modulus (GPa) = 61.84728 70.69050 66.26889
# Shear Modulus (GPa) = 15.70648 30.17369 22.94008
#
# Velocity S-wave (km/s) = 2.73651 3.79290 3.30716
# Velocity P-wave (km/s) = 6.28267 7.27221 6.79548
#
# Compressibility (1/GPa) = 0.01616886
#
# Stress axis : x y z
#
# Youngs Moduli (GPa) = 95.98759 126.74844 62.04763
#
# Poissons Ratio (x) = 0.30343 0.16581
# Poissons Ratio (y) = 0.22979 0.25200
# Poissons Ratio (z) = 0.25651 0.51477
#
# Static dielectric constant tensor:
#      x y z
#    x 5.148430 0.000000 0.000000 
#    y 0.000000 4.237870 0.000000 
#    z 0.000000 0.000000 3.132330 
# 
# 
# High freq. dielectric constant tensor:
#      x y z
#    x 1.844070 0.000000 0.000000 
#    y 0.000000 1.846760 0.000000 
#    z 0.000000 0.000000 1.803900 
# 
# From -- ./inp_files/9335.got.cif
#   From: 2010.03.12/outbox.cif.g09.slc.cpg/sg20_5_cif.got.tgz:9335.got - 2010.04.14 01:38:04.
