data_PCOD8159782
_publ_section_title
;
Structure prediction by ZEFSAII (Michael W. Deem and Ramdas Pophale) SiO2 
 PCOD8159782
Probable space group: C 2 2 21
;
_chemical_formula_sum "Si O2"
_cell_formula_units_Z 48
_cell_length_a 29.592979
_cell_length_b 6.058324
_cell_length_c 12.859838
_cell_angle_alpha 90.000000
_cell_angle_beta 90.000000
_cell_angle_gamma 90.000000
_cell_volume 2305.561330
_symmetry_space_group_name_H-M "C 2 2 21"
_symmetry_group_IT_number 20
_symmetry_cell_setting 'orthorhombic'
loop_
_space_group_symop_operation_xyz
x,y,z
-x,-y,1/2+z
x,-y,-z
-x,y,1/2-z
1/2+x,1/2+y,z
1/2-x,1/2-y,1/2+z
1/2+x,1/2-y,-z
1/2-x,1/2+y,1/2-z
loop_
_atom_site_type_symbol
_atom_site_label
_atom_site_fract_x
_atom_site_fract_y
_atom_site_fract_z
Si Si1 0.660804 0.000000 0.500000
Si Si2 0.955007 0.793446 0.316610
Si Si3 0.610488 0.332723 0.848397
Si Si4 0.928429 0.500000 0.500000
Si Si5 0.123721 0.442069 0.708840
Si Si6 0.271636 0.652507 0.094646
Si Si7 0.692428 0.379316 0.207426
O O1 0.627325 0.092061 0.413448
O O2 0.688506 0.198662 0.550267
O O3 0.959933 0.626878 0.415471
O O4 0.917981 0.708040 0.237569
O O5 0.000000 0.818271 0.250000
O O6 0.936613 0.031635 0.352373
O O7 0.655398 0.480601 0.857497
O O8 0.614970 0.194542 0.741730
O O9 0.606552 0.167814 0.945670
O O10 0.170159 0.352702 0.759642
O O11 0.288983 0.508109 0.191747
O O12 0.232892 0.821704 0.129987
O O13 0.253756 0.500000 0.000000
#
# Coordination Sequence:
#
# PCOD8159782 Si02
#       7
#     4   8   8   4   8   8   8
#     4  12  22  43  66  94 130 180 222 274 341 398
#     4  10  23  44  70 102 136 171 212 277 335 401
#     4  10  22  44  68  92 136 174 222 276 333 406
#     4  10  22  45  70 100 128 178 222 268 327 412
#     4  10  22  42  68  93 131 172 222 273 333 404
#     4  12  26  43  66  96 139 179 233 290 338 408
#     4  11  24  45  63  96 133 179 229 285 340 398
#
# _framework density 20.819227000000001
#
# number of rings (size 3 to 8) (size 9 to 14) (size 15 to 20)
#    0.000    1.333    3.333    1.500    0.000    3.333 
#   25.500    1.667    0.000    0.000    0.000    0.000 
#    0.000    0.000    0.000    0.000    0.000    0.000 
#
# Total GULP energy -297564.003361 kJ/mol
# GULP energy per Si atom -12398.500140 kJ/mol
# Density = 2.077184 g / cm^3
# Si number density = 20.819227 Si / 1000 Ang^3
#
#
#
# Elastic Constant Matrix: (Units=GPa)
#
#
# Indices 1 2 3 4 5 6 
#
# 1 95.1933 37.2545 62.4502 0.0000 0.0000 0.0000
# 2 37.2545 110.4881 59.0569 0.0000 0.0000 0.0000
# 3 62.4502 59.0569 148.1527 0.0000 0.0000 0.0000
# 4 0.0000 0.0000 0.0000 42.8469 0.0000 0.0000
# 5 0.0000 0.0000 0.0000 0.0000 24.6859 0.0000
# 6 0.0000 0.0000 0.0000 0.0000 0.0000 16.0047
#
#
#
# Elastic Compliance Matrix: (Units=1/GPa)
#
#
# Indices 1 2 3 4 5 6 
#
# 1 0.014901 -0.002118 -0.005437 0.000000 0.000000 0.000000
# 2 -0.002118 0.011802 -0.003812 0.000000 0.000000 0.000000
# 3 -0.005437 -0.003812 0.010561 0.000000 0.000000 0.000000
# 4 0.000000 0.000000 0.000000 0.023339 0.000000 0.000000
# 5 0.000000 0.000000 0.000000 0.000000 0.040509 0.000000
# 6 0.000000 0.000000 0.000000 0.000000 0.000000 0.062482
#
#
# Mechanical properties :
#
#
# Convention : Reuss Voigt Hill
#
# Bulk Modulus (GPa) = 68.82036 74.59525 71.70781
# Shear Modulus (GPa) = 26.15471 29.71234 27.93352
#
# Velocity S-wave (km/s) = 3.54824 3.78187 3.66692
# Velocity P-wave (km/s) = 7.06503 7.41471 7.24198
#
# Compressibility (1/GPa) = 0.01453058
#
# Stress axis : x y z
#
# Youngs Moduli (GPa) = 67.11177 84.72829 94.68885
#
# Poissons Ratio (x) = 0.17948 0.51478
# Poissons Ratio (y) = 0.14216 0.36093
# Poissons Ratio (z) = 0.36486 0.32297
#
# Static dielectric constant tensor:
#      x y z
#    x 3.636980 0.000000 0.000000 
#    y 0.000000 4.125580 0.000000 
#    z 0.000000 0.000000 3.994410 
# 
# 
# High freq. dielectric constant tensor:
#      x y z
#    x 1.794990 0.000000 0.000000 
#    y 0.000000 1.832270 0.000000 
#    z 0.000000 0.000000 1.823830 
# 
# From -- ./inp_files/22194.got.cif
#   From: 2010.03.12/outbox.cif.g09.slc.cpg/sg20_12_cif.got.tgz:22194.got - 2010.04.14 01:38:04.
