data_PCOD8159240
_publ_section_title
;
Structure prediction by ZEFSAII (Michael W. Deem and Ramdas Pophale) SiO2 
 PCOD8159240
Probable space group: C 2 2 21
;
_chemical_formula_sum "Si O2"
_cell_formula_units_Z 44
_cell_length_a 17.556194
_cell_length_b 14.076601
_cell_length_c 9.030281
_cell_angle_alpha 90.000000
_cell_angle_beta 90.000000
_cell_angle_gamma 90.000000
_cell_volume 2231.667232
_symmetry_space_group_name_H-M "C 2 2 21"
_symmetry_group_IT_number 20
_symmetry_cell_setting 'orthorhombic'
loop_
_space_group_symop_operation_xyz
x,y,z
-x,-y,1/2+z
x,-y,-z
-x,y,1/2-z
1/2+x,1/2+y,z
1/2-x,1/2-y,1/2+z
1/2+x,1/2-y,-z
1/2-x,1/2+y,1/2-z
loop_
_atom_site_type_symbol
_atom_site_label
_atom_site_fract_x
_atom_site_fract_y
_atom_site_fract_z
Si Si1 0.878100 0.372426 0.215522
Si Si2 0.726669 0.289158 0.628151
Si Si3 0.748319 0.500110 0.671535
Si Si4 0.000000 0.737675 0.250000
Si Si5 0.160085 0.820271 0.305277
Si Si6 0.014352 0.392949 0.021697
O O1 0.836378 0.272552 0.208966
O O2 0.821199 0.461544 0.237466
O O3 0.934236 0.351953 0.349563
O O4 0.925110 0.391744 0.065429
O O5 0.727133 0.391770 0.709431
O O6 0.807579 0.238255 0.663960
O O7 0.707366 0.290794 0.453404
O O8 0.771321 0.500000 0.500000
O O9 0.675344 0.566561 0.710489
O O10 0.930789 0.802869 0.188123
O O11 0.969568 0.668930 0.377512
O O12 0.041555 0.500000 0.000000
#
# Coordination Sequence:
#
# PCOD8159240 Si02
#       6
#     8   8   8   4   8   8
#     4  10  21  39  58  91 122 155 203 245 303 374
#     4  10  21  41  63  87 121 159 201 255 299 364
#     4   9  20  37  64  86 116 158 203 243 300 358
#     4  12  24  40  62  86 128 162 200 260 306 366
#     4  10  23  39  63  90 118 160 206 246 308 366
#     4  11  24  36  59  89 127 159 196 249 315 367
#
# _framework density 19.716200000000001
#
# number of rings (size 3 to 8) (size 9 to 14) (size 15 to 20)
#    0.000    1.818    1.818    1.636   12.727    0.000 
#    0.000    4.545    0.000    0.000    0.000    0.000 
#    0.000    0.000    0.000    0.000    0.000    0.000 
#
# Total GULP energy -272692.901876 kJ/mol
# GULP energy per Si atom -12395.131903 kJ/mol
# Density = 1.967133 g / cm^3
# Si number density = 19.716200 Si / 1000 Ang^3
#
#
#
# Elastic Constant Matrix: (Units=GPa)
#
#
# Indices 1 2 3 4 5 6 
#
# 1 88.6022 32.1708 25.3219 0.0000 0.0000 0.0000
# 2 32.1708 114.5810 23.7247 0.0000 0.0000 0.0000
# 3 25.3219 23.7247 62.8286 0.0000 0.0000 0.0000
# 4 0.0000 0.0000 0.0000 26.9007 0.0000 0.0000
# 5 0.0000 0.0000 0.0000 0.0000 26.6202 0.0000
# 6 0.0000 0.0000 0.0000 0.0000 0.0000 14.6028
#
#
#
# Elastic Compliance Matrix: (Units=1/GPa)
#
#
# Indices 1 2 3 4 5 6 
#
# 1 0.013595 -0.002910 -0.004380 0.000000 0.000000 0.000000
# 2 -0.002910 0.010091 -0.002637 0.000000 0.000000 0.000000
# 3 -0.004380 -0.002637 0.018678 0.000000 0.000000 0.000000
# 4 0.000000 0.000000 0.000000 0.037174 0.000000 0.000000
# 5 0.000000 0.000000 0.000000 0.000000 0.037566 0.000000
# 6 0.000000 0.000000 0.000000 0.000000 0.000000 0.068480
#
#
# Mechanical properties :
#
#
# Convention : Reuss Voigt Hill
#
# Bulk Modulus (GPa) = 44.42961 47.60515 46.01738
# Shear Modulus (GPa) = 23.48074 25.94437 24.71255
#
# Velocity S-wave (km/s) = 3.45474 3.63146 3.54420
# Velocity P-wave (km/s) = 6.20460 6.46382 6.33554
#
# Compressibility (1/GPa) = 0.02250751
#
# Stress axis : x y z
#
# Youngs Moduli (GPa) = 73.55710 99.10204 53.53993
#
# Poissons Ratio (x) = 0.28839 0.23452
# Poissons Ratio (y) = 0.21406 0.14121
# Poissons Ratio (z) = 0.32220 0.26138
#
# Static dielectric constant tensor:
#      x y z
#    x 3.649060 0.000000 0.000000 
#    y 0.000000 3.749190 0.000000 
#    z 0.000000 0.000000 3.683110 
# 
# 
# High freq. dielectric constant tensor:
#      x y z
#    x 1.767200 0.000000 0.000000 
#    y 0.000000 1.767330 0.000000 
#    z 0.000000 0.000000 1.764050 
# 
# From -- ./inp_files/9284.got.cif
#   From: 2010.03.12/outbox.cif.g09.slc.cpg/sg20_5_cif.got.tgz:9284.got - 2010.04.14 01:38:04.
