data_PCOD8159513
_publ_section_title
;
Structure prediction by ZEFSAII (Michael W. Deem and Ramdas Pophale) SiO2 
 PCOD8159513
Probable space group: C 2 2 21
;
_chemical_formula_sum "Si O2"
_cell_formula_units_Z 56
_cell_length_a 20.468682
_cell_length_b 8.215754
_cell_length_c 15.078891
_cell_angle_alpha 90.000000
_cell_angle_beta 90.000000
_cell_angle_gamma 90.000000
_cell_volume 2535.751597
_symmetry_space_group_name_H-M "C 2 2 21"
_symmetry_group_IT_number 20
_symmetry_cell_setting 'orthorhombic'
loop_
_space_group_symop_operation_xyz
x,y,z
-x,-y,1/2+z
x,-y,-z
-x,y,1/2-z
1/2+x,1/2+y,z
1/2-x,1/2-y,1/2+z
1/2+x,1/2-y,-z
1/2-x,1/2+y,1/2-z
loop_
_atom_site_type_symbol
_atom_site_label
_atom_site_fract_x
_atom_site_fract_y
_atom_site_fract_z
Si Si1 0.222175 0.451012 0.192008
Si Si2 0.758480 0.000000 0.000000
Si Si3 0.843362 0.880225 0.735919
Si Si4 0.049003 0.940998 0.898321
Si Si5 0.500000 0.343375 0.250000
Si Si6 0.839777 0.320888 0.983345
Si Si7 0.561758 0.211106 0.633250
Si Si8 0.611149 0.884539 0.704146
O O1 0.204172 0.270209 0.220138
O O2 0.296292 0.478078 0.226920
O O3 0.170914 0.575183 0.232614
O O4 0.214870 0.473353 0.086600
O O5 0.798164 0.167154 0.016152
O O6 0.878417 0.931553 0.643707
O O7 0.899657 0.844747 0.807922
O O8 0.012841 0.765464 0.886708
O O9 0.001946 0.058103 0.841785
O O10 0.053482 0.000000 0.000000
O O11 0.433357 0.243867 0.253786
O O12 0.856589 0.300869 0.881149
O O13 0.805760 0.500000 0.000000
O O14 0.906335 0.314814 0.037952
O O15 0.564778 0.039227 0.683659
#
# Coordination Sequence:
#
# PCOD8159513 Si02
#       8
#     8   4   8   8   4   8   8   8
#     4  11  26  44  70  99 141 189 238 291 363 422
#     4  12  24  42  74 100 142 196 246 294 352 446
#     4  11  24  46  67 100 140 186 230 293 352 423
#     4  12  27  44  73 108 143 185 231 298 362 432
#     4  12  26  42  74 102 144 180 240 290 354 452
#     4  10  22  42  70 105 138 184 251 293 346 435
#     4  10  21  44  73  98 141 184 231 290 361 421
#     4  10  25  43  69 105 136 186 234 297 358 426
#
# _framework density 22.084181000000001
#
# number of rings (size 3 to 8) (size 9 to 14) (size 15 to 20)
#    0.000    1.143    2.857    1.714   11.000    1.143 
#    0.000    2.143    0.000    0.000    0.000    0.000 
#    0.000    0.000    0.000    0.000    0.000    0.000 
#
# Total GULP energy -347164.331158 kJ/mol
# GULP energy per Si atom -12398.726113 kJ/mol
# Density = 2.203392 g / cm^3
# Si number density = 22.084181 Si / 1000 Ang^3
#
#
#
# Elastic Constant Matrix: (Units=GPa)
#
#
# Indices 1 2 3 4 5 6 
#
# 1 75.3692 22.9356 35.8897 0.0000 0.0000 0.0000
# 2 22.9356 77.2435 15.1942 0.0000 0.0000 0.0000
# 3 35.8897 15.1942 134.3557 0.0000 0.0000 0.0000
# 4 0.0000 0.0000 0.0000 30.2033 0.0000 0.0000
# 5 0.0000 0.0000 0.0000 0.0000 28.0286 0.0000
# 6 0.0000 0.0000 0.0000 0.0000 0.0000 -214.1661
#
#
#
# Elastic Compliance Matrix: (Units=1/GPa)
#
#
# Indices 1 2 3 4 5 6 
#
# 1 0.016376 -0.004093 -0.003912 0.000000 0.000000 0.000000
# 2 -0.004093 0.014264 -0.000520 0.000000 0.000000 0.000000
# 3 -0.003912 -0.000520 0.008547 0.000000 0.000000 0.000000
# 4 0.000000 0.000000 0.000000 0.033109 0.000000 0.000000
# 5 0.000000 0.000000 0.000000 0.000000 0.035678 0.000000
# 6 0.000000 0.000000 0.000000 0.000000 0.000000 -0.004669
#
#
# Mechanical properties :
#
#
# Convention : Reuss Voigt Hill
#
# Bulk Modulus (GPa) = 45.17189 48.33416 46.75303
# Shear Modulus (GPa) = 39.14442 -16.99026 11.07708
#
# Velocity S-wave (km/s) = 4.21469 -2.77671 2.24204
# Velocity P-wave (km/s) = 6.64707 3.41375 5.28381
#
# Compressibility (1/GPa) = 0.02213766
#
# Stress axis : x y z
#
# Youngs Moduli (GPa) = 61.06400 70.10826 117.00574
#
# Poissons Ratio (x) = 0.28696 0.45768
# Poissons Ratio (y) = 0.24994 0.06081
# Poissons Ratio (z) = 0.23886 0.03643
#
# Static dielectric constant tensor:
#      x y z
#    x 3.926810 0.000000 0.000000 
#    y 0.000000 4.219440 0.000000 
#    z 0.000000 0.000000 4.036110 
# 
# 
# High freq. dielectric constant tensor:
#      x y z
#    x 1.856770 0.000000 0.000000 
#    y 0.000000 1.882070 0.000000 
#    z 0.000000 0.000000 1.875200 
# 
# From -- ./inp_files/21808.got.cif
#   From: 2010.03.12/outbox.cif.g09.slc.cpg/sg20_11_cif.got.tgz:21808.got - 2010.04.14 01:38:04.
