data_PCOD8159708
_publ_section_title
;
Structure prediction by ZEFSAII (Michael W. Deem and Ramdas Pophale) SiO2 
 PCOD8159708
Probable space group: C 2 2 21
;
_chemical_formula_sum "Si O2"
_cell_formula_units_Z 48
_cell_length_a 27.724526
_cell_length_b 8.382775
_cell_length_c 9.696084
_cell_angle_alpha 90.000000
_cell_angle_beta 90.000000
_cell_angle_gamma 90.000000
_cell_volume 2253.451984
_symmetry_space_group_name_H-M "C 2 2 21"
_symmetry_group_IT_number 20
_symmetry_cell_setting 'orthorhombic'
loop_
_space_group_symop_operation_xyz
x,y,z
-x,-y,1/2+z
x,-y,-z
-x,y,1/2-z
1/2+x,1/2+y,z
1/2-x,1/2-y,1/2+z
1/2+x,1/2-y,-z
1/2-x,1/2+y,1/2-z
loop_
_atom_site_type_symbol
_atom_site_label
_atom_site_fract_x
_atom_site_fract_y
_atom_site_fract_z
Si Si1 0.420241 0.000000 0.000000
Si Si2 0.559716 0.500000 0.000000
Si Si3 0.019914 0.789700 0.392946
Si Si4 0.192670 0.770112 0.345212
Si Si5 0.654165 0.197218 0.634119
Si Si6 0.215671 0.474773 0.155634
Si Si7 0.894803 0.982331 0.213211
O O1 0.453290 0.851952 0.966867
O O2 0.385509 0.055367 0.874590
O O3 0.525451 0.654455 0.984199
O O4 0.594411 0.472066 0.870580
O O5 0.055509 0.939013 0.364084
O O6 0.000000 0.720690 0.250000
O O7 0.188118 0.694969 0.498137
O O8 0.212691 0.637560 0.241110
O O9 0.228849 0.919695 0.348527
O O10 0.140836 0.830951 0.292591
O O11 0.684663 0.164902 0.771763
O O12 0.628286 0.367936 0.636061
O O13 0.196366 0.500000 0.000000
#
# Coordination Sequence:
#
# PCOD8159708 Si02
#       7
#     4   4   8   8   8   8   8
#     4  12  22  42  71  96 136 180 219 280 340 420
#     4  10  24  42  63 104 130 174 231 288 336 406
#     4  10  22  41  65  97 135 174 226 281 341 409
#     4  12  24  46  68 100 136 184 229 275 341 408
#     4  12  24  44  70 100 134 187 226 271 346 408
#     4  12  26  43  68 103 141 175 231 284 330 394
#     4  11  23  42  71  93 134 181 228 281 339 413
#
# _framework density 21.300653000000001
#
# number of rings (size 3 to 8) (size 9 to 14) (size 15 to 20)
#    0.000    0.667    3.333    4.500    2.333    1.333 
#    3.000    0.000    0.000    0.000    0.000    0.000 
#    0.000    0.000    0.000    0.000    0.000    0.000 
#
# Total GULP energy -297721.749397 kJ/mol
# GULP energy per Si atom -12405.072892 kJ/mol
# Density = 2.125217 g / cm^3
# Si number density = 21.300653 Si / 1000 Ang^3
#
#
#
# Elastic Constant Matrix: (Units=GPa)
#
#
# Indices 1 2 3 4 5 6 
#
# 1 84.7860 18.1125 43.3082 0.0000 0.0000 0.0000
# 2 18.1125 81.3424 38.0051 0.0000 0.0000 0.0000
# 3 43.3082 38.0051 151.0828 0.0000 0.0000 0.0000
# 4 0.0000 0.0000 0.0000 34.1974 0.0000 0.0000
# 5 0.0000 0.0000 0.0000 0.0000 31.3869 0.0000
# 6 0.0000 0.0000 0.0000 0.0000 0.0000 28.5739
#
#
#
# Elastic Compliance Matrix: (Units=1/GPa)
#
#
# Indices 1 2 3 4 5 6 
#
# 1 0.013958 -0.001404 -0.003648 0.000000 0.000000 0.000000
# 2 -0.001404 0.014072 -0.003138 0.000000 0.000000 0.000000
# 3 -0.003648 -0.003138 0.008454 0.000000 0.000000 0.000000
# 4 0.000000 0.000000 0.000000 0.029242 0.000000 0.000000
# 5 0.000000 0.000000 0.000000 0.000000 0.031860 0.000000
# 6 0.000000 0.000000 0.000000 0.000000 0.000000 0.034997
#
#
# Mechanical properties :
#
#
# Convention : Reuss Voigt Hill
#
# Bulk Modulus (GPa) = 49.73743 57.34028 53.53886
# Shear Modulus (GPa) = 32.12072 33.35066 32.73569
#
# Velocity S-wave (km/s) = 3.88747 3.96120 3.92451
# Velocity P-wave (km/s) = 6.59930 6.92094 6.76203
#
# Compressibility (1/GPa) = 0.02010558
#
# Stress axis : x y z
#
# Youngs Moduli (GPa) = 71.64579 71.06219 118.28971
#
# Poissons Ratio (x) = 0.09974 0.43151
# Poissons Ratio (y) = 0.10056 0.37114
# Poissons Ratio (z) = 0.26136 0.22296
#
# Static dielectric constant tensor:
#      x y z
#    x 4.027580 0.000000 0.000000 
#    y 0.000000 3.772710 0.000000 
#    z 0.000000 0.000000 3.983900 
# 
# 
# High freq. dielectric constant tensor:
#      x y z
#    x 1.845260 0.000000 0.000000 
#    y 0.000000 1.838610 0.000000 
#    z 0.000000 0.000000 1.835760 
# 
# From -- ./inp_files/6588.got.cif
#   From: 2010.03.12/outbox.cif.g09.slc.cpg/sg20_4_cif.got.tgz:6588.got - 2010.04.14 01:38:04.
