data_PCOD8159624
_publ_section_title
;
Structure prediction by ZEFSAII (Michael W. Deem and Ramdas Pophale) SiO2 
 PCOD8159624
Probable space group: C 2 2 21
;
_chemical_formula_sum "Si O2"
_cell_formula_units_Z 60
_cell_length_a 18.502755
_cell_length_b 8.503631
_cell_length_c 18.269625
_cell_angle_alpha 90.000000
_cell_angle_beta 90.000000
_cell_angle_gamma 90.000000
_cell_volume 2874.553778
_symmetry_space_group_name_H-M "C 2 2 21"
_symmetry_group_IT_number 20
_symmetry_cell_setting 'orthorhombic'
loop_
_space_group_symop_operation_xyz
x,y,z
-x,-y,1/2+z
x,-y,-z
-x,y,1/2-z
1/2+x,1/2+y,z
1/2-x,1/2-y,1/2+z
1/2+x,1/2-y,-z
1/2-x,1/2+y,1/2-z
loop_
_atom_site_type_symbol
_atom_site_label
_atom_site_fract_x
_atom_site_fract_y
_atom_site_fract_z
Si Si1 0.371258 0.076636 0.105057
Si Si2 0.234920 0.613816 0.064388
Si Si3 0.609230 0.346825 0.108661
Si Si4 0.501495 0.500000 0.500000
Si Si5 0.420287 0.880052 0.737783
Si Si6 0.710497 0.076588 0.797912
Si Si7 0.390984 0.245148 0.959402
Si Si8 0.221960 0.928902 0.840215
O O1 0.388719 0.161825 0.182040
O O2 0.283943 0.073366 0.097426
O O3 0.402434 0.897277 0.098873
O O4 0.404713 0.180249 0.041001
O O5 0.169630 0.735727 0.072981
O O6 0.251043 0.511924 0.136673
O O7 0.309245 0.697607 0.045554
O O8 0.209589 0.500000 0.000000
O O9 0.577966 0.270004 0.183451
O O10 0.646843 0.512313 0.126766
O O11 0.545772 0.386153 0.051771
O O12 0.551919 0.612678 0.448914
O O13 0.500000 0.946949 0.750000
O O14 0.372127 0.017526 0.703362
O O15 0.707892 0.260729 0.806613
O O16 0.752677 0.048260 0.722849
#
# Coordination Sequence:
#
# PCOD8159624 Si02
#       8
#     8   8   8   4   8   8   8   8
#     4  10  22  39  73  93 129 178 228 278 335 414
#     4  11  22  41  69  96 130 176 232 275 339 411
#     4  11  26  44  67  99 138 184 223 288 346 407
#     4  12  28  44  64 102 154 168 232 286 356 410
#     4  10  22  45  64  90 135 181 227 270 353 414
#     4  10  23  37  67  99 129 170 227 293 324 405
#     4  11  23  42  66 102 133 178 224 284 342 413
#     4  11  21  41  66  99 131 168 232 285 336 393
#
# _framework density 20.872806000000001
#
# number of rings (size 3 to 8) (size 9 to 14) (size 15 to 20)
#    0.000    1.333    2.000    4.000    5.600    1.067 
#    7.200    0.667    0.000    0.000    0.000    0.000 
#    0.000    0.000    0.000    0.000    0.000    0.000 
#
# Total GULP energy -372000.930865 kJ/mol
# GULP energy per Si atom -12400.031029 kJ/mol
# Density = 2.082530 g / cm^3
# Si number density = 20.872806 Si / 1000 Ang^3
#
#
#
# Elastic Constant Matrix: (Units=GPa)
#
#
# Indices 1 2 3 4 5 6 
#
# 1 105.8565 35.8159 27.1230 0.0000 0.0000 0.0000
# 2 35.8159 104.3481 28.9509 0.0000 0.0000 0.0000
# 3 27.1230 28.9509 88.7797 0.0000 0.0000 0.0000
# 4 0.0000 0.0000 0.0000 33.2794 0.0000 0.0000
# 5 0.0000 0.0000 0.0000 0.0000 23.4777 0.0000
# 6 0.0000 0.0000 0.0000 0.0000 0.0000 13.6943
#
#
#
# Elastic Compliance Matrix: (Units=1/GPa)
#
#
# Indices 1 2 3 4 5 6 
#
# 1 0.011123 -0.003161 -0.002367 0.000000 0.000000 0.000000
# 2 -0.003161 0.011435 -0.002763 0.000000 0.000000 0.000000
# 3 -0.002367 -0.002763 0.012888 0.000000 0.000000 0.000000
# 4 0.000000 0.000000 0.000000 0.030049 0.000000 0.000000
# 5 0.000000 0.000000 0.000000 0.000000 0.042594 0.000000
# 6 0.000000 0.000000 0.000000 0.000000 0.000000 0.073023
#
#
# Mechanical properties :
#
#
# Convention : Reuss Voigt Hill
#
# Bulk Modulus (GPa) = 53.01410 53.64041 53.32726
# Shear Modulus (GPa) = 24.51199 27.89659 26.20429
#
# Velocity S-wave (km/s) = 3.43060 3.65979 3.54704
# Velocity P-wave (km/s) = 6.41450 6.60403 6.50995
#
# Compressibility (1/GPa) = 0.01886291
#
# Stress axis : x y z
#
# Youngs Moduli (GPa) = 89.90543 87.45171 77.59066
#
# Poissons Ratio (x) = 0.27643 0.18368
# Poissons Ratio (y) = 0.28418 0.21440
# Poissons Ratio (z) = 0.21284 0.24165
#
# Static dielectric constant tensor:
#      x y z
#    x 3.846210 0.000000 0.000000 
#    y 0.000000 3.797170 0.000000 
#    z 0.000000 0.000000 3.900510 
# 
# 
# High freq. dielectric constant tensor:
#      x y z
#    x 1.813450 0.000000 0.000000 
#    y 0.000000 1.821140 0.000000 
#    z 0.000000 0.000000 1.820680 
# 
# From -- ./inp_files/25287.got.cif
#   From: 2010.03.12/outbox.cif.g09.slc.cpg/sg20_13_cif.got.tgz:25287.got - 2010.04.14 01:38:04.
