data_PCOD8159558
_publ_section_title
;
Structure prediction by ZEFSAII (Michael W. Deem and Ramdas Pophale) SiO2 
 PCOD8159558
Probable space group: C 2 2 21
;
_chemical_formula_sum "Si O2"
_cell_formula_units_Z 64
_cell_length_a 15.083515
_cell_length_b 9.055146
_cell_length_c 23.218840
_cell_angle_alpha 90.000000
_cell_angle_beta 90.000000
_cell_angle_gamma 90.000000
_cell_volume 3171.308820
_symmetry_space_group_name_H-M "C 2 2 21"
_symmetry_group_IT_number 20
_symmetry_cell_setting 'orthorhombic'
loop_
_space_group_symop_operation_xyz
x,y,z
-x,-y,1/2+z
x,-y,-z
-x,y,1/2-z
1/2+x,1/2+y,z
1/2-x,1/2-y,1/2+z
1/2+x,1/2-y,-z
1/2-x,1/2+y,1/2-z
loop_
_atom_site_type_symbol
_atom_site_label
_atom_site_fract_x
_atom_site_fract_y
_atom_site_fract_z
Si Si1 0.770741 0.190520 0.421144
Si Si2 0.571355 0.323940 0.000191
Si Si3 0.629343 0.324786 0.507860
Si Si4 0.259583 0.384290 0.188722
Si Si5 0.905336 0.955894 0.273220
Si Si6 0.099153 0.708121 0.743427
Si Si7 0.661158 0.617826 0.889454
Si Si8 0.688207 0.691488 0.363473
O O1 0.865559 0.242414 0.449378
O O2 0.689811 0.237125 0.462383
O O3 0.752844 0.253501 0.357484
O O4 0.778239 0.013396 0.416200
O O5 0.613256 0.283602 0.061872
O O6 0.568081 0.500000 0.000000
O O7 0.471346 0.263508 0.996621
O O8 0.635713 0.500000 0.500000
O O9 0.661302 0.287327 0.571097
O O10 0.333695 0.356399 0.238128
O O11 0.166430 0.402106 0.223206
O O12 0.293740 0.523176 0.152781
O O13 0.909414 0.936181 0.342253
O O14 0.000000 0.908194 0.250000
O O15 0.885545 0.128804 0.268053
O O16 0.115561 0.724796 0.675229
O O17 0.000000 0.646320 0.750000
O O18 0.720499 0.726654 0.852278
#
# Coordination Sequence:
#
# PCOD8159558 Si02
#       8
#     8   8   8   8   8   8   8   8
#     4  11  22  38  64  87 121 159 202 251 299 361
#     4   9  22  36  62  89 119 159 206 250 296 359
#     4  11  22  39  62  94 120 158 209 253 302 363
#     4  11  22  38  62  91 117 159 200 252 307 352
#     4  10  22  37  63  90 119 159 207 248 299 366
#     4  10  22  39  62  90 119 159 206 247 303 367
#     4  11  21  41  61  88 126 161 201 254 302 363
#     4  11  23  39  64  85 127 160 196 254 311 356
#
# _framework density 20.180942999999999
#
# number of rings (size 3 to 8) (size 9 to 14) (size 15 to 20)
#    0.000    1.500    5.000    0.000    3.500    3.000 
#    0.000    1.875    5.500    0.000    0.000    0.000 
#    0.000    0.000    0.000    0.000    0.000    0.000 
#
# Total GULP energy -396557.240141 kJ/mol
# GULP energy per Si atom -12392.413754 kJ/mol
# Density = 2.013501 g / cm^3
# Si number density = 20.180943 Si / 1000 Ang^3
#
#
#
# Elastic Constant Matrix: (Units=GPa)
#
#
# Indices 1 2 3 4 5 6 
#
# 1 141.6897 13.9559 37.7649 0.0000 0.0000 0.0000
# 2 13.9559 15.7240 14.3947 0.0000 0.0000 0.0000
# 3 37.7649 14.3947 111.0469 0.0000 0.0000 0.0000
# 4 0.0000 0.0000 0.0000 18.7901 0.0000 0.0000
# 5 0.0000 0.0000 0.0000 0.0000 34.5925 0.0000
# 6 0.0000 0.0000 0.0000 0.0000 0.0000 9.1377
#
#
#
# Elastic Compliance Matrix: (Units=1/GPa)
#
#
# Indices 1 2 3 4 5 6 
#
# 1 0.008135 -0.005319 -0.002077 0.000000 0.000000 0.000000
# 2 -0.005319 0.075638 -0.007996 0.000000 0.000000 0.000000
# 3 -0.002077 -0.007996 0.010748 0.000000 0.000000 0.000000
# 4 0.000000 0.000000 0.000000 0.053220 0.000000 0.000000
# 5 0.000000 0.000000 0.000000 0.000000 0.028908 0.000000
# 6 0.000000 0.000000 0.000000 0.000000 0.000000 0.109437
#
#
# Mechanical properties :
#
#
# Convention : Reuss Voigt Hill
#
# Bulk Modulus (GPa) = 15.68938 44.52129 30.10533
# Shear Modulus (GPa) = 14.78786 25.99373 20.39079
#
# Velocity S-wave (km/s) = 2.70990 3.59281 3.18213
# Velocity P-wave (km/s) = 4.19316 6.27057 5.33398
#
# Compressibility (1/GPa) = 0.06373739
#
# Stress axis : x y z
#
# Youngs Moduli (GPa) = 122.92275 13.22087 93.03980
#
# Poissons Ratio (x) = 0.07032 0.19326
# Poissons Ratio (y) = 0.65381 0.74394
# Poissons Ratio (z) = 0.25533 0.10571
#
# Static dielectric constant tensor:
#      x y z
#    x 3.820080 0.000000 0.000000 
#    y 0.000000 3.322810 0.000000 
#    z 0.000000 0.000000 4.099580 
# 
# 
# High freq. dielectric constant tensor:
#      x y z
#    x 1.791680 0.000000 0.000000 
#    y 0.000000 1.748700 0.000000 
#    z 0.000000 0.000000 1.813960 
# 
# From -- ./inp_files/29374.got.cif
#   From: 2010.03.12/outbox.cif.g09.slc.cpg/sg20_15_cif.got.tgz:29374.got - 2010.04.14 01:38:04.
