data_PCOD8159718
_publ_section_title
;
Structure prediction by ZEFSAII (Michael W. Deem and Ramdas Pophale) SiO2 
 PCOD8159718
Probable space group: C 2 2 21
;
_chemical_formula_sum "Si O2"
_cell_formula_units_Z 48
_cell_length_a 14.773527
_cell_length_b 9.856659
_cell_length_c 17.138685
_cell_angle_alpha 90.000000
_cell_angle_beta 90.000000
_cell_angle_gamma 90.000000
_cell_volume 2495.694483
_symmetry_space_group_name_H-M "C 2 2 21"
_symmetry_group_IT_number 20
_symmetry_cell_setting 'orthorhombic'
loop_
_space_group_symop_operation_xyz
x,y,z
-x,-y,1/2+z
x,-y,-z
-x,y,1/2-z
1/2+x,1/2+y,z
1/2-x,1/2-y,1/2+z
1/2+x,1/2-y,-z
1/2-x,1/2+y,1/2-z
loop_
_atom_site_type_symbol
_atom_site_label
_atom_site_fract_x
_atom_site_fract_y
_atom_site_fract_z
Si Si1 0.883223 0.390588 0.559912
Si Si2 0.728909 0.468894 0.671991
Si Si3 0.451407 0.480498 0.913657
Si Si4 0.635181 0.635723 0.046518
Si Si5 0.975208 0.740546 0.161291
Si Si6 0.771457 0.715795 0.181622
O O1 0.922835 0.500000 0.500000
O O2 0.792654 0.448710 0.598084
O O3 0.857750 0.254375 0.515631
O O4 0.958861 0.373001 0.626394
O O5 0.626391 0.433841 0.645795
O O6 0.754308 0.365812 0.739668
O O7 0.738789 0.624289 0.700284
O O8 0.534012 0.373232 0.916683
O O9 0.493469 0.622872 0.886676
O O10 0.409371 0.500000 0.000000
O O11 0.704179 0.662199 0.116182
O O12 0.661247 0.500000 0.000000
O O13 0.872906 0.688111 0.151812
O O14 0.000000 0.769671 0.250000
#
# Coordination Sequence:
#
# PCOD8159718 Si02
#       6
#     8   8   8   8   8   8
#     4  12  23  44  67  94 134 169 215 279 328 390
#     4  11  25  43  67  94 133 172 216 269 332 390
#     4  10  22  41  68  94 121 171 222 255 318 401
#     4  11  24  41  67  98 129 166 222 265 322 393
#     4  11  23  43  66  91 130 176 215 263 336 393
#     4  11  26  43  65  98 128 173 218 267 332 395
#
# _framework density 19.233122999999999
#
# number of rings (size 3 to 8) (size 9 to 14) (size 15 to 20)
#    0.000    1.000    6.667    0.500    9.333    0.667 
#    3.000    1.667    0.000    0.000    0.000    0.000 
#    0.000    0.000    0.000    0.000    0.000    0.000 
#
# Total GULP energy -297674.242035 kJ/mol
# GULP energy per Si atom -12403.093418 kJ/mol
# Density = 1.918935 g / cm^3
# Si number density = 19.233123 Si / 1000 Ang^3
#
#
#
# Elastic Constant Matrix: (Units=GPa)
#
#
# Indices 1 2 3 4 5 6 
#
# 1 98.4618 36.0559 22.9922 0.0000 0.0000 0.0000
# 2 36.0559 108.7707 52.6873 0.0000 0.0000 0.0000
# 3 22.9922 52.6873 103.8282 0.0000 0.0000 0.0000
# 4 0.0000 0.0000 0.0000 49.2877 0.0000 0.0000
# 5 0.0000 0.0000 0.0000 0.0000 1964.7582 0.0000
# 6 0.0000 0.0000 0.0000 0.0000 0.0000 16.8886
#
#
#
# Elastic Compliance Matrix: (Units=1/GPa)
#
#
# Indices 1 2 3 4 5 6 
#
# 1 0.011612 -0.003452 -0.000820 0.000000 0.000000 0.000000
# 2 -0.003452 0.013216 -0.005942 0.000000 0.000000 0.000000
# 3 -0.000820 -0.005942 0.012828 0.000000 0.000000 0.000000
# 4 0.000000 0.000000 0.000000 0.020289 0.000000 0.000000
# 5 0.000000 0.000000 0.000000 0.000000 0.000509 0.000000
# 6 0.000000 0.000000 0.000000 0.000000 0.000000 0.059212
#
#
# Mechanical properties :
#
#
# Convention : Reuss Voigt Hill
#
# Bulk Modulus (GPa) = 58.04344 59.39239 58.71791
# Shear Modulus (GPa) = 34.76178 419.47525 227.11852
#
# Velocity S-wave (km/s) = 4.25595 14.78425 10.87858
# Velocity P-wave (km/s) = 7.37532 17.95492 13.72542
#
# Compressibility (1/GPa) = 0.01722848
#
# Stress axis : x y z
#
# Youngs Moduli (GPa) = 86.11961 75.66434 77.95396
#
# Poissons Ratio (x) = 0.26120 0.06389
# Poissons Ratio (y) = 0.29730 0.46321
# Poissons Ratio (z) = 0.07058 0.44960
#
# Static dielectric constant tensor:
#      x y z
#    x 3.668510 0.000000 0.000000 
#    y 0.000000 -11.964350 0.000000 
#    z 0.000000 0.000000 3.780150 
# 
# 
# High freq. dielectric constant tensor:
#      x y z
#    x 1.757910 0.000000 0.000000 
#    y 0.000000 1.744090 0.000000 
#    z 0.000000 0.000000 1.763000 
# 
# From -- ./inp_files/23426.got.cif
#   From: 2010.03.12/outbox.cif.g09.slc.cpg/sg20_12_cif.got.tgz:23426.got - 2010.04.14 01:38:04.
