data_PCOD8159233
_publ_section_title
;
Structure prediction by ZEFSAII (Michael W. Deem and Ramdas Pophale) SiO2 
 PCOD8159233
Probable space group: C 2 2 21
;
_chemical_formula_sum "Si O2"
_cell_formula_units_Z 56
_cell_length_a 21.226801
_cell_length_b 9.189241
_cell_length_c 12.946375
_cell_angle_alpha 90.000000
_cell_angle_beta 90.000000
_cell_angle_gamma 90.000000
_cell_volume 2525.296475
_symmetry_space_group_name_H-M "C 2 2 21"
_symmetry_group_IT_number 20
_symmetry_cell_setting 'orthorhombic'
loop_
_space_group_symop_operation_xyz
x,y,z
-x,-y,1/2+z
x,-y,-z
-x,y,1/2-z
1/2+x,1/2+y,z
1/2-x,1/2-y,1/2+z
1/2+x,1/2-y,-z
1/2-x,1/2+y,1/2-z
loop_
_atom_site_type_symbol
_atom_site_label
_atom_site_fract_x
_atom_site_fract_y
_atom_site_fract_z
Si Si1 0.846983 0.227749 0.618222
Si Si2 0.045722 0.313572 0.343728
Si Si3 0.924115 0.653592 0.544330
Si Si4 0.347931 0.369286 0.926707
Si Si5 0.242109 0.666946 0.469257
Si Si6 0.856612 0.531255 0.727878
Si Si7 0.220973 0.026246 0.226801
O O1 0.907145 0.219648 0.539438
O O2 0.790314 0.259331 0.538803
O O3 0.857141 0.362623 0.694863
O O4 0.834482 0.078180 0.680935
O O5 0.088068 0.174888 0.370250
O O6 0.092732 0.450757 0.321612
O O7 0.000000 0.271344 0.250000
O O8 0.999075 0.347569 0.438523
O O9 0.902590 0.500000 0.500000
O O10 0.881203 0.656690 0.648418
O O11 0.297469 0.412389 0.838406
O O12 0.365227 0.500000 0.000000
O O13 0.324132 0.243088 0.005441
O O14 0.239948 0.500000 0.500000
O O15 0.262955 0.664182 0.348525
O O16 0.785449 0.569744 0.763111
#
# Coordination Sequence:
#
# PCOD8159233 Si02
#       7
#     8   8   8   8   8   8   8
#     4  10  21  40  65 106 134 183 237 293 353 432
#     4  10  23  45  68  95 137 198 241 296 358 428
#     4   9  21  40  67  97 132 184 239 298 341 425
#     4  12  28  45  67 106 146 192 243 306 371 435
#     4  10  23  41  67 103 142 185 232 291 365 440
#     4  10  21  38  70 100 138 176 235 291 364 422
#     4  11  25  41  69 106 148 186 230 296 380 443
#
# _framework density 22.175613999999999
#
# number of rings (size 3 to 8) (size 9 to 14) (size 15 to 20)
#    0.000    1.714    1.429    1.714    8.000    1.714 
#    2.571    0.000    0.000    0.000    0.000    0.000 
#    0.000    0.000    0.000    0.000    0.000    0.000 
#
# Total GULP energy -346883.552666 kJ/mol
# GULP energy per Si atom -12388.698309 kJ/mol
# Density = 2.212514 g / cm^3
# Si number density = 22.175614 Si / 1000 Ang^3
#
#
#
# Elastic Constant Matrix: (Units=GPa)
#
#
# Indices 1 2 3 4 5 6 
#
# 1 136.1882 58.6607 52.6614 0.0000 0.0000 0.0000
# 2 58.6607 82.2055 57.4289 0.0000 0.0000 0.0000
# 3 52.6614 57.4289 96.5178 0.0000 0.0000 0.0000
# 4 0.0000 0.0000 0.0000 44.6378 0.0000 0.0000
# 5 0.0000 0.0000 0.0000 0.0000 47.1157 0.0000
# 6 0.0000 0.0000 0.0000 0.0000 0.0000 31.1033
#
#
#
# Elastic Compliance Matrix: (Units=1/GPa)
#
#
# Indices 1 2 3 4 5 6 
#
# 1 0.010880 -0.006190 -0.002253 0.000000 0.000000 0.000000
# 2 -0.006190 0.024340 -0.011105 0.000000 0.000000 0.000000
# 3 -0.002253 -0.011105 0.018198 0.000000 0.000000 0.000000
# 4 0.000000 0.000000 0.000000 0.022403 0.000000 0.000000
# 5 0.000000 0.000000 0.000000 0.000000 0.021224 0.000000
# 6 0.000000 0.000000 0.000000 0.000000 0.000000 0.032151
#
#
# Mechanical properties :
#
#
# Convention : Reuss Voigt Hill
#
# Bulk Modulus (GPa) = 69.82641 72.49038 71.15840
# Shear Modulus (GPa) = 28.89078 34.31541 31.60309
#
# Velocity S-wave (km/s) = 3.61337 3.93802 3.77918
# Velocity P-wave (km/s) = 6.99749 7.31010 7.15550
#
# Compressibility (1/GPa) = 0.01432123
#
# Stress axis : x y z
#
# Youngs Moduli (GPa) = 91.90945 41.08547 54.95142
#
# Poissons Ratio (x) = 0.25431 0.12383
# Poissons Ratio (y) = 0.56889 0.61024
# Poissons Ratio (z) = 0.20712 0.45625
#
# Static dielectric constant tensor:
#      x y z
#    x 4.093030 0.000000 0.000000 
#    y 0.000000 3.616150 0.000000 
#    z 0.000000 0.000000 4.611100 
# 
# 
# High freq. dielectric constant tensor:
#      x y z
#    x 1.862510 0.000000 0.000000 
#    y 0.000000 1.847170 0.000000 
#    z 0.000000 0.000000 1.888550 
# 
# From -- ./inp_files/21771.got.cif
#   From: 2010.03.12/outbox.cif.g09.slc.cpg/sg20_11_cif.got.tgz:21771.got - 2010.04.14 01:38:04.
