data_PCOD8159229
_publ_section_title
;
Structure prediction by ZEFSAII (Michael W. Deem and Ramdas Pophale) SiO2 
 PCOD8159229
Probable space group: C 2 2 21
;
_chemical_formula_sum "Si O2"
_cell_formula_units_Z 56
_cell_length_a 11.552722
_cell_length_b 16.129462
_cell_length_c 13.954870
_cell_angle_alpha 90.000000
_cell_angle_beta 90.000000
_cell_angle_gamma 90.000000
_cell_volume 2600.339179
_symmetry_space_group_name_H-M "C 2 2 21"
_symmetry_group_IT_number 20
_symmetry_cell_setting 'orthorhombic'
loop_
_space_group_symop_operation_xyz
x,y,z
-x,-y,1/2+z
x,-y,-z
-x,y,1/2-z
1/2+x,1/2+y,z
1/2-x,1/2-y,1/2+z
1/2+x,1/2-y,-z
1/2-x,1/2+y,1/2-z
loop_
_atom_site_type_symbol
_atom_site_label
_atom_site_fract_x
_atom_site_fract_y
_atom_site_fract_z
Si Si1 0.247279 0.510579 0.302361
Si Si2 0.267753 0.669577 0.415999
Si Si3 0.118791 0.818089 0.458278
Si Si4 0.704756 0.049511 0.909830
Si Si5 0.462562 0.085561 0.854055
Si Si6 0.992084 0.774025 0.856144
Si Si7 0.407926 0.574659 0.565805
O O1 0.247299 0.608520 0.325537
O O2 0.231598 0.497499 0.189260
O O3 0.151580 0.468244 0.372500
O O4 0.366440 0.465993 0.334426
O O5 0.148770 0.721866 0.432941
O O6 0.377113 0.729494 0.395833
O O7 0.299228 0.616462 0.510412
O O8 0.230914 0.863377 0.417219
O O9 0.091645 0.826617 0.572853
O O10 0.005088 0.856535 0.407176
O O11 0.567694 0.064371 0.925578
O O12 0.753913 0.000000 0.000000
O O13 0.500000 0.055812 0.750000
O O14 0.435873 0.183146 0.852421
O O15 0.000000 0.814337 0.750000
O O16 0.460148 0.500000 0.500000
#
# Coordination Sequence:
#
# PCOD8159229 Si02
#       7
#     8   8   8   8   8   8   8
#     4  10  22  42  68  91 126 173 224 260 325 400
#     4  10  21  40  65  99 125 169 222 276 322 382
#     4  11  22  39  62  97 136 160 223 280 325 380
#     4  11  24  39  63  95 132 174 215 269 333 390
#     4   9  19  40  64  86 121 170 215 253 317 396
#     4  10  21  38  67  95 129 178 222 260 328 399
#     4   9  20  40  64  92 127 173 216 263 322 391
#
# _framework density 21.535651999999999
#
# number of rings (size 3 to 8) (size 9 to 14) (size 15 to 20)
#    0.000    2.000    1.429    1.286    2.000    3.429 
#    0.000    0.000    9.429    0.000    0.000    0.000 
#    0.000    0.000    0.000    0.000    0.000    0.000 
#
# Total GULP energy -346924.373040 kJ/mol
# GULP energy per Si atom -12390.156180 kJ/mol
# Density = 2.148664 g / cm^3
# Si number density = 21.535652 Si / 1000 Ang^3
#
#
#
# Elastic Constant Matrix: (Units=GPa)
#
#
# Indices 1 2 3 4 5 6 
#
# 1 94.5053 47.3150 37.5164 0.0000 0.0000 0.0000
# 2 47.3150 104.9488 35.4405 0.0000 0.0000 0.0000
# 3 37.5164 35.4405 107.0127 0.0000 0.0000 0.0000
# 4 0.0000 0.0000 0.0000 24.0562 0.0000 0.0000
# 5 0.0000 0.0000 0.0000 0.0000 23.4517 0.0000
# 6 0.0000 0.0000 0.0000 0.0000 0.0000 39.4409
#
#
#
# Elastic Compliance Matrix: (Units=1/GPa)
#
#
# Indices 1 2 3 4 5 6 
#
# 1 0.014643 -0.005481 -0.003318 0.000000 0.000000 0.000000
# 2 -0.005481 0.012780 -0.002311 0.000000 0.000000 0.000000
# 3 -0.003318 -0.002311 0.011273 0.000000 0.000000 0.000000
# 4 0.000000 0.000000 0.000000 0.041569 0.000000 0.000000
# 5 0.000000 0.000000 0.000000 0.000000 0.042641 0.000000
# 6 0.000000 0.000000 0.000000 0.000000 0.000000 0.025354
#
#
# Mechanical properties :
#
#
# Convention : Reuss Voigt Hill
#
# Bulk Modulus (GPa) = 60.69560 60.77896 60.73728
# Shear Modulus (GPa) = 28.41348 29.80275 29.10811
#
# Velocity S-wave (km/s) = 3.63625 3.72409 3.68043
# Velocity P-wave (km/s) = 6.77309 6.83926 6.80626
#
# Compressibility (1/GPa) = 0.01647566
#
# Stress axis : x y z
#
# Youngs Moduli (GPa) = 68.29292 78.24790 88.70497
#
# Poissons Ratio (x) = 0.42888 0.29435
# Poissons Ratio (y) = 0.37431 0.20499
# Poissons Ratio (z) = 0.22661 0.18083
#
# Static dielectric constant tensor:
#      x y z
#    x 3.973930 0.000000 0.000000 
#    y 0.000000 3.798060 0.000000 
#    z 0.000000 0.000000 3.710130 
# 
# 
# High freq. dielectric constant tensor:
#      x y z
#    x 1.842070 0.000000 0.000000 
#    y 0.000000 1.842490 0.000000 
#    z 0.000000 0.000000 1.828730 
# 
# From -- ./inp_files/20056.got.cif
#   From: 2010.03.12/outbox.cif.g09.slc.cpg/sg20_11_cif.got.tgz:20056.got - 2010.04.14 01:38:04.
