data_PCOD8159274
_publ_section_title
;
Structure prediction by ZEFSAII (Michael W. Deem and Ramdas Pophale) SiO2 
 PCOD8159274
Probable space group: C 2 2 21
;
_chemical_formula_sum "Si O2"
_cell_formula_units_Z 32
_cell_length_a 8.184852
_cell_length_b 11.933100
_cell_length_c 13.602679
_cell_angle_alpha 90.000000
_cell_angle_beta 90.000000
_cell_angle_gamma 90.000000
_cell_volume 1328.582600
_symmetry_space_group_name_H-M "C 2 2 21"
_symmetry_group_IT_number 20
_symmetry_cell_setting 'orthorhombic'
loop_
_space_group_symop_operation_xyz
x,y,z
-x,-y,1/2+z
x,-y,-z
-x,y,1/2-z
1/2+x,1/2+y,z
1/2-x,1/2-y,1/2+z
1/2+x,1/2-y,-z
1/2-x,1/2+y,1/2-z
loop_
_atom_site_type_symbol
_atom_site_label
_atom_site_fract_x
_atom_site_fract_y
_atom_site_fract_z
Si Si1 0.466853 0.105340 0.936654
Si Si2 0.747741 0.023792 0.296093
Si Si3 0.223135 0.263976 0.591492
Si Si4 0.917957 0.959453 0.107510
O O1 0.605667 0.197900 0.918056
O O2 0.397414 0.056969 0.833626
O O3 0.315312 0.163352 0.994180
O O4 0.534565 0.000000 0.000000
O O5 0.714367 0.155345 0.313362
O O6 0.774557 0.003200 0.180623
O O7 0.908491 0.002725 0.360201
O O8 0.079051 0.174967 0.609339
O O9 0.870105 0.000000 0.000000
#
# Coordination Sequence:
#
# PCOD8159274 Si02
#       4
#     8   8   8   8
#     4  10  21  39  64  96 126 161 208 252 309 380
#     4  10  24  42  61  91 126 161 212 259 308 381
#     4  11  22  40  67  92 128 168 201 260 318 364
#     4  11  23  42  64  90 124 165 211 260 315 376
#
# _framework density 24.085819999999998
#
# number of rings (size 3 to 8) (size 9 to 14) (size 15 to 20)
#    0.000    1.500    0.000    6.000    0.000    7.000 
#    0.000   10.000    0.000    0.000    0.000    0.000 
#    0.000    0.000    0.000    0.000    0.000    0.000 
#
# Total GULP energy -198398.851208 kJ/mol
# GULP energy per Si atom -12399.928200 kJ/mol
# Density = 2.403100 g / cm^3
# Si number density = 24.085820 Si / 1000 Ang^3
#
#
#
# Elastic Constant Matrix: (Units=GPa)
#
#
# Indices 1 2 3 4 5 6 
#
# 1 59.4968 19.3199 3.8752 0.0000 0.0000 0.0000
# 2 19.3199 165.7290 47.4178 0.0000 0.0000 0.0000
# 3 3.8752 47.4178 145.4796 0.0000 0.0000 0.0000
# 4 0.0000 0.0000 0.0000 16.6207 0.0000 0.0000
# 5 0.0000 0.0000 0.0000 0.0000 15.1782 0.0000
# 6 0.0000 0.0000 0.0000 0.0000 0.0000 47.5634
#
#
#
# Elastic Compliance Matrix: (Units=1/GPa)
#
#
# Indices 1 2 3 4 5 6 
#
# 1 0.017475 -0.002100 0.000219 0.000000 0.000000 0.000000
# 2 -0.002100 0.006907 -0.002195 0.000000 0.000000 0.000000
# 3 0.000219 -0.002195 0.007584 0.000000 0.000000 0.000000
# 4 0.000000 0.000000 0.000000 0.060166 0.000000 0.000000
# 5 0.000000 0.000000 0.000000 0.000000 0.065884 0.000000
# 6 0.000000 0.000000 0.000000 0.000000 0.000000 0.021025
#
#
# Mechanical properties :
#
#
# Convention : Reuss Voigt Hill
#
# Bulk Modulus (GPa) = 41.99347 56.88124 49.43736
# Shear Modulus (GPa) = 25.62389 35.87861 30.75125
#
# Velocity S-wave (km/s) = 3.26522 3.86374 3.57702
# Velocity P-wave (km/s) = 5.62924 6.60091 6.13434
#
# Compressibility (1/GPa) = 0.02381322
#
# Stress axis : x y z
#
# Youngs Moduli (GPa) = 57.22386 144.78399 131.86483
#
# Poissons Ratio (x) = 0.30402 -0.02887
# Poissons Ratio (y) = 0.12016 0.28948
# Poissons Ratio (z) = -0.01253 0.31784
#
# Static dielectric constant tensor:
#      x y z
#    x 4.211480 0.000000 0.000000 
#    y 0.000000 4.661790 0.000000 
#    z 0.000000 0.000000 4.299470 
# 
# 
# High freq. dielectric constant tensor:
#      x y z
#    x 1.960420 0.000000 0.000000 
#    y 0.000000 1.970730 0.000000 
#    z 0.000000 0.000000 1.951930 
# 
# From -- ./inp_files/18204.got.cif
#   From: 2010.03.12/outbox.cif.g09.slc.cpg/sg20_10_cif.got.tgz:18204.got - 2010.04.14 01:38:04.
