data_PCOD8159178
_publ_section_title
;
Structure prediction by ZEFSAII (Michael W. Deem and Ramdas Pophale) SiO2 
 PCOD8159178
Probable space group: C 2 2 21
;
_chemical_formula_sum "Si O2"
_cell_formula_units_Z 48
_cell_length_a 8.114735
_cell_length_b 28.986642
_cell_length_c 8.549829
_cell_angle_alpha 90.000000
_cell_angle_beta 90.000000
_cell_angle_gamma 90.000000
_cell_volume 2011.081530
_symmetry_space_group_name_H-M "C 2 2 21"
_symmetry_group_IT_number 20
_symmetry_cell_setting 'orthorhombic'
loop_
_space_group_symop_operation_xyz
x,y,z
-x,-y,1/2+z
x,-y,-z
-x,y,1/2-z
1/2+x,1/2+y,z
1/2-x,1/2-y,1/2+z
1/2+x,1/2-y,-z
1/2-x,1/2+y,1/2-z
loop_
_atom_site_type_symbol
_atom_site_label
_atom_site_fract_x
_atom_site_fract_y
_atom_site_fract_z
Si Si1 0.226280 0.547858 0.413303
Si Si2 0.660825 0.206707 0.337191
Si Si3 0.670943 0.867929 0.159472
Si Si4 0.840899 0.450118 0.560426
Si Si5 0.643576 0.360847 0.037156
Si Si6 0.168001 0.798632 0.525856
O O1 0.272850 0.500000 0.500000
O O2 0.250400 0.550188 0.227076
O O3 0.348219 0.586067 0.483944
O O4 0.035623 0.559216 0.440934
O O5 0.500000 0.188979 0.250000
O O6 0.708048 0.166564 0.454995
O O7 0.803174 0.214913 0.206542
O O8 0.620568 0.253495 0.429252
O O9 0.500000 0.876200 0.250000
O O10 0.822359 0.859133 0.278123
O O11 0.728494 0.911830 0.057528
O O12 0.666920 0.822640 0.047222
O O13 0.796879 0.500000 0.500000
O O14 0.474471 0.336753 0.988430
#
# Coordination Sequence:
#
# PCOD8159178 Si02
#       6
#     8   8   8   8   8   8
#     4  10  21  40  68 106 147 191 239 296 353 421
#     4  12  26  46  71 101 138 188 239 294 359 440
#     4  12  23  41  67 102 138 189 238 295 358 429
#     4  10  21  37  66 105 144 186 249 298 344 419
#     4  12  25  43  70 104 145 187 238 301 365 430
#     4  12  27  47  70 103 141 181 236 299 372 438
#
# _framework density 23.867756
#
# number of rings (size 3 to 8) (size 9 to 14) (size 15 to 20)
#    0.000    0.667    1.667    7.000    4.667    1.333 
#    0.000    0.833    0.000    2.000    0.000    0.000 
#    0.000    0.000    0.000    0.000    0.000    0.000 
#
# Total GULP energy -297617.439078 kJ/mol
# GULP energy per Si atom -12400.726628 kJ/mol
# Density = 2.381343 g / cm^3
# Si number density = 23.867756 Si / 1000 Ang^3
#
#
#
# Elastic Constant Matrix: (Units=GPa)
#
#
# Indices 1 2 3 4 5 6 
#
# 1 54.2710 24.2977 9.4305 0.0000 0.0000 0.0000
# 2 24.2977 148.6931 47.2602 0.0000 0.0000 0.0000
# 3 9.4305 47.2602 125.3995 0.0000 0.0000 0.0000
# 4 0.0000 0.0000 0.0000 55.5273 0.0000 0.0000
# 5 0.0000 0.0000 0.0000 0.0000 24.0110 0.0000
# 6 0.0000 0.0000 0.0000 0.0000 0.0000 31.3870
#
#
#
# Elastic Compliance Matrix: (Units=1/GPa)
#
#
# Indices 1 2 3 4 5 6 
#
# 1 0.019891 -0.003153 -0.000308 0.000000 0.000000 0.000000
# 2 -0.003153 0.008140 -0.002831 0.000000 0.000000 0.000000
# 3 -0.000308 -0.002831 0.009065 0.000000 0.000000 0.000000
# 4 0.000000 0.000000 0.000000 0.018009 0.000000 0.000000
# 5 0.000000 0.000000 0.000000 0.000000 0.041648 0.000000
# 6 0.000000 0.000000 0.000000 0.000000 0.000000 0.031860
#
#
# Mechanical properties :
#
#
# Convention : Reuss Voigt Hill
#
# Bulk Modulus (GPa) = 40.79383 54.48227 47.63805
# Shear Modulus (GPa) = 33.47485 38.67673 36.07579
#
# Velocity S-wave (km/s) = 3.74908 4.02986 3.89200
# Velocity P-wave (km/s) = 5.98911 6.67303 6.34030
#
# Compressibility (1/GPa) = 0.02451351
#
# Stress axis : x y z
#
# Youngs Moduli (GPa) = 50.27411 122.84811 110.32046
#
# Poissons Ratio (x) = 0.38728 0.03395
# Poissons Ratio (y) = 0.15849 0.31229
# Poissons Ratio (z) = 0.01547 0.34775
#
# Static dielectric constant tensor:
#      x y z
#    x 4.009970 0.000000 0.000000 
#    y 0.000000 4.275450 0.000000 
#    z 0.000000 0.000000 5.089090 
# 
# 
# High freq. dielectric constant tensor:
#      x y z
#    x 1.929640 0.000000 0.000000 
#    y 0.000000 1.954210 0.000000 
#    z 0.000000 0.000000 1.972310 
# 
# From -- ./inp_files/6452.got.cif
#   From: 2010.03.12/outbox.cif.g09.slc.cpg/sg20_4_cif.got.tgz:6452.got - 2010.04.14 01:38:04.
