data_PCOD8159108
_publ_section_title
;
Structure prediction by ZEFSAII (Michael W. Deem and Ramdas Pophale) SiO2 
 PCOD8159108
Probable space group: C 2 2 21
;
_chemical_formula_sum "Si O2"
_cell_formula_units_Z 40
_cell_length_a 23.869263
_cell_length_b 7.699112
_cell_length_c 9.035556
_cell_angle_alpha 90.000000
_cell_angle_beta 90.000000
_cell_angle_gamma 90.000000
_cell_volume 1660.483365
_symmetry_space_group_name_H-M "C 2 2 21"
_symmetry_group_IT_number 20
_symmetry_cell_setting 'orthorhombic'
loop_
_space_group_symop_operation_xyz
x,y,z
-x,-y,1/2+z
x,-y,-z
-x,y,1/2-z
1/2+x,1/2+y,z
1/2-x,1/2-y,1/2+z
1/2+x,1/2-y,-z
1/2-x,1/2+y,1/2-z
loop_
_atom_site_type_symbol
_atom_site_label
_atom_site_fract_x
_atom_site_fract_y
_atom_site_fract_z
Si Si1 0.348382 0.180573 0.918659
Si Si2 0.441956 0.169735 0.683017
Si Si3 0.836973 0.170015 0.783762
Si Si4 0.053375 0.737086 0.150458
Si Si5 0.748135 0.603613 0.349625
O O1 0.389947 0.230944 0.784464
O O2 0.283411 0.208812 0.870256
O O3 0.355774 0.326226 0.045450
O O4 0.361956 0.000000 0.000000
O O5 0.500000 0.228640 0.750000
O O6 0.448538 0.263250 0.525116
O O7 0.435229 0.963817 0.680006
O O8 0.893531 0.145645 0.692684
O O9 0.805517 0.352877 0.737751
O O10 0.795171 0.010546 0.753054
O O11 0.000000 0.797319 0.250000
O O12 0.764450 0.500000 0.500000
#
# Coordination Sequence:
#
# PCOD8159108 Si02
#       5
#     8   8   8   8   8
#     4  11  21  39  64  92 131 170 219 273 339 399
#     4  10  21  35  62  97 130 165 223 277 337 404
#     4  11  22  40  64  91 133 170 220 277 332 406
#     4  10  21  37  64  95 129 169 220 281 336 401
#     4  10  25  41  64 100 133 180 228 278 340 404
#
# _framework density 24.089371
#
# number of rings (size 3 to 8) (size 9 to 14) (size 15 to 20)
#    0.000    1.600    2.000    2.400    5.600    1.600 
#    0.000    6.000    0.000    0.000    0.000    0.000 
#    0.000    0.000    0.000    0.000    0.000    0.000 
#
# Total GULP energy -247781.243924 kJ/mol
# GULP energy per Si atom -12389.062196 kJ/mol
# Density = 2.403454 g / cm^3
# Si number density = 24.089371 Si / 1000 Ang^3
#
#
#
# Elastic Constant Matrix: (Units=GPa)
#
#
# Indices 1 2 3 4 5 6 
#
# 1 152.3522 24.0909 90.1848 0.0000 0.0000 0.0000
# 2 24.0909 48.1642 15.1670 0.0000 0.0000 0.0000
# 3 90.1848 15.1670 167.8952 0.0000 0.0000 0.0000
# 4 0.0000 0.0000 0.0000 14.8040 0.0000 0.0000
# 5 0.0000 0.0000 0.0000 0.0000 50.9797 0.0000
# 6 0.0000 0.0000 0.0000 0.0000 0.0000 4.7942
#
#
#
# Elastic Compliance Matrix: (Units=1/GPa)
#
#
# Indices 1 2 3 4 5 6 
#
# 1 0.010155 -0.003460 -0.005142 0.000000 0.000000 0.000000
# 2 -0.003460 0.022549 -0.000178 0.000000 0.000000 0.000000
# 3 -0.005142 -0.000178 0.008734 0.000000 0.000000 0.000000
# 4 0.000000 0.000000 0.000000 0.067549 0.000000 0.000000
# 5 0.000000 0.000000 0.000000 0.000000 0.019616 0.000000
# 6 0.000000 0.000000 0.000000 0.000000 0.000000 0.208587
#
#
# Mechanical properties :
#
#
# Convention : Reuss Voigt Hill
#
# Bulk Modulus (GPa) = 41.88108 69.69968 55.79038
# Shear Modulus (GPa) = 13.78512 30.04684 21.91598
#
# Velocity S-wave (km/s) = 2.39477 3.53555 3.01952
# Velocity P-wave (km/s) = 5.00700 6.75747 5.94699
#
# Compressibility (1/GPa) = 0.02387713
#
# Stress axis : x y z
#
# Youngs Moduli (GPa) = 98.47698 44.34759 114.49186
#
# Poissons Ratio (x) = 0.15344 0.58872
# Poissons Ratio (y) = 0.34073 0.02044
# Poissons Ratio (z) = 0.50637 0.00792
#
# Static dielectric constant tensor:
#      x y z
#    x 4.327920 0.000000 0.000000 
#    y 0.000000 4.042360 0.000000 
#    z 0.000000 0.000000 4.659420 
# 
# 
# High freq. dielectric constant tensor:
#      x y z
#    x 1.958280 0.000000 0.000000 
#    y 0.000000 1.938590 0.000000 
#    z 0.000000 0.000000 1.962430 
# 
# From -- ./inp_files/10506.got.cif
#   From: 2010.03.12/outbox.cif.g09.slc.cpg/sg20_6_cif.got.tgz:10506.got - 2010.04.14 01:38:04.
