data_PCOD8159067
_publ_section_title
;
Structure prediction by ZEFSAII (Michael W. Deem and Ramdas Pophale) SiO2 
 PCOD8159067
Probable space group: C 2 2 21
;
_chemical_formula_sum "Si O2"
_cell_formula_units_Z 24
_cell_length_a 6.145727
_cell_length_b 22.005798
_cell_length_c 7.441244
_cell_angle_alpha 90.000000
_cell_angle_beta 90.000000
_cell_angle_gamma 90.000000
_cell_volume 1006.365945
_symmetry_space_group_name_H-M "C 2 2 21"
_symmetry_group_IT_number 20
_symmetry_cell_setting 'orthorhombic'
loop_
_space_group_symop_operation_xyz
x,y,z
-x,-y,1/2+z
x,-y,-z
-x,y,1/2-z
1/2+x,1/2+y,z
1/2-x,1/2-y,1/2+z
1/2+x,1/2-y,-z
1/2-x,1/2+y,1/2-z
loop_
_atom_site_type_symbol
_atom_site_label
_atom_site_fract_x
_atom_site_fract_y
_atom_site_fract_z
Si Si1 0.664537 0.173749 0.484138
Si Si2 0.000000 0.768527 0.750000
Si Si3 0.116115 0.432507 0.064380
Si Si4 0.000000 0.117912 0.750000
O O1 0.530985 0.230097 0.567118
O O2 0.499537 0.117897 0.436858
O O3 0.835650 0.159445 0.641269
O O4 0.788023 0.190104 0.297397
O O5 0.373577 0.422631 0.099515
O O6 0.000000 0.421848 0.250000
O O7 0.069363 0.500000 0.000000
#
# Coordination Sequence:
#
# PCOD8159067 Si02
#       4
#     8   4   8   4
#     4  11  24  44  68 104 138 192 234 298 352 421
#     4  12  24  44  75  98 149 186 242 292 358 420
#     4  10  23  44  69  98 142 182 238 293 355 422
#     4  10  20  44  67 100 135 186 242 292 352 420
#
# _framework density 23.848182999999999
#
# number of rings (size 3 to 8) (size 9 to 14) (size 15 to 20)
#    0.000    1.333    5.000    2.000    0.000    8.000 
#    0.000    1.667    0.000    0.000    0.000    0.000 
#    0.000    0.000    0.000    0.000    0.000    0.000 
#
# Total GULP energy -148753.758251 kJ/mol
# GULP energy per Si atom -12396.146521 kJ/mol
# Density = 2.379390 g / cm^3
# Si number density = 23.848183 Si / 1000 Ang^3
#
#
#
# Elastic Constant Matrix: (Units=GPa)
#
#
# Indices 1 2 3 4 5 6 
#
# 1 116.9132 66.3809 18.1074 0.0000 0.0000 0.0000
# 2 66.3809 164.3590 35.1396 0.0000 0.0000 0.0000
# 3 18.1074 35.1396 51.1546 0.0000 0.0000 0.0000
# 4 0.0000 0.0000 0.0000 30.9360 0.0000 0.0000
# 5 0.0000 0.0000 0.0000 0.0000 39.7989 0.0000
# 6 0.0000 0.0000 0.0000 0.0000 0.0000 19.2002
#
#
#
# Elastic Compliance Matrix: (Units=1/GPa)
#
#
# Indices 1 2 3 4 5 6 
#
# 1 0.011142 -0.004286 -0.001000 0.000000 0.000000 0.000000
# 2 -0.004286 0.008781 -0.004514 0.000000 0.000000 0.000000
# 3 -0.001000 -0.004514 0.023003 0.000000 0.000000 0.000000
# 4 0.000000 0.000000 0.000000 0.032325 0.000000 0.000000
# 5 0.000000 0.000000 0.000000 0.000000 0.025126 0.000000
# 6 0.000000 0.000000 0.000000 0.000000 0.000000 0.052083
#
#
# Mechanical properties :
#
#
# Convention : Reuss Voigt Hill
#
# Bulk Modulus (GPa) = 42.87165 63.52027 53.19596
# Shear Modulus (GPa) = 27.80322 32.17361 29.98841
#
# Velocity S-wave (km/s) = 3.41815 3.67700 3.54993
# Velocity P-wave (km/s) = 5.79605 6.68731 6.25757
#
# Compressibility (1/GPa) = 0.02332544
#
# Stress axis : x y z
#
# Youngs Moduli (GPa) = 89.75226 113.88865 43.47167
#
# Poissons Ratio (x) = 0.48815 0.04345
# Poissons Ratio (y) = 0.38470 0.19625
# Poissons Ratio (z) = 0.08971 0.51414
#
# Static dielectric constant tensor:
#      x y z
#    x 6.221050 0.000000 0.000000 
#    y 0.000000 5.368380 0.000000 
#    z 0.000000 0.000000 4.577990 
# 
# 
# High freq. dielectric constant tensor:
#      x y z
#    x 1.961140 0.000000 0.000000 
#    y 0.000000 1.940790 0.000000 
#    z 0.000000 0.000000 1.929450 
# 
# From -- ./inp_files/4977.got.cif
#   From: 2010.03.12/outbox.cif.g09.slc.cpg/sg20_3_cif.got.tgz:4977.got - 2010.04.14 01:38:04.
