data_PCOD8159633
_publ_section_title
;
Structure prediction by ZEFSAII (Michael W. Deem and Ramdas Pophale) SiO2 
 PCOD8159633
Probable space group: C 2 2 21
;
_chemical_formula_sum "Si O2"
_cell_formula_units_Z 32
_cell_length_a 11.873287
_cell_length_b 9.348617
_cell_length_c 16.398025
_cell_angle_alpha 90.000000
_cell_angle_beta 90.000000
_cell_angle_gamma 90.000000
_cell_volume 1820.161306
_symmetry_space_group_name_H-M "C 2 2 21"
_symmetry_group_IT_number 20
_symmetry_cell_setting 'orthorhombic'
loop_
_space_group_symop_operation_xyz
x,y,z
-x,-y,1/2+z
x,-y,-z
-x,y,1/2-z
1/2+x,1/2+y,z
1/2-x,1/2-y,1/2+z
1/2+x,1/2-y,-z
1/2-x,1/2+y,1/2-z
loop_
_atom_site_type_symbol
_atom_site_label
_atom_site_fract_x
_atom_site_fract_y
_atom_site_fract_z
Si Si1 0.052459 0.500000 0.500000
Si Si2 0.119687 0.369587 0.878686
Si Si3 0.667743 0.468021 0.370574
Si Si4 0.000000 0.169255 0.750000
Si Si5 0.684246 0.719394 0.478812
O O1 0.980025 0.546622 0.422603
O O2 0.130352 0.373194 0.467174
O O3 0.207329 0.484401 0.838913
O O4 0.071544 0.267159 0.810035
O O5 0.185754 0.276282 0.947605
O O6 0.586192 0.434828 0.296005
O O7 0.617996 0.600466 0.424091
O O8 0.680246 0.326889 0.426597
#
# Coordination Sequence:
#
# PCOD8159633 Si02
#       5
#     4   8   8   4   8
#     4  12  18  40  70  88 114 174 200 244 316 358
#     4  10  22  40  61  91 126 153 205 262 290 370
#     4   9  20  43  58  90 124 152 206 258 288 363
#     4  12  22  40  64  88 128 164 190 264 326 332
#     4   9  20  41  63  88 119 159 212 242 291 377
#
# _framework density 17.580860000000001
#
# number of rings (size 3 to 8) (size 9 to 14) (size 15 to 20)
#    1.500    0.500    5.000    0.000    0.000    2.000 
#    9.000    0.000    0.000    0.000    0.000    0.000 
#    0.000    0.000    0.000    0.000    0.000    0.000 
#
# Total GULP energy -198258.972382 kJ/mol
# GULP energy per Si atom -12391.185774 kJ/mol
# Density = 1.754085 g / cm^3
# Si number density = 17.580860 Si / 1000 Ang^3
#
#
#
# Elastic Constant Matrix: (Units=GPa)
#
#
# Indices 1 2 3 4 5 6 
#
# 1 81.7038 57.6679 22.0362 0.0000 0.0000 0.0000
# 2 57.6679 112.3849 34.4687 0.0000 0.0000 0.0000
# 3 22.0362 34.4687 56.3516 0.0000 0.0000 0.0000
# 4 0.0000 0.0000 0.0000 26.9156 0.0000 0.0000
# 5 0.0000 0.0000 0.0000 0.0000 39.1743 0.0000
# 6 0.0000 0.0000 0.0000 0.0000 0.0000 42.8532
#
#
#
# Elastic Compliance Matrix: (Units=1/GPa)
#
#
# Indices 1 2 3 4 5 6 
#
# 1 0.019343 -0.009362 -0.001838 0.000000 0.000000 0.000000
# 2 -0.009362 0.015484 -0.005810 0.000000 0.000000 0.000000
# 3 -0.001838 -0.005810 0.022018 0.000000 0.000000 0.000000
# 4 0.000000 0.000000 0.000000 0.037153 0.000000 0.000000
# 5 0.000000 0.000000 0.000000 0.000000 0.025527 0.000000
# 6 0.000000 0.000000 0.000000 0.000000 0.000000 0.023336
#
#
# Mechanical properties :
#
#
# Convention : Reuss Voigt Hill
#
# Bulk Modulus (GPa) = 43.81019 53.19843 48.50431
# Shear Modulus (GPa) = 27.10215 30.87312 28.98764
#
# Velocity S-wave (km/s) = 3.93054 4.19509 4.06497
# Velocity P-wave (km/s) = 6.75072 7.33417 7.04848
#
# Compressibility (1/GPa) = 0.02282574
#
# Stress axis : x y z
#
# Youngs Moduli (GPa) = 51.69952 64.58426 45.41703
#
# Poissons Ratio (x) = 0.60461 0.08346
# Poissons Ratio (y) = 0.48399 0.26388
# Poissons Ratio (z) = 0.09501 0.37524
#
# Static dielectric constant tensor:
#      x y z
#    x 3.214660 0.000000 0.000000 
#    y 0.000000 3.147290 0.000000 
#    z 0.000000 0.000000 3.069720 
# 
# 
# High freq. dielectric constant tensor:
#      x y z
#    x 1.676890 0.000000 0.000000 
#    y 0.000000 1.674640 0.000000 
#    z 0.000000 0.000000 1.667570 
# 
# From -- ./inp_files/18390.got.cif
#   From: 2010.03.12/outbox.cif.g09.slc.cpg/sg20_10_cif.got.tgz:18390.got - 2010.04.14 01:38:04.
