data_PCOD8159926
_publ_section_title
;
Structure prediction by ZEFSAII (Michael W. Deem and Ramdas Pophale) SiO2 
 PCOD8159926
Probable space group: C 2 2 21
;
_chemical_formula_sum "Si O2"
_cell_formula_units_Z 40
_cell_length_a 12.401971
_cell_length_b 5.200266
_cell_length_c 26.203040
_cell_angle_alpha 90.000000
_cell_angle_beta 90.000000
_cell_angle_gamma 90.000000
_cell_volume 1689.927021
_symmetry_space_group_name_H-M "C 2 2 21"
_symmetry_group_IT_number 20
_symmetry_cell_setting 'orthorhombic'
loop_
_space_group_symop_operation_xyz
x,y,z
-x,-y,1/2+z
x,-y,-z
-x,y,1/2-z
1/2+x,1/2+y,z
1/2-x,1/2-y,1/2+z
1/2+x,1/2-y,-z
1/2-x,1/2+y,1/2-z
loop_
_atom_site_type_symbol
_atom_site_label
_atom_site_fract_x
_atom_site_fract_y
_atom_site_fract_z
Si Si1 0.487097 0.105917 0.555772
Si Si2 0.620848 0.088893 0.147051
Si Si3 0.240334 0.758174 0.967056
Si Si4 0.143781 0.030528 0.389900
Si Si5 0.966960 0.931249 0.692696
O O1 0.380173 0.290763 0.556195
O O2 0.590449 0.270186 0.571065
O O3 0.511443 0.000000 0.500000
O O4 0.460773 0.883612 0.598178
O O5 0.740725 0.136323 0.127359
O O6 0.603680 0.310472 0.189076
O O7 0.600790 0.809970 0.172128
O O8 0.330959 0.732318 0.922071
O O9 0.238155 0.500000 0.000000
O O10 0.274476 0.000000 0.000000
O O11 0.073275 0.998945 0.339548
O O12 0.000000 0.871182 0.750000
#
# Coordination Sequence:
#
# PCOD8159926 Si02
#       5
#     8   8   8   8   8
#     4   9  21  42  67  97 139 183 220 265 325 397
#     4  10  24  44  68 102 135 170 226 278 323 400
#     4  10  23  41  62  93 131 174 225 268 314 391
#     4  10  24  43  68  97 135 178 219 276 340 392
#     4  11  25  46  71  99 132 173 224 283 343 398
#
# _framework density 23.669663
#
# number of rings (size 3 to 8) (size 9 to 14) (size 15 to 20)
#    0.000    2.000    0.000    0.600    0.000   25.600 
#    0.000   11.000    0.000    0.000    0.000    0.000 
#    0.000    0.000    0.000    0.000    0.000    0.000 
#
# Total GULP energy -247972.867272 kJ/mol
# GULP energy per Si atom -12398.643364 kJ/mol
# Density = 2.361579 g / cm^3
# Si number density = 23.669663 Si / 1000 Ang^3
#
#
#
# Elastic Constant Matrix: (Units=GPa)
#
#
# Indices 1 2 3 4 5 6 
#
# 1 153.2537 51.1853 53.9678 0.0000 0.0000 0.0000
# 2 51.1853 126.3645 49.8431 0.0000 0.0000 0.0000
# 3 53.9678 49.8431 155.3558 0.0000 0.0000 0.0000
# 4 0.0000 0.0000 0.0000 41.7316 0.0000 0.0000
# 5 0.0000 0.0000 0.0000 0.0000 35.8715 0.0000
# 6 0.0000 0.0000 0.0000 0.0000 0.0000 16.1107
#
#
#
# Elastic Compliance Matrix: (Units=1/GPa)
#
#
# Indices 1 2 3 4 5 6 
#
# 1 0.008057 -0.002473 -0.002006 0.000000 0.000000 0.000000
# 2 -0.002473 0.009819 -0.002291 0.000000 0.000000 0.000000
# 3 -0.002006 -0.002291 0.007869 0.000000 0.000000 0.000000
# 4 0.000000 0.000000 0.000000 0.023963 0.000000 0.000000
# 5 0.000000 0.000000 0.000000 0.000000 0.027877 0.000000
# 6 0.000000 0.000000 0.000000 0.000000 0.000000 0.062071
#
#
# Mechanical properties :
#
#
# Convention : Reuss Voigt Hill
#
# Bulk Modulus (GPa) = 81.92822 82.77404 82.35113
# Shear Modulus (GPa) = 31.79385 37.40795 34.60090
#
# Velocity S-wave (km/s) = 3.66899 3.97976 3.82753
# Velocity P-wave (km/s) = 7.25513 7.49429 7.37568
#
# Compressibility (1/GPa) = 0.01220581
#
# Stress axis : x y z
#
# Youngs Moduli (GPa) = 124.11223 101.84412 127.08590
#
# Poissons Ratio (x) = 0.25181 0.25489
# Poissons Ratio (y) = 0.30687 0.29119
# Poissons Ratio (z) = 0.24893 0.23336
#
# Static dielectric constant tensor:
#      x y z
#    x 4.568660 0.000000 0.000000 
#    y 0.000000 4.060400 0.000000 
#    z 0.000000 0.000000 4.372850 
# 
# 
# High freq. dielectric constant tensor:
#      x y z
#    x 1.959950 0.000000 0.000000 
#    y 0.000000 1.927510 0.000000 
#    z 0.000000 0.000000 1.935000 
# 
# From -- ./inp_files/30228.got.cif
#   From: 2010.03.12/outbox.cif.g09.slc.cpg/sg20_16_cif.got.tgz:30228.got - 2010.04.14 01:38:04.
