data_PCOD8159538
_publ_section_title
;
Structure prediction by ZEFSAII (Michael W. Deem and Ramdas Pophale) SiO2 
 PCOD8159538
Probable space group: C 2 2 21
;
_chemical_formula_sum "Si O2"
_cell_formula_units_Z 48
_cell_length_a 22.844959
_cell_length_b 9.266191
_cell_length_c 10.522282
_cell_angle_alpha 90.000000
_cell_angle_beta 90.000000
_cell_angle_gamma 90.000000
_cell_volume 2227.417194
_symmetry_space_group_name_H-M "C 2 2 21"
_symmetry_group_IT_number 20
_symmetry_cell_setting 'orthorhombic'
loop_
_space_group_symop_operation_xyz
x,y,z
-x,-y,1/2+z
x,-y,-z
-x,y,1/2-z
1/2+x,1/2+y,z
1/2-x,1/2-y,1/2+z
1/2+x,1/2-y,-z
1/2-x,1/2+y,1/2-z
loop_
_atom_site_type_symbol
_atom_site_label
_atom_site_fract_x
_atom_site_fract_y
_atom_site_fract_z
Si Si1 0.433123 0.612868 0.892736
Si Si2 0.433123 0.387132 0.392736
Si Si3 0.342597 0.841120 0.966772
Si Si4 0.842597 0.341120 0.533228
Si Si5 0.216603 0.889291 0.887083
Si Si6 0.716603 0.389291 0.612917
O O1 0.500000 0.655494 0.922702
O O2 0.427833 0.546342 0.750000
O O3 0.394916 0.757843 0.897470
O O4 0.410649 0.500000 0.000000
O O5 0.410649 0.500000 0.500000
O O6 0.394916 0.242157 0.397470
O O7 0.285183 0.850865 0.878377
O O8 0.321423 0.755695 0.093058
O O9 0.366222 0.000000 0.000000
O O10 0.866222 0.500000 0.500000
O O11 0.821423 0.255695 0.406942
O O12 0.785183 0.350865 0.621623
O O13 0.198534 0.956042 0.750000
O O14 0.202398 0.000000 0.000000
O O15 0.702398 0.500000 0.500000
#
# Coordination Sequence:
#
# PCOD8159538 Si02
#       6
#     8   8   8   8   8   8
#     4  10  22  41  63  85 112 150 194 238 286 342
#     4  10  22  41  63  85 112 150 194 238 286 342
#     4  10  22  36  58  88 119 150 189 238 287 336
#     4  10  22  36  58  88 119 150 189 238 287 336
#     4  10  22  39  59  85 118 156 194 232 280 340
#     4  10  22  39  59  85 118 156 194 232 280 340
#
# _framework density 21.549621999999999
#
# number of rings (size 3 to 8) (size 9 to 14) (size 15 to 20)
#    0.000    2.000    0.000    2.000    0.000   20.667 
#    0.000    0.000    0.000    4.000    0.000    0.000 
#    0.000    0.000    0.000    0.000    0.000    0.000 
#
# Total GULP energy -297461.635367 kJ/mol
# GULP energy per Si atom -12394.234807 kJ/mol
# Density = 2.150057 g / cm^3
# Si number density = 21.549622 Si / 1000 Ang^3
#
#
#
# Elastic Constant Matrix: (Units=GPa)
#
#
# Indices 1 2 3 4 5 6 
#
# 1 94.7431 50.8195 18.1012 0.0000 0.0000 0.0000
# 2 50.8195 145.3398 70.6558 0.0000 0.0000 0.0000
# 3 18.1012 70.6558 189.6669 0.0000 0.0000 0.0000
# 4 0.0000 0.0000 0.0000 27.5813 0.0000 0.0000
# 5 0.0000 0.0000 0.0000 0.0000 -51.0544 0.0000
# 6 0.0000 0.0000 0.0000 0.0000 0.0000 37.7084
#
#
#
# Elastic Compliance Matrix: (Units=1/GPa)
#
#
# Indices 1 2 3 4 5 6 
#
# 1 0.013039 -0.004829 0.000554 0.000000 0.000000 0.000000
# 2 -0.004829 0.010190 -0.003335 0.000000 0.000000 0.000000
# 3 0.000554 -0.003335 0.006462 0.000000 0.000000 0.000000
# 4 0.000000 0.000000 0.000000 0.036256 0.000000 0.000000
# 5 0.000000 0.000000 0.000000 0.000000 -0.019587 0.000000
# 6 0.000000 0.000000 0.000000 0.000000 0.000000 0.026519
#
#
# Mechanical properties :
#
#
# Convention : Reuss Voigt Hill
#
# Bulk Modulus (GPa) = 69.09877 78.76697 73.93287
# Shear Modulus (GPa) = 53.80781 22.19196 37.99989
#
# Velocity S-wave (km/s) = 5.00235 3.21254 4.20380
# Velocity P-wave (km/s) = 8.09316 7.09869 7.61218
#
# Compressibility (1/GPa) = 0.01447204
#
# Stress axis : x y z
#
# Youngs Moduli (GPa) = 76.69272 98.13263 154.75152
#
# Poissons Ratio (x) = 0.47386 -0.08580
# Poissons Ratio (y) = 0.37033 0.51614
# Poissons Ratio (z) = -0.04252 0.32730
#
# Static dielectric constant tensor:
#      x y z
#    x 3.945360 0.000000 0.000000 
#    y 0.000000 3.802840 0.000000 
#    z 0.000000 0.000000 3.762220 
# 
# 
# High freq. dielectric constant tensor:
#      x y z
#    x 1.850680 0.000000 0.000000 
#    y 0.000000 1.831650 0.000000 
#    z 0.000000 0.000000 1.842670 
# 
# From -- ./inp_files/16655.got.cif
#   From: 2010.03.12/outbox.cif.g09.slc.cpg/sg20_9_cif.got.tgz:16655.got - 2010.04.14 01:38:04.
