data_PCOD8159088
_publ_section_title
;
Structure prediction by ZEFSAII (Michael W. Deem and Ramdas Pophale) SiO2 
 PCOD8159088
Probable space group: C 2 2 21
;
_chemical_formula_sum "Si O2"
_cell_formula_units_Z 40
_cell_length_a 16.402585
_cell_length_b 30.571202
_cell_length_c 5.139692
_cell_angle_alpha 90.000000
_cell_angle_beta 90.000000
_cell_angle_gamma 90.000000
_cell_volume 2577.281795
_symmetry_space_group_name_H-M "C 2 2 21"
_symmetry_group_IT_number 20
_symmetry_cell_setting 'orthorhombic'
loop_
_space_group_symop_operation_xyz
x,y,z
-x,-y,1/2+z
x,-y,-z
-x,y,1/2-z
1/2+x,1/2+y,z
1/2-x,1/2-y,1/2+z
1/2+x,1/2-y,-z
1/2-x,1/2+y,1/2-z
loop_
_atom_site_type_symbol
_atom_site_label
_atom_site_fract_x
_atom_site_fract_y
_atom_site_fract_z
Si Si1 0.914820 0.859677 0.909403
Si Si2 0.674263 0.208926 0.749793
Si Si3 0.944341 0.046766 0.999805
Si Si4 0.265906 0.307625 0.746939
Si Si5 0.500000 0.762456 0.250000
Si Si6 0.000000 0.203094 0.750000
O O1 0.889855 0.909291 0.990174
O O2 0.839775 0.841948 0.743237
O O3 0.000000 0.858195 0.750000
O O4 0.924753 0.828566 0.165456
O O5 0.696869 0.259631 0.741418
O O6 0.715832 0.183283 0.513581
O O7 0.577012 0.205953 0.708146
O O8 0.703978 0.185651 0.012809
O O9 0.000000 0.045477 0.250000
O O10 0.000000 0.051290 0.750000
O O11 0.894877 0.000000 0.000000
O O12 0.477740 0.732836 0.501702
#
# Coordination Sequence:
#
# PCOD8159088 Si02
#       6
#     8   8   8   8   4   4
#     4  11  21  31  49  67  91 123 158 191 223 267
#     4  10  21  33  44  62  87 113 147 196 228 264
#     4   9  18  30  44  64  89 118 154 190 223 262
#     4  10  21  31  44  64  89 111 149 194 226 253
#     4  12  22  34  50  63  86 122 158 193 236 274
#     4  12  20  28  48  67  82 118 162 191 216 262
#
# _framework density 15.520229
#
# number of rings (size 3 to 8) (size 9 to 14) (size 15 to 20)
#    0.000    1.600    4.000    1.200    8.400    0.000 
#    0.000    0.000    0.000    0.000    0.000    0.000 
#    0.000    0.000    0.000    3.600    0.000    3.000 
#
# Total GULP energy -247840.792538 kJ/mol
# GULP energy per Si atom -12392.039627 kJ/mol
# Density = 1.548490 g / cm^3
# Si number density = 15.520229 Si / 1000 Ang^3
#
#
#
# Elastic Constant Matrix: (Units=GPa)
#
#
# Indices 1 2 3 4 5 6 
#
# 1 87.6366 31.0098 23.1098 0.0000 0.0000 0.0000
# 2 31.0098 77.1244 19.7119 0.0000 0.0000 0.0000
# 3 23.1098 19.7119 93.9747 0.0000 0.0000 0.0000
# 4 0.0000 0.0000 0.0000 11.6031 0.0000 0.0000
# 5 0.0000 0.0000 0.0000 0.0000 21.7939 0.0000
# 6 0.0000 0.0000 0.0000 0.0000 0.0000 9.9792
#
#
#
# Elastic Compliance Matrix: (Units=1/GPa)
#
#
# Indices 1 2 3 4 5 6 
#
# 1 0.013779 -0.004939 -0.002352 0.000000 0.000000 0.000000
# 2 -0.004939 0.015471 -0.002031 0.000000 0.000000 0.000000
# 3 -0.002352 -0.002031 0.011646 0.000000 0.000000 0.000000
# 4 0.000000 0.000000 0.000000 0.086184 0.000000 0.000000
# 5 0.000000 0.000000 0.000000 0.000000 0.045884 0.000000
# 6 0.000000 0.000000 0.000000 0.000000 0.000000 0.100208
#
#
# Mechanical properties :
#
#
# Convention : Reuss Voigt Hill
#
# Bulk Modulus (GPa) = 44.94094 45.15540 45.04817
# Shear Modulus (GPa) = 16.70940 21.00218 18.85579
#
# Velocity S-wave (km/s) = 3.28475 3.68260 3.48935
# Velocity P-wave (km/s) = 6.58827 6.87312 6.73220
#
# Compressibility (1/GPa) = 0.02225142
#
# Stress axis : x y z
#
# Youngs Moduli (GPa) = 72.57596 64.63777 85.86934
#
# Poissons Ratio (x) = 0.31923 0.20200
# Poissons Ratio (y) = 0.35844 0.17437
# Poissons Ratio (z) = 0.17073 0.13125
#
# Static dielectric constant tensor:
#      x y z
#    x 2.781200 0.000000 0.000000 
#    y 0.000000 3.171050 0.000000 
#    z 0.000000 0.000000 3.279910 
# 
# 
# High freq. dielectric constant tensor:
#      x y z
#    x 1.557580 0.000000 0.000000 
#    y 0.000000 1.556960 0.000000 
#    z 0.000000 0.000000 1.623140 
# 
# From -- ./inp_files/2796.got.cif
#   From: 2010.03.12/outbox.cif.g09.slc.cpg/sg20_2_cif.got.tgz:2796.got - 2010.04.14 01:38:04.
