data_PCOD8159816
_publ_section_title
;
Structure prediction by ZEFSAII (Michael W. Deem and Ramdas Pophale) SiO2 
 PCOD8159816
Probable space group: C 2 2 21
;
_chemical_formula_sum "Si O2"
_cell_formula_units_Z 48
_cell_length_a 22.735705
_cell_length_b 8.828998
_cell_length_c 11.047637
_cell_angle_alpha 90.000000
_cell_angle_beta 90.000000
_cell_angle_gamma 90.000000
_cell_volume 2217.630775
_symmetry_space_group_name_H-M "C 2 2 21"
_symmetry_group_IT_number 20
_symmetry_cell_setting 'orthorhombic'
loop_
_space_group_symop_operation_xyz
x,y,z
-x,-y,1/2+z
x,-y,-z
-x,y,1/2-z
1/2+x,1/2+y,z
1/2-x,1/2-y,1/2+z
1/2+x,1/2-y,-z
1/2-x,1/2+y,1/2-z
loop_
_atom_site_type_symbol
_atom_site_label
_atom_site_fract_x
_atom_site_fract_y
_atom_site_fract_z
Si Si1 0.845698 0.214823 0.926185
Si Si2 0.347887 0.606283 0.182415
Si Si3 0.437278 0.181511 0.691576
Si Si4 0.726969 0.365627 0.909763
Si Si5 0.429619 0.152692 0.249462
Si Si6 0.108890 0.821369 0.023893
O O1 0.782310 0.262626 0.874996
O O2 0.899442 0.323666 0.882494
O O3 0.864715 0.052169 0.876560
O O4 0.835705 0.220485 0.070927
O O5 0.401798 0.679409 0.252747
O O6 0.294982 0.579491 0.277298
O O7 0.500000 0.183139 0.750000
O O8 0.439348 0.220763 0.548572
O O9 0.409979 0.014848 0.708828
O O10 0.674343 0.274226 0.977665
O O11 0.746793 0.500000 0.000000
O O12 0.500000 0.173064 0.250000
O O13 0.399859 0.279466 0.336107
O O14 0.100343 0.000000 0.000000
#
# Coordination Sequence:
#
# PCOD8159816 Si02
#       6
#     8   8   8   8   8   8
#     4  11  25  42  67  97 138 173 232 288 342 421
#     4  10  25  44  62 101 132 176 232 286 348 412
#     4  10  23  43  67  93 135 175 231 291 345 420
#     4  10  23  41  69  96 132 183 222 286 348 417
#     4  11  25  42  67 101 133 183 231 286 353 422
#     4  10  22  43  67  96 133 175 230 281 351 422
#
# _framework density 21.644721000000001
#
# number of rings (size 3 to 8) (size 9 to 14) (size 15 to 20)
#    0.000    1.667    0.000    3.500    9.333    4.000 
#    6.000    0.000    0.000    0.000    0.000    0.000 
#    0.000    0.000    0.000    0.000    0.000    0.000 
#
# Total GULP energy -297449.247332 kJ/mol
# GULP energy per Si atom -12393.718639 kJ/mol
# Density = 2.159546 g / cm^3
# Si number density = 21.644721 Si / 1000 Ang^3
#
#
#
# Elastic Constant Matrix: (Units=GPa)
#
#
# Indices 1 2 3 4 5 6 
#
# 1 91.8176 33.7972 32.5637 0.0000 0.0000 0.0000
# 2 33.7972 100.2441 34.1101 0.0000 0.0000 0.0000
# 3 32.5637 34.1101 124.0600 0.0000 0.0000 0.0000
# 4 0.0000 0.0000 0.0000 30.0335 0.0000 0.0000
# 5 0.0000 0.0000 0.0000 0.0000 26.3996 0.0000
# 6 0.0000 0.0000 0.0000 0.0000 0.0000 31.1129
#
#
#
# Elastic Compliance Matrix: (Units=1/GPa)
#
#
# Indices 1 2 3 4 5 6 
#
# 1 0.013076 -0.003575 -0.002449 0.000000 0.000000 0.000000
# 2 -0.003575 0.011983 -0.002356 0.000000 0.000000 0.000000
# 3 -0.002449 -0.002356 0.009351 0.000000 0.000000 0.000000
# 4 0.000000 0.000000 0.000000 0.033296 0.000000 0.000000
# 5 0.000000 0.000000 0.000000 0.000000 0.037879 0.000000
# 6 0.000000 0.000000 0.000000 0.000000 0.000000 0.032141
#
#
# Mechanical properties :
#
#
# Convention : Reuss Voigt Hill
#
# Bulk Modulus (GPa) = 56.66115 57.45151 57.05633
# Shear Modulus (GPa) = 31.17784 31.88592 31.53188
#
# Velocity S-wave (km/s) = 3.79943 3.84233 3.82094
# Velocity P-wave (km/s) = 6.74405 6.80332 6.77375
#
# Compressibility (1/GPa) = 0.01764878
#
# Stress axis : x y z
#
# Youngs Moduli (GPa) = 76.47751 83.45337 106.93662
#
# Poissons Ratio (x) = 0.29835 0.26191
# Poissons Ratio (y) = 0.27341 0.25197
# Poissons Ratio (z) = 0.18731 0.19664
#
# Static dielectric constant tensor:
#      x y z
#    x 3.751100 0.000000 0.000000 
#    y 0.000000 4.000020 0.000000 
#    z 0.000000 0.000000 4.494120 
# 
# 
# High freq. dielectric constant tensor:
#      x y z
#    x 1.834400 0.000000 0.000000 
#    y 0.000000 1.849610 0.000000 
#    z 0.000000 0.000000 1.868850 
# 
# From -- ./inp_files/13109.got.cif
#   From: 2010.03.12/outbox.cif.g09.slc.cpg/sg20_7_cif.got.tgz:13109.got - 2010.04.14 01:38:04.
