data_PCOD8159386
_publ_section_title
;
Structure prediction by ZEFSAII (Michael W. Deem and Ramdas Pophale) SiO2 
 PCOD8159386
Probable space group: C 2 2 21
;
_chemical_formula_sum "Si O2"
_cell_formula_units_Z 40
_cell_length_a 7.598226
_cell_length_b 13.430921
_cell_length_c 18.020056
_cell_angle_alpha 90.000000
_cell_angle_beta 90.000000
_cell_angle_gamma 90.000000
_cell_volume 1838.967855
_symmetry_space_group_name_H-M "C 2 2 21"
_symmetry_group_IT_number 20
_symmetry_cell_setting 'orthorhombic'
loop_
_space_group_symop_operation_xyz
x,y,z
-x,-y,1/2+z
x,-y,-z
-x,y,1/2-z
1/2+x,1/2+y,z
1/2-x,1/2-y,1/2+z
1/2+x,1/2-y,-z
1/2-x,1/2+y,1/2-z
loop_
_atom_site_type_symbol
_atom_site_label
_atom_site_fract_x
_atom_site_fract_y
_atom_site_fract_z
Si Si1 0.611009 0.260338 0.686678
Si Si2 0.069144 0.603286 0.467994
Si Si3 0.681201 0.782660 0.072269
Si Si4 0.112725 0.584317 0.179716
Si Si5 0.190065 0.113256 0.713393
O O1 0.500000 0.320316 0.750000
O O2 0.498406 0.245820 0.613319
O O3 0.779675 0.317960 0.658838
O O4 0.670791 0.158268 0.727874
O O5 0.148420 0.500000 0.500000
O O6 0.890070 0.640545 0.509672
O O7 0.019067 0.564280 0.386801
O O8 0.220703 0.688381 0.465500
O O9 0.813135 0.829179 0.133883
O O10 0.248359 0.496960 0.195598
O O11 0.000000 0.613388 0.250000
O O12 0.000000 0.113574 0.750000
#
# Coordination Sequence:
#
# PCOD8159386 Si02
#       5
#     8   8   8   8   8
#     4  10  21  41  66  98 134 179 234 284 348 416
#     4  12  26  46  71 101 144 186 234 290 362 422
#     4  11  24  48  68 102 143 188 230 299 353 425
#     4  12  23  43  71 100 139 182 237 293 348 423
#     4  11  23  41  70 103 137 187 241 291 352 419
#
# _framework density 21.751332000000001
#
# number of rings (size 3 to 8) (size 9 to 14) (size 15 to 20)
#    0.000    0.800    2.000    7.800    0.000    0.000 
#    3.600    0.000    0.000    0.000    0.000    0.000 
#    0.000    0.000    0.000    0.000    0.000    0.000 
#
# Total GULP energy -247904.823363 kJ/mol
# GULP energy per Si atom -12395.241168 kJ/mol
# Density = 2.170182 g / cm^3
# Si number density = 21.751332 Si / 1000 Ang^3
#
#
#
# Elastic Constant Matrix: (Units=GPa)
#
#
# Indices 1 2 3 4 5 6 
#
# 1 104.1990 40.7575 45.8202 0.0000 0.0000 0.0000
# 2 40.7575 106.0648 40.0531 0.0000 0.0000 0.0000
# 3 45.8202 40.0531 106.9298 0.0000 0.0000 0.0000
# 4 0.0000 0.0000 0.0000 1497.0356 0.0000 0.0000
# 5 0.0000 0.0000 0.0000 0.0000 39.9707 0.0000
# 6 0.0000 0.0000 0.0000 0.0000 0.0000 37.4207
#
#
#
# Elastic Compliance Matrix: (Units=1/GPa)
#
#
# Indices 1 2 3 4 5 6 
#
# 1 0.012747 -0.003303 -0.004225 0.000000 0.000000 0.000000
# 2 -0.003303 0.011837 -0.003019 0.000000 0.000000 0.000000
# 3 -0.004225 -0.003019 0.012293 0.000000 0.000000 0.000000
# 4 0.000000 0.000000 0.000000 0.000668 0.000000 0.000000
# 5 0.000000 0.000000 0.000000 0.000000 0.025018 0.000000
# 6 0.000000 0.000000 0.000000 0.000000 0.000000 0.026723
#
#
# Mechanical properties :
#
#
# Convention : Reuss Voigt Hill
#
# Bulk Modulus (GPa) = 63.35388 63.38391 63.36889
# Shear Modulus (GPa) = 43.23733 327.58958 185.41345
#
# Velocity S-wave (km/s) = 4.46331 12.28550 9.24269
# Velocity P-wave (km/s) = 7.46667 15.18053 11.96243
#
# Compressibility (1/GPa) = 0.01578435
#
# Stress axis : x y z
#
# Youngs Moduli (GPa) = 78.45137 84.47889 81.34650
#
# Poissons Ratio (x) = 0.27901 0.34369
# Poissons Ratio (y) = 0.25910 0.24556
# Poissons Ratio (z) = 0.33145 0.25502
#
# Static dielectric constant tensor:
#      x y z
#    x 2.682530 0.000000 0.000000 
#    y 0.000000 3.917390 0.000000 
#    z 0.000000 0.000000 4.167050 
# 
# 
# High freq. dielectric constant tensor:
#      x y z
#    x 1.854020 0.000000 0.000000 
#    y 0.000000 1.852700 0.000000 
#    z 0.000000 0.000000 1.869850 
# 
# From -- ./inp_files/23131.got.cif
#   From: 2010.03.12/outbox.cif.g09.slc.cpg/sg20_12_cif.got.tgz:23131.got - 2010.04.14 01:38:04.
