data_PCOD8159123
_publ_section_title
;
Structure prediction by ZEFSAII (Michael W. Deem and Ramdas Pophale) SiO2 
 PCOD8159123
Probable space group: C 2 2 21
;
_chemical_formula_sum "Si O2"
_cell_formula_units_Z 64
_cell_length_a 13.755287
_cell_length_b 10.236289
_cell_length_c 21.992096
_cell_angle_alpha 90.000000
_cell_angle_beta 90.000000
_cell_angle_gamma 90.000000
_cell_volume 3096.555139
_symmetry_space_group_name_H-M "C 2 2 21"
_symmetry_group_IT_number 20
_symmetry_cell_setting 'orthorhombic'
loop_
_space_group_symop_operation_xyz
x,y,z
-x,-y,1/2+z
x,-y,-z
-x,y,1/2-z
1/2+x,1/2+y,z
1/2-x,1/2-y,1/2+z
1/2+x,1/2-y,-z
1/2-x,1/2+y,1/2-z
loop_
_atom_site_type_symbol
_atom_site_label
_atom_site_fract_x
_atom_site_fract_y
_atom_site_fract_z
Si Si1 0.978305 0.601290 0.646584
Si Si2 0.685873 0.896971 0.053145
Si Si3 0.135276 0.107084 0.782525
Si Si4 0.864724 0.392916 0.717475
Si Si5 0.685873 0.603029 0.053145
Si Si6 0.184639 0.996663 0.344110
Si Si7 0.978305 0.898710 0.646584
Si Si8 0.684639 0.996663 0.655890
O O1 0.917590 0.575733 0.585233
O O2 0.941032 0.505484 0.699745
O O3 0.962561 0.750000 0.669216
O O4 0.090923 0.575589 0.632297
O O5 0.688738 0.750000 0.026380
O O6 0.773650 0.910287 0.101038
O O7 0.700602 0.000000 0.000000
O O8 0.089540 0.250000 0.795494
O O9 0.158369 0.098872 0.711233
O O10 0.058968 0.994516 0.800255
O O11 0.233979 0.098269 0.821516
O O12 0.766021 0.401731 0.678484
O O13 0.841631 0.401128 0.788767
O O14 0.582410 0.575733 0.085233
O O15 0.773650 0.589713 0.101038
O O16 0.700602 0.500000 0.000000
O O17 0.090923 0.075589 0.367703
#
# Coordination Sequence:
#
# PCOD8159123 Si02
#       8
#     8   8   8   8   8   8   8   8
#     4  10  22  39  59  85 118 154 191 233 285 344
#     4  10  23  42  60  82 113 149 194 245 289 335
#     4  10  21  36  58  90 122 150 187 234 284 343
#     4  10  21  36  58  90 122 150 187 234 284 343
#     4  10  23  42  60  82 113 149 194 245 289 335
#     4  10  21  37  61  86 116 154 192 233 285 343
#     4  10  22  39  59  85 118 154 191 233 285 344
#     4  10  21  37  61  86 116 154 192 233 285 343
#
# _framework density 20.668127999999999
#
# number of rings (size 3 to 8) (size 9 to 14) (size 15 to 20)
#    0.000    2.000    0.000    2.250    0.000   17.000 
#    0.000    2.500    0.000    0.000    0.000    0.000 
#    0.000    0.000    0.000    0.000    0.000    0.000 
#
# Total GULP energy -396840.437622 kJ/mol
# GULP energy per Si atom -12401.263676 kJ/mol
# Density = 2.062109 g / cm^3
# Si number density = 20.668128 Si / 1000 Ang^3
#
#
#
# Elastic Constant Matrix: (Units=GPa)
#
#
# Indices 1 2 3 4 5 6 
#
# 1 133.9268 40.3488 35.3039 0.0000 0.0000 0.0000
# 2 40.3488 154.3498 54.9693 0.0000 0.0000 0.0000
# 3 35.3039 54.9693 102.8355 0.0000 0.0000 0.0000
# 4 0.0000 0.0000 0.0000 18.3600 0.0000 0.0000
# 5 0.0000 0.0000 0.0000 0.0000 14.9304 0.0000
# 6 0.0000 0.0000 0.0000 0.0000 0.0000 15.0513
#
#
#
# Elastic Compliance Matrix: (Units=1/GPa)
#
#
# Indices 1 2 3 4 5 6 
#
# 1 0.008466 -0.001455 -0.002129 0.000000 0.000000 0.000000
# 2 -0.001455 0.008252 -0.003912 0.000000 0.000000 0.000000
# 3 -0.002129 -0.003912 0.012546 0.000000 0.000000 0.000000
# 4 0.000000 0.000000 0.000000 0.054466 0.000000 0.000000
# 5 0.000000 0.000000 0.000000 0.000000 0.066977 0.000000
# 6 0.000000 0.000000 0.000000 0.000000 0.000000 0.066439
#
#
# Mechanical properties :
#
#
# Convention : Reuss Voigt Hill
#
# Bulk Modulus (GPa) = 70.05891 72.48402 71.27146
# Shear Modulus (GPa) = 21.10632 27.03436 24.07034
#
# Velocity S-wave (km/s) = 3.19909 3.62058 3.41634
# Velocity P-wave (km/s) = 6.90045 7.25429 7.07958
#
# Compressibility (1/GPa) = 0.01427370
#
# Stress axis : x y z
#
# Youngs Moduli (GPa) = 118.11553 121.17961 79.70700
#
# Poissons Ratio (x) = 0.17633 0.16967
# Poissons Ratio (y) = 0.17187 0.31178
# Poissons Ratio (z) = 0.25144 0.47400
#
# Static dielectric constant tensor:
#      x y z
#    x 3.924740 0.000000 0.000000 
#    y 0.000000 3.652740 0.000000 
#    z 0.000000 0.000000 3.487460 
# 
# 
# High freq. dielectric constant tensor:
#      x y z
#    x 1.818450 0.000000 0.000000 
#    y 0.000000 1.811310 0.000000 
#    z 0.000000 0.000000 1.787530 
# 
# From -- ./inp_files/29379.got.cif
#   From: 2010.03.12/outbox.cif.g09.slc.cpg/sg20_15_cif.got.tgz:29379.got - 2010.04.14 01:38:04.
