data_PCOD8159460
_publ_section_title
;
Structure prediction by ZEFSAII (Michael W. Deem and Ramdas Pophale) SiO2 
 PCOD8159460
Probable space group: C 2 2 21
;
_chemical_formula_sum "Si O2"
_cell_formula_units_Z 40
_cell_length_a 12.484826
_cell_length_b 8.964885
_cell_length_c 15.569909
_cell_angle_alpha 90.000000
_cell_angle_beta 90.000000
_cell_angle_gamma 90.000000
_cell_volume 1742.662522
_symmetry_space_group_name_H-M "C 2 2 21"
_symmetry_group_IT_number 20
_symmetry_cell_setting 'orthorhombic'
loop_
_space_group_symop_operation_xyz
x,y,z
-x,-y,1/2+z
x,-y,-z
-x,y,1/2-z
1/2+x,1/2+y,z
1/2-x,1/2-y,1/2+z
1/2+x,1/2-y,-z
1/2-x,1/2+y,1/2-z
loop_
_atom_site_type_symbol
_atom_site_label
_atom_site_fract_x
_atom_site_fract_y
_atom_site_fract_z
Si Si1 0.447938 0.388901 0.843732
Si Si2 0.219758 0.545358 0.830779
Si Si3 0.037863 0.636905 0.954218
Si Si4 0.456592 0.312282 0.382395
Si Si5 0.849640 0.699973 0.221582
O O1 0.500000 0.375731 0.750000
O O2 0.324294 0.441975 0.847683
O O3 0.461044 0.228831 0.890103
O O4 0.514254 0.514792 0.894597
O O5 0.136362 0.549205 0.908852
O O6 0.165186 0.473323 0.745712
O O7 0.243778 0.720043 0.815480
O O8 0.973022 0.500000 0.000000
O O9 0.082668 0.750334 0.026434
O O10 0.367740 0.295356 0.309024
O O11 0.557126 0.214235 0.348004
#
# Coordination Sequence:
#
# PCOD8159460 Si02
#       5
#     8   8   8   8   8
#     4  11  23  47  76 100 138 195 240 294 366 429
#     4  11  23  42  74 103 137 186 247 293 354 437
#     4  12  26  41  69 104 145 182 231 302 361 423
#     4  10  21  45  67  93 140 185 227 298 357 413
#     4  10  21  42  71  95 136 184 238 288 358 426
#
# _framework density 22.953382999999999
#
# number of rings (size 3 to 8) (size 9 to 14) (size 15 to 20)
#    0.000    1.200    6.000    1.800    0.000    6.400 
#    0.000    0.000    4.400    0.000    0.000    0.000 
#    0.000    0.000    0.000    0.000    0.000    0.000 
#
# Total GULP energy -247810.259981 kJ/mol
# GULP energy per Si atom -12390.512999 kJ/mol
# Density = 2.290114 g / cm^3
# Si number density = 22.953383 Si / 1000 Ang^3
#
#
#
# Elastic Constant Matrix: (Units=GPa)
#
#
# Indices 1 2 3 4 5 6 
#
# 1 62.6806 31.5832 29.5937 0.0000 0.0000 0.0000
# 2 31.5832 100.7400 55.8003 0.0000 0.0000 0.0000
# 3 29.5937 55.8003 97.8063 0.0000 0.0000 0.0000
# 4 0.0000 0.0000 0.0000 59.5431 0.0000 0.0000
# 5 0.0000 0.0000 0.0000 0.0000 12.4688 0.0000
# 6 0.0000 0.0000 0.0000 0.0000 0.0000 23.4015
#
#
#
# Elastic Compliance Matrix: (Units=1/GPa)
#
#
# Indices 1 2 3 4 5 6 
#
# 1 0.019767 -0.004217 -0.003575 0.000000 0.000000 0.000000
# 2 -0.004217 0.015412 -0.007517 0.000000 0.000000 0.000000
# 3 -0.003575 -0.007517 0.015595 0.000000 0.000000 0.000000
# 4 0.000000 0.000000 0.000000 0.016795 0.000000 0.000000
# 5 0.000000 0.000000 0.000000 0.000000 0.080200 0.000000
# 6 0.000000 0.000000 0.000000 0.000000 0.000000 0.042732
#
#
# Mechanical properties :
#
#
# Convention : Reuss Voigt Hill
#
# Bulk Modulus (GPa) = 49.61415 55.02015 52.31715
# Shear Modulus (GPa) = 21.94551 28.69933 25.32242
#
# Velocity S-wave (km/s) = 3.09543 3.53984 3.32507
# Velocity P-wave (km/s) = 5.86836 6.38198 6.13055
#
# Compressibility (1/GPa) = 0.02015554
#
# Stress axis : x y z
#
# Youngs Moduli (GPa) = 50.59045 64.88316 64.12445
#
# Poissons Ratio (x) = 0.27360 0.22925
# Poissons Ratio (y) = 0.21333 0.48203
# Poissons Ratio (z) = 0.18087 0.48773
#
# Static dielectric constant tensor:
#      x y z
#    x 3.951920 0.000000 0.000000 
#    y 0.000000 4.341270 0.000000 
#    z 0.000000 0.000000 4.116000 
# 
# 
# High freq. dielectric constant tensor:
#      x y z
#    x 1.878620 0.000000 0.000000 
#    y 0.000000 1.920360 0.000000 
#    z 0.000000 0.000000 1.904680 
# 
# From -- ./inp_files/18501.got.cif
#   From: 2010.03.12/outbox.cif.g09.slc.cpg/sg20_10_cif.got.tgz:18501.got - 2010.04.14 01:38:04.
