data_PCOD8159101
_publ_section_title
;
Structure prediction by ZEFSAII (Michael W. Deem and Ramdas Pophale) SiO2 
 PCOD8159101
Probable space group: C 2 2 21
;
_chemical_formula_sum "Si O2"
_cell_formula_units_Z 52
_cell_length_a 15.731262
_cell_length_b 17.877764
_cell_length_c 8.288860
_cell_angle_alpha 90.000000
_cell_angle_beta 90.000000
_cell_angle_gamma 90.000000
_cell_volume 2331.157241
_symmetry_space_group_name_H-M "C 2 2 21"
_symmetry_group_IT_number 20
_symmetry_cell_setting 'orthorhombic'
loop_
_space_group_symop_operation_xyz
x,y,z
-x,-y,1/2+z
x,-y,-z
-x,y,1/2-z
1/2+x,1/2+y,z
1/2-x,1/2-y,1/2+z
1/2+x,1/2-y,-z
1/2-x,1/2+y,1/2-z
loop_
_atom_site_type_symbol
_atom_site_label
_atom_site_fract_x
_atom_site_fract_y
_atom_site_fract_z
Si Si1 0.357979 0.436650 0.814251
Si Si2 0.849041 0.724518 0.305726
Si Si3 0.879479 0.871168 0.481070
Si Si4 0.230560 0.445284 0.293154
Si Si5 0.500000 0.452944 0.250000
Si Si6 0.078937 0.500000 0.500000
Si Si7 0.000000 0.609475 0.250000
Si Si8 0.217498 0.167034 0.543611
O O1 0.386598 0.380687 0.671740
O O2 0.266908 0.477545 0.782078
O O3 0.428409 0.499084 0.837422
O O4 0.355105 0.389989 0.981179
O O5 0.879149 0.783984 0.438636
O O6 0.918794 0.661145 0.282393
O O7 0.763814 0.689512 0.378639
O O8 0.826516 0.763342 0.134639
O O9 0.795031 0.915932 0.429579
O O10 0.961398 0.903806 0.392792
O O11 0.138112 0.458115 0.369394
O O12 0.220269 0.378899 0.162273
O O13 0.018391 0.441432 0.593005
#
# Coordination Sequence:
#
# PCOD8159101 Si02
#       8
#     8   8   8   8   4   4   4   8
#     4  11  21  39  65 111 138 185 233 295 342 426
#     4  11  26  47  67 102 139 187 231 295 345 441
#     4  10  21  40  69 100 139 192 224 290 350 426
#     4  10  21  41  74 100 139 176 245 290 346 422
#     4  10  21  34  64 103 154 176 226 284 364 403
#     4  12  26  50  74 102 136 188 234 310 356 424
#     4  12  31  46  72 101 150 174 246 296 368 407
#     4  11  25  41  75  97 136 186 244 280 357 425
#
# _framework density 22.306518000000001
#
# number of rings (size 3 to 8) (size 9 to 14) (size 15 to 20)
#    0.000    1.231    1.538    4.154    6.462    8.615 
#    0.000    0.000    0.000    0.000    0.000    0.000 
#    0.000    0.000    0.000    0.000    0.000    0.000 
#
# Total GULP energy -322439.991344 kJ/mol
# GULP energy per Si atom -12401.538129 kJ/mol
# Density = 2.225575 g / cm^3
# Si number density = 22.306518 Si / 1000 Ang^3
#
#
#
# Elastic Constant Matrix: (Units=GPa)
#
#
# Indices 1 2 3 4 5 6 
#
# 1 94.5816 47.5298 34.9389 0.0000 0.0000 0.0000
# 2 47.5298 118.2831 43.2028 0.0000 0.0000 0.0000
# 3 34.9389 43.2028 96.8086 0.0000 0.0000 0.0000
# 4 0.0000 0.0000 0.0000 40.9023 0.0000 0.0000
# 5 0.0000 0.0000 0.0000 0.0000 34.0094 0.0000
# 6 0.0000 0.0000 0.0000 0.0000 0.0000 -3.5498
#
#
#
# Elastic Compliance Matrix: (Units=1/GPa)
#
#
# Indices 1 2 3 4 5 6 
#
# 1 0.013953 -0.004501 -0.003027 0.000000 0.000000 0.000000
# 2 -0.004501 0.011553 -0.003531 0.000000 0.000000 0.000000
# 3 -0.003027 -0.003531 0.012998 0.000000 0.000000 0.000000
# 4 0.000000 0.000000 0.000000 0.024448 0.000000 0.000000
# 5 0.000000 0.000000 0.000000 0.000000 0.029404 0.000000
# 6 0.000000 0.000000 0.000000 0.000000 0.000000 -0.281708
#
#
# Mechanical properties :
#
#
# Convention : Reuss Voigt Hill
#
# Bulk Modulus (GPa) = 61.03098 62.33516 61.68307
# Shear Modulus (GPa) = -30.90781 26.53918 -2.18432
#
# Velocity S-wave (km/s) = -3.72640 3.45302 -0.99063
# Velocity P-wave (km/s) = 2.98410 6.62595 5.13849
#
# Compressibility (1/GPa) = 0.01638512
#
# Stress axis : x y z
#
# Youngs Moduli (GPa) = 71.66905 86.55961 76.93500
#
# Poissons Ratio (x) = 0.38962 0.23288
# Poissons Ratio (y) = 0.32259 0.27167
# Poissons Ratio (z) = 0.21694 0.30566
#
# Static dielectric constant tensor:
#      x y z
#    x 4.029900 0.000000 0.000000 
#    y 0.000000 4.172260 0.000000 
#    z 0.000000 0.000000 4.089560 
# 
# 
# High freq. dielectric constant tensor:
#      x y z
#    x 1.863000 0.000000 0.000000 
#    y 0.000000 1.885970 0.000000 
#    z 0.000000 0.000000 1.889630 
# 
# From -- ./inp_files/9567.got.cif
#   From: 2010.03.12/outbox.cif.g09.slc.cpg/sg20_5_cif.got.tgz:9567.got - 2010.04.14 01:38:04.
