data_PCOD8159500
_publ_section_title
;
Structure prediction by ZEFSAII (Michael W. Deem and Ramdas Pophale) SiO2 
 PCOD8159500
Probable space group: C 2 2 21
;
_chemical_formula_sum "Si O2"
_cell_formula_units_Z 32
_cell_length_a 9.543633
_cell_length_b 18.063509
_cell_length_c 8.002083
_cell_angle_alpha 90.000000
_cell_angle_beta 90.000000
_cell_angle_gamma 90.000000
_cell_volume 1379.491096
_symmetry_space_group_name_H-M "C 2 2 21"
_symmetry_group_IT_number 20
_symmetry_cell_setting 'orthorhombic'
loop_
_space_group_symop_operation_xyz
x,y,z
-x,-y,1/2+z
x,-y,-z
-x,y,1/2-z
1/2+x,1/2+y,z
1/2-x,1/2-y,1/2+z
1/2+x,1/2-y,-z
1/2-x,1/2+y,1/2-z
loop_
_atom_site_type_symbol
_atom_site_label
_atom_site_fract_x
_atom_site_fract_y
_atom_site_fract_z
Si Si1 0.500000 0.086304 0.250000
Si Si2 0.543951 0.817133 0.424811
Si Si3 0.639661 0.674206 0.023585
Si Si4 0.715821 0.467423 0.813745
Si Si5 0.000000 0.078033 0.750000
O O1 0.499530 0.135755 0.415777
O O2 0.629492 0.030599 0.240319
O O3 0.500000 0.857610 0.250000
O O4 0.448378 0.743919 0.417426
O O5 0.712089 0.802334 0.436058
O O6 0.538695 0.630857 0.899617
O O7 0.666868 0.618928 0.180455
O O8 0.624509 0.521358 0.696639
O O9 0.713450 0.500000 0.000000
#
# Coordination Sequence:
#
# PCOD8159500 Si02
#       5
#     4   8   8   8   4
#     4  10  23  48  70 100 141 184 228 286 360 410
#     4  11  26  44  73 105 142 179 233 296 344 422
#     4  10  24  43  66 102 138 182 236 279 358 410
#     4   9  21  44  65  98 137 179 236 284 335 430
#     4  10  21  44  68  94 139 182 230 290 334 422
#
# _framework density 23.196960000000001
#
# number of rings (size 3 to 8) (size 9 to 14) (size 15 to 20)
#    0.000    2.000    0.000    0.750   12.250    0.000 
#   29.250    0.000    0.000    0.000    0.000    0.000 
#    0.000    0.000    0.000    0.000    0.000    0.000 
#
# Total GULP energy -198276.082341 kJ/mol
# GULP energy per Si atom -12392.255146 kJ/mol
# Density = 2.314416 g / cm^3
# Si number density = 23.196960 Si / 1000 Ang^3
#
#
#
# Elastic Constant Matrix: (Units=GPa)
#
#
# Indices 1 2 3 4 5 6 
#
# 1 161.2587 50.6578 46.1402 0.0000 0.0000 0.0000
# 2 50.6578 65.3375 18.8996 0.0000 0.0000 0.0000
# 3 46.1402 18.8996 98.4174 0.0000 0.0000 0.0000
# 4 0.0000 0.0000 0.0000 6.0100 0.0000 0.0000
# 5 0.0000 0.0000 0.0000 0.0000 39.1988 0.0000
# 6 0.0000 0.0000 0.0000 0.0000 0.0000 38.2145
#
#
#
# Elastic Compliance Matrix: (Units=1/GPa)
#
#
# Indices 1 2 3 4 5 6 
#
# 1 0.008983 -0.006085 -0.003043 0.000000 0.000000 0.000000
# 2 -0.006085 0.020327 -0.001051 0.000000 0.000000 0.000000
# 3 -0.003043 -0.001051 0.011789 0.000000 0.000000 0.000000
# 4 0.000000 0.000000 0.000000 0.166390 0.000000 0.000000
# 5 0.000000 0.000000 0.000000 0.000000 0.025511 0.000000
# 6 0.000000 0.000000 0.000000 0.000000 0.000000 0.026168
#
#
# Mechanical properties :
#
#
# Convention : Reuss Voigt Hill
#
# Bulk Modulus (GPa) = 48.21116 61.82321 55.01718
# Shear Modulus (GPa) = 17.45568 30.63906 24.04737
#
# Velocity S-wave (km/s) = 2.74615 3.63825 3.22321
# Velocity P-wave (km/s) = 5.55730 6.66022 6.13360
#
# Compressibility (1/GPa) = 0.02074209
#
# Stress axis : x y z
#
# Youngs Moduli (GPa) = 111.31628 49.19608 84.82286
#
# Poissons Ratio (x) = 0.29935 0.25813
# Poissons Ratio (y) = 0.67734 0.08913
# Poissons Ratio (z) = 0.33875 0.05169
#
# Static dielectric constant tensor:
#      x y z
#    x 4.686550 0.000000 0.000000 
#    y 0.000000 4.443470 0.000000 
#    z 0.000000 0.000000 4.067540 
# 
# 
# High freq. dielectric constant tensor:
#      x y z
#    x 1.936910 0.000000 0.000000 
#    y 0.000000 1.922230 0.000000 
#    z 0.000000 0.000000 1.900100 
# 
# From -- ./inp_files/5845.got.cif
#   From: 2010.03.12/outbox.cif.g09.slc.cpg/sg20_3_cif.got.tgz:5845.got - 2010.04.14 01:38:04.
