data_PCOD8159717
_publ_section_title
;
Structure prediction by ZEFSAII (Michael W. Deem and Ramdas Pophale) SiO2 
 PCOD8159717
Probable space group: C 2 2 21
;
_chemical_formula_sum "Si O2"
_cell_formula_units_Z 40
_cell_length_a 10.563732
_cell_length_b 11.415474
_cell_length_c 14.586711
_cell_angle_alpha 90.000000
_cell_angle_beta 90.000000
_cell_angle_gamma 90.000000
_cell_volume 1759.011596
_symmetry_space_group_name_H-M "C 2 2 21"
_symmetry_group_IT_number 20
_symmetry_cell_setting 'orthorhombic'
loop_
_space_group_symop_operation_xyz
x,y,z
-x,-y,1/2+z
x,-y,-z
-x,y,1/2-z
1/2+x,1/2+y,z
1/2-x,1/2-y,1/2+z
1/2+x,1/2-y,-z
1/2-x,1/2+y,1/2-z
loop_
_atom_site_type_symbol
_atom_site_label
_atom_site_fract_x
_atom_site_fract_y
_atom_site_fract_z
Si Si1 0.226782 0.359233 0.849098
Si Si2 0.480354 0.590402 0.076310
Si Si3 0.356014 0.810874 0.028224
Si Si4 0.950925 0.568508 0.647213
Si Si5 0.791257 0.798742 0.649938
O O1 0.351777 0.440269 0.868143
O O2 0.237537 0.241991 0.911647
O O3 0.105872 0.439527 0.873652
O O4 0.218152 0.315172 0.744927
O O5 0.462111 0.710473 0.019114
O O6 0.591543 0.610479 0.149750
O O7 0.523118 0.500000 0.000000
O O8 0.427679 0.917703 0.079920
O O9 0.305037 0.842917 0.928464
O O10 0.840663 0.666015 0.634231
O O11 0.000000 0.580973 0.750000
#
# Coordination Sequence:
#
# PCOD8159717 Si02
#       5
#     8   8   8   8   8
#     4  10  22  41  67  97 136 190 232 285 362 415
#     4   9  19  38  63  93 127 176 228 284 344 411
#     4   9  22  40  65  98 137 182 234 290 349 417
#     4  11  21  43  69  95 147 189 228 302 354 409
#     4  11  20  42  68  96 144 181 239 292 348 427
#
# _framework density 22.740043
#
# number of rings (size 3 to 8) (size 9 to 14) (size 15 to 20)
#    1.200    0.800    2.000    1.800    0.000    1.600 
#   10.800    0.000    0.000    0.000    0.000    0.000 
#    0.000    0.000    0.000    0.000    0.000    0.000 
#
# Total GULP energy -247796.183321 kJ/mol
# GULP energy per Si atom -12389.809166 kJ/mol
# Density = 2.268829 g / cm^3
# Si number density = 22.740043 Si / 1000 Ang^3
#
#
#
# Elastic Constant Matrix: (Units=GPa)
#
#
# Indices 1 2 3 4 5 6 
#
# 1 72.9042 39.9879 16.9292 0.0000 0.0000 0.0000
# 2 39.9879 60.1365 31.9418 0.0000 0.0000 0.0000
# 3 16.9292 31.9418 96.9448 0.0000 0.0000 0.0000
# 4 0.0000 0.0000 0.0000 28.4290 0.0000 0.0000
# 5 0.0000 0.0000 0.0000 0.0000 47.4236 0.0000
# 6 0.0000 0.0000 0.0000 0.0000 0.0000 46.9684
#
#
#
# Elastic Compliance Matrix: (Units=1/GPa)
#
#
# Indices 1 2 3 4 5 6 
#
# 1 0.021701 -0.015051 0.001170 0.000000 0.000000 0.000000
# 2 -0.015051 0.030595 -0.007452 0.000000 0.000000 0.000000
# 3 0.001170 -0.007452 0.012566 0.000000 0.000000 0.000000
# 4 0.000000 0.000000 0.000000 0.035175 0.000000 0.000000
# 5 0.000000 0.000000 0.000000 0.000000 0.021087 0.000000
# 6 0.000000 0.000000 0.000000 0.000000 0.000000 0.021291
#
#
# Mechanical properties :
#
#
# Convention : Reuss Voigt Hill
#
# Bulk Modulus (GPa) = 45.05600 45.30037 45.17819
# Shear Modulus (GPa) = 25.97659 33.97263 29.97461
#
# Velocity S-wave (km/s) = 3.38350 3.86937 3.63456
# Velocity P-wave (km/s) = 5.92627 6.31877 6.12566
#
# Compressibility (1/GPa) = 0.02219460
#
# Stress axis : x y z
#
# Youngs Moduli (GPa) = 46.08185 32.68467 79.57759
#
# Poissons Ratio (x) = 0.49194 -0.09307
# Poissons Ratio (y) = 0.69358 0.59304
# Poissons Ratio (z) = -0.05390 0.24358
#
# Static dielectric constant tensor:
#      x y z
#    x 3.955490 0.000000 0.000000 
#    y 0.000000 3.798310 0.000000 
#    z 0.000000 0.000000 3.852490 
# 
# 
# High freq. dielectric constant tensor:
#      x y z
#    x 1.886630 0.000000 0.000000 
#    y 0.000000 1.873780 0.000000 
#    z 0.000000 0.000000 1.895960 
# 
# From -- ./inp_files/19652.got.cif
#   From: 2010.03.12/outbox.cif.g09.slc.cpg/sg20_10_cif.got.tgz:19652.got - 2010.04.14 01:38:04.
