data_PCOD8159344
_publ_section_title
;
Structure prediction by ZEFSAII (Michael W. Deem and Ramdas Pophale) SiO2 
 PCOD8159344
Probable space group: C 2 2 21
;
_chemical_formula_sum "Si O2"
_cell_formula_units_Z 36
_cell_length_a 21.446056
_cell_length_b 7.402564
_cell_length_c 10.050425
_cell_angle_alpha 90.000000
_cell_angle_beta 90.000000
_cell_angle_gamma 90.000000
_cell_volume 1595.563282
_symmetry_space_group_name_H-M "C 2 2 21"
_symmetry_group_IT_number 20
_symmetry_cell_setting 'orthorhombic'
loop_
_space_group_symop_operation_xyz
x,y,z
-x,-y,1/2+z
x,-y,-z
-x,y,1/2-z
1/2+x,1/2+y,z
1/2-x,1/2-y,1/2+z
1/2+x,1/2-y,-z
1/2-x,1/2+y,1/2-z
loop_
_atom_site_type_symbol
_atom_site_label
_atom_site_fract_x
_atom_site_fract_y
_atom_site_fract_z
Si Si1 0.904728 0.218436 0.836395
Si Si2 0.315951 0.977844 0.223678
Si Si3 0.115604 0.500000 0.000000
Si Si4 0.467383 0.305656 0.445522
Si Si5 0.805306 0.072079 0.143052
O O1 0.853897 0.376273 0.864589
O O2 0.941000 0.236067 0.699606
O O3 0.870757 0.026136 0.833269
O O4 0.957712 0.223683 0.951231
O O5 0.242612 0.026801 0.237039
O O6 0.321061 0.785277 0.150516
O O7 0.340758 0.005793 0.372368
O O8 0.069745 0.334247 0.036610
O O9 0.449185 0.500000 0.500000
O O10 0.779566 0.000000 0.000000
#
# Coordination Sequence:
#
# PCOD8159344 Si02
#       5
#     8   8   4   8   8
#     4  10  23  41  62  97 130 169 223 277 341 411
#     4  11  23  42  64  97 133 175 230 280 345 416
#     4  10  22  42  68  92 126 174 222 278 342 404
#     4  10  21  40  66  91 127 170 219 275 336 408
#     4  12  24  41  65  96 136 174 223 282 342 411
#
# _framework density 22.562563000000001
#
# number of rings (size 3 to 8) (size 9 to 14) (size 15 to 20)
#    0.000    1.333    3.333    2.000    0.000    4.444 
#    0.000    6.667    0.000    0.000    0.000    0.000 
#    0.000    0.000    0.000    0.000    0.000    0.000 
#
# Total GULP energy -223063.550340 kJ/mol
# GULP energy per Si atom -12392.419463 kJ/mol
# Density = 2.251121 g / cm^3
# Si number density = 22.562563 Si / 1000 Ang^3
#
#
#
# Elastic Constant Matrix: (Units=GPa)
#
#
# Indices 1 2 3 4 5 6 
#
# 1 111.8648 32.2765 1.0568 0.0000 0.0000 0.0000
# 2 32.2765 161.3375 14.6866 0.0000 0.0000 0.0000
# 3 1.0568 14.6866 30.9672 0.0000 0.0000 0.0000
# 4 0.0000 0.0000 0.0000 30.5786 0.0000 0.0000
# 5 0.0000 0.0000 0.0000 0.0000 -6.2182 0.0000
# 6 0.0000 0.0000 0.0000 0.0000 0.0000 90.9092
#
#
#
# Elastic Compliance Matrix: (Units=1/GPa)
#
#
# Indices 1 2 3 4 5 6 
#
# 1 0.009498 -0.001955 0.000603 0.000000 0.000000 0.000000
# 2 -0.001955 0.006880 -0.003196 0.000000 0.000000 0.000000
# 3 0.000603 -0.003196 0.033788 0.000000 0.000000 0.000000
# 4 0.000000 0.000000 0.000000 0.032703 0.000000 0.000000
# 5 0.000000 0.000000 0.000000 0.000000 -0.160817 0.000000
# 6 0.000000 0.000000 0.000000 0.000000 0.000000 0.011000
#
#
# Mechanical properties :
#
#
# Convention : Reuss Voigt Hill
#
# Bulk Modulus (GPa) = 24.34923 44.46769 34.40846
# Shear Modulus (GPa) = -113.21758 40.13055 -36.54351
#
# Velocity S-wave (km/s) = -7.09143 4.22196 -4.02886
# Velocity P-wave (km/s) = 7.49905 6.59682 2.52169
#
# Compressibility (1/GPa) = 0.04106906
#
# Stress axis : x y z
#
# Youngs Moduli (GPa) = 105.28826 145.34348 29.59668
#
# Poissons Ratio (x) = 0.28414 -0.01785
# Poissons Ratio (y) = 0.20584 0.09460
# Poissons Ratio (z) = -0.06350 0.46457
#
# Static dielectric constant tensor:
#      x y z
#    x 4.557170 0.000000 0.000000 
#    y 0.000000 4.123960 0.000000 
#    z 0.000000 0.000000 3.854290 
# 
# 
# High freq. dielectric constant tensor:
#      x y z
#    x 1.910990 0.000000 0.000000 
#    y 0.000000 1.894290 0.000000 
#    z 0.000000 0.000000 1.866820 
# 
# From -- ./inp_files/16536.got.cif
#   From: 2010.03.12/outbox.cif.g09.slc.cpg/sg20_9_cif.got.tgz:16536.got - 2010.04.14 01:38:04.
