data_PCOD8160185
_publ_section_title
;
Structure prediction by ZEFSAII (Michael W. Deem and Ramdas Pophale) SiO2 
 PCOD8160185
Probable space group: C 2 2 21
;
_chemical_formula_sum "Si O2"
_cell_formula_units_Z 32
_cell_length_a 7.801304
_cell_length_b 35.325094
_cell_length_c 4.856493
_cell_angle_alpha 90.000000
_cell_angle_beta 90.000000
_cell_angle_gamma 90.000000
_cell_volume 1338.361069
_symmetry_space_group_name_H-M "C 2 2 21"
_symmetry_group_IT_number 20
_symmetry_cell_setting 'orthorhombic'
loop_
_space_group_symop_operation_xyz
x,y,z
-x,-y,1/2+z
x,-y,-z
-x,y,1/2-z
1/2+x,1/2+y,z
1/2-x,1/2-y,1/2+z
1/2+x,1/2-y,-z
1/2-x,1/2+y,1/2-z
loop_
_atom_site_type_symbol
_atom_site_label
_atom_site_fract_x
_atom_site_fract_y
_atom_site_fract_z
Si Si1 0.305265 0.931552 0.743261
Si Si2 0.602446 0.500000 0.000000
Si Si3 0.000000 0.825100 0.250000
Si Si4 0.801468 0.381490 0.242052
Si Si5 0.645029 0.258888 0.925554
O O1 0.500000 0.944513 0.750000
O O2 0.266128 0.917967 0.434360
O O3 0.262865 0.895412 0.934086
O O4 0.203248 0.968234 0.832518
O O5 0.500000 0.479761 0.250000
O O6 0.167820 0.849141 0.332798
O O7 0.939119 0.799514 0.507030
O O8 0.000000 0.367138 0.250000
O O9 0.500000 0.235588 0.750000
O O10 0.806399 0.261946 0.712782
#
# Coordination Sequence:
#
# PCOD8160185 Si02
#       5
#     8   4   4   8   8
#     4  10  24  46  69  99 150 194 242 312 370 446
#     4  12  26  40  68 114 138 198 256 310 376 438
#     4  12  28  46  86 108 148 206 244 324 386 450
#     4  10  25  46  72 109 145 192 252 307 376 451
#     4  12  26  50  74 112 150 196 249 310 389 462
#
# _framework density 23.909841
#
# number of rings (size 3 to 8) (size 9 to 14) (size 15 to 20)
#    0.000    1.000    2.500    1.500    8.750    5.000 
#    4.500    0.000    0.000    0.000    0.000    0.000 
#    0.000    0.000    0.000    0.000    0.000    0.000 
#
# Total GULP energy -198249.856997 kJ/mol
# GULP energy per Si atom -12390.616062 kJ/mol
# Density = 2.385542 g / cm^3
# Si number density = 23.909841 Si / 1000 Ang^3
#
#
#
# Elastic Constant Matrix: (Units=GPa)
#
#
# Indices 1 2 3 4 5 6 
#
# 1 143.6760 80.7910 51.6250 0.0000 0.0000 0.0000
# 2 80.7910 94.2406 32.5958 0.0000 0.0000 0.0000
# 3 51.6250 32.5958 137.2532 0.0000 0.0000 0.0000
# 4 0.0000 0.0000 0.0000 13.0452 0.0000 0.0000
# 5 0.0000 0.0000 0.0000 0.0000 52.5677 0.0000
# 6 0.0000 0.0000 0.0000 0.0000 0.0000 24.5263
#
#
#
# Elastic Compliance Matrix: (Units=1/GPa)
#
#
# Indices 1 2 3 4 5 6 
#
# 1 0.014293 -0.011324 -0.002687 0.000000 0.000000 0.000000
# 2 -0.011324 0.020532 -0.000617 0.000000 0.000000 0.000000
# 3 -0.002687 -0.000617 0.008443 0.000000 0.000000 0.000000
# 4 0.000000 0.000000 0.000000 0.076656 0.000000 0.000000
# 5 0.000000 0.000000 0.000000 0.000000 0.019023 0.000000
# 6 0.000000 0.000000 0.000000 0.000000 0.000000 0.040773
#
#
# Mechanical properties :
#
#
# Convention : Reuss Voigt Hill
#
# Bulk Modulus (GPa) = 71.36171 78.35481 74.85826
# Shear Modulus (GPa) = 23.40313 32.03839 27.72076
#
# Velocity S-wave (km/s) = 3.13198 3.66453 3.40867
# Velocity P-wave (km/s) = 6.55668 7.12370 6.84606
#
# Compressibility (1/GPa) = 0.01401312
#
# Stress axis : x y z
#
# Youngs Moduli (GPa) = 69.96367 48.70359 118.44294
#
# Poissons Ratio (x) = 0.55152 0.31823
# Poissons Ratio (y) = 0.79227 0.07306
# Poissons Ratio (z) = 0.18798 0.03004
#
# Static dielectric constant tensor:
#      x y z
#    x 4.722850 0.000000 0.000000 
#    y 0.000000 3.768620 0.000000 
#    z 0.000000 0.000000 4.692160 
# 
# 
# High freq. dielectric constant tensor:
#      x y z
#    x 1.965830 0.000000 0.000000 
#    y 0.000000 1.909480 0.000000 
#    z 0.000000 0.000000 1.977050 
# 
# From -- ./inp_files/729.got.cif
#   From: 2010.03.12/outbox.cif.g09.slc.cpg/sg20_1_cif.got.tgz:729.got - 2010.04.14 01:38:04.
