data_PCOD8160120
_publ_section_title
;
Structure prediction by ZEFSAII (Michael W. Deem and Ramdas Pophale) SiO2 
 PCOD8160120
Probable space group: C 2 2 21
;
_chemical_formula_sum "Si O2"
_cell_formula_units_Z 48
_cell_length_a 30.323896
_cell_length_b 8.167583
_cell_length_c 8.984469
_cell_angle_alpha 90.000000
_cell_angle_beta 90.000000
_cell_angle_gamma 90.000000
_cell_volume 2225.209829
_symmetry_space_group_name_H-M "C 2 2 21"
_symmetry_group_IT_number 20
_symmetry_cell_setting 'orthorhombic'
loop_
_space_group_symop_operation_xyz
x,y,z
-x,-y,1/2+z
x,-y,-z
-x,y,1/2-z
1/2+x,1/2+y,z
1/2-x,1/2-y,1/2+z
1/2+x,1/2-y,-z
1/2-x,1/2+y,1/2-z
loop_
_atom_site_type_symbol
_atom_site_label
_atom_site_fract_x
_atom_site_fract_y
_atom_site_fract_z
Si Si1 0.578240 0.000000 0.500000
Si Si2 0.902356 0.000000 0.000000
Si Si3 0.284082 0.918092 0.858714
Si Si4 0.950642 0.240146 0.210840
Si Si5 0.869496 0.743411 0.205421
Si Si6 0.120045 0.808729 0.968478
Si Si7 0.787471 0.653222 0.606784
O O1 0.549160 0.917820 0.368763
O O2 0.608473 0.874157 0.587198
O O3 0.934521 0.123057 0.081421
O O4 0.871682 0.922361 0.129205
O O5 0.318331 0.802709 0.770257
O O6 0.242547 0.813272 0.917224
O O7 0.272332 0.078226 0.763457
O O8 0.307754 0.000000 0.000000
O O9 0.920676 0.226905 0.358886
O O10 0.000000 0.189608 0.250000
O O11 0.891929 0.735287 0.368353
O O12 0.162076 0.715674 0.898417
O O13 0.129614 0.000000 0.000000
O O14 0.778390 0.500000 0.500000
#
# Coordination Sequence:
#
# PCOD8160120 Si02
#       7
#     4   4   8   8   8   8   8
#     4  10  24  46  66 104 136 182 230 280 352 420
#     4  10  24  42  70 102 138 176 226 286 348 422
#     4  12  26  42  67  98 140 183 237 289 336 407
#     4  11  26  45  73 104 139 178 229 287 357 422
#     4  11  23  44  69  99 139 183 231 279 344 411
#     4  12  26  46  72 102 139 187 233 289 355 419
#     4  12  27  45  65 101 138 189 236 293 348 408
#
# _framework density 21.570997999999999
#
# number of rings (size 3 to 8) (size 9 to 14) (size 15 to 20)
#    0.000    0.667    4.167    2.500    7.000    1.333 
#    0.000    3.333    0.000    0.000    0.000    0.000 
#    0.000    0.000    0.000    0.000    0.000    0.000 
#
# Total GULP energy -297432.725342 kJ/mol
# GULP energy per Si atom -12393.030223 kJ/mol
# Density = 2.152190 g / cm^3
# Si number density = 21.570998 Si / 1000 Ang^3
#
#
#
# Elastic Constant Matrix: (Units=GPa)
#
#
# Indices 1 2 3 4 5 6 
#
# 1 100.9791 35.6135 51.3137 0.0000 0.0000 0.0000
# 2 35.6135 97.2375 42.3876 0.0000 0.0000 0.0000
# 3 51.3137 42.3876 148.6472 0.0000 0.0000 0.0000
# 4 0.0000 0.0000 0.0000 43.3308 0.0000 0.0000
# 5 0.0000 0.0000 0.0000 0.0000 28.0279 0.0000
# 6 0.0000 0.0000 0.0000 0.0000 0.0000 18.7088
#
#
#
# Elastic Compliance Matrix: (Units=1/GPa)
#
#
# Indices 1 2 3 4 5 6 
#
# 1 0.012805 -0.003155 -0.003521 0.000000 0.000000 0.000000
# 2 -0.003155 0.012521 -0.002481 0.000000 0.000000 0.000000
# 3 -0.003521 -0.002481 0.008650 0.000000 0.000000 0.000000
# 4 0.000000 0.000000 0.000000 0.023078 0.000000 0.000000
# 5 0.000000 0.000000 0.000000 0.000000 0.035679 0.000000
# 6 0.000000 0.000000 0.000000 0.000000 0.000000 0.053451
#
#
# Mechanical properties :
#
#
# Convention : Reuss Voigt Hill
#
# Bulk Modulus (GPa) = 63.84775 67.27704 65.56240
# Shear Modulus (GPa) = 29.46045 32.51676 30.98861
#
# Velocity S-wave (km/s) = 3.69961 3.88678 3.79434
# Velocity P-wave (km/s) = 6.92189 7.16931 7.04669
#
# Compressibility (1/GPa) = 0.01566226
#
# Stress axis : x y z
#
# Youngs Moduli (GPa) = 78.09562 79.86363 115.60372
#
# Poissons Ratio (x) = 0.25198 0.40699
# Poissons Ratio (y) = 0.24640 0.28686
# Poissons Ratio (z) = 0.27494 0.19817
#
# Static dielectric constant tensor:
#      x y z
#    x 3.547280 0.000000 0.000000 
#    y 0.000000 4.558240 0.000000 
#    z 0.000000 0.000000 4.705600 
# 
# 
# High freq. dielectric constant tensor:
#      x y z
#    x 1.820230 0.000000 0.000000 
#    y 0.000000 1.863050 0.000000 
#    z 0.000000 0.000000 1.873890 
# 
# From -- ./inp_files/11496.got.cif
#   From: 2010.03.12/outbox.cif.g09.slc.cpg/sg20_6_cif.got.tgz:11496.got - 2010.04.14 01:38:04.
