data_PCOD8160282
_publ_section_title
;
Structure prediction by ZEFSAII (Michael W. Deem and Ramdas Pophale) SiO2 
 PCOD8160282
Probable space group: C 2 2 21
;
_chemical_formula_sum "Si O2"
_cell_formula_units_Z 32
_cell_length_a 10.122755
_cell_length_b 33.396876
_cell_length_c 4.970397
_cell_angle_alpha 90.000000
_cell_angle_beta 90.000000
_cell_angle_gamma 90.000000
_cell_volume 1680.334129
_symmetry_space_group_name_H-M "C 2 2 21"
_symmetry_group_IT_number 20
_symmetry_cell_setting 'orthorhombic'
loop_
_space_group_symop_operation_xyz
x,y,z
-x,-y,1/2+z
x,-y,-z
-x,y,1/2-z
1/2+x,1/2+y,z
1/2-x,1/2-y,1/2+z
1/2+x,1/2-y,-z
1/2-x,1/2+y,1/2-z
loop_
_atom_site_type_symbol
_atom_site_label
_atom_site_fract_x
_atom_site_fract_y
_atom_site_fract_z
Si Si1 0.500000 0.785302 0.750000
Si Si2 0.905770 0.957210 0.494571
Si Si3 0.729728 0.329925 0.721790
Si Si4 0.155577 0.878037 0.219978
Si Si5 0.500000 0.730013 0.250000
O O1 0.375391 0.814113 0.774204
O O2 0.464031 0.758195 0.496791
O O3 0.803746 0.921266 0.410807
O O4 0.000000 0.945660 0.750000
O O5 0.826927 0.000000 0.500000
O O6 0.000000 0.965998 0.250000
O O7 0.725851 0.366098 0.501943
O O8 0.625011 0.295580 0.645360
O O9 0.687016 0.343517 0.014255
O O10 0.000000 0.880733 0.250000
#
# Coordination Sequence:
#
# PCOD8160282 Si02
#       5
#     4   8   8   8   4
#     4  12  26  40  56  82 110 144 190 238 284 334
#     4   9  17  29  49  81 118 148 178 224 280 328
#     4  12  23  38  59  81 110 147 186 231 282 331
#     4  11  19  35  56  83 112 147 183 225 275 334
#     4  12  22  42  58  80 106 144 192 238 286 332
#
# _framework density 19.043832999999999
#
# number of rings (size 3 to 8) (size 9 to 14) (size 15 to 20)
#    0.000    1.000    2.500    7.500    0.000    0.000 
#    0.000    0.000    0.000    0.000    0.000    3.500 
#    0.000    2.000    0.000    0.000    0.000    0.000 
#
# Total GULP energy -198210.013384 kJ/mol
# GULP energy per Si atom -12388.125836 kJ/mol
# Density = 1.900049 g / cm^3
# Si number density = 19.043833 Si / 1000 Ang^3
#
#
#
# Elastic Constant Matrix: (Units=GPa)
#
#
# Indices 1 2 3 4 5 6 
#
# 1 38.5328 36.3416 7.8224 0.0000 0.0000 0.0000
# 2 36.3416 112.7883 25.6728 0.0000 0.0000 0.0000
# 3 7.8224 25.6728 103.3960 0.0000 0.0000 0.0000
# 4 0.0000 0.0000 0.0000 43.0722 0.0000 0.0000
# 5 0.0000 0.0000 0.0000 0.0000 11.3657 0.0000
# 6 0.0000 0.0000 0.0000 0.0000 0.0000 1335.4289
#
#
#
# Elastic Compliance Matrix: (Units=1/GPa)
#
#
# Indices 1 2 3 4 5 6 
#
# 1 0.037284 -0.012052 0.000172 0.000000 0.000000 0.000000
# 2 -0.012052 0.013293 -0.002389 0.000000 0.000000 0.000000
# 3 0.000172 -0.002389 0.010252 0.000000 0.000000 0.000000
# 4 0.000000 0.000000 0.000000 0.023217 0.000000 0.000000
# 5 0.000000 0.000000 0.000000 0.000000 0.087984 0.000000
# 6 0.000000 0.000000 0.000000 0.000000 0.000000 0.000749
#
#
# Mechanical properties :
#
#
# Convention : Reuss Voigt Hill
#
# Bulk Modulus (GPa) = 30.96916 43.82119 37.39517
# Shear Modulus (GPa) = 23.57590 290.29872 156.93731
#
# Velocity S-wave (km/s) = 3.52231 12.35994 9.08776
# Velocity P-wave (km/s) = 5.73058 15.05827 11.39278
#
# Compressibility (1/GPa) = 0.03229019
#
# Stress axis : x y z
#
# Youngs Moduli (GPa) = 26.82113 75.22569 97.54487
#
# Poissons Ratio (x) = 0.90665 -0.01676
# Poissons Ratio (y) = 0.32326 0.23302
# Poissons Ratio (z) = -0.00461 0.17970
#
# Static dielectric constant tensor:
#      x y z
#    x 2.940610 0.000000 0.000000 
#    y 0.000000 4.364140 0.000000 
#    z 0.000000 0.000000 -5.080510 
# 
# 
# High freq. dielectric constant tensor:
#      x y z
#    x 1.677530 0.000000 0.000000 
#    y 0.000000 1.761270 0.000000 
#    z 0.000000 0.000000 1.768000 
# 
# From -- ./inp_files/710.got.cif
#   From: 2010.03.12/outbox.cif.g09.slc.cpg/sg20_1_cif.got.tgz:710.got - 2010.04.14 01:38:04.
