data_PCOD8160322
_publ_section_title
;
Structure prediction by ZEFSAII (Michael W. Deem and Ramdas Pophale) SiO2 
 PCOD8160322
Probable space group: C 2 2 21
;
_chemical_formula_sum "Si O2"
_cell_formula_units_Z 64
_cell_length_a 9.101658
_cell_length_b 16.748931
_cell_length_c 20.957436
_cell_angle_alpha 90.000000
_cell_angle_beta 90.000000
_cell_angle_gamma 90.000000
_cell_volume 3194.815293
_symmetry_space_group_name_H-M "C 2 2 21"
_symmetry_group_IT_number 20
_symmetry_cell_setting 'orthorhombic'
loop_
_space_group_symop_operation_xyz
x,y,z
-x,-y,1/2+z
x,-y,-z
-x,y,1/2-z
1/2+x,1/2+y,z
1/2-x,1/2-y,1/2+z
1/2+x,1/2-y,-z
1/2-x,1/2+y,1/2-z
loop_
_atom_site_type_symbol
_atom_site_label
_atom_site_fract_x
_atom_site_fract_y
_atom_site_fract_z
Si Si1 0.331921 0.807923 0.241138
Si Si2 0.059986 0.998983 0.651446
Si Si3 0.052063 0.837120 0.573858
Si Si4 0.279256 0.746431 0.371430
Si Si5 0.827812 0.723620 0.370115
Si Si6 0.454340 0.654445 0.929036
Si Si7 0.067004 0.372803 0.685853
Si Si8 0.742958 0.517002 0.776144
O O1 0.500000 0.783097 0.250000
O O2 0.267107 0.807982 0.312478
O O3 0.255798 0.741717 0.196425
O O4 0.307767 0.895371 0.213074
O O5 0.085457 0.069629 0.601271
O O6 0.191373 0.999204 0.703650
O O7 0.898916 0.007562 0.680392
O O8 0.064348 0.915777 0.615642
O O9 0.211223 0.795416 0.574542
O O10 0.001665 0.858600 0.502510
O O11 0.940824 0.772622 0.603638
O O12 0.186850 0.787089 0.427897
O O13 0.212694 0.665005 0.343677
O O14 0.915958 0.802958 0.389816
O O15 0.934089 0.645203 0.364016
O O16 0.118173 0.462785 0.701833
O O17 0.000000 0.332477 0.750000
#
# Coordination Sequence:
#
# PCOD8160322 Si02
#       8
#     8   8   8   8   8   8   8   8
#     4  12  22  38  65  94 133 161 205 270 329 386
#     4  11  23  39  67  94 124 169 220 259 321 383
#     4  12  24  43  63  95 130 168 221 268 308 388
#     4  11  23  39  65  95 123 165 214 264 321 376
#     4  11  24  39  67  96 123 168 217 264 330 383
#     4  11  24  44  65  89 128 180 217 260 315 392
#     4  11  21  37  61  92 127 159 199 256 329 377
#     4  11  23  39  62  98 130 163 204 269 329 386
#
# _framework density 20.032456
#
# number of rings (size 3 to 8) (size 9 to 14) (size 15 to 20)
#    0.000    0.750    6.250    2.250    0.000    0.000 
#    0.000    0.000    0.000    0.000    3.250    0.000 
#    0.000    0.000    0.000    0.000    0.000    0.000 
#
# Total GULP energy -396666.446766 kJ/mol
# GULP energy per Si atom -12395.826461 kJ/mol
# Density = 1.998686 g / cm^3
# Si number density = 20.032456 Si / 1000 Ang^3
#
#
#
# Elastic Constant Matrix: (Units=GPa)
#
#
# Indices 1 2 3 4 5 6 
#
# 1 105.0171 32.8666 16.3268 0.0000 0.0000 0.0000
# 2 32.8666 97.0733 17.9262 0.0000 0.0000 0.0000
# 3 16.3268 17.9262 83.1184 0.0000 0.0000 0.0000
# 4 0.0000 0.0000 0.0000 18.9191 0.0000 0.0000
# 5 0.0000 0.0000 0.0000 0.0000 22.4865 0.0000
# 6 0.0000 0.0000 0.0000 0.0000 0.0000 25.3365
#
#
#
# Elastic Compliance Matrix: (Units=1/GPa)
#
#
# Indices 1 2 3 4 5 6 
#
# 1 0.010803 -0.003401 -0.001388 0.000000 0.000000 0.000000
# 2 -0.003401 0.011800 -0.001877 0.000000 0.000000 0.000000
# 3 -0.001388 -0.001877 0.012709 0.000000 0.000000 0.000000
# 4 0.000000 0.000000 0.000000 0.052857 0.000000 0.000000
# 5 0.000000 0.000000 0.000000 0.000000 0.044471 0.000000
# 6 0.000000 0.000000 0.000000 0.000000 0.000000 0.039469
#
#
# Mechanical properties :
#
#
# Convention : Reuss Voigt Hill
#
# Bulk Modulus (GPa) = 45.49974 46.60533 46.05253
# Shear Modulus (GPa) = 25.93822 27.88770 26.91296
#
# Velocity S-wave (km/s) = 3.60225 3.73517 3.66931
# Velocity P-wave (km/s) = 6.32961 6.47436 6.40239
#
# Compressibility (1/GPa) = 0.02197815
#
# Stress axis : x y z
#
# Youngs Moduli (GPa) = 92.57086 84.74870 78.68745
#
# Poissons Ratio (x) = 0.28824 0.10925
# Poissons Ratio (y) = 0.31484 0.14768
# Poissons Ratio (z) = 0.12853 0.15905
#
# Static dielectric constant tensor:
#      x y z
#    x 3.766040 0.000000 0.000000 
#    y 0.000000 3.466590 0.000000 
#    z 0.000000 0.000000 3.610480 
# 
# 
# High freq. dielectric constant tensor:
#      x y z
#    x 1.794240 0.000000 0.000000 
#    y 0.000000 1.777930 0.000000 
#    z 0.000000 0.000000 1.770440 
# 
# From -- ./inp_files/26870.got.cif
#   From: 2010.03.12/outbox.cif.g09.slc.cpg/sg20_14_cif.got.tgz:26870.got - 2010.04.14 01:38:04.
