data_PCOD8160588
_publ_section_title
;
Structure prediction by ZEFSAII (Michael W. Deem and Ramdas Pophale) SiO2 
 PCOD8160588
Probable space group: C 2 2 21
;
_chemical_formula_sum "Si O2"
_cell_formula_units_Z 44
_cell_length_a 13.324831
_cell_length_b 8.591106
_cell_length_c 16.662263
_cell_angle_alpha 90.000000
_cell_angle_beta 90.000000
_cell_angle_gamma 90.000000
_cell_volume 1907.413149
_symmetry_space_group_name_H-M "C 2 2 21"
_symmetry_group_IT_number 20
_symmetry_cell_setting 'orthorhombic'
loop_
_space_group_symop_operation_xyz
x,y,z
-x,-y,1/2+z
x,-y,-z
-x,y,1/2-z
1/2+x,1/2+y,z
1/2-x,1/2-y,1/2+z
1/2+x,1/2-y,-z
1/2-x,1/2+y,1/2-z
loop_
_atom_site_type_symbol
_atom_site_label
_atom_site_fract_x
_atom_site_fract_y
_atom_site_fract_z
Si Si1 0.379940 0.293736 0.876067
Si Si2 0.353984 0.357379 0.146660
Si Si3 0.752151 0.180447 0.500557
Si Si4 0.938306 0.663871 0.545221
Si Si5 0.355476 0.108088 0.716408
Si Si6 0.000000 0.664321 0.250000
O O1 0.399821 0.476421 0.876312
O O2 0.271335 0.255641 0.912467
O O3 0.447451 0.215816 0.946831
O O4 0.394335 0.214895 0.789523
O O5 0.266431 0.391679 0.213207
O O6 0.452040 0.267181 0.179122
O O7 0.306680 0.267557 0.071389
O O8 0.871587 0.207087 0.499076
O O9 0.724864 0.000000 0.500000
O O10 0.928229 0.500000 0.500000
O O11 0.896781 0.675334 0.634931
O O12 0.403610 0.936669 0.723083
#
# Coordination Sequence:
#
# PCOD8160588 Si02
#       6
#     8   8   8   8   8   4
#     4  12  24  47  75 103 155 193 257 321 390 468
#     4  11  27  45  72 111 148 196 260 321 382 484
#     4  11  25  47  70 104 146 195 250 318 391 467
#     4  11  25  46  74 104 147 195 252 316 394 466
#     4  11  24  49  72 109 147 197 252 324 388 467
#     4  12  24  44  76 104 150 200 252 312 404 444
#
# _framework density 23.067892000000001
#
# number of rings (size 3 to 8) (size 9 to 14) (size 15 to 20)
#    0.000    0.727    1.818    5.455    5.091    2.909 
#    3.273    0.000    0.000    0.000    0.000    0.000 
#    0.000    0.000    0.000    0.000    0.000    0.000 
#
# Total GULP energy -272664.126816 kJ/mol
# GULP energy per Si atom -12393.823946 kJ/mol
# Density = 2.301539 g / cm^3
# Si number density = 23.067892 Si / 1000 Ang^3
#
#
#
# Elastic Constant Matrix: (Units=GPa)
#
#
# Indices 1 2 3 4 5 6 
#
# 1 87.8740 50.1588 52.3639 0.0000 0.0000 0.0000
# 2 50.1588 171.9937 51.7942 0.0000 0.0000 0.0000
# 3 52.3639 51.7942 92.7750 0.0000 0.0000 0.0000
# 4 0.0000 0.0000 0.0000 35.7105 0.0000 0.0000
# 5 0.0000 0.0000 0.0000 0.0000 36.4477 0.0000
# 6 0.0000 0.0000 0.0000 0.0000 0.0000 39.6903
#
#
#
# Elastic Compliance Matrix: (Units=1/GPa)
#
#
# Indices 1 2 3 4 5 6 
#
# 1 0.018097 -0.002647 -0.008737 0.000000 0.000000 0.000000
# 2 -0.002647 0.007376 -0.002624 0.000000 0.000000 0.000000
# 3 -0.008737 -0.002624 0.017175 0.000000 0.000000 0.000000
# 4 0.000000 0.000000 0.000000 0.028003 0.000000 0.000000
# 5 0.000000 0.000000 0.000000 0.000000 0.027437 0.000000
# 6 0.000000 0.000000 0.000000 0.000000 0.000000 0.025195
#
#
# Mechanical properties :
#
#
# Convention : Reuss Voigt Hill
#
# Bulk Modulus (GPa) = 68.33835 73.47515 70.90675
# Shear Modulus (GPa) = 32.01537 35.59143 33.80340
#
# Velocity S-wave (km/s) = 3.72946 3.93224 3.83219
# Velocity P-wave (km/s) = 6.94510 7.24828 7.09831
#
# Compressibility (1/GPa) = 0.01463307
#
# Stress axis : x y z
#
# Youngs Moduli (GPa) = 55.25852 135.57007 58.22463
#
# Poissons Ratio (x) = 0.35881 0.50868
# Poissons Ratio (y) = 0.14625 0.15279
# Poissons Ratio (z) = 0.48277 0.35576
#
# Static dielectric constant tensor:
#      x y z
#    x 4.742690 0.000000 0.000000 
#    y 0.000000 4.014530 0.000000 
#    z 0.000000 0.000000 4.594360 
# 
# 
# High freq. dielectric constant tensor:
#      x y z
#    x 1.926460 0.000000 0.000000 
#    y 0.000000 1.911910 0.000000 
#    z 0.000000 0.000000 1.916180 
# 
# From -- ./inp_files/24735.got.cif
#   From: 2010.03.12/outbox.cif.g09.slc.cpg/sg20_13_cif.got.tgz:24735.got - 2010.04.14 01:38:04.
