data_PCOD8160084
_publ_section_title
;
Structure prediction by ZEFSAII (Michael W. Deem and Ramdas Pophale) SiO2 
 PCOD8160084
Probable space group: C 2 2 21
;
_chemical_formula_sum "Si O2"
_cell_formula_units_Z 52
_cell_length_a 24.489027
_cell_length_b 14.762026
_cell_length_c 8.038835
_cell_angle_alpha 90.000000
_cell_angle_beta 90.000000
_cell_angle_gamma 90.000000
_cell_volume 2906.100376
_symmetry_space_group_name_H-M "C 2 2 21"
_symmetry_group_IT_number 20
_symmetry_cell_setting 'orthorhombic'
loop_
_space_group_symop_operation_xyz
x,y,z
-x,-y,1/2+z
x,-y,-z
-x,y,1/2-z
1/2+x,1/2+y,z
1/2-x,1/2-y,1/2+z
1/2+x,1/2-y,-z
1/2-x,1/2+y,1/2-z
loop_
_atom_site_type_symbol
_atom_site_label
_atom_site_fract_x
_atom_site_fract_y
_atom_site_fract_z
Si Si1 0.923329 0.500000 0.500000
Si Si2 0.407754 0.108649 0.990343
Si Si3 0.696045 0.180635 0.692031
Si Si4 0.807988 0.000000 0.500000
Si Si5 0.268178 0.002123 0.314324
Si Si6 0.861549 0.642069 0.325908
Si Si7 0.000000 0.579078 0.750000
Si Si8 0.690906 0.696191 0.000119
O O1 0.887352 0.590329 0.483878
O O2 0.958184 0.488950 0.334977
O O3 0.359421 0.165853 0.907510
O O4 0.464689 0.133446 0.891100
O O5 0.406725 0.146271 0.178792
O O6 0.397747 0.000000 0.000000
O O7 0.701194 0.093623 0.809456
O O8 0.746718 0.190935 0.565140
O O9 0.691890 0.268435 0.810421
O O10 0.775487 0.991335 0.670933
O O11 0.838967 0.096780 0.506991
O O12 0.242109 0.000000 0.500000
O O13 0.308467 0.084919 0.273007
O O14 0.845512 0.742669 0.379113
#
# Coordination Sequence:
#
# PCOD8160084 Si02
#       8
#     4   8   8   4   8   8   4   8
#     4  12  20  34  55  80 118 154 185 232 286 360
#     4  12  22  36  56  81 117 156 187 235 291 361
#     4  11  21  34  54  79 110 153 198 242 286 350
#     4  10  24  36  49  72 114 150 199 250 294 324
#     4  11  18  32  52  75 105 149 195 242 282 345
#     4  12  20  35  54  80 111 154 201 234 290 352
#     4  12  22  36  52  86 120 158 184 226 296 364
#     4  11  22  35  52  79 111 153 204 247 286 338
#
# _framework density 17.893394000000001
#
# number of rings (size 3 to 8) (size 9 to 14) (size 15 to 20)
#    0.000    0.615    6.154    4.615    1.077    0.000 
#    0.000    0.000    0.000    0.000    0.000    0.000 
#    0.000   24.615    0.000    0.154    0.000    0.000 
#
# Total GULP energy -322117.972307 kJ/mol
# GULP energy per Si atom -12389.152781 kJ/mol
# Density = 1.785267 g / cm^3
# Si number density = 17.893394 Si / 1000 Ang^3
#
#
#
# Elastic Constant Matrix: (Units=GPa)
#
#
# Indices 1 2 3 4 5 6 
#
# 1 67.2663 35.3144 33.7295 0.0000 0.0000 0.0000
# 2 35.3144 136.3524 34.3038 0.0000 0.0000 0.0000
# 3 33.7295 34.3038 105.1254 0.0000 0.0000 0.0000
# 4 0.0000 0.0000 0.0000 31.0437 0.0000 0.0000
# 5 0.0000 0.0000 0.0000 0.0000 270.8376 0.0000
# 6 0.0000 0.0000 0.0000 0.0000 0.0000 14.9497
#
#
#
# Elastic Compliance Matrix: (Units=1/GPa)
#
#
# Indices 1 2 3 4 5 6 
#
# 1 0.019334 -0.003755 -0.004978 0.000000 0.000000 0.000000
# 2 -0.003755 0.008719 -0.001640 0.000000 0.000000 0.000000
# 3 -0.004978 -0.001640 0.011645 0.000000 0.000000 0.000000
# 4 0.000000 0.000000 0.000000 0.032213 0.000000 0.000000
# 5 0.000000 0.000000 0.000000 0.000000 0.003692 0.000000
# 6 0.000000 0.000000 0.000000 0.000000 0.000000 0.066891
#
#
# Mechanical properties :
#
#
# Convention : Reuss Voigt Hill
#
# Bulk Modulus (GPa) = 52.76711 57.27105 55.01908
# Shear Modulus (GPa) = 29.48853 77.05928 53.27391
#
# Velocity S-wave (km/s) = 4.06398 6.56957 5.46238
# Velocity P-wave (km/s) = 7.18157 9.46689 8.40229
#
# Compressibility (1/GPa) = 0.01895120
#
# Stress axis : x y z
#
# Youngs Moduli (GPa) = 51.72309 114.69019 85.87452
#
# Poissons Ratio (x) = 0.43066 0.42748
# Poissons Ratio (y) = 0.19422 0.14087
# Poissons Ratio (z) = 0.25747 0.18814
#
# Static dielectric constant tensor:
#      x y z
#    x 3.159590 0.000000 0.000000 
#    y 0.000000 3.185710 0.000000 
#    z 0.000000 0.000000 3.525780 
# 
# 
# High freq. dielectric constant tensor:
#      x y z
#    x 1.648140 0.000000 0.000000 
#    y 0.000000 1.668330 0.000000 
#    z 0.000000 0.000000 1.725230 
# 
# From -- ./inp_files/10742.got.cif
#   From: 2010.03.12/outbox.cif.g09.slc.cpg/sg20_6_cif.got.tgz:10742.got - 2010.04.14 01:38:04.
