data_PCOD8160408
_publ_section_title
;
Structure prediction by ZEFSAII (Michael W. Deem and Ramdas Pophale) SiO2 
 PCOD8160408
Probable space group: C 2 2 21
;
_chemical_formula_sum "Si O2"
_cell_formula_units_Z 56
_cell_length_a 6.441464
_cell_length_b 27.158072
_cell_length_c 15.444364
_cell_angle_alpha 90.000000
_cell_angle_beta 90.000000
_cell_angle_gamma 90.000000
_cell_volume 2701.802182
_symmetry_space_group_name_H-M "C 2 2 21"
_symmetry_group_IT_number 20
_symmetry_cell_setting 'orthorhombic'
loop_
_space_group_symop_operation_xyz
x,y,z
-x,-y,1/2+z
x,-y,-z
-x,y,1/2-z
1/2+x,1/2+y,z
1/2-x,1/2-y,1/2+z
1/2+x,1/2-y,-z
1/2-x,1/2+y,1/2-z
loop_
_atom_site_type_symbol
_atom_site_label
_atom_site_fract_x
_atom_site_fract_y
_atom_site_fract_z
Si Si1 0.120948 0.536489 0.164058
Si Si2 0.381570 0.943518 0.162789
Si Si3 0.799014 0.260868 0.376613
Si Si4 0.006634 0.810039 0.505464
Si Si5 0.137114 0.641827 0.092796
Si Si6 0.500000 0.209535 0.250000
Si Si7 0.397512 0.158309 0.928003
Si Si8 0.000000 0.011637 0.750000
O O1 0.112583 0.583725 0.103911
O O2 0.357299 0.522197 0.188133
O O3 0.000000 0.551437 0.250000
O O4 0.997136 0.490840 0.119607
O O5 0.500000 0.929576 0.250000
O O6 0.405085 0.898127 0.099420
O O7 0.141577 0.954797 0.186620
O O8 0.926342 0.213580 0.405895
O O9 0.646784 0.270382 0.456717
O O10 0.674977 0.246342 0.289508
O O11 0.957619 0.307624 0.365256
O O12 0.842387 0.825701 0.431570
O O13 0.142293 0.854705 0.543322
O O14 0.113092 0.674425 0.179714
O O15 0.963743 0.662259 0.028037
#
# Coordination Sequence:
#
# PCOD8160408 Si02
#       8
#     8   8   8   8   8   4   8   4
#     4   9  19  39  64  93 129 165 204 270 323 373
#     4   9  21  41  65  90 123 169 213 264 318 383
#     4  11  23  42  63  91 127 166 214 269 323 383
#     4  11  22  42  65  88 129 173 211 264 325 379
#     4  11  24  40  65  99 128 165 215 261 324 395
#     4  12  24  42  67 100 126 164 223 266 322 396
#     4  11  24  43  64  90 134 171 208 269 328 382
#     4   8  18  36  65  88 126 158 217 260 306 374
#
# _framework density 20.726906
#
# number of rings (size 3 to 8) (size 9 to 14) (size 15 to 20)
#    0.000    2.000    3.571    0.857    0.000   10.286 
#    0.000    0.714    0.000    0.000    0.000    0.000 
#    0.000    0.000    0.000    0.000    0.000    0.000 
#
# Total GULP energy -347012.909739 kJ/mol
# GULP energy per Si atom -12393.318205 kJ/mol
# Density = 2.067973 g / cm^3
# Si number density = 20.726906 Si / 1000 Ang^3
#
#
#
# Elastic Constant Matrix: (Units=GPa)
#
#
# Indices 1 2 3 4 5 6 
#
# 1 125.2122 45.5641 27.2137 0.0000 0.0000 0.0000
# 2 45.5641 136.0461 35.3069 0.0000 0.0000 0.0000
# 3 27.2137 35.3069 64.8437 0.0000 0.0000 0.0000
# 4 0.0000 0.0000 0.0000 43.1402 0.0000 0.0000
# 5 0.0000 0.0000 0.0000 0.0000 27.3733 0.0000
# 6 0.0000 0.0000 0.0000 0.0000 0.0000 17.6955
#
#
#
# Elastic Compliance Matrix: (Units=1/GPa)
#
#
# Indices 1 2 3 4 5 6 
#
# 1 0.009461 -0.002490 -0.002615 0.000000 0.000000 0.000000
# 2 -0.002490 0.009215 -0.003973 0.000000 0.000000 0.000000
# 3 -0.002615 -0.003973 0.018682 0.000000 0.000000 0.000000
# 4 0.000000 0.000000 0.000000 0.023180 0.000000 0.000000
# 5 0.000000 0.000000 0.000000 0.000000 0.036532 0.000000
# 6 0.000000 0.000000 0.000000 0.000000 0.000000 0.056512
#
#
# Mechanical properties :
#
#
# Convention : Reuss Voigt Hill
#
# Bulk Modulus (GPa) = 52.07388 60.25239 56.16313
# Shear Modulus (GPa) = 28.06809 32.17628 30.12219
#
# Velocity S-wave (km/s) = 3.68392 3.94431 3.81634
# Velocity P-wave (km/s) = 6.57825 7.06231 6.82457
#
# Compressibility (1/GPa) = 0.01920349
#
# Stress axis : x y z
#
# Youngs Moduli (GPa) = 105.69893 108.51398 53.52694
#
# Poissons Ratio (x) = 0.27020 0.13996
# Poissons Ratio (y) = 0.26319 0.21265
# Poissons Ratio (z) = 0.27638 0.43109
#
# Static dielectric constant tensor:
#      x y z
#    x 4.117770 0.000000 0.000000 
#    y 0.000000 3.717000 0.000000 
#    z 0.000000 0.000000 3.447060 
# 
# 
# High freq. dielectric constant tensor:
#      x y z
#    x 1.825470 0.000000 0.000000 
#    y 0.000000 1.814150 0.000000 
#    z 0.000000 0.000000 1.788400 
# 
# From -- ./inp_files/18000.got.cif
#   From: 2010.03.12/outbox.cif.g09.slc.cpg/sg20_9_cif.got.tgz:18000.got - 2010.04.14 01:38:04.
