data_PCOD8160427
_publ_section_title
;
Structure prediction by ZEFSAII (Michael W. Deem and Ramdas Pophale) SiO2 
 PCOD8160427
Probable space group: C 2 2 21
;
_chemical_formula_sum "Si O2"
_cell_formula_units_Z 28
_cell_length_a 12.246977
_cell_length_b 7.258925
_cell_length_c 14.791741
_cell_angle_alpha 90.000000
_cell_angle_beta 90.000000
_cell_angle_gamma 90.000000
_cell_volume 1314.984111
_symmetry_space_group_name_H-M "C 2 2 21"
_symmetry_group_IT_number 20
_symmetry_cell_setting 'orthorhombic'
loop_
_space_group_symop_operation_xyz
x,y,z
-x,-y,1/2+z
x,-y,-z
-x,y,1/2-z
1/2+x,1/2+y,z
1/2-x,1/2-y,1/2+z
1/2+x,1/2-y,-z
1/2-x,1/2+y,1/2-z
loop_
_atom_site_type_symbol
_atom_site_label
_atom_site_fract_x
_atom_site_fract_y
_atom_site_fract_z
Si Si1 0.734847 0.684335 0.136427
Si Si2 0.542009 0.041757 0.850026
Si Si3 0.389583 0.336057 0.290770
Si Si4 0.374722 0.000000 0.000000
O O1 0.646661 0.841272 0.122872
O O2 0.679525 0.488982 0.158765
O O3 0.819586 0.736182 0.213874
O O4 0.799685 0.660998 0.042502
O O5 0.500000 0.092295 0.750000
O O6 0.447163 0.091255 0.920942
O O7 0.573636 0.826275 0.859163
O O8 0.500000 0.427562 0.250000
#
# Coordination Sequence:
#
# PCOD8160427 Si02
#       4
#     8   8   8   4
#     4  12  24  42  71  98 131 185 222 274 345 394
#     4  11  24  49  66  98 144 173 223 288 333 401
#     4  11  22  43  70  96 130 178 226 272 338 401
#     4  12  26  44  66 106 138 172 236 282 322 414
#
# _framework density 21.293033000000001
#
# number of rings (size 3 to 8) (size 9 to 14) (size 15 to 20)
#    0.000    0.571    8.571    0.857    4.000    0.000 
#    0.000    2.857    0.000    0.000    0.000    0.000 
#    0.000    0.000    0.000    0.000    0.000    0.000 
#
# Total GULP energy -173642.694205 kJ/mol
# GULP energy per Si atom -12403.049586 kJ/mol
# Density = 2.124457 g / cm^3
# Si number density = 21.293033 Si / 1000 Ang^3
#
#
#
# Elastic Constant Matrix: (Units=GPa)
#
#
# Indices 1 2 3 4 5 6 
#
# 1 148.3626 39.8437 56.9739 0.0000 0.0000 0.0000
# 2 39.8437 65.0313 25.6660 0.0000 0.0000 0.0000
# 3 56.9739 25.6660 115.5871 0.0000 0.0000 0.0000
# 4 0.0000 0.0000 0.0000 8.4511 0.0000 0.0000
# 5 0.0000 0.0000 0.0000 0.0000 56.1802 0.0000
# 6 0.0000 0.0000 0.0000 0.0000 0.0000 -2.5255
#
#
#
# Elastic Compliance Matrix: (Units=1/GPa)
#
#
# Indices 1 2 3 4 5 6 
#
# 1 0.009275 -0.004251 -0.003628 0.000000 0.000000 0.000000
# 2 -0.004251 0.018802 -0.002080 0.000000 0.000000 0.000000
# 3 -0.003628 -0.002080 0.010901 0.000000 0.000000 0.000000
# 4 0.000000 0.000000 0.000000 0.118328 0.000000 0.000000
# 5 0.000000 0.000000 0.000000 0.000000 0.017800 0.000000
# 6 0.000000 0.000000 0.000000 0.000000 0.000000 -0.395957
#
#
# Mechanical properties :
#
#
# Convention : Reuss Voigt Hill
#
# Bulk Modulus (GPa) = 52.46035 63.77203 58.11619
# Shear Modulus (GPa) = -25.69648 26.18765 0.24558
#
# Velocity S-wave (km/s) = -3.47767 3.51075 0.33998
# Velocity P-wave (km/s) = 2.92663 6.81532 5.24470
#
# Compressibility (1/GPa) = 0.01906202
#
# Stress axis : x y z
#
# Youngs Moduli (GPa) = 107.81694 53.18449 91.73063
#
# Poissons Ratio (x) = 0.22608 0.33278
# Poissons Ratio (y) = 0.45831 0.19078
# Poissons Ratio (z) = 0.39114 0.11061
#
# Static dielectric constant tensor:
#      x y z
#    x 4.321210 0.000000 0.000000 
#    y 0.000000 3.721090 0.000000 
#    z 0.000000 0.000000 3.760480 
# 
# 
# High freq. dielectric constant tensor:
#      x y z
#    x 1.868730 0.000000 0.000000 
#    y 0.000000 1.820190 0.000000 
#    z 0.000000 0.000000 1.825650 
# 
# From -- ./inp_files/18094.got.cif
#   From: 2010.03.12/outbox.cif.g09.slc.cpg/sg20_10_cif.got.tgz:18094.got - 2010.04.14 01:38:04.
