data_PCOD8160496
_publ_section_title
;
Structure prediction by ZEFSAII (Michael W. Deem and Ramdas Pophale) SiO2 
 PCOD8160496
Probable space group: C 2 2 21
;
_chemical_formula_sum "Si O2"
_cell_formula_units_Z 48
_cell_length_a 10.961488
_cell_length_b 11.261529
_cell_length_c 16.873860
_cell_angle_alpha 90.000000
_cell_angle_beta 90.000000
_cell_angle_gamma 90.000000
_cell_volume 2082.961840
_symmetry_space_group_name_H-M "C 2 2 21"
_symmetry_group_IT_number 20
_symmetry_cell_setting 'orthorhombic'
loop_
_space_group_symop_operation_xyz
x,y,z
-x,-y,1/2+z
x,-y,-z
-x,y,1/2-z
1/2+x,1/2+y,z
1/2-x,1/2-y,1/2+z
1/2+x,1/2-y,-z
1/2-x,1/2+y,1/2-z
loop_
_atom_site_type_symbol
_atom_site_label
_atom_site_fract_x
_atom_site_fract_y
_atom_site_fract_z
Si Si1 0.514663 0.618089 0.658845
Si Si2 0.075801 0.344193 0.912478
Si Si3 0.544775 0.727116 0.078761
Si Si4 0.207936 0.015619 0.090839
Si Si5 0.677900 0.442568 0.579288
Si Si6 0.954444 0.552173 0.836912
O O1 0.500000 0.587533 0.750000
O O2 0.508046 0.758942 0.642852
O O3 0.406163 0.570104 0.603786
O O4 0.641098 0.552938 0.636025
O O5 0.216856 0.358588 0.882886
O O6 0.016993 0.473237 0.904584
O O7 0.076586 0.304159 0.002816
O O8 0.664597 0.652233 0.106633
O O9 0.438959 0.635077 0.056332
O O10 0.495735 0.811594 0.148954
O O11 0.310063 0.971592 0.152909
O O12 0.253023 0.000000 0.000000
O O13 0.733418 0.500000 0.500000
O O14 0.000000 0.514144 0.750000
#
# Coordination Sequence:
#
# PCOD8160496 Si02
#       6
#     8   8   8   8   8   8
#     4  11  24  45  72 104 146 186 238 304 372 425
#     4  12  24  44  70 105 141 191 239 298 364 437
#     4  11  23  45  75 103 138 194 248 299 362 442
#     4  11  23  49  78 101 142 195 250 302 366 445
#     4  11  23  44  74 104 138 184 248 299 360 440
#     4  12  29  46  65 110 154 184 243 306 372 438
#
# _framework density 23.044107
#
# number of rings (size 3 to 8) (size 9 to 14) (size 15 to 20)
#    0.000    0.667    3.333    5.000    4.667    4.000 
#    3.000    0.000    0.000    0.000    0.000    0.000 
#    0.000    0.000    0.000    0.000    0.000    0.000 
#
# Total GULP energy -297576.983748 kJ/mol
# GULP energy per Si atom -12399.040989 kJ/mol
# Density = 2.299166 g / cm^3
# Si number density = 23.044107 Si / 1000 Ang^3
#
#
#
# Elastic Constant Matrix: (Units=GPa)
#
#
# Indices 1 2 3 4 5 6 
#
# 1 100.2861 45.1545 7.6842 0.0000 0.0000 0.0000
# 2 45.1545 125.1098 23.7706 0.0000 0.0000 0.0000
# 3 7.6842 23.7706 62.7985 0.0000 0.0000 0.0000
# 4 0.0000 0.0000 0.0000 25.1484 0.0000 0.0000
# 5 0.0000 0.0000 0.0000 0.0000 29.0361 0.0000
# 6 0.0000 0.0000 0.0000 0.0000 0.0000 35.1644
#
#
#
# Elastic Compliance Matrix: (Units=1/GPa)
#
#
# Indices 1 2 3 4 5 6 
#
# 1 0.011908 -0.004333 0.000183 0.000000 0.000000 0.000000
# 2 -0.004333 0.010189 -0.003326 0.000000 0.000000 0.000000
# 3 0.000183 -0.003326 0.017161 0.000000 0.000000 0.000000
# 4 0.000000 0.000000 0.000000 0.039764 0.000000 0.000000
# 5 0.000000 0.000000 0.000000 0.000000 0.034440 0.000000
# 6 0.000000 0.000000 0.000000 0.000000 0.000000 0.028438
#
#
# Mechanical properties :
#
#
# Convention : Reuss Voigt Hill
#
# Bulk Modulus (GPa) = 41.14353 49.04588 45.09471
# Shear Modulus (GPa) = 30.31154 31.97546 31.14350
#
# Velocity S-wave (km/s) = 3.63074 3.72906 3.68023
# Velocity P-wave (km/s) = 5.95562 6.31434 6.13760
#
# Compressibility (1/GPa) = 0.02430516
#
# Stress axis : x y z
#
# Youngs Moduli (GPa) = 83.97519 98.14748 58.27261
#
# Poissons Ratio (x) = 0.42524 -0.01066
# Poissons Ratio (y) = 0.36384 0.19384
# Poissons Ratio (z) = -0.01536 0.32649
#
# Static dielectric constant tensor:
#      x y z
#    x 4.237180 0.000000 0.000000 
#    y 0.000000 4.500190 0.000000 
#    z 0.000000 0.000000 3.752040 
# 
# 
# High freq. dielectric constant tensor:
#      x y z
#    x 1.910540 0.000000 0.000000 
#    y 0.000000 1.927700 0.000000 
#    z 0.000000 0.000000 1.889440 
# 
# From -- ./inp_files/24226.got.cif
#   From: 2010.03.12/outbox.cif.g09.slc.cpg/sg20_13_cif.got.tgz:24226.got - 2010.04.14 01:38:04.
