data_PCOD8160689
_publ_section_title
;
Structure prediction by ZEFSAII (Michael W. Deem and Ramdas Pophale) SiO2 
 PCOD8160689
Probable space group: C 2 2 21
;
_chemical_formula_sum "Si O2"
_cell_formula_units_Z 36
_cell_length_a 11.461862
_cell_length_b 28.736132
_cell_length_c 4.974417
_cell_angle_alpha 90.000000
_cell_angle_beta 90.000000
_cell_angle_gamma 90.000000
_cell_volume 1638.421635
_symmetry_space_group_name_H-M "C 2 2 21"
_symmetry_group_IT_number 20
_symmetry_cell_setting 'orthorhombic'
loop_
_space_group_symop_operation_xyz
x,y,z
-x,-y,1/2+z
x,-y,-z
-x,y,1/2-z
1/2+x,1/2+y,z
1/2-x,1/2-y,1/2+z
1/2+x,1/2-y,-z
1/2-x,1/2+y,1/2-z
loop_
_atom_site_type_symbol
_atom_site_label
_atom_site_fract_x
_atom_site_fract_y
_atom_site_fract_z
Si Si1 0.370090 0.951254 0.131716
Si Si2 0.830516 0.252301 0.919286
Si Si3 0.426660 0.654598 0.001628
Si Si4 0.686376 0.895506 0.893958
Si Si5 0.000000 0.329905 0.750000
O O1 0.500000 0.953129 0.250000
O O2 0.298977 0.938802 0.401162
O O3 0.338988 0.912318 0.910491
O O4 0.333906 0.000000 0.000000
O O5 0.726499 0.258386 0.130787
O O6 0.916779 0.210199 0.987908
O O7 0.908988 0.298721 0.919456
O O8 0.500000 0.637703 0.250000
O O9 0.299833 0.634595 0.056616
O O10 0.500000 0.634811 0.750000
O O11 0.575290 0.862047 0.956669
#
# Coordination Sequence:
#
# PCOD8160689 Si02
#       5
#     8   8   8   8   4
#     4  12  24  45  71 108 143 174 216 289 377 444
#     4  12  27  42  63  97 144 190 234 292 343 406
#     4  12  26  47  68  97 140 201 248 291 348 414
#     4  12  26  43  72 104 141 180 235 294 351 430
#     4  12  26  42  70 104 146 182 238 286 352 410
#
# _framework density 21.972363999999999
#
# number of rings (size 3 to 8) (size 9 to 14) (size 15 to 20)
#    0.000    0.000    5.556    4.667    3.111    1.778 
#    0.000    0.000    0.000   13.333    0.000    0.000 
#    0.000    0.000    0.000    0.000    0.000    0.000 
#
# Total GULP energy -223091.541969 kJ/mol
# GULP energy per Si atom -12393.974554 kJ/mol
# Density = 2.192235 g / cm^3
# Si number density = 21.972364 Si / 1000 Ang^3
#
#
#
# Elastic Constant Matrix: (Units=GPa)
#
#
# Indices 1 2 3 4 5 6 
#
# 1 129.1349 44.7395 48.1023 0.0000 0.0000 0.0000
# 2 44.7395 95.1524 32.2681 0.0000 0.0000 0.0000
# 3 48.1023 32.2681 133.5350 0.0000 0.0000 0.0000
# 4 0.0000 0.0000 0.0000 26.5020 0.0000 0.0000
# 5 0.0000 0.0000 0.0000 0.0000 40.0935 0.0000
# 6 0.0000 0.0000 0.0000 0.0000 0.0000 9.4848
#
#
#
# Elastic Compliance Matrix: (Units=1/GPa)
#
#
# Indices 1 2 3 4 5 6 
#
# 1 0.010075 -0.003819 -0.002706 0.000000 0.000000 0.000000
# 2 -0.003819 0.012895 -0.001740 0.000000 0.000000 0.000000
# 3 -0.002706 -0.001740 0.008884 0.000000 0.000000 0.000000
# 4 0.000000 0.000000 0.000000 0.037733 0.000000 0.000000
# 5 0.000000 0.000000 0.000000 0.000000 0.024942 0.000000
# 6 0.000000 0.000000 0.000000 0.000000 0.000000 0.105431
#
#
# Mechanical properties :
#
#
# Convention : Reuss Voigt Hill
#
# Bulk Modulus (GPa) = 65.26309 67.56022 66.41165
# Shear Modulus (GPa) = 22.56310 30.73023 26.64667
#
# Velocity S-wave (km/s) = 3.20798 3.74382 3.48621
# Velocity P-wave (km/s) = 6.59457 7.03583 6.81877
#
# Compressibility (1/GPa) = 0.01532260
#
# Stress axis : x y z
#
# Youngs Moduli (GPa) = 99.25341 77.54651 112.56072
#
# Poissons Ratio (x) = 0.29619 0.30463
# Poissons Ratio (y) = 0.37909 0.19589
# Poissons Ratio (z) = 0.26862 0.13495
#
# Static dielectric constant tensor:
#      x y z
#    x 3.881080 0.000000 0.000000 
#    y 0.000000 4.033350 0.000000 
#    z 0.000000 0.000000 4.614570 
# 
# 
# High freq. dielectric constant tensor:
#      x y z
#    x 1.860800 0.000000 0.000000 
#    y 0.000000 1.859670 0.000000 
#    z 0.000000 0.000000 1.876520 
# 
# From -- ./inp_files/1362.got.cif
#   From: 2010.03.12/outbox.cif.g09.slc.cpg/sg20_1_cif.got.tgz:1362.got - 2010.04.14 01:38:04.
