data_PCOD8160905
_publ_section_title
;
Structure prediction by ZEFSAII (Michael W. Deem and Ramdas Pophale) SiO2 
 PCOD8160905
Probable space group: C 2 2 2
;
_chemical_formula_sum "Si O2"
_cell_formula_units_Z 38
_cell_length_a 7.147083
_cell_length_b 29.631640
_cell_length_c 8.568812
_cell_angle_alpha 90.000000
_cell_angle_beta 90.000000
_cell_angle_gamma 90.000000
_cell_volume 1814.701210
_symmetry_space_group_name_H-M "C 2 2 2"
_symmetry_group_IT_number 21
_symmetry_cell_setting 'orthorhombic'
loop_
_space_group_symop_operation_xyz
x,y,z
-x,-y,z
x,-y,-z
-x,y,-z
1/2+x,1/2+y,z
1/2-x,1/2-y,z
1/2+x,1/2-y,-z
1/2-x,1/2+y,-z
loop_
_atom_site_type_symbol
_atom_site_label
_atom_site_fract_x
_atom_site_fract_y
_atom_site_fract_z
Si Si1 0.000000 0.000000 0.500000
Si Si2 0.793841 0.166561 0.062380
Si Si3 0.250000 0.250000 0.142951
Si Si4 0.202109 0.490801 0.257642
Si Si5 0.908851 0.783977 0.654095
Si Si6 0.218038 0.932008 0.028340
O O1 0.144712 0.026834 0.385477
O O2 0.805365 0.177774 0.246018
O O3 0.691823 0.118066 0.047011
O O4 0.695706 0.206947 0.965460
O O5 0.000000 0.160965 0.000000
O O6 0.433962 0.258549 0.244391
O O7 0.264899 0.538550 0.184725
O O8 0.000000 0.500000 0.336375
O O9 0.177659 0.454253 0.119678
O O10 0.750000 0.750000 0.595002
O O11 0.000000 0.806165 0.500000
O O12 0.000000 0.929028 0.000000
#
# Coordination Sequence:
#
# PCOD8160905 Si02
#       6
#     2   8   4   8   8   8
#     4  12  22  42  68  82 132 170 182 256 316 380
#     4   9  20  36  63  91 115 161 207 253 302 370
#     4  10  20  40  60  86 118 158 212 252 292 364
#     4  11  22  40  64  93 120 158 206 249 308 372
#     4  11  21  38  60  85 122 162 202 253 312 362
#     4  10  18  40  65  89 121 158 204 256 307 357
#
# _framework density 20.940086999999998
#
# number of rings (size 3 to 8) (size 9 to 14) (size 15 to 20)
#    0.000    1.684    4.211    2.211    0.000    0.000 
#    9.474    0.000    0.000    0.000    0.000    0.000 
#    0.000    0.000    0.000    0.000    0.000    0.000 
#
# Total GULP energy -235414.844607 kJ/mol
# GULP energy per Si atom -12390.254979 kJ/mol
# Density = 2.089243 g / cm^3
# Si number density = 20.940087 Si / 1000 Ang^3
#
#
#
# Elastic Constant Matrix: (Units=GPa)
#
#
# Indices 1 2 3 4 5 6 
#
# 1 92.5019 12.5454 34.0659 0.0000 0.0000 0.0000
# 2 12.5454 146.3281 45.7369 0.0000 0.0000 0.0000
# 3 34.0659 45.7369 134.5786 0.0000 0.0000 0.0000
# 4 0.0000 0.0000 0.0000 11.2136 0.0000 0.0000
# 5 0.0000 0.0000 0.0000 0.0000 35.2853 0.0000
# 6 0.0000 0.0000 0.0000 0.0000 0.0000 5.8676
#
#
#
# Elastic Compliance Matrix: (Units=1/GPa)
#
#
# Indices 1 2 3 4 5 6 
#
# 1 0.011923 -0.000088 -0.002988 0.000000 0.000000 0.000000
# 2 -0.000088 0.007647 -0.002576 0.000000 0.000000 0.000000
# 3 -0.002988 -0.002576 0.009063 0.000000 0.000000 0.000000
# 4 0.000000 0.000000 0.000000 0.089178 0.000000 0.000000
# 5 0.000000 0.000000 0.000000 0.000000 0.028340 0.000000
# 6 0.000000 0.000000 0.000000 0.000000 0.000000 0.170426
#
#
# Mechanical properties :
#
#
# Convention : Reuss Voigt Hill
#
# Bulk Modulus (GPa) = 57.71393 62.01166 59.86279
# Shear Modulus (GPa) = 14.98541 29.21067 22.09804
#
# Velocity S-wave (km/s) = 2.67803 3.73897 3.25206
# Velocity P-wave (km/s) = 6.09785 6.95112 6.53842
#
# Compressibility (1/GPa) = 0.01732684
#
# Stress axis : x y z
#
# Youngs Moduli (GPa) = 83.87166 130.77317 110.34370
#
# Poissons Ratio (x) = 0.01154 0.32972
# Poissons Ratio (y) = 0.00740 0.28430
# Poissons Ratio (z) = 0.25062 0.33693
#
# Static dielectric constant tensor:
#      x y z
#    x 3.822020 0.000000 0.000000 
#    y 0.000000 4.337020 0.000000 
#    z 0.000000 0.000000 3.865670 
# 
# 
# High freq. dielectric constant tensor:
#      x y z
#    x 1.834220 0.000000 0.000000 
#    y 0.000000 1.790290 0.000000 
#    z 0.000000 0.000000 1.815500 
# 
# From -- ./inp_files/11349.got.cif
#   From: 2010.03.12/outbox.cif.g09.slc.cpg/sg21_6_cif.got.tgz:11349.got - 2010.04.14 01:59:26.
