data_PCOD8160288
_publ_section_title
;
Structure prediction by ZEFSAII (Michael W. Deem and Ramdas Pophale) SiO2 
 PCOD8160288
Probable space group: C 2 2 21
;
_chemical_formula_sum "Si O2"
_cell_formula_units_Z 40
_cell_length_a 19.457815
_cell_length_b 24.253986
_cell_length_c 5.009051
_cell_angle_alpha 90.000000
_cell_angle_beta 90.000000
_cell_angle_gamma 90.000000
_cell_volume 2363.919298
_symmetry_space_group_name_H-M "C 2 2 21"
_symmetry_group_IT_number 20
_symmetry_cell_setting 'orthorhombic'
loop_
_space_group_symop_operation_xyz
x,y,z
-x,-y,1/2+z
x,-y,-z
-x,y,1/2-z
1/2+x,1/2+y,z
1/2-x,1/2-y,1/2+z
1/2+x,1/2-y,-z
1/2-x,1/2+y,1/2-z
loop_
_atom_site_type_symbol
_atom_site_label
_atom_site_fract_x
_atom_site_fract_y
_atom_site_fract_z
Si Si1 0.170668 0.713136 0.643928
Si Si2 0.570486 0.561416 0.892886
Si Si3 0.953641 0.781194 0.996137
Si Si4 0.370156 0.386787 0.922724
Si Si5 0.739891 0.176879 0.147496
O O1 0.091225 0.727616 0.587015
O O2 0.212992 0.769403 0.645862
O O3 0.198644 0.671565 0.421064
O O4 0.181697 0.680624 0.919543
O O5 0.500000 0.581899 0.750000
O O6 0.625599 0.565634 0.650912
O O7 0.562663 0.500000 0.000000
O O8 0.591254 0.598744 0.145969
O O9 0.000000 0.766104 0.250000
O O10 0.904333 0.832892 0.059585
O O11 0.000000 0.798608 0.750000
O O12 0.289331 0.376299 0.875093
#
# Coordination Sequence:
#
# PCOD8160288 Si02
#       5
#     8   8   8   8   8
#     4   9  17  29  43  62  87 111 142 182 223 260
#     4  12  23  35  47  63  88 119 152 193 240 274
#     4  11  20  29  44  66  91 119 151 186 221 260
#     4  11  21  33  49  65  84 115 161 198 224 261
#     4   9  17  30  46  62  81 110 147 189 222 255
#
# _framework density 16.921050000000001
#
# number of rings (size 3 to 8) (size 9 to 14) (size 15 to 20)
#    0.000    1.600    0.000    7.800    0.000    6.400 
#    0.000    0.000    0.000    0.000    0.000    0.000 
#    0.000    0.000    0.000    0.000    0.000  252.000 
#
# Total GULP energy -247917.768569 kJ/mol
# GULP energy per Si atom -12395.888428 kJ/mol
# Density = 1.688254 g / cm^3
# Si number density = 16.921050 Si / 1000 Ang^3
#
#
#
# Elastic Constant Matrix: (Units=GPa)
#
#
# Indices 1 2 3 4 5 6 
#
# 1 43.6627 17.2888 5.4814 0.0000 0.0000 0.0000
# 2 17.2888 29.5866 11.5346 0.0000 0.0000 0.0000
# 3 5.4814 11.5346 92.4226 0.0000 0.0000 0.0000
# 4 0.0000 0.0000 0.0000 28.6619 0.0000 0.0000
# 5 0.0000 0.0000 0.0000 0.0000 27.7663 0.0000
# 6 0.0000 0.0000 0.0000 0.0000 0.0000 25.2908
#
#
#
# Elastic Compliance Matrix: (Units=1/GPa)
#
#
# Indices 1 2 3 4 5 6 
#
# 1 0.029813 -0.017588 0.000427 0.000000 0.000000 0.000000
# 2 -0.017588 0.045903 -0.004686 0.000000 0.000000 0.000000
# 3 0.000427 -0.004686 0.011379 0.000000 0.000000 0.000000
# 4 0.000000 0.000000 0.000000 0.034890 0.000000 0.000000
# 5 0.000000 0.000000 0.000000 0.000000 0.036015 0.000000
# 6 0.000000 0.000000 0.000000 0.000000 0.000000 0.039540
#
#
# Mechanical properties :
#
#
# Convention : Reuss Voigt Hill
#
# Bulk Modulus (GPa) = 23.04010 26.03127 24.53568
# Shear Modulus (GPa) = 19.55408 25.10159 22.32783
#
# Velocity S-wave (km/s) = 3.40311 3.85574 3.63647
# Velocity P-wave (km/s) = 5.39327 5.93630 5.67129
#
# Compressibility (1/GPa) = 0.04340259
#
# Stress axis : x y z
#
# Youngs Moduli (GPa) = 33.54200 21.78501 87.87852
#
# Poissons Ratio (x) = 0.38315 -0.03751
# Poissons Ratio (y) = 0.58993 0.41177
# Poissons Ratio (z) = -0.01432 0.10208
#
# Static dielectric constant tensor:
#      x y z
#    x 3.199730 0.000000 0.000000 
#    y 0.000000 2.810890 0.000000 
#    z 0.000000 0.000000 3.301250 
# 
# 
# High freq. dielectric constant tensor:
#      x y z
#    x 1.631400 0.000000 0.000000 
#    y 0.000000 1.593330 0.000000 
#    z 0.000000 0.000000 1.681180 
# 
# From -- ./inp_files/1871.got.cif
#   From: 2010.03.12/outbox.cif.g09.slc.cpg/sg20_1_cif.got.tgz:1871.got - 2010.04.14 01:38:04.
