data_PCOD8160726
_publ_section_title
;
Structure prediction by ZEFSAII (Michael W. Deem and Ramdas Pophale) SiO2 
 PCOD8160726
Probable space group: C 2 2 21
;
_chemical_formula_sum "Si O2"
_cell_formula_units_Z 20
_cell_length_a 7.899843
_cell_length_b 5.186074
_cell_length_c 17.409915
_cell_angle_alpha 90.000000
_cell_angle_beta 90.000000
_cell_angle_gamma 90.000000
_cell_volume 713.269774
_symmetry_space_group_name_H-M "C 2 2 21"
_symmetry_group_IT_number 20
_symmetry_cell_setting 'orthorhombic'
loop_
_space_group_symop_operation_xyz
x,y,z
-x,-y,1/2+z
x,-y,-z
-x,y,1/2-z
1/2+x,1/2+y,z
1/2-x,1/2-y,1/2+z
1/2+x,1/2-y,-z
1/2-x,1/2+y,1/2-z
loop_
_atom_site_type_symbol
_atom_site_label
_atom_site_fract_x
_atom_site_fract_y
_atom_site_fract_z
Si Si1 0.497244 0.354765 0.901419
Si Si2 0.268377 0.068440 0.798716
Si Si3 0.299976 0.000000 0.500000
O O1 0.449777 0.135510 0.837866
O O2 0.621332 0.562891 0.863734
O O3 0.578569 0.240738 0.979983
O O4 0.315666 0.473941 0.924167
O O5 0.214376 0.285582 0.737804
#
# Coordination Sequence:
#
# PCOD8160726 Si02
#       3
#     8   8   4
#     4  12  27  48  78 112 153 200 254 314 378 452
#     4  12  29  51  80 115 155 202 254 316 382 454
#     4  12  26  48  76 110 150 200 252 312 376 448
#
# _framework density 28.039883
#
# number of rings (size 3 to 8) (size 9 to 14) (size 15 to 20)
#    0.000    0.000    0.000    8.400    0.000   19.200 
#    0.000    0.000    0.000    0.000    0.000    0.000 
#    0.000    0.000    0.000    0.000    0.000    0.000 
#
# Total GULP energy -124071.676329 kJ/mol
# GULP energy per Si atom -12407.167633 kJ/mol
# Density = 2.797606 g / cm^3
# Si number density = 28.039883 Si / 1000 Ang^3
#
#
#
# Elastic Constant Matrix: (Units=GPa)
#
#
# Indices 1 2 3 4 5 6 
#
# 1 98.7006 10.0935 -7.1505 0.0000 0.0000 0.0000
# 2 10.0935 76.2956 -7.0245 0.0000 0.0000 0.0000
# 3 -7.1505 -7.0245 67.5519 0.0000 0.0000 0.0000
# 4 0.0000 0.0000 0.0000 34.9489 0.0000 0.0000
# 5 0.0000 0.0000 0.0000 0.0000 37.6815 0.0000
# 6 0.0000 0.0000 0.0000 0.0000 0.0000 41.7120
#
#
#
# Elastic Compliance Matrix: (Units=1/GPa)
#
#
# Indices 1 2 3 4 5 6 
#
# 1 0.010332 -0.001278 0.000961 0.000000 0.000000 0.000000
# 2 -0.001278 0.013392 0.001257 0.000000 0.000000 0.000000
# 3 0.000961 0.001257 0.015036 0.000000 0.000000 0.000000
# 4 0.000000 0.000000 0.000000 0.028613 0.000000 0.000000
# 5 0.000000 0.000000 0.000000 0.000000 0.026538 0.000000
# 6 0.000000 0.000000 0.000000 0.000000 0.000000 0.023974
#
#
# Mechanical properties :
#
#
# Convention : Reuss Voigt Hill
#
# Bulk Modulus (GPa) = 24.60704 26.04278 25.32491
# Shear Modulus (GPa) = 38.59450 39.31045 38.95247
#
# Velocity S-wave (km/s) = 3.71403 3.74832 3.73122
# Velocity P-wave (km/s) = 5.21410 5.29539 5.25490
#
# Compressibility (1/GPa) = 0.04063878
#
# Stress axis : x y z
#
# Youngs Moduli (GPa) = 96.78680 74.67255 66.50766
#
# Poissons Ratio (x) = 0.09546 -0.06390
# Poissons Ratio (y) = 0.12373 -0.08362
# Poissons Ratio (z) = -0.09299 -0.09388
#
# Static dielectric constant tensor:
#      x y z
#    x 5.112120 0.000000 0.000000 
#    y 0.000000 4.751640 0.000000 
#    z 0.000000 0.000000 5.186650 
# 
# 
# High freq. dielectric constant tensor:
#      x y z
#    x 2.149410 0.000000 0.000000 
#    y 0.000000 2.122170 0.000000 
#    z 0.000000 0.000000 2.152730 
# 
# From -- ./inp_files/22365.got.cif
#   From: 2010.03.12/outbox.cif.g09.slc.cpg/sg20_12_cif.got.tgz:22365.got - 2010.04.14 01:38:04.
