data_PCOD8160977
_publ_section_title
;
Structure prediction by ZEFSAII (Michael W. Deem and Ramdas Pophale) SiO2 
 PCOD8160977
Probable space group: C 2 2 2
;
_chemical_formula_sum "Si O2"
_cell_formula_units_Z 58
_cell_length_a 14.278702
_cell_length_b 25.258043
_cell_length_c 9.145802
_cell_angle_alpha 90.000000
_cell_angle_beta 90.000000
_cell_angle_gamma 90.000000
_cell_volume 3298.452415
_symmetry_space_group_name_H-M "C 2 2 2"
_symmetry_group_IT_number 21
_symmetry_cell_setting 'orthorhombic'
loop_
_space_group_symop_operation_xyz
x,y,z
-x,-y,z
x,-y,-z
-x,y,-z
1/2+x,1/2+y,z
1/2-x,1/2-y,z
1/2+x,1/2-y,-z
1/2-x,1/2+y,-z
loop_
_atom_site_type_symbol
_atom_site_label
_atom_site_fract_x
_atom_site_fract_y
_atom_site_fract_z
Si Si1 0.497494 0.840533 0.330437
Si Si2 0.000000 0.500000 0.000000
Si Si3 0.181338 0.491182 0.846745
Si Si4 0.197944 0.606916 0.336281
Si Si5 0.322415 0.295497 0.655014
Si Si6 0.006540 0.768182 0.826452
Si Si7 0.811091 0.800308 0.315249
Si Si8 0.818514 0.401075 0.670344
O O1 0.500000 0.822022 0.500000
O O2 0.397928 0.864895 0.288583
O O3 0.520689 0.791389 0.227905
O O4 0.575816 0.883781 0.296795
O O5 0.073387 0.527825 0.113447
O O6 0.226223 0.443353 0.759395
O O7 0.195224 0.545417 0.759110
O O8 0.236135 0.500000 0.000000
O O9 0.280973 0.647496 0.310065
O O10 0.191738 0.585797 0.500506
O O11 0.250000 0.250000 0.703392
O O12 0.415218 0.291888 0.750127
O O13 0.342669 0.291065 0.482616
O O14 0.095605 0.803629 0.781465
O O15 0.000000 0.769391 0.000000
O O16 0.750000 0.750000 0.264066
O O17 0.753936 0.854452 0.287672
#
# Coordination Sequence:
#
# PCOD8160977 Si02
#       8
#     8   2   8   8   8   8   8   8
#     4  10  19  34  55  80 111 150 190 232 274 321
#     4   8  20  36  50  76 116 166 178 208 280 338
#     4  10  21  35  51  76 118 151 180 222 279 333
#     4  10  20  35  59  82 106 147 196 237 268 322
#     4  10  20  38  60  81 108 146 193 236 280 328
#     4  12  24  35  52  83 121 150 181 227 286 348
#     4  10  20  38  60  81 108 146 193 236 280 328
#     4  10  20  35  59  82 106 147 196 237 268 322
#
# _framework density 17.584005000000001
#
# number of rings (size 3 to 8) (size 9 to 14) (size 15 to 20)
#    0.414    1.379    2.759    2.483    0.000    2.759 
#    0.000    2.759    0.000    0.828    0.000    5.793 
#    0.000    0.000    0.000    0.000    0.000    0.000 
#
# Total GULP energy -359405.282706 kJ/mol
# GULP energy per Si atom -12393.285611 kJ/mol
# Density = 1.754398 g / cm^3
# Si number density = 17.584005 Si / 1000 Ang^3
#
#
#
# Elastic Constant Matrix: (Units=GPa)
#
#
# Indices 1 2 3 4 5 6 
#
# 1 84.2298 27.2761 41.6726 0.0000 0.0000 0.0000
# 2 27.2761 94.0376 47.1469 0.0000 0.0000 0.0000
# 3 41.6726 47.1469 85.8595 0.0000 0.0000 0.0000
# 4 0.0000 0.0000 0.0000 -69.2062 0.0000 0.0000
# 5 0.0000 0.0000 0.0000 0.0000 20.5541 0.0000
# 6 0.0000 0.0000 0.0000 0.0000 0.0000 9.9443
#
#
#
# Elastic Compliance Matrix: (Units=1/GPa)
#
#
# Indices 1 2 3 4 5 6 
#
# 1 0.015694 -0.001012 -0.007061 0.000000 0.000000 0.000000
# 2 -0.001012 0.014739 -0.007602 0.000000 0.000000 0.000000
# 3 -0.007061 -0.007602 0.019249 0.000000 0.000000 0.000000
# 4 0.000000 0.000000 0.000000 -0.014450 0.000000 0.000000
# 5 0.000000 0.000000 0.000000 0.000000 0.048652 0.000000
# 6 0.000000 0.000000 0.000000 0.000000 0.000000 0.100560
#
#
# Mechanical properties :
#
#
# Convention : Reuss Voigt Hill
#
# Bulk Modulus (GPa) = 54.55426 55.14644 54.85035
# Shear Modulus (GPa) = 22.53211 2.12719 12.32965
#
# Velocity S-wave (km/s) = 3.58355 1.10107 2.65086
# Velocity P-wave (km/s) = 6.94368 5.74859 6.37420
#
# Compressibility (1/GPa) = 0.01833037
#
# Stress axis : x y z
#
# Youngs Moduli (GPa) = 63.72050 67.84688 51.95090
#
# Poissons Ratio (x) = 0.06864 0.36685
# Poissons Ratio (y) = 0.06446 0.39496
# Poissons Ratio (z) = 0.44996 0.51580
#
# Static dielectric constant tensor:
#      x y z
#    x 3.259570 0.000000 0.000000 
#    y 0.000000 3.110500 0.000000 
#    z 0.000000 0.000000 3.334600 
# 
# 
# High freq. dielectric constant tensor:
#      x y z
#    x 1.665010 0.000000 0.000000 
#    y 0.000000 1.671930 0.000000 
#    z 0.000000 0.000000 1.680220 
# 
# From -- ./inp_files/15434.got.cif
#   From: 2010.03.12/outbox.cif.g09.slc.cpg/sg21_8_cif.got.tgz:15434.got - 2010.04.14 01:59:26.
