data_PCOD8160281
_publ_section_title
;
Structure prediction by ZEFSAII (Michael W. Deem and Ramdas Pophale) SiO2 
 PCOD8160281
Probable space group: C 2 2 21
;
_chemical_formula_sum "Si O2"
_cell_formula_units_Z 48
_cell_length_a 7.397087
_cell_length_b 19.156463
_cell_length_c 18.209365
_cell_angle_alpha 90.000000
_cell_angle_beta 90.000000
_cell_angle_gamma 90.000000
_cell_volume 2580.303866
_symmetry_space_group_name_H-M "C 2 2 21"
_symmetry_group_IT_number 20
_symmetry_cell_setting 'orthorhombic'
loop_
_space_group_symop_operation_xyz
x,y,z
-x,-y,1/2+z
x,-y,-z
-x,y,1/2-z
1/2+x,1/2+y,z
1/2-x,1/2-y,1/2+z
1/2+x,1/2-y,-z
1/2-x,1/2+y,1/2-z
loop_
_atom_site_type_symbol
_atom_site_label
_atom_site_fract_x
_atom_site_fract_y
_atom_site_fract_z
Si Si1 0.420286 0.311197 0.937218
Si Si2 0.418035 0.997466 0.616160
Si Si3 0.693680 0.476095 0.084250
Si Si4 0.738537 0.171790 0.533507
Si Si5 0.088077 0.063489 0.328558
Si Si6 0.372048 0.109375 0.509784
O O1 0.621060 0.304375 0.970395
O O2 0.414932 0.360059 0.865445
O O3 0.299856 0.340683 0.004185
O O4 0.328480 0.236843 0.915845
O O5 0.633699 0.993727 0.630101
O O6 0.377045 0.077568 0.592203
O O7 0.291074 0.969500 0.682787
O O8 0.348473 0.950528 0.549640
O O9 0.516110 0.507784 0.120317
O O10 0.714382 0.500000 0.000000
O O11 0.685055 0.391379 0.084470
O O12 0.559641 0.147549 0.490228
O O13 0.000000 0.071546 0.250000
#
# Coordination Sequence:
#
# PCOD8160281 Si02
#       6
#     8   8   8   8   8   8
#     4  11  20  32  55  84 119 146 187 241 295 356
#     4   9  17  32  56  82 110 138 188 245 291 330
#     4  11  19  35  61  89 114 147 204 259 289 336
#     4  11  19  31  55  89 114 142 190 252 298 332
#     4  11  24  38  58  84 121 161 196 239 306 369
#     4   9  16  29  51  85 107 136 179 242 292 325
#
# _framework density 18.602461000000002
#
# number of rings (size 3 to 8) (size 9 to 14) (size 15 to 20)
#    0.000    1.667    6.667    1.000    2.333    0.667 
#    0.000    0.000    7.333    0.000    0.000    0.000 
#    0.000    0.000    0.000    0.000    0.000    0.000 
#
# Total GULP energy -297323.834127 kJ/mol
# GULP energy per Si atom -12388.493089 kJ/mol
# Density = 1.856012 g / cm^3
# Si number density = 18.602461 Si / 1000 Ang^3
#
#
#
# Elastic Constant Matrix: (Units=GPa)
#
#
# Indices 1 2 3 4 5 6 
#
# 1 83.7666 25.3077 9.6702 0.0000 0.0000 0.0000
# 2 25.3077 118.0305 19.8181 0.0000 0.0000 0.0000
# 3 9.6702 19.8181 30.0817 0.0000 0.0000 0.0000
# 4 0.0000 0.0000 0.0000 10.4111 0.0000 0.0000
# 5 0.0000 0.0000 0.0000 0.0000 15.3449 0.0000
# 6 0.0000 0.0000 0.0000 0.0000 0.0000 35.0176
#
#
#
# Elastic Compliance Matrix: (Units=1/GPa)
#
#
# Indices 1 2 3 4 5 6 
#
# 1 0.012946 -0.002335 -0.002623 0.000000 0.000000 0.000000
# 2 -0.002335 0.009947 -0.005803 0.000000 0.000000 0.000000
# 3 -0.002623 -0.005803 0.037909 0.000000 0.000000 0.000000
# 4 0.000000 0.000000 0.000000 0.096051 0.000000 0.000000
# 5 0.000000 0.000000 0.000000 0.000000 0.065168 0.000000
# 6 0.000000 0.000000 0.000000 0.000000 0.000000 0.028557
#
#
# Mechanical properties :
#
#
# Convention : Reuss Voigt Hill
#
# Bulk Modulus (GPa) = 25.45824 37.94123 31.69973
# Shear Modulus (GPa) = 17.53188 23.96025 20.74606
#
# Velocity S-wave (km/s) = 3.07326 3.59279 3.34313
# Velocity P-wave (km/s) = 5.12917 6.13603 5.65506
#
# Compressibility (1/GPa) = 0.03928001
#
# Stress axis : x y z
#
# Youngs Moduli (GPa) = 77.24187 100.52816 26.37905
#
# Poissons Ratio (x) = 0.23478 0.06920
# Poissons Ratio (y) = 0.18040 0.15307
# Poissons Ratio (z) = 0.20262 0.58333
#
# Static dielectric constant tensor:
#      x y z
#    x 3.737680 0.000000 0.000000 
#    y 0.000000 3.816800 0.000000 
#    z 0.000000 0.000000 2.897590 
# 
# 
# High freq. dielectric constant tensor:
#      x y z
#    x 1.748760 0.000000 0.000000 
#    y 0.000000 1.730570 0.000000 
#    z 0.000000 0.000000 1.647080 
# 
# From -- ./inp_files/23586.got.cif
#   From: 2010.03.12/outbox.cif.g09.slc.cpg/sg20_12_cif.got.tgz:23586.got - 2010.04.14 01:38:04.
