data_PCOD8160164
_publ_section_title
;
Structure prediction by ZEFSAII (Michael W. Deem and Ramdas Pophale) SiO2 
 PCOD8160164
Probable space group: C 2 2 21
;
_chemical_formula_sum "Si O2"
_cell_formula_units_Z 56
_cell_length_a 8.266152
_cell_length_b 16.083234
_cell_length_c 18.449857
_cell_angle_alpha 90.000000
_cell_angle_beta 90.000000
_cell_angle_gamma 90.000000
_cell_volume 2452.843118
_symmetry_space_group_name_H-M "C 2 2 21"
_symmetry_group_IT_number 20
_symmetry_cell_setting 'orthorhombic'
loop_
_space_group_symop_operation_xyz
x,y,z
-x,-y,1/2+z
x,-y,-z
-x,y,1/2-z
1/2+x,1/2+y,z
1/2-x,1/2-y,1/2+z
1/2+x,1/2-y,-z
1/2-x,1/2+y,1/2-z
loop_
_atom_site_type_symbol
_atom_site_label
_atom_site_fract_x
_atom_site_fract_y
_atom_site_fract_z
Si Si1 0.910427 0.551100 0.326234
Si Si2 0.864118 0.269244 0.471313
Si Si3 0.137407 0.026207 0.917601
Si Si4 0.229716 0.057179 0.569364
Si Si5 0.789207 0.634881 0.126363
Si Si6 0.789518 0.699861 0.901021
Si Si7 0.181208 0.183589 0.272479
O O1 0.853240 0.467055 0.366016
O O2 0.748849 0.605422 0.317065
O O3 0.000000 0.530612 0.250000
O O4 0.027066 0.602319 0.381090
O O5 0.759116 0.348643 0.451984
O O6 0.771877 0.187936 0.440803
O O7 0.855790 0.249165 0.557481
O O8 0.045456 0.277652 0.443429
O O9 0.257590 0.101616 0.897101
O O10 0.953585 0.051761 0.903227
O O11 0.177853 0.947886 0.866276
O O12 0.170678 0.000000 0.000000
O O13 0.261083 0.000000 0.500000
O O14 0.781750 0.692438 0.198185
O O15 0.802454 0.732238 0.818750
O O16 0.000000 0.164803 0.250000
#
# Coordination Sequence:
#
# PCOD8160164 Si02
#       7
#     8   8   8   8   8   8   8
#     4  10  24  44  73  97 144 189 240 290 365 427
#     4  12  26  42  73 106 145 184 242 303 360 429
#     4  11  24  46  74 107 147 187 243 303 372 432
#     4  11  25  43  69 107 143 186 240 301 360 435
#     4  11  24  46  71 102 142 187 235 298 359 431
#     4  12  26  43  75 108 145 190 243 305 367 443
#     4  11  23  46  70 100 144 190 232 292 368 434
#
# _framework density 22.830648
#
# number of rings (size 3 to 8) (size 9 to 14) (size 15 to 20)
#    0.000    0.857    2.857    3.429    8.000    1.143 
#    7.714    0.000    0.000    0.000    0.000    0.000 
#    0.000    0.000    0.000    0.000    0.000    0.000 
#
# Total GULP energy -347242.992935 kJ/mol
# GULP energy per Si atom -12401.535462 kJ/mol
# Density = 2.277868 g / cm^3
# Si number density = 22.830648 Si / 1000 Ang^3
#
#
#
# Elastic Constant Matrix: (Units=GPa)
#
#
# Indices 1 2 3 4 5 6 
#
# 1 90.9332 51.0835 45.6361 0.0000 0.0000 0.0000
# 2 51.0835 147.7781 41.8580 0.0000 0.0000 0.0000
# 3 45.6361 41.8580 74.4693 0.0000 0.0000 0.0000
# 4 0.0000 0.0000 0.0000 35.1939 0.0000 0.0000
# 5 0.0000 0.0000 0.0000 0.0000 37.2103 0.0000
# 6 0.0000 0.0000 0.0000 0.0000 0.0000 30.4704
#
#
#
# Elastic Compliance Matrix: (Units=1/GPa)
#
#
# Indices 1 2 3 4 5 6 
#
# 1 0.017313 -0.003544 -0.008618 0.000000 0.000000 0.000000
# 2 -0.003544 0.008774 -0.002760 0.000000 0.000000 0.000000
# 3 -0.008618 -0.002760 0.020261 0.000000 0.000000 0.000000
# 4 0.000000 0.000000 0.000000 0.028414 0.000000 0.000000
# 5 0.000000 0.000000 0.000000 0.000000 0.026874 0.000000
# 6 0.000000 0.000000 0.000000 0.000000 0.000000 0.032819
#
#
# Mechanical properties :
#
#
# Convention : Reuss Voigt Hill
#
# Bulk Modulus (GPa) = 60.58938 65.59288 63.09113
# Shear Modulus (GPa) = 29.44675 32.21513 30.83094
#
# Velocity S-wave (km/s) = 3.59526 3.76047 3.67879
# Velocity P-wave (km/s) = 6.62048 6.90271 6.76307
#
# Compressibility (1/GPa) = 0.01650454
#
# Stress axis : x y z
#
# Youngs Moduli (GPa) = 57.76103 113.97839 49.35656
#
# Poissons Ratio (x) = 0.40390 0.42534
# Poissons Ratio (y) = 0.20468 0.13622
# Poissons Ratio (z) = 0.49777 0.31457
#
# Static dielectric constant tensor:
#      x y z
#    x 4.237920 0.000000 0.000000 
#    y 0.000000 4.038210 0.000000 
#    z 0.000000 0.000000 4.170470 
# 
# 
# High freq. dielectric constant tensor:
#      x y z
#    x 1.913770 0.000000 0.000000 
#    y 0.000000 1.900000 0.000000 
#    z 0.000000 0.000000 1.897420 
# 
# From -- ./inp_files/26737.got.cif
#   From: 2010.03.12/outbox.cif.g09.slc.cpg/sg20_14_cif.got.tgz:26737.got - 2010.04.14 01:38:04.
