data_PCOD8160814
_publ_section_title
;
Structure prediction by ZEFSAII (Michael W. Deem and Ramdas Pophale) SiO2 
 PCOD8160814
Probable space group: C 2 2 2
;
_chemical_formula_sum "Si O2"
_cell_formula_units_Z 64
_cell_length_a 24.744796
_cell_length_b 15.127257
_cell_length_c 8.959254
_cell_angle_alpha 90.000000
_cell_angle_beta 90.000000
_cell_angle_gamma 90.000000
_cell_volume 3353.635918
_symmetry_space_group_name_H-M "C 2 2 2"
_symmetry_group_IT_number 21
_symmetry_cell_setting 'orthorhombic'
loop_
_space_group_symop_operation_xyz
x,y,z
-x,-y,z
x,-y,-z
-x,y,-z
1/2+x,1/2+y,z
1/2-x,1/2-y,z
1/2+x,1/2-y,-z
1/2-x,1/2+y,-z
loop_
_atom_site_type_symbol
_atom_site_label
_atom_site_fract_x
_atom_site_fract_y
_atom_site_fract_z
Si Si1 0.365006 0.092038 0.926848
Si Si2 0.441433 0.249999 0.927945
Si Si3 0.442615 0.249999 0.574413
Si Si4 0.750000 0.353551 0.103201
Si Si5 0.634993 0.592038 0.926848
Si Si6 0.249999 0.094863 0.570249
Si Si7 0.366246 0.094975 0.571756
Si Si8 0.366248 0.405025 0.571756
O O1 0.408399 0.164067 0.981812
O O2 0.304961 0.121171 0.984988
O O3 0.366746 0.084150 0.749203
O O4 0.381909 0.000000 0.000000
O O5 0.448037 0.249999 0.751013
O O6 0.408400 0.335932 0.981812
O O7 0.500000 0.249999 0.000000
O O8 0.500000 0.249995 0.500000
O O9 0.411494 0.162921 0.517308
O O10 0.411497 0.337080 0.517309
O O11 0.750000 0.250000 0.144963
O O12 0.695038 0.378829 0.015013
O O13 0.750000 0.412199 0.251641
O O14 0.633253 0.584149 0.749204
O O15 0.618090 0.500000 0.000000
O O16 0.307635 0.137375 0.521655
O O17 0.192363 0.137379 0.521659
O O18 0.249995 0.000000 0.500000
O O19 0.377981 0.000000 0.500000
O O20 0.377982 0.500000 0.500000
#
# Coordination Sequence:
#
# PCOD8160814 Si02
#       8
#     8   8   8   8   8   8   8   8
#     4  10  20  35  57  84 109 142 180 223 272 325
#     4  10  22  39  55  77 109 144 187 228 266 324
#     4  10  22  37  55  77 103 142 187 220 264 316
#     4  10  17  31  58  84 110 146 179 218 276 336
#     4  10  20  35  57  84 109 142 180 223 272 325
#     4   8  16  29  52  83 108 133 171 216 263 319
#     4   9  19  35  55  81 109 137 175 219 268 323
#     4   9  19  35  55  81 109 137 175 219 268 323
#
# _framework density 19.083763999999999
#
# number of rings (size 3 to 8) (size 9 to 14) (size 15 to 20)
#    0.000    2.500    1.250    0.375    5.250    3.000 
#    0.000    5.000    0.000    0.000    0.000    0.000 
#    0.000    0.000    0.000    0.000    0.000    0.000 
#
# Total GULP energy -396477.738801 kJ/mol
# GULP energy per Si atom -12389.929338 kJ/mol
# Density = 1.904033 g / cm^3
# Si number density = 19.083764 Si / 1000 Ang^3
#
#
#
# Elastic Constant Matrix: (Units=GPa)
#
#
# Indices 1 2 3 4 5 6 
#
# 1 207.2217 96.2962 33.4818 0.0000 0.0000 0.0000
# 2 96.2962 154.1364 38.7272 0.0000 0.0000 0.0000
# 3 33.4818 38.7272 23.8821 0.0000 0.0000 0.0000
# 4 0.0000 0.0000 0.0000 29.0939 0.0000 0.0000
# 5 0.0000 0.0000 0.0000 0.0000 27.9615 0.0000
# 6 0.0000 0.0000 0.0000 0.0000 0.0000 33.8104
#
#
#
# Elastic Compliance Matrix: (Units=1/GPa)
#
#
# Indices 1 2 3 4 5 6 
#
# 1 0.007094 -0.003262 -0.004655 0.000000 0.000000 0.000000
# 2 -0.003262 0.012449 -0.015613 0.000000 0.000000 0.000000
# 3 -0.004655 -0.015613 0.073718 0.000000 0.000000 0.000000
# 4 0.000000 0.000000 0.000000 0.034371 0.000000 0.000000
# 5 0.000000 0.000000 0.000000 0.000000 0.035763 0.000000
# 6 0.000000 0.000000 0.000000 0.000000 0.000000 0.029577
#
#
# Mechanical properties :
#
#
# Convention : Reuss Voigt Hill
#
# Bulk Modulus (GPa) = 21.64574 80.25006 50.94790
# Shear Modulus (GPa) = 19.57459 32.62217 26.09838
#
# Velocity S-wave (km/s) = 3.20616 4.13900 3.70208
# Velocity P-wave (km/s) = 5.00730 8.06130 6.71035
#
# Compressibility (1/GPa) = 0.04619846
#
# Stress axis : x y z
#
# Youngs Moduli (GPa) = 140.96629 80.32967 13.56526
#
# Poissons Ratio (x) = 0.26205 0.06315
# Poissons Ratio (y) = 0.45986 0.21180
# Poissons Ratio (z) = 0.65625 1.25421
#
# Static dielectric constant tensor:
#      x y z
#    x 3.986670 0.000000 0.000000 
#    y 0.000000 3.530690 0.000000 
#    z 0.000000 0.000000 3.136240 
# 
# 
# High freq. dielectric constant tensor:
#      x y z
#    x 1.760910 0.000000 0.000000 
#    y 0.000000 1.742920 0.000000 
#    z 0.000000 0.000000 1.705070 
# 
# From -- ./inp_files/18644.got.cif
#   From: 2010.03.12/outbox.cif.g09.slc.cpg/sg21_10_cif.got.tgz:18644.got - 2010.04.14 01:59:26.
