data_PCOD8160403
_publ_section_title
;
Structure prediction by ZEFSAII (Michael W. Deem and Ramdas Pophale) SiO2 
 PCOD8160403
Probable space group: C 2 2 21
;
_chemical_formula_sum "Si O2"
_cell_formula_units_Z 56
_cell_length_a 30.449081
_cell_length_b 14.109676
_cell_length_c 5.835598
_cell_angle_alpha 90.000000
_cell_angle_beta 90.000000
_cell_angle_gamma 90.000000
_cell_volume 2507.128521
_symmetry_space_group_name_H-M "C 2 2 21"
_symmetry_group_IT_number 20
_symmetry_cell_setting 'orthorhombic'
loop_
_space_group_symop_operation_xyz
x,y,z
-x,-y,1/2+z
x,-y,-z
-x,y,1/2-z
1/2+x,1/2+y,z
1/2-x,1/2-y,1/2+z
1/2+x,1/2-y,-z
1/2-x,1/2+y,1/2-z
loop_
_atom_site_type_symbol
_atom_site_label
_atom_site_fract_x
_atom_site_fract_y
_atom_site_fract_z
Si Si1 0.950453 0.031215 0.745463
Si Si2 0.046729 0.403402 0.136350
Si Si3 0.301232 0.219138 0.717378
Si Si4 0.324579 0.085264 0.335018
Si Si5 0.385861 0.847029 0.028376
Si Si6 0.048960 0.252996 0.775323
Si Si7 0.757738 0.100404 0.456224
O O1 0.950285 0.141951 0.699080
O O2 0.000000 0.989798 0.750000
O O3 0.927596 0.000000 0.500000
O O4 0.929615 0.000000 0.000000
O O5 0.087512 0.419274 0.309544
O O6 0.000000 0.377112 0.250000
O O7 0.039616 0.500000 0.000000
O O8 0.065541 0.313296 0.992942
O O9 0.313068 0.182061 0.465768
O O10 0.344646 0.210687 0.869961
O O11 0.260468 0.159053 0.823655
O O12 0.288078 0.329646 0.694630
O O13 0.335770 0.000000 0.500000
O O14 0.368111 0.093143 0.184473
O O15 0.283099 0.058607 0.183656
O O16 0.421664 0.771034 0.947487
O O17 0.000000 0.293396 0.750000
O O18 0.783765 0.000000 0.500000
#
# Coordination Sequence:
#
# PCOD8160403 Si02
#       7
#     8   8   8   8   8   8   8
#     4   9  20  37  67 102 127 165 234 307 372 437
#     4  12  27  47  68 100 145 195 253 305 371 441
#     4  11  23  42  70 103 145 179 238 289 352 438
#     4  11  23  43  68 105 137 184 238 292 354 434
#     4  11  27  44  67  99 146 189 243 302 362 434
#     4  11  23  43  71  96 135 190 239 306 369 433
#     4  11  22  41  74 106 139 186 230 285 357 436
#
# _framework density 22.336309
#
# number of rings (size 3 to 8) (size 9 to 14) (size 15 to 20)
#    0.000    1.143    4.286    1.286    2.000    4.000 
#    0.000    0.000    6.286    0.000    0.000    0.000 
#    0.000    0.000    0.000    0.000    0.000    0.000 
#
# Total GULP energy -346901.523487 kJ/mol
# GULP energy per Si atom -12389.340125 kJ/mol
# Density = 2.228547 g / cm^3
# Si number density = 22.336309 Si / 1000 Ang^3
#
#
#
# Elastic Constant Matrix: (Units=GPa)
#
#
# Indices 1 2 3 4 5 6 
#
# 1 89.5085 37.6179 31.9194 0.0000 0.0000 0.0000
# 2 37.6179 145.9481 53.4330 0.0000 0.0000 0.0000
# 3 31.9194 53.4330 135.9143 0.0000 0.0000 0.0000
# 4 0.0000 0.0000 0.0000 33.4372 0.0000 0.0000
# 5 0.0000 0.0000 0.0000 0.0000 30.0109 0.0000
# 6 0.0000 0.0000 0.0000 0.0000 0.0000 8.4772
#
#
#
# Elastic Compliance Matrix: (Units=1/GPa)
#
#
# Indices 1 2 3 4 5 6 
#
# 1 0.012990 -0.002606 -0.002026 0.000000 0.000000 0.000000
# 2 -0.002606 0.008527 -0.002740 0.000000 0.000000 0.000000
# 3 -0.002026 -0.002740 0.008911 0.000000 0.000000 0.000000
# 4 0.000000 0.000000 0.000000 0.029907 0.000000 0.000000
# 5 0.000000 0.000000 0.000000 0.000000 0.033321 0.000000
# 6 0.000000 0.000000 0.000000 0.000000 0.000000 0.117964
#
#
# Mechanical properties :
#
#
# Convention : Reuss Voigt Hill
#
# Bulk Modulus (GPa) = 63.76593 68.59018 66.17805
# Shear Modulus (GPa) = 21.58975 30.94508 26.26742
#
# Velocity S-wave (km/s) = 3.11235 3.72616 3.43300
# Velocity P-wave (km/s) = 6.44405 7.02046 6.73842
#
# Compressibility (1/GPa) = 0.01568236
#
# Stress axis : x y z
#
# Youngs Moduli (GPa) = 76.98215 117.27851 112.22578
#
# Poissons Ratio (x) = 0.30568 0.22737
# Poissons Ratio (y) = 0.20065 0.30750
# Poissons Ratio (z) = 0.15597 0.32135
#
# Static dielectric constant tensor:
#      x y z
#    x 3.889950 0.000000 0.000000 
#    y 0.000000 3.879780 0.000000 
#    z 0.000000 0.000000 4.620810 
# 
# 
# High freq. dielectric constant tensor:
#      x y z
#    x 1.856850 0.000000 0.000000 
#    y 0.000000 1.876800 0.000000 
#    z 0.000000 0.000000 1.896910 
# 
# From -- ./inp_files/4677.got.cif
#   From: 2010.03.12/outbox.cif.g09.slc.cpg/sg20_3_cif.got.tgz:4677.got - 2010.04.14 01:38:04.
