data_PCOD8160596
_publ_section_title
;
Structure prediction by ZEFSAII (Michael W. Deem and Ramdas Pophale) SiO2 
 PCOD8160596
Probable space group: C 2 2 21
;
_chemical_formula_sum "Si O2"
_cell_formula_units_Z 56
_cell_length_a 19.461702
_cell_length_b 14.272392
_cell_length_c 9.166156
_cell_angle_alpha 90.000000
_cell_angle_beta 90.000000
_cell_angle_gamma 90.000000
_cell_volume 2546.037687
_symmetry_space_group_name_H-M "C 2 2 21"
_symmetry_group_IT_number 20
_symmetry_cell_setting 'orthorhombic'
loop_
_space_group_symop_operation_xyz
x,y,z
-x,-y,1/2+z
x,-y,-z
-x,y,1/2-z
1/2+x,1/2+y,z
1/2-x,1/2-y,1/2+z
1/2+x,1/2-y,-z
1/2-x,1/2+y,1/2-z
loop_
_atom_site_type_symbol
_atom_site_label
_atom_site_fract_x
_atom_site_fract_y
_atom_site_fract_z
Si Si1 0.993045 0.088934 0.419275
Si Si2 0.795218 0.141437 0.733180
Si Si3 0.196066 0.525342 0.340607
Si Si4 0.066495 0.563247 0.143693
Si Si5 0.788304 0.195233 0.289054
Si Si6 0.608551 0.733314 0.972921
Si Si7 0.853936 0.103639 0.024865
O O1 0.952802 0.185632 0.438617
O O2 0.000000 0.064014 0.250000
O O3 0.065022 0.106944 0.499647
O O4 0.957440 0.000000 0.500000
O O5 0.744947 0.225680 0.686777
O O6 0.865511 0.155041 0.642710
O O7 0.758189 0.043033 0.705880
O O8 0.814537 0.162368 0.901692
O O9 0.166782 0.500000 0.500000
O O10 0.132854 0.521456 0.227367
O O11 0.229073 0.628197 0.352884
O O12 0.082994 0.669933 0.097942
O O13 0.000000 0.560712 0.250000
O O14 0.052517 0.500000 0.000000
O O15 0.829454 0.250311 0.414417
O O16 0.839427 0.136161 0.188469
O O17 0.825093 0.000000 0.000000
#
# Coordination Sequence:
#
# PCOD8160596 Si02
#       7
#     8   8   8   8   8   8   8
#     4  11  27  45  70 104 147 191 235 294 372 450
#     4  12  26  42  73 107 145 190 243 305 368 436
#     4  12  26  46  76 109 153 192 243 314 373 452
#     4  12  30  56  80 107 149 205 263 315 375 449
#     4  12  24  45  69 110 142 189 246 293 377 428
#     4  12  27  46  74 108 146 190 247 306 367 446
#     4  11  25  43  69 102 146 192 239 293 369 445
#
# _framework density 21.994962999999998
#
# number of rings (size 3 to 8) (size 9 to 14) (size 15 to 20)
#    0.000    0.286    5.714    2.143   10.000    0.571 
#    2.571    0.000    0.000    0.000    0.000    0.000 
#    0.000    0.000    0.000    0.000    0.000    0.000 
#
# Total GULP energy -347164.001999 kJ/mol
# GULP energy per Si atom -12398.714357 kJ/mol
# Density = 2.194490 g / cm^3
# Si number density = 21.994963 Si / 1000 Ang^3
#
#
#
# Elastic Constant Matrix: (Units=GPa)
#
#
# Indices 1 2 3 4 5 6 
#
# 1 92.6450 45.8255 47.4147 0.0000 0.0000 0.0000
# 2 45.8255 109.2590 41.5005 0.0000 0.0000 0.0000
# 3 47.4147 41.5005 139.5152 0.0000 0.0000 0.0000
# 4 0.0000 0.0000 0.0000 38.2884 0.0000 0.0000
# 5 0.0000 0.0000 0.0000 0.0000 40.2813 0.0000
# 6 0.0000 0.0000 0.0000 0.0000 0.0000 35.0838
#
#
#
# Elastic Compliance Matrix: (Units=1/GPa)
#
#
# Indices 1 2 3 4 5 6 
#
# 1 0.015118 -0.004948 -0.003666 0.000000 0.000000 0.000000
# 2 -0.004948 0.011938 -0.001869 0.000000 0.000000 0.000000
# 3 -0.003666 -0.001869 0.008970 0.000000 0.000000 0.000000
# 4 0.000000 0.000000 0.000000 0.026118 0.000000 0.000000
# 5 0.000000 0.000000 0.000000 0.000000 0.024825 0.000000
# 6 0.000000 0.000000 0.000000 0.000000 0.000000 0.028503
#
#
# Mechanical properties :
#
#
# Convention : Reuss Voigt Hill
#
# Bulk Modulus (GPa) = 66.40895 67.87786 67.14340
# Shear Modulus (GPa) = 35.34622 36.50928 35.92775
#
# Velocity S-wave (km/s) = 4.01311 4.07860 4.04599
# Velocity P-wave (km/s) = 7.19248 7.28749 7.24014
#
# Compressibility (1/GPa) = 0.01505821
#
# Stress axis : x y z
#
# Youngs Moduli (GPa) = 66.14806 83.76586 111.48740
#
# Poissons Ratio (x) = 0.41449 0.40870
# Poissons Ratio (y) = 0.32731 0.20842
# Poissons Ratio (z) = 0.24249 0.15660
#
# Static dielectric constant tensor:
#      x y z
#    x 3.933880 0.000000 0.000000 
#    y 0.000000 3.887300 0.000000 
#    z 0.000000 0.000000 4.078280 
# 
# 
# High freq. dielectric constant tensor:
#      x y z
#    x 1.867440 0.000000 0.000000 
#    y 0.000000 1.867940 0.000000 
#    z 0.000000 0.000000 1.880430 
# 
# From -- ./inp_files/10232.got.cif
#   From: 2010.03.12/outbox.cif.g09.slc.cpg/sg20_6_cif.got.tgz:10232.got - 2010.04.14 01:38:04.
