data_PCOD8160060
_publ_section_title
;
Structure prediction by ZEFSAII (Michael W. Deem and Ramdas Pophale) SiO2 
 PCOD8160060
Probable space group: C 2 2 21
;
_chemical_formula_sum "Si O2"
_cell_formula_units_Z 48
_cell_length_a 10.318025
_cell_length_b 9.019843
_cell_length_c 23.605981
_cell_angle_alpha 90.000000
_cell_angle_beta 90.000000
_cell_angle_gamma 90.000000
_cell_volume 2196.937021
_symmetry_space_group_name_H-M "C 2 2 21"
_symmetry_group_IT_number 20
_symmetry_cell_setting 'orthorhombic'
loop_
_space_group_symop_operation_xyz
x,y,z
-x,-y,1/2+z
x,-y,-z
-x,y,1/2-z
1/2+x,1/2+y,z
1/2-x,1/2-y,1/2+z
1/2+x,1/2-y,-z
1/2-x,1/2+y,1/2-z
loop_
_atom_site_type_symbol
_atom_site_label
_atom_site_fract_x
_atom_site_fract_y
_atom_site_fract_z
Si Si1 0.729211 0.225526 0.322387
Si Si2 0.349292 0.136412 0.465981
Si Si3 0.099354 0.531263 0.402388
Si Si4 0.641801 0.654897 0.070012
Si Si5 0.139539 0.027429 0.270523
Si Si6 0.382281 0.693790 0.115140
O O1 0.600472 0.144033 0.348127
O O2 0.822824 0.262938 0.376259
O O3 0.788240 0.101748 0.281554
O O4 0.709020 0.377599 0.289888
O O5 0.492617 0.092182 0.445475
O O6 0.362708 0.272441 0.508624
O O7 0.256002 0.175259 0.414332
O O8 0.286465 0.000000 0.500000
O O9 0.244573 0.530567 0.431035
O O10 0.068930 0.363447 0.385578
O O11 0.495472 0.596484 0.083836
O O12 0.132908 0.146007 0.320473
O O13 0.000000 0.976636 0.250000
#
# Coordination Sequence:
#
# PCOD8160060 Si02
#       6
#     8   8   8   8   8   8
#     4  10  25  46  70 102 139 181 237 287 353 417
#     4  12  24  43  72 103 144 187 231 284 355 423
#     4  10  25  46  67 105 141 181 239 286 351 421
#     4  10  23  46  67 103 141 179 234 285 345 420
#     4  12  24  46  70 102 142 182 236 294 354 420
#     4  12  25  45  74 100 144 186 232 292 349 419
#
# _framework density 21.848599
#
# number of rings (size 3 to 8) (size 9 to 14) (size 15 to 20)
#    1.000    0.000    3.333    3.000    0.000    4.000 
#    3.000    0.000    0.000    0.000    0.000    0.000 
#    0.000    0.000    0.000    0.000    0.000    0.000 
#
# Total GULP energy -297393.521404 kJ/mol
# GULP energy per Si atom -12391.396725 kJ/mol
# Density = 2.179887 g / cm^3
# Si number density = 21.848599 Si / 1000 Ang^3
#
#
#
# Elastic Constant Matrix: (Units=GPa)
#
#
# Indices 1 2 3 4 5 6 
#
# 1 112.1979 25.4377 36.9532 0.0000 0.0000 0.0000
# 2 25.4377 77.6282 19.3528 0.0000 0.0000 0.0000
# 3 36.9532 19.3528 94.5292 0.0000 0.0000 0.0000
# 4 0.0000 0.0000 0.0000 65.6911 0.0000 0.0000
# 5 0.0000 0.0000 0.0000 0.0000 35.9525 0.0000
# 6 0.0000 0.0000 0.0000 0.0000 0.0000 21.1892
#
#
#
# Elastic Compliance Matrix: (Units=1/GPa)
#
#
# Indices 1 2 3 4 5 6 
#
# 1 0.010705 -0.002597 -0.003653 0.000000 0.000000 0.000000
# 2 -0.002597 0.014205 -0.001893 0.000000 0.000000 0.000000
# 3 -0.003653 -0.001893 0.012394 0.000000 0.000000 0.000000
# 4 0.000000 0.000000 0.000000 0.015223 0.000000 0.000000
# 5 0.000000 0.000000 0.000000 0.000000 0.027815 0.000000
# 6 0.000000 0.000000 0.000000 0.000000 0.000000 0.047194
#
#
# Mechanical properties :
#
#
# Convention : Reuss Voigt Hill
#
# Bulk Modulus (GPa) = 47.57838 49.76031 48.66935
# Shear Modulus (GPa) = 33.15055 38.07399 35.61227
#
# Velocity S-wave (km/s) = 3.89946 4.17901 4.04165
# Velocity P-wave (km/s) = 6.48830 6.79043 6.64109
#
# Compressibility (1/GPa) = 0.02101795
#
# Stress axis : x y z
#
# Youngs Moduli (GPa) = 93.41616 70.39848 80.68232
#
# Poissons Ratio (x) = 0.18283 0.29473
# Poissons Ratio (y) = 0.24261 0.15272
# Poissons Ratio (z) = 0.34125 0.13326
#
# Static dielectric constant tensor:
#      x y z
#    x 4.009700 0.000000 0.000000 
#    y 0.000000 3.752090 0.000000 
#    z 0.000000 0.000000 4.066980 
# 
# 
# High freq. dielectric constant tensor:
#      x y z
#    x 1.864370 0.000000 0.000000 
#    y 0.000000 1.843960 0.000000 
#    z 0.000000 0.000000 1.873230 
# 
# From -- ./inp_files/29080.got.cif
#   From: 2010.03.12/outbox.cif.g09.slc.cpg/sg20_15_cif.got.tgz:29080.got - 2010.04.14 01:38:04.
