data_PCOD8160752
_publ_section_title
;
Structure prediction by ZEFSAII (Michael W. Deem and Ramdas Pophale) SiO2 
 PCOD8160752
Probable space group: C 2 2 21
;
_chemical_formula_sum "Si O2"
_cell_formula_units_Z 24
_cell_length_a 16.068177
_cell_length_b 7.656726
_cell_length_c 7.621404
_cell_angle_alpha 90.000000
_cell_angle_beta 90.000000
_cell_angle_gamma 90.000000
_cell_volume 937.658504
_symmetry_space_group_name_H-M "C 2 2 21"
_symmetry_group_IT_number 20
_symmetry_cell_setting 'orthorhombic'
loop_
_space_group_symop_operation_xyz
x,y,z
-x,-y,1/2+z
x,-y,-z
-x,y,1/2-z
1/2+x,1/2+y,z
1/2-x,1/2-y,1/2+z
1/2+x,1/2-y,-z
1/2-x,1/2+y,1/2-z
loop_
_atom_site_type_symbol
_atom_site_label
_atom_site_fract_x
_atom_site_fract_y
_atom_site_fract_z
Si Si1 0.665719 0.587618 0.819209
Si Si2 0.500000 0.225479 0.750000
Si Si3 0.944999 0.000000 0.000000
Si Si4 0.159420 0.512484 0.197721
O O1 0.613088 0.494317 0.670320
O O2 0.764557 0.558838 0.813268
O O3 0.640868 0.785139 0.776228
O O4 0.634748 0.500000 0.000000
O O5 0.498593 0.334376 0.562529
O O6 0.420133 0.100797 0.746910
O O7 0.189731 0.500000 0.000000
#
# Coordination Sequence:
#
# PCOD8160752 Si02
#       4
#     8   4   4   8
#     4  12  28  54  86 116 161 218 276 337 406 500
#     4  12  32  50  84 120 168 220 264 358 406 488
#     4  12  30  56  76 122 160 218 276 336 418 480
#     4  12  28  51  80 123 162 214 275 338 417 482
#
# _framework density 25.595673999999999
#
# number of rings (size 3 to 8) (size 9 to 14) (size 15 to 20)
#    0.000    0.000    1.667    6.000   16.333    0.000 
#    0.000    0.000    0.000    0.000    0.000    0.000 
#    0.000    0.000    0.000    0.000    0.000    0.000 
#
# Total GULP energy -148674.697636 kJ/mol
# GULP energy per Si atom -12389.558136 kJ/mol
# Density = 2.553742 g / cm^3
# Si number density = 25.595674 Si / 1000 Ang^3
#
#
#
# Elastic Constant Matrix: (Units=GPa)
#
#
# Indices 1 2 3 4 5 6 
#
# 1 158.6580 81.2552 48.4495 0.0000 0.0000 0.0000
# 2 81.2552 193.9940 47.0107 0.0000 0.0000 0.0000
# 3 48.4495 47.0107 162.1150 0.0000 0.0000 0.0000
# 4 0.0000 0.0000 0.0000 31.3078 0.0000 0.0000
# 5 0.0000 0.0000 0.0000 0.0000 21.5346 0.0000
# 6 0.0000 0.0000 0.0000 0.0000 0.0000 49.2410
#
#
#
# Elastic Compliance Matrix: (Units=1/GPa)
#
#
# Indices 1 2 3 4 5 6 
#
# 1 0.008394 -0.003128 -0.001602 0.000000 0.000000 0.000000
# 2 -0.003128 0.006710 -0.001011 0.000000 0.000000 0.000000
# 3 -0.001602 -0.001011 0.006940 0.000000 0.000000 0.000000
# 4 0.000000 0.000000 0.000000 0.031941 0.000000 0.000000
# 5 0.000000 0.000000 0.000000 0.000000 0.046437 0.000000
# 6 0.000000 0.000000 0.000000 0.000000 0.000000 0.020308
#
#
# Mechanical properties :
#
#
# Convention : Reuss Voigt Hill
#
# Bulk Modulus (GPa) = 94.66670 96.46641 95.56655
# Shear Modulus (GPa) = 36.83740 42.95345 39.89543
#
# Velocity S-wave (km/s) = 3.79780 4.10097 3.95229
# Velocity P-wave (km/s) = 7.50312 7.75850 7.63188
#
# Compressibility (1/GPa) = 0.01056338
#
# Stress axis : x y z
#
# Youngs Moduli (GPa) = 119.13659 149.03523 144.08635
#
# Poissons Ratio (x) = 0.46613 0.23077
# Poissons Ratio (y) = 0.37262 0.14567
# Poissons Ratio (z) = 0.19081 0.15068
#
# Static dielectric constant tensor:
#      x y z
#    x 4.674830 0.000000 0.000000 
#    y 0.000000 5.284880 0.000000 
#    z 0.000000 0.000000 4.431720 
# 
# 
# High freq. dielectric constant tensor:
#      x y z
#    x 2.053550 0.000000 0.000000 
#    y 0.000000 2.036550 0.000000 
#    z 0.000000 0.000000 2.026230 
# 
# From -- ./inp_files/7752.got.cif
#   From: 2010.03.12/outbox.cif.g09.slc.cpg/sg20_4_cif.got.tgz:7752.got - 2010.04.14 01:38:04.
