data_PCOD8161447
_publ_section_title
;
Structure prediction by ZEFSAII (Michael W. Deem and Ramdas Pophale) SiO2 
 PCOD8161447
Probable space group: C 2 2 2
;
_chemical_formula_sum "Si O2"
_cell_formula_units_Z 48
_cell_length_a 8.840277
_cell_length_b 16.853492
_cell_length_c 16.738088
_cell_angle_alpha 90.000000
_cell_angle_beta 90.000000
_cell_angle_gamma 90.000000
_cell_volume 2493.799993
_symmetry_space_group_name_H-M "C 2 2 2"
_symmetry_group_IT_number 21
_symmetry_cell_setting 'orthorhombic'
loop_
_space_group_symop_operation_xyz
x,y,z
-x,-y,z
x,-y,-z
-x,y,-z
1/2+x,1/2+y,z
1/2-x,1/2-y,z
1/2+x,1/2-y,-z
1/2-x,1/2+y,-z
loop_
_atom_site_type_symbol
_atom_site_label
_atom_site_fract_x
_atom_site_fract_y
_atom_site_fract_z
Si Si1 0.180732 0.331370 0.356549
Si Si2 0.196148 0.661909 0.825785
Si Si3 0.098278 0.576907 0.198360
Si Si4 0.167118 0.092445 0.498742
Si Si5 0.827036 0.333642 0.349315
Si Si6 0.670623 0.487872 0.906338
O O1 0.250000 0.250000 0.387042
O O2 0.236422 0.352977 0.267235
O O3 0.242689 0.396493 0.416568
O O4 0.002957 0.321617 0.363518
O O5 0.250000 0.750000 0.851573
O O6 0.285030 0.601133 0.881921
O O7 0.014928 0.645829 0.835388
O O8 0.194188 0.608175 0.273677
O O9 0.218719 0.553354 0.131380
O O10 0.000000 0.500000 0.224608
O O11 0.257990 0.126740 0.572909
O O12 0.000000 0.132205 0.500000
O O13 0.148130 0.000000 0.500000
O O14 0.750000 0.250000 0.329679
O O15 0.500000 0.500000 0.876394
O O16 0.685308 0.500000 0.000000
#
# Coordination Sequence:
#
# PCOD8161447 Si02
#       6
#     8   8   8   8   8   8
#     4  10  21  39  60  82 115 152 195 245 299 343
#     4   9  20  39  63  89 118 155 199 244 297 354
#     4   9  21  39  63  89 118 156 202 237 300 357
#     4  11  25  38  54  82 117 157 203 244 295 348
#     4  11  23  38  60  86 117 153 198 247 295 350
#     4  10  22  40  61  90 124 158 194 241 296 354
#
# _framework density 19.247736
#
# number of rings (size 3 to 8) (size 9 to 14) (size 15 to 20)
#    0.000    2.000    0.000    2.000    7.000    9.000 
#    0.000    4.167    0.000    0.000    0.000    0.000 
#    0.000    0.000    0.000    0.000    0.000    0.000 
#
# Total GULP energy -297566.633325 kJ/mol
# GULP energy per Si atom -12398.609722 kJ/mol
# Density = 1.920393 g / cm^3
# Si number density = 19.247736 Si / 1000 Ang^3
#
#
#
# Elastic Constant Matrix: (Units=GPa)
#
#
# Indices 1 2 3 4 5 6 
#
# 1 118.8413 57.3572 60.2359 0.0000 0.0000 0.0000
# 2 57.3572 109.2395 57.7241 0.0000 0.0000 0.0000
# 3 60.2359 57.7241 101.3845 0.0000 0.0000 0.0000
# 4 0.0000 0.0000 0.0000 24.1029 0.0000 0.0000
# 5 0.0000 0.0000 0.0000 0.0000 33.6961 0.0000
# 6 0.0000 0.0000 0.0000 0.0000 0.0000 21.5273
#
#
#
# Elastic Compliance Matrix: (Units=1/GPa)
#
#
# Indices 1 2 3 4 5 6 
#
# 1 0.013142 -0.003968 -0.005549 0.000000 0.000000 0.000000
# 2 -0.003968 0.014292 -0.005779 0.000000 0.000000 0.000000
# 3 -0.005549 -0.005779 0.016451 0.000000 0.000000 0.000000
# 4 0.000000 0.000000 0.000000 0.041489 0.000000 0.000000
# 5 0.000000 0.000000 0.000000 0.000000 0.029677 0.000000
# 6 0.000000 0.000000 0.000000 0.000000 0.000000 0.046453
#
#
# Mechanical properties :
#
#
# Convention : Reuss Voigt Hill
#
# Bulk Modulus (GPa) = 75.23559 75.56663 75.40111
# Shear Modulus (GPa) = 25.44177 26.14180 25.79178
#
# Velocity S-wave (km/s) = 3.63961 3.68934 3.66456
# Velocity P-wave (km/s) = 7.53891 7.58245 7.56071
#
# Compressibility (1/GPa) = 0.01329158
#
# Stress axis : x y z
#
# Youngs Moduli (GPa) = 76.08971 69.97038 60.78755
#
# Poissons Ratio (x) = 0.27767 0.33730
# Poissons Ratio (y) = 0.30195 0.35131
# Poissons Ratio (z) = 0.42221 0.40438
#
# Static dielectric constant tensor:
#      x y z
#    x 3.835300 0.000000 0.000000 
#    y 0.000000 3.580920 0.000000 
#    z 0.000000 0.000000 3.461620 
# 
# 
# High freq. dielectric constant tensor:
#      x y z
#    x 1.761200 0.000000 0.000000 
#    y 0.000000 1.751790 0.000000 
#    z 0.000000 0.000000 1.744790 
# 
# From -- ./inp_files/35772.got.cif
#   From: 2010.03.12/outbox.cif.g09.slc.cpg/sg21_18_cif.got.tgz:35772.got - 2010.04.14 01:59:26.
