data_PCOD8161424
_publ_section_title
;
Structure prediction by ZEFSAII (Michael W. Deem and Ramdas Pophale) SiO2 
 PCOD8161424
Probable space group: C 2 2 2
;
_chemical_formula_sum "Si O2"
_cell_formula_units_Z 28
_cell_length_a 22.011644
_cell_length_b 4.981392
_cell_length_c 13.055739
_cell_angle_alpha 90.000000
_cell_angle_beta 90.000000
_cell_angle_gamma 90.000000
_cell_volume 1431.543860
_symmetry_space_group_name_H-M "C 2 2 2"
_symmetry_group_IT_number 21
_symmetry_cell_setting 'orthorhombic'
loop_
_space_group_symop_operation_xyz
x,y,z
-x,-y,z
x,-y,-z
-x,y,-z
1/2+x,1/2+y,z
1/2-x,1/2-y,z
1/2+x,1/2-y,-z
1/2-x,1/2+y,-z
loop_
_atom_site_type_symbol
_atom_site_label
_atom_site_fract_x
_atom_site_fract_y
_atom_site_fract_z
Si Si1 0.136385 0.922734 0.808388
Si Si2 0.750000 0.750000 0.063727
Si Si3 0.792120 0.999476 0.616053
Si Si4 0.429901 0.062085 0.883598
O O1 0.199084 0.902116 0.870376
O O2 0.106110 0.631224 0.806935
O O3 0.150161 0.005545 0.691400
O O4 0.089370 0.132746 0.859276
O O5 0.779082 0.500000 0.000000
O O6 0.750000 0.750000 0.639232
O O7 0.817294 0.000000 0.500000
O O8 0.750000 0.250000 0.639852
O O9 0.500000 0.000000 0.864445
O O10 0.411828 0.000000 0.000000
#
# Coordination Sequence:
#
# PCOD8161424 Si02
#       4
#     8   4   8   8
#     4  12  22  38  61  85 119 153 192 244 291 347
#     4  12  24  34  54  90 128 152 182 236 310 360
#     4  10  21  38  59  86 118 151 189 231 290 361
#     4  11  24  41  59  82 115 162 207 236 275 341
#
# _framework density 19.559301999999999
#
# number of rings (size 3 to 8) (size 9 to 14) (size 15 to 20)
#    0.000    0.857    1.429    7.714    2.000    2.286 
#    0.000    0.000    0.000    5.143    0.000    0.000 
#    0.000    0.000    0.000    0.000    0.000    0.000 
#
# Total GULP energy -173628.423339 kJ/mol
# GULP energy per Si atom -12402.030238 kJ/mol
# Density = 1.951478 g / cm^3
# Si number density = 19.559302 Si / 1000 Ang^3
#
#
#
# Elastic Constant Matrix: (Units=GPa)
#
#
# Indices 1 2 3 4 5 6 
#
# 1 94.0119 26.8942 41.2054 0.0000 0.0000 0.0000
# 2 26.8942 113.6208 22.5366 0.0000 0.0000 0.0000
# 3 41.2054 22.5366 110.5543 0.0000 0.0000 0.0000
# 4 0.0000 0.0000 0.0000 30.5198 0.0000 0.0000
# 5 0.0000 0.0000 0.0000 0.0000 23.9442 0.0000
# 6 0.0000 0.0000 0.0000 0.0000 0.0000 49.8375
#
#
#
# Elastic Compliance Matrix: (Units=1/GPa)
#
#
# Indices 1 2 3 4 5 6 
#
# 1 0.013242 -0.002246 -0.004478 0.000000 0.000000 0.000000
# 2 -0.002246 0.009553 -0.001110 0.000000 0.000000 0.000000
# 3 -0.004478 -0.001110 0.010941 0.000000 0.000000 0.000000
# 4 0.000000 0.000000 0.000000 0.032766 0.000000 0.000000
# 5 0.000000 0.000000 0.000000 0.000000 0.041764 0.000000
# 6 0.000000 0.000000 0.000000 0.000000 0.000000 0.020065
#
#
# Mechanical properties :
#
#
# Convention : Reuss Voigt Hill
#
# Bulk Modulus (GPa) = 55.34793 55.49548 55.42171
# Shear Modulus (GPa) = 33.32865 36.03035 34.67950
#
# Velocity S-wave (km/s) = 4.13241 4.29663 4.21532
# Velocity P-wave (km/s) = 7.15038 7.28349 7.21725
#
# Compressibility (1/GPa) = 0.01806752
#
# Stress axis : x y z
#
# Youngs Moduli (GPa) = 75.51669 104.67797 91.40324
#
# Poissons Ratio (x) = 0.23514 0.40927
# Poissons Ratio (y) = 0.16963 0.10147
# Poissons Ratio (z) = 0.33814 0.11621
#
# Static dielectric constant tensor:
#      x y z
#    x 3.403020 0.000000 0.000000 
#    y 0.000000 3.766310 0.000000 
#    z 0.000000 0.000000 3.576040 
# 
# 
# High freq. dielectric constant tensor:
#      x y z
#    x 1.745720 0.000000 0.000000 
#    y 0.000000 1.787990 0.000000 
#    z 0.000000 0.000000 1.751520 
# 
# From -- ./inp_files/26396.got.cif
#   From: 2010.03.12/outbox.cif.g09.slc.cpg/sg21_14_cif.got.tgz:26396.got - 2010.04.14 01:59:26.
