data_PCOD8161386
_publ_section_title
;
Structure prediction by ZEFSAII (Michael W. Deem and Ramdas Pophale) SiO2 
 PCOD8161386
Probable space group: C 2 2 2
;
_chemical_formula_sum "Si O2"
_cell_formula_units_Z 64
_cell_length_a 15.988915
_cell_length_b 36.475170
_cell_length_c 5.201032
_cell_angle_alpha 90.000000
_cell_angle_beta 90.000000
_cell_angle_gamma 90.000000
_cell_volume 3033.233503
_symmetry_space_group_name_H-M "C 2 2 2"
_symmetry_group_IT_number 21
_symmetry_cell_setting 'orthorhombic'
loop_
_space_group_symop_operation_xyz
x,y,z
-x,-y,z
x,-y,-z
-x,y,-z
1/2+x,1/2+y,z
1/2-x,1/2-y,z
1/2+x,1/2-y,-z
1/2-x,1/2+y,-z
loop_
_atom_site_type_symbol
_atom_site_label
_atom_site_fract_x
_atom_site_fract_y
_atom_site_fract_z
Si Si1 0.462984 0.458551 0.752431
Si Si2 0.304013 0.340195 0.831150
Si Si3 0.099153 0.266447 0.474594
Si Si4 0.700329 0.835171 0.331208
Si Si5 0.792331 0.076200 0.159005
Si Si6 0.812719 0.417844 0.658542
Si Si7 0.906104 0.515514 0.251616
Si Si8 0.402158 0.726875 0.025263
O O1 0.500000 0.500000 0.751604
O O2 0.500000 0.438573 0.500000
O O3 0.362706 0.454339 0.772654
O O4 0.500000 0.437699 0.000000
O O5 0.272953 0.331177 0.543820
O O6 0.331193 0.382709 0.839362
O O7 0.383450 0.315190 0.901638
O O8 0.233971 0.329481 0.042651
O O9 0.126904 0.307274 0.401067
O O10 0.135844 0.252779 0.748044
O O11 0.000000 0.265895 0.500000
O O12 0.134972 0.239460 0.250363
O O13 0.660611 0.875704 0.336171
O O14 0.721182 0.072442 0.375468
O O15 0.755431 0.070326 0.873769
O O16 0.897667 0.440529 0.725304
O O17 0.857700 0.500000 0.500000
O O18 0.000000 0.500000 0.249599
O O19 0.859220 0.500000 0.000000
O O20 0.500000 0.731930 0.000000
#
# Coordination Sequence:
#
# PCOD8161386 Si02
#       8
#     8   8   8   8   8   8   8   8
#     4  10  21  39  56  82 114 148 188 237 286 344
#     4  10  21  36  58  86 112 151 195 238 289 340
#     4  10  21  37  55  82 118 154 192 236 286 338
#     4  10  21  37  59  83 116 149 194 239 284 343
#     4  10  21  39  60  84 121 153 195 244 293 353
#     4  10  21  40  60  88 117 154 193 239 295 347
#     4  10  21  40  61  87 121 147 189 245 285 352
#     4  10  21  36  55  82 119 152 194 238 285 342
#
# _framework density 21.099595999999998
#
# number of rings (size 3 to 8) (size 9 to 14) (size 15 to 20)
#    0.000    2.000    0.000    3.000    0.000    3.500 
#   15.750    1.875    5.500    0.000    0.000    0.000 
#    0.000    0.000    0.000    0.000    0.000    0.000 
#
# Total GULP energy -396480.759259 kJ/mol
# GULP energy per Si atom -12390.023727 kJ/mol
# Density = 2.105157 g / cm^3
# Si number density = 21.099596 Si / 1000 Ang^3
#
#
#
# Elastic Constant Matrix: (Units=GPa)
#
#
# Indices 1 2 3 4 5 6 
#
# 1 40.4009 41.1428 18.8093 0.0000 0.0000 0.0000
# 2 41.1428 123.4269 36.7063 0.0000 0.0000 0.0000
# 3 18.8093 36.7063 166.6225 0.0000 0.0000 0.0000
# 4 0.0000 0.0000 0.0000 30.5324 0.0000 0.0000
# 5 0.0000 0.0000 0.0000 0.0000 17.5371 0.0000
# 6 0.0000 0.0000 0.0000 0.0000 0.0000 41.7282
#
#
#
# Elastic Compliance Matrix: (Units=1/GPa)
#
#
# Indices 1 2 3 4 5 6 
#
# 1 0.037866 -0.012147 -0.001599 0.000000 0.000000 0.000000
# 2 -0.012147 0.012566 -0.001397 0.000000 0.000000 0.000000
# 3 -0.001599 -0.001397 0.006490 0.000000 0.000000 0.000000
# 4 0.000000 0.000000 0.000000 0.032752 0.000000 0.000000
# 5 0.000000 0.000000 0.000000 0.000000 0.057022 0.000000
# 6 0.000000 0.000000 0.000000 0.000000 0.000000 0.023965
#
#
# Mechanical properties :
#
#
# Convention : Reuss Voigt Hill
#
# Bulk Modulus (GPa) = 37.54148 58.19634 47.86891
# Shear Modulus (GPa) = 23.82941 33.54568 28.68755
#
# Velocity S-wave (km/s) = 3.36427 3.99165 3.69131
# Velocity P-wave (km/s) = 5.73779 6.99185 6.39563
#
# Compressibility (1/GPa) = 0.02663720
#
# Stress axis : x y z
#
# Youngs Moduli (GPa) = 26.40897 79.57730 154.08701
#
# Poissons Ratio (x) = 0.96660 0.24633
# Poissons Ratio (y) = 0.32078 0.21528
# Poissons Ratio (z) = 0.04222 0.11118
#
# Static dielectric constant tensor:
#      x y z
#    x 3.270450 0.000000 0.000000 
#    y 0.000000 3.838210 0.000000 
#    z 0.000000 0.000000 4.830140 
# 
# 
# High freq. dielectric constant tensor:
#      x y z
#    x 1.785950 0.000000 0.000000 
#    y 0.000000 1.821200 0.000000 
#    z 0.000000 0.000000 1.866550 
# 
# From -- ./inp_files/5395.got.cif
#   From: 2010.03.12/outbox.cif.g09.slc.cpg/sg21_3_cif.got.tgz:5395.got - 2010.04.14 01:59:26.
