data_PCOD8161329
_publ_section_title
;
Structure prediction by ZEFSAII (Michael W. Deem and Ramdas Pophale) SiO2 
 PCOD8161329
Probable space group: C 2 2 2
;
_chemical_formula_sum "Si O2"
_cell_formula_units_Z 40
_cell_length_a 20.660498
_cell_length_b 13.864128
_cell_length_c 5.907719
_cell_angle_alpha 90.000000
_cell_angle_beta 90.000000
_cell_angle_gamma 90.000000
_cell_volume 1692.205783
_symmetry_space_group_name_H-M "C 2 2 2"
_symmetry_group_IT_number 21
_symmetry_cell_setting 'orthorhombic'
loop_
_space_group_symop_operation_xyz
x,y,z
-x,-y,z
x,-y,-z
-x,y,-z
1/2+x,1/2+y,z
1/2-x,1/2-y,z
1/2+x,1/2-y,-z
1/2-x,1/2+y,-z
loop_
_atom_site_type_symbol
_atom_site_label
_atom_site_fract_x
_atom_site_fract_y
_atom_site_fract_z
Si Si1 0.837152 0.765791 0.293379
Si Si2 0.730372 0.399198 0.390726
Si Si3 0.895640 0.896556 0.923327
Si Si4 0.347415 0.110986 0.931964
Si Si5 0.060441 0.728258 0.343100
O O1 0.776255 0.821941 0.404984
O O2 0.878517 0.727886 0.498486
O O3 0.878653 0.842331 0.152493
O O4 0.820079 0.673409 0.141161
O O5 0.745921 0.500000 0.500000
O O6 0.667977 0.408452 0.230363
O O7 0.793315 0.368100 0.254371
O O8 0.948553 0.832809 0.781809
O O9 0.924515 0.000000 0.000000
O O10 0.418613 0.148441 0.846820
O O11 0.353953 0.000000 0.000000
O O12 0.000000 0.698746 0.500000
#
# Coordination Sequence:
#
# PCOD8161329 Si02
#       5
#     8   8   8   8   8
#     4  10  24  45  68  98 142 179 232 286 367 412
#     4  11  23  41  70 101 144 181 225 292 356 445
#     4  10  20  40  70 105 140 182 226 279 363 428
#     4  11  27  45  68 105 142 189 245 291 361 432
#     4  10  25  47  71  96 139 188 246 299 344 412
#
# _framework density 23.637786999999999
#
# number of rings (size 3 to 8) (size 9 to 14) (size 15 to 20)
#    0.000    1.600    2.000    0.600    2.800   12.000 
#    0.000    6.000    0.000    0.000    0.000    0.000 
#    0.000    0.000    0.000    0.000    0.000    0.000 
#
# Total GULP energy -247876.911093 kJ/mol
# GULP energy per Si atom -12393.845555 kJ/mol
# Density = 2.358399 g / cm^3
# Si number density = 23.637787 Si / 1000 Ang^3
#
#
#
# Elastic Constant Matrix: (Units=GPa)
#
#
# Indices 1 2 3 4 5 6 
#
# 1 70.7707 50.6341 36.7078 0.0000 0.0000 0.0000
# 2 50.6341 193.2329 81.9075 0.0000 0.0000 0.0000
# 3 36.7078 81.9075 117.8697 0.0000 0.0000 0.0000
# 4 0.0000 0.0000 0.0000 52.7845 0.0000 0.0000
# 5 0.0000 0.0000 0.0000 0.0000 42.7096 0.0000
# 6 0.0000 0.0000 0.0000 0.0000 0.0000 20.3953
#
#
#
# Elastic Compliance Matrix: (Units=1/GPa)
#
#
# Indices 1 2 3 4 5 6 
#
# 1 0.018279 -0.003369 -0.003351 0.000000 0.000000 0.000000
# 2 -0.003369 0.007957 -0.004480 0.000000 0.000000 0.000000
# 3 -0.003351 -0.004480 0.012641 0.000000 0.000000 0.000000
# 4 0.000000 0.000000 0.000000 0.018945 0.000000 0.000000
# 5 0.000000 0.000000 0.000000 0.000000 0.023414 0.000000
# 6 0.000000 0.000000 0.000000 0.000000 0.000000 0.049031
#
#
# Mechanical properties :
#
#
# Convention : Reuss Voigt Hill
#
# Bulk Modulus (GPa) = 60.69563 80.04134 70.36849
# Shear Modulus (GPa) = 31.61368 37.35281 34.48325
#
# Velocity S-wave (km/s) = 3.66104 3.97951 3.82359
# Velocity P-wave (km/s) = 6.60334 7.41960 7.02334
#
# Compressibility (1/GPa) = 0.01647565
#
# Stress axis : x y z
#
# Youngs Moduli (GPa) = 54.70764 125.67650 79.10903
#
# Poissons Ratio (x) = 0.42343 0.26512
# Poissons Ratio (y) = 0.18432 0.35441
# Poissons Ratio (z) = 0.18334 0.56303
#
# Static dielectric constant tensor:
#      x y z
#    x 4.068310 0.000000 0.000000 
#    y 0.000000 4.415410 0.000000 
#    z 0.000000 0.000000 6.251050 
# 
# 
# High freq. dielectric constant tensor:
#      x y z
#    x 1.909620 0.000000 0.000000 
#    y 0.000000 1.946460 0.000000 
#    z 0.000000 0.000000 1.965180 
# 
# From -- ./inp_files/6609.got.cif
#   From: 2010.03.12/outbox.cif.g09.slc.cpg/sg21_4_cif.got.tgz:6609.got - 2010.04.14 01:59:26.
