data_PCOD8161799
_publ_section_title
;
Structure prediction by ZEFSAII (Michael W. Deem and Ramdas Pophale) SiO2 
 PCOD8161799
Probable space group: C 2 2 2
;
_chemical_formula_sum "Si O2"
_cell_formula_units_Z 26
_cell_length_a 12.993039
_cell_length_b 15.075488
_cell_length_c 5.392309
_cell_angle_alpha 90.000000
_cell_angle_beta 90.000000
_cell_angle_gamma 90.000000
_cell_volume 1056.226094
_symmetry_space_group_name_H-M "C 2 2 2"
_symmetry_group_IT_number 21
_symmetry_cell_setting 'orthorhombic'
loop_
_space_group_symop_operation_xyz
x,y,z
-x,-y,z
x,-y,-z
-x,y,-z
1/2+x,1/2+y,z
1/2-x,1/2-y,z
1/2+x,1/2-y,-z
1/2-x,1/2+y,-z
loop_
_atom_site_type_symbol
_atom_site_label
_atom_site_fract_x
_atom_site_fract_y
_atom_site_fract_z
Si Si1 0.250000 0.250000 0.569935
Si Si2 0.320708 0.921157 0.695700
Si Si3 0.851109 0.000000 0.000000
Si Si4 0.559024 0.657660 0.758945
Si Si5 0.500000 0.000000 0.000000
O O1 0.314604 0.177224 0.414738
O O2 0.331197 0.295744 0.749033
O O3 0.313358 0.000000 0.500000
O O4 0.220414 0.927331 0.867572
O O5 0.428598 0.933874 0.839577
O O6 0.922314 0.947112 0.805248
O O7 0.500000 0.670731 0.500000
O O8 0.500000 0.697278 0.000000
#
# Coordination Sequence:
#
# PCOD8161799 Si02
#       5
#     4   8   4   8   2
#     4  12  28  54  80 118 170 210 280 346 410 490
#     4  11  24  52  80 112 168 218 272 347 407 492
#     4  11  25  49  81 110 158 208 272 340 410 484
#     4  12  29  51  83 120 159 215 272 338 413 493
#     4  10  26  48  82 122 158 234 284 328 420 500
#
# _framework density 24.615939999999998
#
# number of rings (size 3 to 8) (size 9 to 14) (size 15 to 20)
#    0.000    0.615    3.077    2.769    0.000   11.077 
#   11.077    0.000    0.000    0.000    0.000    0.000 
#    0.000    0.000    0.000    0.000    0.000    0.000 
#
# Total GULP energy -161171.196554 kJ/mol
# GULP energy per Si atom -12397.784350 kJ/mol
# Density = 2.455991 g / cm^3
# Si number density = 24.615940 Si / 1000 Ang^3
#
#
#
# Elastic Constant Matrix: (Units=GPa)
#
#
# Indices 1 2 3 4 5 6 
#
# 1 129.6705 53.0443 75.8970 0.0000 0.0000 0.0000
# 2 53.0443 149.0654 55.3105 0.0000 0.0000 0.0000
# 3 75.8970 55.3105 161.1090 0.0000 0.0000 0.0000
# 4 0.0000 0.0000 0.0000 35.6129 0.0000 0.0000
# 5 0.0000 0.0000 0.0000 0.0000 9.7006 0.0000
# 6 0.0000 0.0000 0.0000 0.0000 0.0000 26.8545
#
#
#
# Elastic Compliance Matrix: (Units=1/GPa)
#
#
# Indices 1 2 3 4 5 6 
#
# 1 0.011323 -0.002349 -0.004528 0.000000 0.000000 0.000000
# 2 -0.002349 0.008175 -0.001700 0.000000 0.000000 0.000000
# 3 -0.004528 -0.001700 0.008923 0.000000 0.000000 0.000000
# 4 0.000000 0.000000 0.000000 0.028080 0.000000 0.000000
# 5 0.000000 0.000000 0.000000 0.000000 0.103086 0.000000
# 6 0.000000 0.000000 0.000000 0.000000 0.000000 0.037238
#
#
# Mechanical properties :
#
#
# Convention : Reuss Voigt Hill
#
# Bulk Modulus (GPa) = 88.74651 89.81647 89.28149
# Shear Modulus (GPa) = 22.96372 31.47316 27.21844
#
# Velocity S-wave (km/s) = 3.05762 3.57959 3.32885
# Velocity P-wave (km/s) = 6.97109 7.32468 7.15007
#
# Compressibility (1/GPa) = 0.01126805
#
# Stress axis : x y z
#
# Youngs Moduli (GPa) = 88.31667 122.32135 112.06384
#
# Poissons Ratio (x) = 0.28736 0.50738
# Poissons Ratio (y) = 0.20748 0.19050
# Poissons Ratio (z) = 0.39986 0.20794
#
# Static dielectric constant tensor:
#      x y z
#    x 4.791500 0.000000 0.000000 
#    y 0.000000 4.289560 0.000000 
#    z 0.000000 0.000000 4.716230 
# 
# 
# High freq. dielectric constant tensor:
#      x y z
#    x 2.005100 0.000000 0.000000 
#    y 0.000000 1.974990 0.000000 
#    z 0.000000 0.000000 1.983930 
# 
# From -- ./inp_files/3276.got.cif
#   From: 2010.03.12/outbox.cif.g09.slc.cpg/sg21_2_cif.got.tgz:3276.got - 2010.04.14 01:59:26.
