data_PCOD8161729
_publ_section_title
;
Structure prediction by ZEFSAII (Michael W. Deem and Ramdas Pophale) SiO2 
 PCOD8161729
Probable space group: C 2 2 2
;
_chemical_formula_sum "Si O2"
_cell_formula_units_Z 58
_cell_length_a 8.966635
_cell_length_b 26.081296
_cell_length_c 12.095231
_cell_angle_alpha 90.000000
_cell_angle_beta 90.000000
_cell_angle_gamma 90.000000
_cell_volume 2828.608400
_symmetry_space_group_name_H-M "C 2 2 2"
_symmetry_group_IT_number 21
_symmetry_cell_setting 'orthorhombic'
loop_
_space_group_symop_operation_xyz
x,y,z
-x,-y,z
x,-y,-z
-x,y,-z
1/2+x,1/2+y,z
1/2-x,1/2-y,z
1/2+x,1/2-y,-z
1/2-x,1/2+y,-z
loop_
_atom_site_type_symbol
_atom_site_label
_atom_site_fract_x
_atom_site_fract_y
_atom_site_fract_z
Si Si1 0.001306 0.330823 0.876498
Si Si2 0.002875 0.441836 0.620821
Si Si3 0.091288 0.768471 0.780291
Si Si4 0.500000 0.000000 0.000000
Si Si5 0.252416 0.874897 0.267443
Si Si6 0.173404 0.426490 0.173087
Si Si7 0.469413 0.620328 0.871053
Si Si8 0.123108 0.788853 0.409862
O O1 0.160416 0.337658 0.816993
O O2 0.950339 0.271796 0.876078
O O3 0.882383 0.368052 0.821753
O O4 0.000000 0.350638 0.000000
O O5 0.145886 0.421939 0.690538
O O6 0.000000 0.500000 0.587592
O O7 0.000000 0.412516 0.500000
O O8 0.856661 0.440880 0.699325
O O9 0.250000 0.750000 0.730369
O O10 0.093544 0.825447 0.827842
O O11 0.963853 0.761113 0.689017
O O12 0.402377 0.963914 0.918399
O O13 0.197787 0.842060 0.372166
O O14 0.114600 0.897333 0.197372
O O15 0.349387 0.424731 0.148657
O O16 0.500000 0.625582 0.000000
O O17 0.250000 0.750000 0.454796
O O18 0.000000 0.803235 0.500000
#
# Coordination Sequence:
#
# PCOD8161729 Si02
#       8
#     8   8   8   2   8   8   8   8
#     4  11  20  38  65  88 126 174 213 262 316 387
#     4  10  23  45  72  95 119 163 227 279 329 393
#     4  11  22  38  58  95 128 173 224 261 311 387
#     4  12  24  44  72  96 132 172 234 274 324 406
#     4  10  24  41  63  95 133 165 221 270 326 388
#     4  11  23  41  67  97 127 173 220 270 329 391
#     4  11  24  39  61  98 142 173 209 270 331 393
#     4  11  23  41  60  89 131 178 218 262 315 379
#
# _framework density 20.504781999999999
#
# number of rings (size 3 to 8) (size 9 to 14) (size 15 to 20)
#    0.000    1.241    4.138    1.655    1.931    2.759 
#    0.000    2.414    0.000    1.655    0.000    0.000 
#    0.000    0.000    0.000    0.000    0.000    0.000 
#
# Total GULP energy -359320.776544 kJ/mol
# GULP energy per Si atom -12390.371605 kJ/mol
# Density = 2.045811 g / cm^3
# Si number density = 20.504782 Si / 1000 Ang^3
#
#
#
# Elastic Constant Matrix: (Units=GPa)
#
#
# Indices 1 2 3 4 5 6 
#
# 1 131.9060 44.9368 41.4991 0.0000 0.0000 0.0000
# 2 44.9368 75.9783 33.6601 0.0000 0.0000 0.0000
# 3 41.4991 33.6601 124.6829 0.0000 0.0000 0.0000
# 4 0.0000 0.0000 0.0000 20.3798 0.0000 0.0000
# 5 0.0000 0.0000 0.0000 0.0000 30.1010 0.0000
# 6 0.0000 0.0000 0.0000 0.0000 0.0000 22.3853
#
#
#
# Elastic Compliance Matrix: (Units=1/GPa)
#
#
# Indices 1 2 3 4 5 6 
#
# 1 0.009893 -0.004989 -0.001946 0.000000 0.000000 0.000000
# 2 -0.004989 0.017466 -0.003055 0.000000 0.000000 0.000000
# 3 -0.001946 -0.003055 0.009493 0.000000 0.000000 0.000000
# 4 0.000000 0.000000 0.000000 0.049068 0.000000 0.000000
# 5 0.000000 0.000000 0.000000 0.000000 0.033221 0.000000
# 6 0.000000 0.000000 0.000000 0.000000 0.000000 0.044672
#
#
# Mechanical properties :
#
#
# Convention : Reuss Voigt Hill
#
# Bulk Modulus (GPa) = 59.26899 63.63991 61.45445
# Shear Modulus (GPa) = 26.39689 28.73796 27.56743
#
# Velocity S-wave (km/s) = 3.59186 3.74776 3.67064
# Velocity P-wave (km/s) = 6.79483 7.05915 6.92825
#
# Compressibility (1/GPa) = 0.01687223
#
# Stress axis : x y z
#
# Youngs Moduli (GPa) = 101.08160 57.25522 105.34480
#
# Poissons Ratio (x) = 0.28565 0.20499
# Poissons Ratio (y) = 0.50430 0.32178
# Poissons Ratio (z) = 0.19669 0.17489
#
# Static dielectric constant tensor:
#      x y z
#    x 3.851310 0.000000 0.000000 
#    y 0.000000 3.624510 0.000000 
#    z 0.000000 0.000000 3.899490 
# 
# 
# High freq. dielectric constant tensor:
#      x y z
#    x 1.805490 0.000000 0.000000 
#    y 0.000000 1.790420 0.000000 
#    z 0.000000 0.000000 1.808150 
# 
# From -- ./inp_files/23012.got.cif
#   From: 2010.03.12/outbox.cif.g09.slc.cpg/sg21_12_cif.got.tgz:23012.got - 2010.04.14 01:59:26.
