data_PCOD8161997
_publ_section_title
;
Structure prediction by ZEFSAII (Michael W. Deem and Ramdas Pophale) SiO2 
 PCOD8161997
Probable space group: C 2 2 2
;
_chemical_formula_sum "Si O2"
_cell_formula_units_Z 40
_cell_length_a 8.555351
_cell_length_b 23.575461
_cell_length_c 8.842366
_cell_angle_alpha 90.000000
_cell_angle_beta 90.000000
_cell_angle_gamma 90.000000
_cell_volume 1783.472893
_symmetry_space_group_name_H-M "C 2 2 2"
_symmetry_group_IT_number 21
_symmetry_cell_setting 'orthorhombic'
loop_
_space_group_symop_operation_xyz
x,y,z
-x,-y,z
x,-y,-z
-x,y,-z
1/2+x,1/2+y,z
1/2-x,1/2-y,z
1/2+x,1/2-y,-z
1/2-x,1/2+y,-z
loop_
_atom_site_type_symbol
_atom_site_label
_atom_site_fract_x
_atom_site_fract_y
_atom_site_fract_z
Si Si1 0.388481 0.792015 0.641634
Si Si2 0.317393 0.007424 0.833594
Si Si3 0.149016 0.110345 0.694826
Si Si4 0.797897 0.098143 0.657763
Si Si5 0.098850 0.779772 0.138482
O O1 0.500000 0.806320 0.500000
O O2 0.250000 0.750000 0.587435
O O3 0.312488 0.849808 0.709984
O O4 0.488182 0.764007 0.774081
O O5 0.265849 0.069833 0.784430
O O6 0.500000 0.000000 0.846603
O O7 0.266894 0.962165 0.708167
O O8 0.241903 0.000000 0.000000
O O9 0.189003 0.102662 0.521088
O O10 0.173885 0.174666 0.746775
O O11 0.968193 0.099189 0.732723
O O12 0.250000 0.750000 0.066097
O O13 0.000000 0.806778 0.000000
#
# Coordination Sequence:
#
# PCOD8161997 Si02
#       5
#     8   8   8   8   8
#     4  12  24  44  73 108 147 191 246 303 368 440
#     4  11  28  47  70 106 142 185 240 302 370 439
#     4  11  25  48  71 103 143 187 244 295 358 439
#     4  11  25  45  74 104 138 191 240 298 359 433
#     4  12  28  46  70 107 147 193 241 304 372 448
#
# _framework density 22.428151
#
# number of rings (size 3 to 8) (size 9 to 14) (size 15 to 20)
#    0.000    0.600    2.000    4.800    8.400    3.200 
#    0.000    0.000    0.000    0.000    0.000    0.000 
#    0.000    0.000    0.000    0.000    0.000    0.000 
#
# Total GULP energy -247997.252526 kJ/mol
# GULP energy per Si atom -12399.862626 kJ/mol
# Density = 2.237710 g / cm^3
# Si number density = 22.428151 Si / 1000 Ang^3
#
#
#
# Elastic Constant Matrix: (Units=GPa)
#
#
# Indices 1 2 3 4 5 6 
#
# 1 119.4856 53.0319 37.0684 0.0000 0.0000 0.0000
# 2 53.0319 109.1846 34.6023 0.0000 0.0000 0.0000
# 3 37.0684 34.6023 101.8899 0.0000 0.0000 0.0000
# 4 0.0000 0.0000 0.0000 54.9451 0.0000 0.0000
# 5 0.0000 0.0000 0.0000 0.0000 18.9840 0.0000
# 6 0.0000 0.0000 0.0000 0.0000 0.0000 53.8693
#
#
#
# Elastic Compliance Matrix: (Units=1/GPa)
#
#
# Indices 1 2 3 4 5 6 
#
# 1 0.011209 -0.004653 -0.002498 0.000000 0.000000 0.000000
# 2 -0.004653 0.012195 -0.002449 0.000000 0.000000 0.000000
# 3 -0.002498 -0.002449 0.011555 0.000000 0.000000 0.000000
# 4 0.000000 0.000000 0.000000 0.018200 0.000000 0.000000
# 5 0.000000 0.000000 0.000000 0.000000 0.052676 0.000000
# 6 0.000000 0.000000 0.000000 0.000000 0.000000 0.018563
#
#
# Mechanical properties :
#
#
# Convention : Reuss Voigt Hill
#
# Bulk Modulus (GPa) = 63.45142 64.44058 63.94600
# Shear Modulus (GPa) = 33.59081 39.28351 36.43716
#
# Velocity S-wave (km/s) = 3.87422 4.18966 4.03503
# Velocity P-wave (km/s) = 6.95451 7.22487 7.09098
#
# Compressibility (1/GPa) = 0.01576009
#
# Stress axis : x y z
#
# Youngs Moduli (GPa) = 89.21228 82.00266 86.54375
#
# Poissons Ratio (x) = 0.38154 0.21618
# Poissons Ratio (y) = 0.41509 0.21192
# Poissons Ratio (z) = 0.22284 0.20080
#
# Static dielectric constant tensor:
#      x y z
#    x 3.862270 0.000000 0.000000 
#    y 0.000000 4.091320 0.000000 
#    z 0.000000 0.000000 4.100260 
# 
# 
# High freq. dielectric constant tensor:
#      x y z
#    x 1.904090 0.000000 0.000000 
#    y 0.000000 1.884130 0.000000 
#    z 0.000000 0.000000 1.885640 
# 
# From -- ./inp_files/10890.got.cif
#   From: 2010.03.12/outbox.cif.g09.slc.cpg/sg21_6_cif.got.tgz:10890.got - 2010.04.14 01:59:26.
