data_PCOD8161618
_publ_section_title
;
Structure prediction by ZEFSAII (Michael W. Deem and Ramdas Pophale) SiO2 
 PCOD8161618
Probable space group: C 2 2 2
;
_chemical_formula_sum "Si O2"
_cell_formula_units_Z 34
_cell_length_a 9.781112
_cell_length_b 17.668496
_cell_length_c 9.081036
_cell_angle_alpha 90.000000
_cell_angle_beta 90.000000
_cell_angle_gamma 90.000000
_cell_volume 1569.362286
_symmetry_space_group_name_H-M "C 2 2 2"
_symmetry_group_IT_number 21
_symmetry_cell_setting 'orthorhombic'
loop_
_space_group_symop_operation_xyz
x,y,z
-x,-y,z
x,-y,-z
-x,y,-z
1/2+x,1/2+y,z
1/2-x,1/2-y,z
1/2+x,1/2-y,-z
1/2-x,1/2+y,-z
loop_
_atom_site_type_symbol
_atom_site_label
_atom_site_fract_x
_atom_site_fract_y
_atom_site_fract_z
Si Si1 0.740520 0.833798 0.804253
Si Si2 0.461691 0.078893 0.219883
Si Si3 0.294782 0.668141 0.864092
Si Si4 0.979685 0.087292 0.328874
Si Si5 0.500000 0.000000 0.500000
O O1 0.750000 0.750000 0.733770
O O2 0.583474 0.860786 0.803528
O O3 0.822523 0.892853 0.703864
O O4 0.819921 0.828305 0.961134
O O5 0.327886 0.109729 0.146333
O O6 0.420268 0.058051 0.390706
O O7 0.500000 0.000000 0.139047
O O8 0.250000 0.750000 0.801653
O O9 0.424304 0.639724 0.772234
O O10 0.000000 0.103959 0.500000
O O11 0.000000 0.000000 0.288243
#
# Coordination Sequence:
#
# PCOD8161618 Si02
#       5
#     8   8   8   8   2
#     4  11  24  43  65  94 128 163 208 261 311 369
#     4  10  22  40  68  89 125 164 208 253 310 366
#     4  11  24  43  65  94 128 163 208 261 311 369
#     4  11  26  42  63  93 130 166 208 256 312 372
#     4   8  24  40  62  94 136 152 204 274 304 360
#
# _framework density 21.664852
#
# number of rings (size 3 to 8) (size 9 to 14) (size 15 to 20)
#    0.706    0.706    0.000    4.235    3.294   10.353 
#    4.235    0.000    0.000    0.000    0.000    0.000 
#    0.000    0.000    0.000    0.000    0.000    0.000 
#
# Total GULP energy -210673.145600 kJ/mol
# GULP energy per Si atom -12392.537976 kJ/mol
# Density = 2.161554 g / cm^3
# Si number density = 21.664852 Si / 1000 Ang^3
#
#
#
# Elastic Constant Matrix: (Units=GPa)
#
#
# Indices 1 2 3 4 5 6 
#
# 1 66.8480 7.6081 0.5625 0.0000 0.0000 0.0000
# 2 7.6081 119.7873 13.5534 0.0000 0.0000 0.0000
# 3 0.5625 13.5534 88.2794 0.0000 0.0000 0.0000
# 4 0.0000 0.0000 0.0000 30.1378 0.0000 0.0000
# 5 0.0000 0.0000 0.0000 0.0000 18.2326 0.0000
# 6 0.0000 0.0000 0.0000 0.0000 0.0000 43.2506
#
#
#
# Elastic Compliance Matrix: (Units=1/GPa)
#
#
# Indices 1 2 3 4 5 6 
#
# 1 0.015068 -0.000963 0.000052 0.000000 0.000000 0.000000
# 2 -0.000963 0.008557 -0.001308 0.000000 0.000000 0.000000
# 3 0.000052 -0.001308 0.011528 0.000000 0.000000 0.000000
# 4 0.000000 0.000000 0.000000 0.033181 0.000000 0.000000
# 5 0.000000 0.000000 0.000000 0.000000 0.054847 0.000000
# 6 0.000000 0.000000 0.000000 0.000000 0.000000 0.023121
#
#
# Mechanical properties :
#
#
# Convention : Reuss Voigt Hill
#
# Bulk Modulus (GPa) = 32.55596 35.37362 33.96479
# Shear Modulus (GPa) = 31.05993 35.20355 33.13174
#
# Velocity S-wave (km/s) = 3.79047 4.03540 3.91485
# Velocity P-wave (km/s) = 5.84950 6.17055 6.01217
#
# Compressibility (1/GPa) = 0.03071634
#
# Stress axis : x y z
#
# Youngs Moduli (GPa) = 66.36377 116.86004 86.74452
#
# Poissons Ratio (x) = 0.11253 -0.00450
# Poissons Ratio (y) = 0.06390 0.11343
# Poissons Ratio (z) = -0.00344 0.15281
#
# Static dielectric constant tensor:
#      x y z
#    x 3.872870 0.000000 0.000000 
#    y 0.000000 4.093680 0.000000 
#    z 0.000000 0.000000 3.945740 
# 
# 
# High freq. dielectric constant tensor:
#      x y z
#    x 1.845350 0.000000 0.000000 
#    y 0.000000 1.866570 0.000000 
#    z 0.000000 0.000000 1.850310 
# 
# From -- ./inp_files/10613.got.cif
#   From: 2010.03.12/outbox.cif.g09.slc.cpg/sg21_6_cif.got.tgz:10613.got - 2010.04.14 01:59:26.
