data_PCOD8161277
_publ_section_title
;
Structure prediction by ZEFSAII (Michael W. Deem and Ramdas Pophale) SiO2 
 PCOD8161277
Probable space group: C 2 2 2
;
_chemical_formula_sum "Si O2"
_cell_formula_units_Z 26
_cell_length_a 8.245190
_cell_length_b 30.496095
_cell_length_c 5.002738
_cell_angle_alpha 90.000000
_cell_angle_beta 90.000000
_cell_angle_gamma 90.000000
_cell_volume 1257.918947
_symmetry_space_group_name_H-M "C 2 2 2"
_symmetry_group_IT_number 21
_symmetry_cell_setting 'orthorhombic'
loop_
_space_group_symop_operation_xyz
x,y,z
-x,-y,z
x,-y,-z
-x,y,-z
1/2+x,1/2+y,z
1/2-x,1/2-y,z
1/2+x,1/2-y,-z
1/2-x,1/2+y,-z
loop_
_atom_site_type_symbol
_atom_site_label
_atom_site_fract_x
_atom_site_fract_y
_atom_site_fract_z
Si Si1 0.601867 0.583570 0.740217
Si Si2 0.314467 0.703213 0.588657
Si Si3 0.183642 0.343094 0.909547
Si Si4 0.000000 0.000000 0.500000
O O1 0.500000 0.606915 0.500000
O O2 0.770241 0.608613 0.792098
O O3 0.620557 0.531426 0.673230
O O4 0.500000 0.589224 0.000000
O O5 0.500000 0.704912 0.500000
O O6 0.250000 0.750000 0.690889
O O7 0.204571 0.690559 0.333946
O O8 0.295370 0.669973 0.838104
O O9 0.000000 0.344308 0.000000
#
# Coordination Sequence:
#
# PCOD8161277 Si02
#       4
#     8   8   8   2
#     4  10  20  38  64  95 121 164 214 260 315 381
#     4  12  25  43  64  93 130 173 218 265 315 374
#     4  12  24  40  64  97 131 171 213 265 318 382
#     4   8  22  36  70  94 126 160 220 268 310 396
#
# _framework density 20.669056999999999
#
# number of rings (size 3 to 8) (size 9 to 14) (size 15 to 20)
#    0.923    0.000    0.000    9.692    0.000    0.000 
#    0.000    0.000    0.000    5.538    0.000    0.000 
#    0.000    0.000    0.000    0.000    0.000    0.000 
#
# Total GULP energy -161109.701007 kJ/mol
# GULP energy per Si atom -12393.053924 kJ/mol
# Density = 2.062201 g / cm^3
# Si number density = 20.669057 Si / 1000 Ang^3
#
#
#
# Elastic Constant Matrix: (Units=GPa)
#
#
# Indices 1 2 3 4 5 6 
#
# 1 103.7463 65.0153 37.5738 0.0000 0.0000 0.0000
# 2 65.0153 136.3227 44.2409 0.0000 0.0000 0.0000
# 3 37.5738 44.2409 146.3988 0.0000 0.0000 0.0000
# 4 0.0000 0.0000 0.0000 56.1810 0.0000 0.0000
# 5 0.0000 0.0000 0.0000 0.0000 35.6787 0.0000
# 6 0.0000 0.0000 0.0000 0.0000 0.0000 26.7561
#
#
#
# Elastic Compliance Matrix: (Units=1/GPa)
#
#
# Indices 1 2 3 4 5 6 
#
# 1 0.014148 -0.006174 -0.001765 0.000000 0.000000 0.000000
# 2 -0.006174 0.010828 -0.001687 0.000000 0.000000 0.000000
# 3 -0.001765 -0.001687 0.007794 0.000000 0.000000 0.000000
# 4 0.000000 0.000000 0.000000 0.017800 0.000000 0.000000
# 5 0.000000 0.000000 0.000000 0.000000 0.028028 0.000000
# 6 0.000000 0.000000 0.000000 0.000000 0.000000 0.037375
#
#
# Mechanical properties :
#
#
# Convention : Reuss Voigt Hill
#
# Bulk Modulus (GPa) = 73.99167 75.56974 74.78071
# Shear Modulus (GPa) = 35.78322 39.69901 37.74111
#
# Velocity S-wave (km/s) = 4.16534 4.38733 4.27777
# Velocity P-wave (km/s) = 7.68176 7.89342 7.78831
#
# Compressibility (1/GPa) = 0.01351503
#
# Stress axis : x y z
#
# Youngs Moduli (GPa) = 70.68358 92.35414 128.31006
#
# Poissons Ratio (x) = 0.57023 0.22649
# Poissons Ratio (y) = 0.43643 0.21651
# Poissons Ratio (z) = 0.12477 0.15584
#
# Static dielectric constant tensor:
#      x y z
#    x 3.303460 0.000000 0.000000 
#    y 0.000000 4.290020 0.000000 
#    z 0.000000 0.000000 4.106760 
# 
# 
# High freq. dielectric constant tensor:
#      x y z
#    x 1.778430 0.000000 0.000000 
#    y 0.000000 1.811660 0.000000 
#    z 0.000000 0.000000 1.837000 
# 
# From -- ./inp_files/1317.got.cif
#   From: 2010.03.12/outbox.cif.g09.slc.cpg/sg21_1_cif.got.tgz:1317.got - 2010.04.14 01:59:26.
