data_PCOD8161310
_publ_section_title
;
Structure prediction by ZEFSAII (Michael W. Deem and Ramdas Pophale) SiO2 
 PCOD8161310
Probable space group: C 2 2 2
;
_chemical_formula_sum "Si O2"
_cell_formula_units_Z 48
_cell_length_a 27.514180
_cell_length_b 9.163844
_cell_length_c 9.628537
_cell_angle_alpha 90.000000
_cell_angle_beta 90.000000
_cell_angle_gamma 90.000000
_cell_volume 2427.697467
_symmetry_space_group_name_H-M "C 2 2 2"
_symmetry_group_IT_number 21
_symmetry_cell_setting 'orthorhombic'
loop_
_space_group_symop_operation_xyz
x,y,z
-x,-y,z
x,-y,-z
-x,y,-z
1/2+x,1/2+y,z
1/2-x,1/2-y,z
1/2+x,1/2-y,-z
1/2-x,1/2+y,-z
loop_
_atom_site_type_symbol
_atom_site_label
_atom_site_fract_x
_atom_site_fract_y
_atom_site_fract_z
Si Si1 0.205527 0.858981 0.910937
Si Si2 0.102141 0.828678 0.484607
Si Si3 0.554575 0.824446 0.758668
Si Si4 0.553850 0.157443 0.719280
Si Si5 0.794535 0.140580 0.589802
Si Si6 0.618598 0.163188 0.978327
O O1 0.250000 0.750000 0.913197
O O2 0.194329 0.901335 0.750454
O O3 0.161018 0.781384 0.990475
O O4 0.219199 0.000000 0.000000
O O5 0.088633 0.784530 0.328327
O O6 0.064517 0.741128 0.578194
O O7 0.157491 0.785484 0.522937
O O8 0.094474 0.000000 0.500000
O O9 0.498122 0.780350 0.769922
O O10 0.575479 0.816641 0.912675
O O11 0.555268 0.984900 0.691181
O O12 0.595540 0.192432 0.829041
O O13 0.750000 0.250000 0.577832
O O14 0.780147 0.000000 0.500000
O O15 0.640333 0.000000 0.000000
#
# Coordination Sequence:
#
# PCOD8161310 Si02
#       6
#     8   8   8   8   8   8
#     4  11  24  43  66  92 124 156 199 248 301 361
#     4  11  23  39  58  89 123 159 199 249 301 355
#     4  10  22  36  63  88 119 162 206 246 299 352
#     4  10  20  40  59  88 122 158 206 253 292 353
#     4  10  24  44  63  90 121 158 198 246 298 357
#     4  10  21  39  62  91 121 159 200 250 303 352
#
# _framework density 19.771822
#
# number of rings (size 3 to 8) (size 9 to 14) (size 15 to 20)
#    0.000    1.667    1.667    2.000    4.667    6.667 
#    3.000    0.000    0.000    3.000    0.000    0.000 
#    0.000    0.000    0.000    0.000    0.000    0.000 
#
# Total GULP energy -297613.653617 kJ/mol
# GULP energy per Si atom -12400.568901 kJ/mol
# Density = 1.972682 g / cm^3
# Si number density = 19.771822 Si / 1000 Ang^3
#
#
#
# Elastic Constant Matrix: (Units=GPa)
#
#
# Indices 1 2 3 4 5 6 
#
# 1 79.9749 31.4089 4.6612 0.0000 0.0000 0.0000
# 2 31.4089 73.0101 30.1051 0.0000 0.0000 0.0000
# 3 4.6612 30.1051 55.4642 0.0000 0.0000 0.0000
# 4 0.0000 0.0000 0.0000 31.9416 0.0000 0.0000
# 5 0.0000 0.0000 0.0000 0.0000 33.4813 0.0000
# 6 0.0000 0.0000 0.0000 0.0000 0.0000 31.2765
#
#
#
# Elastic Compliance Matrix: (Units=1/GPa)
#
#
# Indices 1 2 3 4 5 6 
#
# 1 0.015416 -0.007856 0.002969 0.000000 0.000000 0.000000
# 2 -0.007856 0.021650 -0.011091 0.000000 0.000000 0.000000
# 3 0.002969 -0.011091 0.023800 0.000000 0.000000 0.000000
# 4 0.000000 0.000000 0.000000 0.031307 0.000000 0.000000
# 5 0.000000 0.000000 0.000000 0.000000 0.029867 0.000000
# 6 0.000000 0.000000 0.000000 0.000000 0.000000 0.031973
#
#
# Mechanical properties :
#
#
# Convention : Reuss Voigt Hill
#
# Bulk Modulus (GPa) = 34.59100 37.86663 36.22881
# Shear Modulus (GPa) = 25.56149 28.82482 27.19315
#
# Velocity S-wave (km/s) = 3.59949 3.82235 3.71259
# Velocity P-wave (km/s) = 5.89984 6.21883 6.06144
#
# Compressibility (1/GPa) = 0.02890925
#
# Stress axis : x y z
#
# Youngs Moduli (GPa) = 64.86653 46.19005 42.01653
#
# Poissons Ratio (x) = 0.36288 -0.12473
# Poissons Ratio (y) = 0.50960 0.46600
# Poissons Ratio (z) = -0.19256 0.51229
#
# Static dielectric constant tensor:
#      x y z
#    x 3.690180 0.000000 0.000000 
#    y 0.000000 3.284400 0.000000 
#    z 0.000000 0.000000 3.624730 
# 
# 
# High freq. dielectric constant tensor:
#      x y z
#    x 1.782780 0.000000 0.000000 
#    y 0.000000 1.761460 0.000000 
#    z 0.000000 0.000000 1.778860 
# 
# From -- ./inp_files/19648.got.cif
#   From: 2010.03.12/outbox.cif.g09.slc.cpg/sg21_10_cif.got.tgz:19648.got - 2010.04.14 01:59:26.
