data_PCOD8161434
_publ_section_title
;
Structure prediction by ZEFSAII (Michael W. Deem and Ramdas Pophale) SiO2 
 PCOD8161434
Probable space group: C 2 2 2
;
_chemical_formula_sum "Si O2"
_cell_formula_units_Z 48
_cell_length_a 28.048235
_cell_length_b 9.081578
_cell_length_c 9.197623
_cell_angle_alpha 90.000000
_cell_angle_beta 90.000000
_cell_angle_gamma 90.000000
_cell_volume 2342.839077
_symmetry_space_group_name_H-M "C 2 2 2"
_symmetry_group_IT_number 21
_symmetry_cell_setting 'orthorhombic'
loop_
_space_group_symop_operation_xyz
x,y,z
-x,-y,z
x,-y,-z
-x,y,-z
1/2+x,1/2+y,z
1/2-x,1/2-y,z
1/2+x,1/2-y,-z
1/2-x,1/2+y,-z
loop_
_atom_site_type_symbol
_atom_site_label
_atom_site_fract_x
_atom_site_fract_y
_atom_site_fract_z
Si Si1 0.954458 0.158136 0.422713
Si Si2 0.636554 0.838342 0.976605
Si Si3 0.199860 0.673105 0.753577
Si Si4 0.352441 0.675769 0.514009
Si Si5 0.203406 0.666522 0.280266
Si Si6 0.454476 0.657967 0.071873
O O1 0.904300 0.235838 0.462410
O O2 0.959277 0.151106 0.247613
O O3 0.000000 0.240441 0.500000
O O4 0.952419 0.000000 0.500000
O O5 0.657651 0.807710 0.819120
O O6 0.593044 0.728562 0.992056
O O7 0.681788 0.821490 0.081973
O O8 0.614659 0.000000 0.000000
O O9 0.250000 0.750000 0.740107
O O10 0.157532 0.764817 0.675228
O O11 0.209492 0.507915 0.696118
O O12 0.348587 0.500000 0.500000
O O13 0.309115 0.752600 0.429477
O O14 0.250000 0.750000 0.216934
O O15 0.453758 0.500000 0.000000
O O16 0.500000 0.742233 0.000000
#
# Coordination Sequence:
#
# PCOD8161434 Si02
#       6
#     8   8   8   8   8   8
#     4  10  21  38  62  93 130 159 202 256 309 359
#     4  10  24  42  62  90 127 163 201 256 313 367
#     4  11  24  40  63  91 122 166 207 254 309 366
#     4  11  23  38  63  92 123 164 205 253 308 364
#     4  11  22  42  63  87 125 160 206 258 306 369
#     4  11  23  38  67  98 124 163 209 256 307 366
#
# _framework density 20.487964000000002
#
# number of rings (size 3 to 8) (size 9 to 14) (size 15 to 20)
#    0.000    1.333    1.667    4.500    7.000    1.667 
#    0.000    0.000    0.000    2.000    0.000    0.000 
#    0.000    0.000    0.000    0.000    0.000    0.000 
#
# Total GULP energy -297399.317797 kJ/mol
# GULP energy per Si atom -12391.638242 kJ/mol
# Density = 2.044133 g / cm^3
# Si number density = 20.487964 Si / 1000 Ang^3
#
#
#
# Elastic Constant Matrix: (Units=GPa)
#
#
# Indices 1 2 3 4 5 6 
#
# 1 149.5633 58.9827 34.9825 0.0000 0.0000 0.0000
# 2 58.9827 99.1315 27.2558 0.0000 0.0000 0.0000
# 3 34.9825 27.2558 95.7905 0.0000 0.0000 0.0000
# 4 0.0000 0.0000 0.0000 26.5934 0.0000 0.0000
# 5 0.0000 0.0000 0.0000 0.0000 189.0112 0.0000
# 6 0.0000 0.0000 0.0000 0.0000 0.0000 32.1113
#
#
#
# Elastic Compliance Matrix: (Units=1/GPa)
#
#
# Indices 1 2 3 4 5 6 
#
# 1 0.009051 -0.004857 -0.001924 0.000000 0.000000 0.000000
# 2 -0.004857 0.013550 -0.002082 0.000000 0.000000 0.000000
# 3 -0.001924 -0.002082 0.011734 0.000000 0.000000 0.000000
# 4 0.000000 0.000000 0.000000 0.037603 0.000000 0.000000
# 5 0.000000 0.000000 0.000000 0.000000 0.005291 0.000000
# 6 0.000000 0.000000 0.000000 0.000000 0.000000 0.031142
#
#
# Mechanical properties :
#
#
# Convention : Reuss Voigt Hill
#
# Bulk Modulus (GPa) = 60.20004 65.21414 62.70709
# Shear Modulus (GPa) = 37.98470 64.42749 51.20609
#
# Velocity S-wave (km/s) = 4.31048 5.61380 5.00475
# Velocity P-wave (km/s) = 7.36346 8.59763 8.00437
#
# Compressibility (1/GPa) = 0.01661128
#
# Stress axis : x y z
#
# Youngs Moduli (GPa) = 110.48078 73.80277 85.22035
#
# Poissons Ratio (x) = 0.35843 0.16393
# Poissons Ratio (y) = 0.53656 0.17741
# Poissons Ratio (z) = 0.21253 0.15364
#
# Static dielectric constant tensor:
#      x y z
#    x 4.323190 0.000000 0.000000 
#    y 0.000000 3.536400 0.000000 
#    z 0.000000 0.000000 3.827450 
# 
# 
# High freq. dielectric constant tensor:
#      x y z
#    x 1.823200 0.000000 0.000000 
#    y 0.000000 1.778890 0.000000 
#    z 0.000000 0.000000 1.812440 
# 
# From -- ./inp_files/19661.got.cif
#   From: 2010.03.12/outbox.cif.g09.slc.cpg/sg21_10_cif.got.tgz:19661.got - 2010.04.14 01:59:26.
