data_PCOD8161628
_publ_section_title
;
Structure prediction by ZEFSAII (Michael W. Deem and Ramdas Pophale) SiO2 
 PCOD8161628
Probable space group: C 2 2 2
;
_chemical_formula_sum "Si O2"
_cell_formula_units_Z 64
_cell_length_a 18.964865
_cell_length_b 13.900896
_cell_length_c 11.802839
_cell_angle_alpha 90.000000
_cell_angle_beta 90.000000
_cell_angle_gamma 90.000000
_cell_volume 3111.566111
_symmetry_space_group_name_H-M "C 2 2 2"
_symmetry_group_IT_number 21
_symmetry_cell_setting 'orthorhombic'
loop_
_space_group_symop_operation_xyz
x,y,z
-x,-y,z
x,-y,-z
-x,y,-z
1/2+x,1/2+y,z
1/2-x,1/2-y,z
1/2+x,1/2-y,-z
1/2-x,1/2+y,-z
loop_
_atom_site_type_symbol
_atom_site_label
_atom_site_fract_x
_atom_site_fract_y
_atom_site_fract_z
Si Si1 0.701424 0.118753 0.118931
Si Si2 0.832060 0.886735 0.275636
Si Si3 0.395502 0.892620 0.506423
Si Si4 0.073163 0.291470 0.267154
Si Si5 0.694910 0.892061 0.137936
Si Si6 0.086104 0.284675 0.729689
Si Si7 0.828109 0.898684 0.731151
Si Si8 0.259924 0.360963 0.503670
O O1 0.635704 0.169549 0.176631
O O2 0.776683 0.147995 0.173844
O O3 0.693316 0.005985 0.136783
O O4 0.702070 0.149880 0.988226
O O5 0.896541 0.815729 0.251147
O O6 0.761592 0.852851 0.209401
O O7 0.818670 0.877225 0.409245
O O8 0.855056 0.994149 0.236632
O O9 0.432140 0.828681 0.603189
O O10 0.404540 0.839796 0.387749
O O11 0.313590 0.904095 0.539832
O O12 0.428713 0.000000 0.500000
O O13 0.120870 0.362082 0.192879
O O14 0.993170 0.290487 0.222521
O O15 0.106409 0.172491 0.711981
O O16 0.783475 0.915400 0.616699
O O17 0.250000 0.250000 0.535224
#
# Coordination Sequence:
#
# PCOD8161628 Si02
#       8
#     8   8   8   8   8   8   8   8
#     4  10  22  41  65  90 115 149 196 247 295 344
#     4  11  22  39  63  88 116 154 200 246 288 338
#     4  12  23  38  59  88 122 153 192 241 294 351
#     4  12  25  39  58  88 124 160 193 233 292 354
#     4  10  22  41  65  90 115 149 196 247 295 344
#     4  12  25  39  58  88 124 160 193 233 292 354
#     4  11  22  39  63  88 116 154 200 246 288 338
#     4  12  18  35  64  90 117 148 194 251 295 335
#
# _framework density 20.568421000000001
#
# number of rings (size 3 to 8) (size 9 to 14) (size 15 to 20)
#    0.000    0.750    5.000    3.000    0.000    5.500 
#    0.000    1.250    0.000    3.000    0.000    5.250 
#    0.000    0.000    0.000    0.000    0.000    0.000 
#
# Total GULP energy -396910.048603 kJ/mol
# GULP energy per Si atom -12403.439019 kJ/mol
# Density = 2.052161 g / cm^3
# Si number density = 20.568421 Si / 1000 Ang^3
#
#
#
# Elastic Constant Matrix: (Units=GPa)
#
#
# Indices 1 2 3 4 5 6 
#
# 1 105.6271 47.3298 23.2568 0.0000 0.0000 0.0000
# 2 47.3298 101.1610 26.8909 0.0000 0.0000 0.0000
# 3 23.2568 26.8909 107.4271 0.0000 0.0000 0.0000
# 4 0.0000 0.0000 0.0000 22.5803 0.0000 0.0000
# 5 0.0000 0.0000 0.0000 0.0000 7.9598 0.0000
# 6 0.0000 0.0000 0.0000 0.0000 0.0000 5.3948
#
#
#
# Elastic Compliance Matrix: (Units=1/GPa)
#
#
# Indices 1 2 3 4 5 6 
#
# 1 0.012144 -0.005338 -0.001293 0.000000 0.000000 0.000000
# 2 -0.005338 0.012936 -0.002083 0.000000 0.000000 0.000000
# 3 -0.001293 -0.002083 0.010110 0.000000 0.000000 0.000000
# 4 0.000000 0.000000 0.000000 0.044286 0.000000 0.000000
# 5 0.000000 0.000000 0.000000 0.000000 0.125631 0.000000
# 6 0.000000 0.000000 0.000000 0.000000 0.000000 0.185365
#
#
# Mechanical properties :
#
#
# Convention : Reuss Voigt Hill
#
# Bulk Modulus (GPa) = 56.29631 56.57448 56.43539
# Shear Modulus (GPa) = 12.08254 21.63616 16.85935
#
# Velocity S-wave (km/s) = 2.42633 3.24684 2.86610
# Velocity P-wave (km/s) = 5.93962 6.45145 6.20082
#
# Compressibility (1/GPa) = 0.01776315
#
# Stress axis : x y z
#
# Youngs Moduli (GPa) = 82.34662 77.30185 98.91379
#
# Poissons Ratio (x) = 0.41264 0.12788
# Poissons Ratio (y) = 0.43957 0.20599
# Poissons Ratio (z) = 0.10646 0.16099
#
# Static dielectric constant tensor:
#      x y z
#    x 3.630930 0.000000 0.000000 
#    y 0.000000 3.888500 0.000000 
#    z 0.000000 0.000000 3.760080 
# 
# 
# High freq. dielectric constant tensor:
#      x y z
#    x 1.784410 0.000000 0.000000 
#    y 0.000000 1.822530 0.000000 
#    z 0.000000 0.000000 1.799390 
# 
# From -- ./inp_files/26225.got.cif
#   From: 2010.03.12/outbox.cif.g09.slc.cpg/sg21_14_cif.got.tgz:26225.got - 2010.04.14 01:59:26.
