data_PCOD8161183
_publ_section_title
;
Structure prediction by ZEFSAII (Michael W. Deem and Ramdas Pophale) SiO2 
 PCOD8161183
Probable space group: C 2 2 2
;
_chemical_formula_sum "Si O2"
_cell_formula_units_Z 64
_cell_length_a 31.204316
_cell_length_b 8.791990
_cell_length_c 11.523324
_cell_angle_alpha 90.000000
_cell_angle_beta 90.000000
_cell_angle_gamma 90.000000
_cell_volume 3161.401287
_symmetry_space_group_name_H-M "C 2 2 2"
_symmetry_group_IT_number 21
_symmetry_cell_setting 'orthorhombic'
loop_
_space_group_symop_operation_xyz
x,y,z
-x,-y,z
x,-y,-z
-x,y,-z
1/2+x,1/2+y,z
1/2-x,1/2-y,z
1/2+x,1/2-y,-z
1/2-x,1/2+y,-z
loop_
_atom_site_type_symbol
_atom_site_label
_atom_site_fract_x
_atom_site_fract_y
_atom_site_fract_z
Si Si1 0.706048 0.825432 0.963699
Si Si2 0.918274 0.168030 0.757944
Si Si3 0.836841 0.912218 0.379909
Si Si4 0.423309 0.673373 0.194534
Si Si5 0.172158 0.210774 0.733614
Si Si6 0.707345 0.825414 0.514930
Si Si7 0.501634 0.319224 0.368164
Si Si8 0.888473 0.321642 0.980473
O O1 0.750000 0.750000 0.013312
O O2 0.703870 0.790982 0.825611
O O3 0.660651 0.755342 0.009869
O O4 0.708964 0.000000 0.000000
O O5 0.883156 0.143950 0.658882
O O6 0.902701 0.290579 0.850165
O O7 0.959713 0.240701 0.697669
O O8 0.928610 0.007670 0.820245
O O9 0.806772 0.763391 0.396987
O O10 0.843152 0.000000 0.500000
O O11 0.816092 0.031051 0.287093
O O12 0.376962 0.725444 0.234611
O O13 0.457707 0.734555 0.289692
O O14 0.424569 0.747232 0.065641
O O15 0.172464 0.305700 0.614725
O O16 0.750000 0.750000 0.564825
O O17 0.717085 0.000000 0.500000
O O18 0.500000 0.500000 0.375960
O O19 0.500000 0.252291 0.500000
O O20 0.886921 0.500000 0.000000
#
# Coordination Sequence:
#
# PCOD8161183 Si02
#       8
#     8   8   8   8   8   8   8   8
#     4  10  22  38  59  85 116 155 203 253 301 353
#     4  10  20  35  61  88 116 152 194 244 293 355
#     4   9  20  35  58  85 116 155 197 239 299 359
#     4   9  19  36  60  86 115 153 196 243 294 345
#     4   9  19  37  58  80 117 158 195 243 296 355
#     4  11  22  36  56  83 115 152 197 243 294 359
#     4   9  19  32  59  93 120 146 191 251 301 345
#     4  10  22  40  58  81 118 160 199 239 294 355
#
# _framework density 20.244188000000001
#
# number of rings (size 3 to 8) (size 9 to 14) (size 15 to 20)
#    0.000    2.375    0.000    1.875    7.000    6.500 
#    0.000    4.375    0.000    0.750    0.000    0.000 
#    0.000    0.000    0.000    0.000    0.000    0.000 
#
# Total GULP energy -396506.242864 kJ/mol
# GULP energy per Si atom -12390.820090 kJ/mol
# Density = 2.019811 g / cm^3
# Si number density = 20.244188 Si / 1000 Ang^3
#
#
#
# Elastic Constant Matrix: (Units=GPa)
#
#
# Indices 1 2 3 4 5 6 
#
# 1 105.2318 39.3740 53.9312 0.0000 0.0000 0.0000
# 2 39.3740 94.1464 41.4260 0.0000 0.0000 0.0000
# 3 53.9312 41.4260 93.4095 0.0000 0.0000 0.0000
# 4 0.0000 0.0000 0.0000 32.0999 0.0000 0.0000
# 5 0.0000 0.0000 0.0000 0.0000 24.0437 0.0000
# 6 0.0000 0.0000 0.0000 0.0000 0.0000 21.4940
#
#
#
# Elastic Compliance Matrix: (Units=1/GPa)
#
#
# Indices 1 2 3 4 5 6 
#
# 1 0.014096 -0.002875 -0.006863 0.000000 0.000000 0.000000
# 2 -0.002875 0.013784 -0.004453 0.000000 0.000000 0.000000
# 3 -0.006863 -0.004453 0.016643 0.000000 0.000000 0.000000
# 4 0.000000 0.000000 0.000000 0.031153 0.000000 0.000000
# 5 0.000000 0.000000 0.000000 0.000000 0.041591 0.000000
# 6 0.000000 0.000000 0.000000 0.000000 0.000000 0.046525
#
#
# Mechanical properties :
#
#
# Convention : Reuss Voigt Hill
#
# Bulk Modulus (GPa) = 61.95889 62.47222 62.21556
# Shear Modulus (GPa) = 25.30955 26.06462 25.68708
#
# Velocity S-wave (km/s) = 3.53967 3.59208 3.56597
# Velocity P-wave (km/s) = 6.88316 6.93761 6.91044
#
# Compressibility (1/GPa) = 0.01613973
#
# Stress axis : x y z
#
# Youngs Moduli (GPa) = 70.94124 72.55032 60.08533
#
# Poissons Ratio (x) = 0.20860 0.41239
# Poissons Ratio (y) = 0.20398 0.26754
# Poissons Ratio (z) = 0.48690 0.32305
#
# Static dielectric constant tensor:
#      x y z
#    x 3.835840 0.000000 0.000000 
#    y 0.000000 3.494420 0.000000 
#    z 0.000000 0.000000 3.897820 
# 
# 
# High freq. dielectric constant tensor:
#      x y z
#    x 1.792710 0.000000 0.000000 
#    y 0.000000 1.765010 0.000000 
#    z 0.000000 0.000000 1.790230 
# 
# From -- ./inp_files/28103.got.cif
#   From: 2010.03.12/outbox.cif.g09.slc.cpg/sg21_15_cif.got.tgz:28103.got - 2010.04.14 01:59:26.
