data_PCOD8161228
_publ_section_title
;
Structure prediction by ZEFSAII (Michael W. Deem and Ramdas Pophale) SiO2 
 PCOD8161228
Probable space group: C 2 2 2
;
_chemical_formula_sum "Si O2"
_cell_formula_units_Z 50
_cell_length_a 12.444516
_cell_length_b 18.087390
_cell_length_c 9.832608
_cell_angle_alpha 90.000000
_cell_angle_beta 90.000000
_cell_angle_gamma 90.000000
_cell_volume 2213.210076
_symmetry_space_group_name_H-M "C 2 2 2"
_symmetry_group_IT_number 21
_symmetry_cell_setting 'orthorhombic'
loop_
_space_group_symop_operation_xyz
x,y,z
-x,-y,z
x,-y,-z
-x,y,-z
1/2+x,1/2+y,z
1/2-x,1/2-y,z
1/2+x,1/2-y,-z
1/2-x,1/2+y,-z
loop_
_atom_site_type_symbol
_atom_site_label
_atom_site_fract_x
_atom_site_fract_y
_atom_site_fract_z
Si Si1 0.391765 0.656304 0.427755
Si Si2 0.736402 0.936159 0.393686
Si Si3 0.000000 0.500000 0.000000
Si Si4 0.387855 0.531277 0.210306
Si Si5 0.384125 0.875617 0.839723
Si Si6 0.201320 0.850279 0.038385
Si Si7 0.500000 0.242993 0.000000
Si Si8 0.250000 0.250000 0.741333
O O1 0.500000 0.680510 0.500000
O O2 0.301913 0.627750 0.531617
O O3 0.418400 0.591860 0.322496
O O4 0.351105 0.730093 0.353031
O O5 0.635306 0.894996 0.320019
O O6 0.698122 0.000000 0.500000
O O7 0.809824 0.970382 0.274449
O O8 0.923101 0.549048 0.092592
O O9 0.500000 0.500000 0.158790
O O10 0.334274 0.567053 0.076349
O O11 0.469220 0.809414 0.869920
O O12 0.268430 0.850611 0.900514
O O13 0.277682 0.820637 0.161965
O O14 0.100338 0.794841 0.034553
#
# Coordination Sequence:
#
# PCOD8161228 Si02
#       8
#     8   8   2   8   8   8   4   4
#     4  10  20  39  64  92 134 177 222 281 351 414
#     4  10  22  41  66  99 132 175 225 286 342 415
#     4  10  24  44  74 102 130 188 218 282 370 402
#     4  10  20  36  66  94 134 164 221 281 351 400
#     4  11  23  45  68  96 138 179 228 286 352 416
#     4  11  23  43  66  96 137 175 227 288 348 417
#     4  11  24  43  67  98 137 182 228 282 353 408
#     4  10  22  42  60  90 128 180 216 280 342 410
#
# _framework density 22.591619000000001
#
# number of rings (size 3 to 8) (size 9 to 14) (size 15 to 20)
#    0.000    1.600    3.200    0.960    2.240    0.000 
#    8.640    0.400    0.000    0.000    0.000    0.000 
#    0.000    0.000    0.000    0.000    0.000    0.000 
#
# Total GULP energy -309904.414384 kJ/mol
# GULP energy per Si atom -12396.176575 kJ/mol
# Density = 2.254020 g / cm^3
# Si number density = 22.591619 Si / 1000 Ang^3
#
#
#
# Elastic Constant Matrix: (Units=GPa)
#
#
# Indices 1 2 3 4 5 6 
#
# 1 91.2775 44.6130 41.2536 0.0000 0.0000 0.0000
# 2 44.6130 97.1648 33.5717 0.0000 0.0000 0.0000
# 3 41.2536 33.5717 83.6818 0.0000 0.0000 0.0000
# 4 0.0000 0.0000 0.0000 27.2058 0.0000 0.0000
# 5 0.0000 0.0000 0.0000 0.0000 29.0628 0.0000
# 6 0.0000 0.0000 0.0000 0.0000 0.0000 44.7179
#
#
#
# Elastic Compliance Matrix: (Units=1/GPa)
#
#
# Indices 1 2 3 4 5 6 
#
# 1 0.016252 -0.005449 -0.005826 0.000000 0.000000 0.000000
# 2 -0.005449 0.013775 -0.002840 0.000000 0.000000 0.000000
# 3 -0.005826 -0.002840 0.015961 0.000000 0.000000 0.000000
# 4 0.000000 0.000000 0.000000 0.036757 0.000000 0.000000
# 5 0.000000 0.000000 0.000000 0.000000 0.034408 0.000000
# 6 0.000000 0.000000 0.000000 0.000000 0.000000 0.022362
#
#
# Mechanical properties :
#
#
# Convention : Reuss Voigt Hill
#
# Bulk Modulus (GPa) = 56.31105 56.77785 56.54445
# Shear Modulus (GPa) = 28.79104 30.37637 29.58370
#
# Velocity S-wave (km/s) = 3.57376 3.67084 3.62263
# Velocity P-wave (km/s) = 6.48142 6.56914 6.52543
#
# Compressibility (1/GPa) = 0.01775850
#
# Stress axis : x y z
#
# Youngs Moduli (GPa) = 61.53103 72.59529 62.65113
#
# Poissons Ratio (x) = 0.39558 0.36499
# Poissons Ratio (y) = 0.33529 0.17793
# Poissons Ratio (z) = 0.35847 0.20617
#
# Static dielectric constant tensor:
#      x y z
#    x 4.003020 0.000000 0.000000 
#    y 0.000000 4.263600 0.000000 
#    z 0.000000 0.000000 4.108720 
# 
# 
# High freq. dielectric constant tensor:
#      x y z
#    x 1.879130 0.000000 0.000000 
#    y 0.000000 1.896890 0.000000 
#    z 0.000000 0.000000 1.884730 
# 
# From -- ./inp_files/15051.got.cif
#   From: 2010.03.12/outbox.cif.g09.slc.cpg/sg21_8_cif.got.tgz:15051.got - 2010.04.14 01:59:26.
