data_PCOD8161187
_publ_section_title
;
Structure prediction by ZEFSAII (Michael W. Deem and Ramdas Pophale) SiO2 
 PCOD8161187
Probable space group: C 2 2 2
;
_chemical_formula_sum "Si O2"
_cell_formula_units_Z 64
_cell_length_a 18.112334
_cell_length_b 8.594686
_cell_length_c 20.387967
_cell_angle_alpha 90.000000
_cell_angle_beta 90.000000
_cell_angle_gamma 90.000000
_cell_volume 3173.791224
_symmetry_space_group_name_H-M "C 2 2 2"
_symmetry_group_IT_number 21
_symmetry_cell_setting 'orthorhombic'
loop_
_space_group_symop_operation_xyz
x,y,z
-x,-y,z
x,-y,-z
-x,y,-z
1/2+x,1/2+y,z
1/2-x,1/2-y,z
1/2+x,1/2-y,-z
1/2-x,1/2+y,-z
loop_
_atom_site_type_symbol
_atom_site_label
_atom_site_fract_x
_atom_site_fract_y
_atom_site_fract_z
Si Si1 0.580847 0.064309 0.065612
Si Si2 0.650759 0.089100 0.567719
Si Si3 0.416189 0.958066 0.305478
Si Si4 0.822646 0.061247 0.571393
Si Si5 0.673585 0.446576 0.817492
Si Si6 0.657011 0.100874 0.815599
Si Si7 0.078991 0.928767 0.068621
Si Si8 0.828882 0.158167 0.309807
O O1 0.573864 0.246847 0.060146
O O2 0.500000 0.000000 0.066803
O O3 0.617862 0.008413 0.132109
O O4 0.622423 0.000000 0.000000
O O5 0.735998 0.071289 0.585557
O O6 0.634870 0.273630 0.571274
O O7 0.632538 0.000000 0.500000
O O8 0.598420 0.009772 0.620547
O O9 0.397249 0.775669 0.299615
O O10 0.500000 0.000000 0.285455
O O11 0.360030 0.045395 0.257532
O O12 0.839854 0.000000 0.500000
O O13 0.850615 0.939195 0.625401
O O14 0.631360 0.280825 0.816872
O O15 0.758015 0.415268 0.832656
O O16 0.639397 0.545757 0.875744
O O17 0.668508 0.538172 0.749676
O O18 0.000000 0.000000 0.089041
O O19 0.106681 0.000000 0.000000
O O20 0.750000 0.250000 0.315559
#
# Coordination Sequence:
#
# PCOD8161187 Si02
#       8
#     8   8   8   8   8   8   8   8
#     4  11  22  39  63  87 123 165 207 257 318 383
#     4  10  20  37  61  91 128 163 212 267 326 386
#     4  12  25  40  61  89 127 170 212 262 334 394
#     4  10  20  35  65  95 121 166 218 272 321 384
#     4  11  24  40  66  90 126 164 211 270 329 383
#     4  11  23  42  62  91 122 164 215 263 322 390
#     4  11  23  41  65  95 130 166 214 267 326 393
#     4  12  22  40  64  94 129 164 218 277 329 386
#
# _framework density 20.165158000000002
#
# number of rings (size 3 to 8) (size 9 to 14) (size 15 to 20)
#    0.000    1.000    2.500    5.625    1.750    3.750 
#    0.000    1.875    0.000    0.750    0.000    0.000 
#    0.000    0.000    0.000    0.000    0.000    0.000 
#
# Total GULP energy -396735.026291 kJ/mol
# GULP energy per Si atom -12397.969572 kJ/mol
# Density = 2.011926 g / cm^3
# Si number density = 20.165158 Si / 1000 Ang^3
#
#
#
# Elastic Constant Matrix: (Units=GPa)
#
#
# Indices 1 2 3 4 5 6 
#
# 1 56.3390 34.6783 33.4205 0.0000 0.0000 0.0000
# 2 34.6783 178.6647 54.1922 0.0000 0.0000 0.0000
# 3 33.4205 54.1922 123.1594 0.0000 0.0000 0.0000
# 4 0.0000 0.0000 0.0000 43.8571 0.0000 0.0000
# 5 0.0000 0.0000 0.0000 0.0000 49.6871 0.0000
# 6 0.0000 0.0000 0.0000 0.0000 0.0000 42.0248
#
#
#
# Elastic Compliance Matrix: (Units=1/GPa)
#
#
# Indices 1 2 3 4 5 6 
#
# 1 0.022375 -0.002886 -0.004801 0.000000 0.000000 0.000000
# 2 -0.002886 0.006832 -0.002223 0.000000 0.000000 0.000000
# 3 -0.004801 -0.002223 0.010401 0.000000 0.000000 0.000000
# 4 0.000000 0.000000 0.000000 0.022801 0.000000 0.000000
# 5 0.000000 0.000000 0.000000 0.000000 0.020126 0.000000
# 6 0.000000 0.000000 0.000000 0.000000 0.000000 0.023795
#
#
# Mechanical properties :
#
#
# Convention : Reuss Voigt Hill
#
# Bulk Modulus (GPa) = 50.54241 66.97167 58.75704
# Shear Modulus (GPa) = 37.66592 42.83860 40.25226
#
# Velocity S-wave (km/s) = 4.32658 4.61411 4.47265
# Velocity P-wave (km/s) = 7.07656 7.85305 7.47489
#
# Compressibility (1/GPa) = 0.01978536
#
# Stress axis : x y z
#
# Youngs Moduli (GPa) = 44.69336 146.38031 96.14899
#
# Poissons Ratio (x) = 0.42252 0.46166
# Poissons Ratio (y) = 0.12901 0.21371
# Poissons Ratio (z) = 0.21460 0.32536
#
# Static dielectric constant tensor:
#      x y z
#    x 3.445870 0.000000 0.000000 
#    y 0.000000 4.511370 0.000000 
#    z 0.000000 0.000000 2.975930 
# 
# 
# High freq. dielectric constant tensor:
#      x y z
#    x 1.758030 0.000000 0.000000 
#    y 0.000000 1.813040 0.000000 
#    z 0.000000 0.000000 1.804840 
# 
# From -- ./inp_files/37714.got.cif
#   From: 2010.03.12/outbox.cif.g09.slc.cpg/sg21_19_cif.got.tgz:37714.got - 2010.04.14 01:59:26.
