data_PCOD8161317
_publ_section_title
;
Structure prediction by ZEFSAII (Michael W. Deem and Ramdas Pophale) SiO2 
 PCOD8161317
Probable space group: C 2 2 2
;
_chemical_formula_sum "Si O2"
_cell_formula_units_Z 52
_cell_length_a 8.573413
_cell_length_b 19.416884
_cell_length_c 14.972831
_cell_angle_alpha 90.000000
_cell_angle_beta 90.000000
_cell_angle_gamma 90.000000
_cell_volume 2492.511690
_symmetry_space_group_name_H-M "C 2 2 2"
_symmetry_group_IT_number 21
_symmetry_cell_setting 'orthorhombic'
loop_
_space_group_symop_operation_xyz
x,y,z
-x,-y,z
x,-y,-z
-x,y,-z
1/2+x,1/2+y,z
1/2-x,1/2-y,z
1/2+x,1/2-y,-z
1/2-x,1/2+y,-z
loop_
_atom_site_type_symbol
_atom_site_label
_atom_site_fract_x
_atom_site_fract_y
_atom_site_fract_z
Si Si1 0.998541 0.077955 0.327662
Si Si2 0.674006 0.883546 0.401126
Si Si3 0.660618 0.314281 0.446600
Si Si4 0.087839 0.892496 0.861901
Si Si5 0.357186 0.815815 0.770907
Si Si6 0.500000 0.500000 0.000000
Si Si7 0.000000 0.500000 0.500000
Si Si8 0.566142 0.748413 0.908896
O O1 0.865859 0.124179 0.375475
O O2 0.162010 0.109674 0.352722
O O3 0.980824 0.080639 0.220728
O O4 0.000000 0.000000 0.364066
O O5 0.699856 0.836905 0.487393
O O6 0.574348 0.846138 0.322858
O O7 0.602993 0.955490 0.432194
O O8 0.500000 0.296946 0.500000
O O9 0.750000 0.250000 0.399260
O O10 0.260272 0.871408 0.828949
O O11 0.997149 0.828921 0.904612
O O12 0.107274 0.952125 0.936311
O O13 0.250000 0.750000 0.748930
O O14 0.508691 0.793471 0.825676
O O15 0.750000 0.750000 0.910691
O O16 0.500000 0.781796 0.000000
#
# Coordination Sequence:
#
# PCOD8161317 Si02
#       8
#     8   8   8   8   8   2   2   8
#     4  10  20  40  62  91 126 173 221 266 326 398
#     4  10  22  40  60  87 126 174 213 261 336 384
#     4  10  22  39  64  91 125 164 218 275 331 394
#     4  10  21  37  64  94 124 173 209 262 320 388
#     4   9  20  42  67  87 127 167 208 269 329 384
#     4  12  20  36  64  94 130 168 222 250 308 404
#     4  12  24  40  62  92 126 180 216 268 324 404
#     4  11  22  40  66  99 129 163 213 267 332 382
#
# _framework density 20.862489
#
# number of rings (size 3 to 8) (size 9 to 14) (size 15 to 20)
#    0.000    1.846    1.538    2.769    1.077    4.000 
#    5.538    0.000    0.000    0.923    0.000    0.000 
#    0.000    0.000    0.000    0.000    0.000    0.000 
#
# Total GULP energy -322280.272636 kJ/mol
# GULP energy per Si atom -12395.395101 kJ/mol
# Density = 2.081500 g / cm^3
# Si number density = 20.862489 Si / 1000 Ang^3
#
#
#
# Elastic Constant Matrix: (Units=GPa)
#
#
# Indices 1 2 3 4 5 6 
#
# 1 83.6532 35.3716 49.0238 0.0000 0.0000 0.0000
# 2 35.3716 126.7033 68.8407 0.0000 0.0000 0.0000
# 3 49.0238 68.8407 156.5016 0.0000 0.0000 0.0000
# 4 0.0000 0.0000 0.0000 53.3251 0.0000 0.0000
# 5 0.0000 0.0000 0.0000 0.0000 19.6165 0.0000
# 6 0.0000 0.0000 0.0000 0.0000 0.0000 30.4151
#
#
#
# Elastic Compliance Matrix: (Units=1/GPa)
#
#
# Indices 1 2 3 4 5 6 
#
# 1 0.015079 -0.002159 -0.003774 0.000000 0.000000 0.000000
# 2 -0.002159 0.010680 -0.004022 0.000000 0.000000 0.000000
# 3 -0.003774 -0.004022 0.009341 0.000000 0.000000 0.000000
# 4 0.000000 0.000000 0.000000 0.018753 0.000000 0.000000
# 5 0.000000 0.000000 0.000000 0.000000 0.050978 0.000000
# 6 0.000000 0.000000 0.000000 0.000000 0.000000 0.032878
#
#
# Mechanical properties :
#
#
# Convention : Reuss Voigt Hill
#
# Bulk Modulus (GPa) = 65.82899 74.81448 70.32173
# Shear Modulus (GPa) = 30.73507 34.91281 32.82394
#
# Velocity S-wave (km/s) = 3.84242 4.09525 3.97085
# Velocity P-wave (km/s) = 7.16295 7.63545 7.40297
#
# Compressibility (1/GPa) = 0.01519088
#
# Stress axis : x y z
#
# Youngs Moduli (GPa) = 66.31942 93.63076 107.05788
#
# Poissons Ratio (x) = 0.20217 0.40399
# Poissons Ratio (y) = 0.14320 0.43054
# Poissons Ratio (z) = 0.25026 0.37654
#
# Static dielectric constant tensor:
#      x y z
#    x 3.530580 0.000000 0.000000 
#    y 0.000000 3.866360 0.000000 
#    z 0.000000 0.000000 4.166940 
# 
# 
# High freq. dielectric constant tensor:
#      x y z
#    x 1.789520 0.000000 0.000000 
#    y 0.000000 1.818450 0.000000 
#    z 0.000000 0.000000 1.831900 
# 
# From -- ./inp_files/30714.got.cif
#   From: 2010.03.12/outbox.cif.g09.slc.cpg/sg21_16_cif.got.tgz:30714.got - 2010.04.14 01:59:26.
