data_PCOD8161766
_publ_section_title
;
Structure prediction by ZEFSAII (Michael W. Deem and Ramdas Pophale) SiO2 
 PCOD8161766
Probable space group: C 2 2 2
;
_chemical_formula_sum "Si O2"
_cell_formula_units_Z 30
_cell_length_a 6.209648
_cell_length_b 13.919705
_cell_length_c 15.006126
_cell_angle_alpha 90.000000
_cell_angle_beta 90.000000
_cell_angle_gamma 90.000000
_cell_volume 1297.076535
_symmetry_space_group_name_H-M "C 2 2 2"
_symmetry_group_IT_number 21
_symmetry_cell_setting 'orthorhombic'
loop_
_space_group_symop_operation_xyz
x,y,z
-x,-y,z
x,-y,-z
-x,y,-z
1/2+x,1/2+y,z
1/2-x,1/2-y,z
1/2+x,1/2-y,-z
1/2-x,1/2+y,-z
loop_
_atom_site_type_symbol
_atom_site_label
_atom_site_fract_x
_atom_site_fract_y
_atom_site_fract_z
Si Si1 0.380309 0.597017 0.259134
Si Si2 0.000000 0.500000 0.353104
Si Si3 0.000000 0.500000 0.000000
Si Si4 0.319165 0.353204 0.933139
Si Si5 0.656678 0.646057 0.421643
O O1 0.500000 0.500000 0.234370
O O2 0.387176 0.660473 0.169676
O O3 0.515086 0.655735 0.332333
O O4 0.139463 0.573333 0.292922
O O5 0.843663 0.565976 0.413562
O O6 0.132282 0.432147 0.933658
O O7 0.250000 0.250000 0.971315
O O8 0.500000 0.392819 0.000000
O O9 0.500000 0.610365 0.500000
O O10 0.750000 0.750000 0.445913
#
# Coordination Sequence:
#
# PCOD8161766 Si02
#       5
#     8   4   2   8   8
#     4  10  24  46  72 103 139 188 235 298 359 418
#     4  10  25  49  73 103 138 190 235 299 355 427
#     4  12  24  48  70 100 152 194 232 308 346 424
#     4  12  26  45  73 109 145 191 243 293 358 426
#     4  11  28  47  72 107 142 186 237 291 360 425
#
# _framework density 23.128935999999999
#
# number of rings (size 3 to 8) (size 9 to 14) (size 15 to 20)
#    0.000    1.067    1.333    2.800    7.467    9.067 
#    0.000    0.000    0.000    0.000    0.000    0.000 
#    0.000    0.000    0.000    0.000    0.000    0.000 
#
# Total GULP energy -186066.333567 kJ/mol
# GULP energy per Si atom -12404.422238 kJ/mol
# Density = 2.307629 g / cm^3
# Si number density = 23.128936 Si / 1000 Ang^3
#
#
#
# Elastic Constant Matrix: (Units=GPa)
#
#
# Indices 1 2 3 4 5 6 
#
# 1 151.2775 51.3825 70.6646 0.0000 0.0000 0.0000
# 2 51.3825 108.3072 36.8755 0.0000 0.0000 0.0000
# 3 70.6646 36.8755 153.8963 0.0000 0.0000 0.0000
# 4 0.0000 0.0000 0.0000 36.7043 0.0000 0.0000
# 5 0.0000 0.0000 0.0000 0.0000 32.3379 0.0000
# 6 0.0000 0.0000 0.0000 0.0000 0.0000 40.9534
#
#
#
# Elastic Compliance Matrix: (Units=1/GPa)
#
#
# Indices 1 2 3 4 5 6 
#
# 1 0.009355 -0.003240 -0.003519 0.000000 0.000000 0.000000
# 2 -0.003240 0.011175 -0.001190 0.000000 0.000000 0.000000
# 3 -0.003519 -0.001190 0.008399 0.000000 0.000000 0.000000
# 4 0.000000 0.000000 0.000000 0.027245 0.000000 0.000000
# 5 0.000000 0.000000 0.000000 0.000000 0.030923 0.000000
# 6 0.000000 0.000000 0.000000 0.000000 0.000000 0.024418
#
#
# Mechanical properties :
#
#
# Convention : Reuss Voigt Hill
#
# Bulk Modulus (GPa) = 76.74144 81.25845 78.99994
# Shear Modulus (GPa) = 37.94880 38.96969 38.45924
#
# Velocity S-wave (km/s) = 4.05501 4.10919 4.08219
# Velocity P-wave (km/s) = 7.42806 7.59757 7.51329
#
# Compressibility (1/GPa) = 0.01303077
#
# Stress axis : x y z
#
# Youngs Moduli (GPa) = 106.89906 89.48381 119.06330
#
# Poissons Ratio (x) = 0.28991 0.41899
# Poissons Ratio (y) = 0.34633 0.14170
# Poissons Ratio (z) = 0.37618 0.10649
#
# Static dielectric constant tensor:
#      x y z
#    x 4.351470 0.000000 0.000000 
#    y 0.000000 3.936270 0.000000 
#    z 0.000000 0.000000 4.001740 
# 
# 
# High freq. dielectric constant tensor:
#      x y z
#    x 1.924910 0.000000 0.000000 
#    y 0.000000 1.917290 0.000000 
#    z 0.000000 0.000000 1.915440 
# 
# From -- ./inp_files/34366.got.cif
#   From: 2010.03.12/outbox.cif.g09.slc.cpg/sg21_18_cif.got.tgz:34366.got - 2010.04.14 01:59:26.
