data_PCOD8161594
_publ_section_title
;
Structure prediction by ZEFSAII (Michael W. Deem and Ramdas Pophale) SiO2 
 PCOD8161594
Probable space group: C 2 2 2
;
_chemical_formula_sum "Si O2"
_cell_formula_units_Z 32
_cell_length_a 10.942440
_cell_length_b 21.985063
_cell_length_c 6.540465
_cell_angle_alpha 90.000000
_cell_angle_beta 90.000000
_cell_angle_gamma 90.000000
_cell_volume 1573.441187
_symmetry_space_group_name_H-M "C 2 2 2"
_symmetry_group_IT_number 21
_symmetry_cell_setting 'orthorhombic'
loop_
_space_group_symop_operation_xyz
x,y,z
-x,-y,z
x,-y,-z
-x,y,-z
1/2+x,1/2+y,z
1/2-x,1/2-y,z
1/2+x,1/2-y,-z
1/2-x,1/2+y,-z
loop_
_atom_site_type_symbol
_atom_site_label
_atom_site_fract_x
_atom_site_fract_y
_atom_site_fract_z
Si Si1 0.386029 0.559463 0.874360
Si Si2 0.000000 0.318153 0.500000
Si Si3 0.636330 0.887877 0.155091
Si Si4 0.500000 0.000000 0.000000
Si Si5 0.385514 0.224139 0.884601
Si Si6 0.000000 0.000000 0.500000
O O1 0.282440 0.609510 0.850703
O O2 0.417725 0.542513 0.642356
O O3 0.341596 0.500000 0.000000
O O4 0.500000 0.588196 0.000000
O O5 0.908090 0.358636 0.633681
O O6 0.914699 0.275556 0.357038
O O7 0.606011 0.846244 0.958415
O O8 0.582719 0.955992 0.139564
O O9 0.250000 0.250000 0.932456
O O10 0.500000 0.258689 0.000000
#
# Coordination Sequence:
#
# PCOD8161594 Si02
#       6
#     8   4   8   2   8   2
#     4   9  19  34  54  78 118 161 200 244 300 376
#     4  10  22  39  62  99 122 163 217 264 318 374
#     4  11  22  39  61  94 128 163 206 258 321 386
#     4  12  20  38  62  96 130 160 204 250 328 384
#     4  10  23  45  66  91 125 167 217 270 322 375
#     4   8  18  32  48  82 112 162 198 244 294 360
#
# _framework density 20.337586999999999
#
# number of rings (size 3 to 8) (size 9 to 14) (size 15 to 20)
#    0.000    2.250    5.000    0.000    0.000   11.500 
#    0.000    0.000    0.000    0.000    0.000    0.000 
#    0.000    0.000    0.000    0.000    0.000    0.000 
#
# Total GULP energy -198234.829820 kJ/mol
# GULP energy per Si atom -12389.676864 kJ/mol
# Density = 2.029130 g / cm^3
# Si number density = 20.337587 Si / 1000 Ang^3
#
#
#
# Elastic Constant Matrix: (Units=GPa)
#
#
# Indices 1 2 3 4 5 6 
#
# 1 177.2252 33.8343 54.1178 0.0000 0.0000 0.0000
# 2 33.8343 54.5665 21.2571 0.0000 0.0000 0.0000
# 3 54.1178 21.2571 146.0904 0.0000 0.0000 0.0000
# 4 0.0000 0.0000 0.0000 11.7398 0.0000 0.0000
# 5 0.0000 0.0000 0.0000 0.0000 25.1279 0.0000
# 6 0.0000 0.0000 0.0000 0.0000 0.0000 33.2013
#
#
#
# Elastic Compliance Matrix: (Units=1/GPa)
#
#
# Indices 1 2 3 4 5 6 
#
# 1 0.006940 -0.003500 -0.002062 0.000000 0.000000 0.000000
# 2 -0.003500 0.021193 -0.001787 0.000000 0.000000 0.000000
# 3 -0.002062 -0.001787 0.007869 0.000000 0.000000 0.000000
# 4 0.000000 0.000000 0.000000 0.085180 0.000000 0.000000
# 5 0.000000 0.000000 0.000000 0.000000 0.039796 0.000000
# 6 0.000000 0.000000 0.000000 0.000000 0.000000 0.030119
#
#
# Mechanical properties :
#
#
# Convention : Reuss Voigt Hill
#
# Bulk Modulus (GPa) = 46.93953 66.25562 56.59758
# Shear Modulus (GPa) = 23.48555 31.92534 27.70545
#
# Velocity S-wave (km/s) = 3.40190 3.96633 3.69491
# Velocity P-wave (km/s) = 6.20974 7.32287 6.78915
#
# Compressibility (1/GPa) = 0.02130400
#
# Stress axis : x y z
#
# Youngs Moduli (GPa) = 144.08539 47.18585 127.08368
#
# Poissons Ratio (x) = 0.16516 0.26200
# Poissons Ratio (y) = 0.50433 0.22711
# Poissons Ratio (z) = 0.29706 0.08432
#
# Static dielectric constant tensor:
#      x y z
#    x 4.041160 0.000000 0.000000 
#    y 0.000000 3.310380 0.000000 
#    z 0.000000 0.000000 3.579410 
# 
# 
# High freq. dielectric constant tensor:
#      x y z
#    x 1.818630 0.000000 0.000000 
#    y 0.000000 1.759720 0.000000 
#    z 0.000000 0.000000 1.792700 
# 
# From -- ./inp_files/2626.got.cif
#   From: 2010.03.12/outbox.cif.g09.slc.cpg/sg21_2_cif.got.tgz:2626.got - 2010.04.14 01:59:26.
