data_PCOD8161632
_publ_section_title
;
Structure prediction by ZEFSAII (Michael W. Deem and Ramdas Pophale) SiO2 
 PCOD8161632
Probable space group: C 2 2 2
;
_chemical_formula_sum "Si O2"
_cell_formula_units_Z 20
_cell_length_a 4.982650
_cell_length_b 14.621070
_cell_length_c 11.782188
_cell_angle_alpha 90.000000
_cell_angle_beta 90.000000
_cell_angle_gamma 90.000000
_cell_volume 858.352124
_symmetry_space_group_name_H-M "C 2 2 2"
_symmetry_group_IT_number 21
_symmetry_cell_setting 'orthorhombic'
loop_
_space_group_symop_operation_xyz
x,y,z
-x,-y,z
x,-y,-z
-x,y,-z
1/2+x,1/2+y,z
1/2-x,1/2-y,z
1/2+x,1/2-y,-z
1/2-x,1/2+y,-z
loop_
_atom_site_type_symbol
_atom_site_label
_atom_site_fract_x
_atom_site_fract_y
_atom_site_fract_z
Si Si1 0.753812 0.142097 0.933689
Si Si2 0.500000 0.190930 0.500000
Si Si3 0.754885 0.562247 0.308580
O O1 0.750000 0.250000 0.946204
O O2 0.802296 0.121271 0.802042
O O3 0.500000 0.099566 0.000000
O O4 0.000000 0.097630 0.000000
O O5 0.250000 0.250000 0.552948
O O6 0.349036 0.129114 0.408270
O O7 0.500000 0.500000 0.346369
O O8 0.000000 0.500000 0.273962
#
# Coordination Sequence:
#
# PCOD8161632 Si02
#       3
#     8   4   8
#     4  10  22  41  66  96 133 179 229 276 331 408
#     4  12  27  48  73  98 136 188 238 280 339 422
#     4  12  26  44  69 102 140 176 225 290 350 404
#
# _framework density 23.300460000000001
#
# number of rings (size 3 to 8) (size 9 to 14) (size 15 to 20)
#    0.000    0.800    0.000    6.600    0.000   11.200 
#    0.000    0.000    0.000    0.000    0.000    0.000 
#    0.000    0.000    0.000    0.000    0.000    0.000 
#
# Total GULP energy -123943.612126 kJ/mol
# GULP energy per Si atom -12394.361213 kJ/mol
# Density = 2.324743 g / cm^3
# Si number density = 23.300460 Si / 1000 Ang^3
#
#
#
# Elastic Constant Matrix: (Units=GPa)
#
#
# Indices 1 2 3 4 5 6 
#
# 1 222.4231 59.7050 76.9078 0.0000 0.0000 0.0000
# 2 59.7050 59.9821 46.2821 0.0000 0.0000 0.0000
# 3 76.9078 46.2821 187.3211 0.0000 0.0000 0.0000
# 4 0.0000 0.0000 0.0000 23.5885 0.0000 0.0000
# 5 0.0000 0.0000 0.0000 0.0000 47.2453 0.0000
# 6 0.0000 0.0000 0.0000 0.0000 0.0000 17.7597
#
#
#
# Elastic Compliance Matrix: (Units=1/GPa)
#
#
# Indices 1 2 3 4 5 6 
#
# 1 0.006381 -0.005350 -0.001298 0.000000 0.000000 0.000000
# 2 -0.005350 0.025084 -0.004001 0.000000 0.000000 0.000000
# 3 -0.001298 -0.004001 0.006860 0.000000 0.000000 0.000000
# 4 0.000000 0.000000 0.000000 0.042394 0.000000 0.000000
# 5 0.000000 0.000000 0.000000 0.000000 0.021166 0.000000
# 6 0.000000 0.000000 0.000000 0.000000 0.000000 0.056307
#
#
# Mechanical properties :
#
#
# Convention : Reuss Voigt Hill
#
# Bulk Modulus (GPa) = 58.73064 92.83512 75.78288
# Shear Modulus (GPa) = 27.00294 36.84080 31.92187
#
# Velocity S-wave (km/s) = 3.40796 3.98064 3.70538
# Velocity P-wave (km/s) = 6.38326 7.81386 7.13451
#
# Compressibility (1/GPa) = 0.01702689
#
# Stress axis : x y z
#
# Youngs Moduli (GPa) = 156.72083 39.86608 145.77488
#
# Poissons Ratio (x) = 0.21328 0.18921
# Poissons Ratio (y) = 0.83843 0.58327
# Poissons Ratio (z) = 0.20341 0.15951
#
# Static dielectric constant tensor:
#      x y z
#    x 4.880390 0.000000 0.000000 
#    y 0.000000 4.270110 0.000000 
#    z 0.000000 0.000000 3.993430 
# 
# 
# High freq. dielectric constant tensor:
#      x y z
#    x 1.947700 0.000000 0.000000 
#    y 0.000000 1.932890 0.000000 
#    z 0.000000 0.000000 1.921950 
# 
# From -- ./inp_files/20107.got.cif
#   From: 2010.03.12/outbox.cif.g09.slc.cpg/sg21_11_cif.got.tgz:20107.got - 2010.04.14 01:59:26.
