data_PCOD8161636
_publ_section_title
;
Structure prediction by ZEFSAII (Michael W. Deem and Ramdas Pophale) SiO2 
 PCOD8161636
Probable space group: C 2 2 2
;
_chemical_formula_sum "Si O2"
_cell_formula_units_Z 48
_cell_length_a 16.398690
_cell_length_b 24.365608
_cell_length_c 5.171673
_cell_angle_alpha 90.000000
_cell_angle_beta 90.000000
_cell_angle_gamma 90.000000
_cell_volume 2066.414621
_symmetry_space_group_name_H-M "C 2 2 2"
_symmetry_group_IT_number 21
_symmetry_cell_setting 'orthorhombic'
loop_
_space_group_symop_operation_xyz
x,y,z
-x,-y,z
x,-y,-z
-x,y,-z
1/2+x,1/2+y,z
1/2-x,1/2-y,z
1/2+x,1/2-y,-z
1/2-x,1/2+y,-z
loop_
_atom_site_type_symbol
_atom_site_label
_atom_site_fract_x
_atom_site_fract_y
_atom_site_fract_z
Si Si1 0.406687 0.715332 0.077613
Si Si2 0.200101 0.611577 0.659502
Si Si3 0.035970 0.561587 0.748076
Si Si4 0.839897 0.732602 0.433910
Si Si5 0.305678 0.391591 0.839354
Si Si6 0.535581 0.560748 0.751518
O O1 0.398618 0.758989 0.315599
O O2 0.363851 0.661150 0.193140
O O3 0.500000 0.706707 0.000000
O O4 0.360642 0.731568 0.816247
O O5 0.134088 0.564298 0.729971
O O6 0.155542 0.670153 0.666587
O O7 0.234033 0.605065 0.369954
O O8 0.270993 0.605802 0.871391
O O9 0.000000 0.500000 0.749794
O O10 0.000000 0.593254 0.500000
O O11 0.000000 0.592250 0.000000
O O12 0.750000 0.750000 0.529205
O O13 0.366232 0.442219 0.773624
O O14 0.500000 0.500000 0.747935
O O15 0.500000 0.592228 0.500000
O O16 0.500000 0.593079 0.000000
#
# Coordination Sequence:
#
# PCOD8161636 Si02
#       6
#     8   8   8   8   8   8
#     4  12  25  41  67 101 139 186 224 277 335 400
#     4  12  25  41  73 100 131 184 224 278 350 402
#     4  10  23  47  70  94 133 172 221 293 349 396
#     4  12  23  44  65  97 145 182 228 281 332 399
#     4  12  23  42  67 101 135 176 231 273 335 419
#     4  10  22  42  63  90 131 177 214 279 336 392
#
# _framework density 23.228641
#
# number of rings (size 3 to 8) (size 9 to 14) (size 15 to 20)
#    0.000    0.667    3.333    4.500    0.000    3.333 
#    0.000   20.000    0.000    0.000    0.000    0.000 
#    0.000    0.000    0.000    0.000    0.000    0.000 
#
# Total GULP energy -297480.978670 kJ/mol
# GULP energy per Si atom -12395.040778 kJ/mol
# Density = 2.317577 g / cm^3
# Si number density = 23.228641 Si / 1000 Ang^3
#
#
#
# Elastic Constant Matrix: (Units=GPa)
#
#
# Indices 1 2 3 4 5 6 
#
# 1 144.1524 50.9695 52.1119 0.0000 0.0000 0.0000
# 2 50.9695 73.6139 14.5080 0.0000 0.0000 0.0000
# 3 52.1119 14.5080 200.5878 0.0000 0.0000 0.0000
# 4 0.0000 0.0000 0.0000 10.6826 0.0000 0.0000
# 5 0.0000 0.0000 0.0000 0.0000 53.7869 0.0000
# 6 0.0000 0.0000 0.0000 0.0000 0.0000 33.7588
#
#
#
# Elastic Compliance Matrix: (Units=1/GPa)
#
#
# Indices 1 2 3 4 5 6 
#
# 1 0.010009 -0.006510 -0.002129 0.000000 0.000000 0.000000
# 2 -0.006510 0.018016 0.000388 0.000000 0.000000 0.000000
# 3 -0.002129 0.000388 0.005510 0.000000 0.000000 0.000000
# 4 0.000000 0.000000 0.000000 0.093610 0.000000 0.000000
# 5 0.000000 0.000000 0.000000 0.000000 0.018592 0.000000
# 6 0.000000 0.000000 0.000000 0.000000 0.000000 0.029622
#
#
# Mechanical properties :
#
#
# Convention : Reuss Voigt Hill
#
# Bulk Modulus (GPa) = 58.71273 72.61476 65.66374
# Shear Modulus (GPa) = 25.31152 39.69665 32.50408
#
# Velocity S-wave (km/s) = 3.30459 4.13843 3.74479
# Velocity P-wave (km/s) = 6.31596 7.35964 6.85768
#
# Compressibility (1/GPa) = 0.01703208
#
# Stress axis : x y z
#
# Youngs Moduli (GPa) = 99.91202 55.50764 181.47301
#
# Poissons Ratio (x) = 0.36137 0.38642
# Poissons Ratio (y) = 0.65046 -0.07047
# Poissons Ratio (z) = 0.21275 -0.02156
#
# Static dielectric constant tensor:
#      x y z
#    x 4.274060 0.000000 0.000000 
#    y 0.000000 3.931970 0.000000 
#    z 0.000000 0.000000 5.843710 
# 
# 
# High freq. dielectric constant tensor:
#      x y z
#    x 1.921290 0.000000 0.000000 
#    y 0.000000 1.889570 0.000000 
#    z 0.000000 0.000000 1.953230 
# 
# From -- ./inp_files/4103.got.cif
#   From: 2010.03.12/outbox.cif.g09.slc.cpg/sg21_3_cif.got.tgz:4103.got - 2010.04.14 01:59:26.
