data_PCOD8161268
_publ_section_title
;
Structure prediction by ZEFSAII (Michael W. Deem and Ramdas Pophale) SiO2 
 PCOD8161268
Probable space group: C 2 2 2
;
_chemical_formula_sum "Si O2"
_cell_formula_units_Z 64
_cell_length_a 15.184014
_cell_length_b 9.098181
_cell_length_c 23.896788
_cell_angle_alpha 90.000000
_cell_angle_beta 90.000000
_cell_angle_gamma 90.000000
_cell_volume 3301.267366
_symmetry_space_group_name_H-M "C 2 2 2"
_symmetry_group_IT_number 21
_symmetry_cell_setting 'orthorhombic'
loop_
_space_group_symop_operation_xyz
x,y,z
-x,-y,z
x,-y,-z
-x,y,-z
1/2+x,1/2+y,z
1/2-x,1/2-y,z
1/2+x,1/2-y,-z
1/2-x,1/2+y,-z
loop_
_atom_site_type_symbol
_atom_site_label
_atom_site_fract_x
_atom_site_fract_y
_atom_site_fract_z
Si Si1 0.500138 0.327062 0.915268
Si Si2 0.500195 0.825753 0.203055
Si Si3 0.342227 0.673416 0.498352
Si Si4 0.836969 0.325257 0.275341
Si Si5 0.335903 0.172441 0.274988
Si Si6 0.597633 0.165814 0.393850
Si Si7 0.846970 0.172679 0.000170
Si Si8 0.602485 0.838899 0.393918
O O1 0.500000 0.500000 0.904818
O O2 0.501002 0.241502 0.857853
O O3 0.590852 0.283499 0.947470
O O4 0.408944 0.283567 0.946988
O O5 0.415647 0.767957 0.236676
O O6 0.584133 0.769319 0.237616
O O7 0.500000 0.000000 0.197740
O O8 0.333035 0.500000 0.500000
O O9 0.250000 0.750000 0.489621
O O10 0.399682 0.720534 0.445065
O O11 0.385957 0.726426 0.555560
O O12 0.750000 0.250000 0.251423
O O13 0.827747 0.498748 0.270994
O O14 0.849462 0.276034 0.340028
O O15 0.250000 0.250000 0.250143
O O16 0.344934 0.218959 0.340070
O O17 0.497674 0.153061 0.374132
O O18 0.632824 0.003642 0.412352
O O19 0.750000 0.250000 0.000164
O O20 0.827292 0.000000 0.000000
#
# Coordination Sequence:
#
# PCOD8161268 Si02
#       8
#     8   8   8   8   8   8   8   8
#     4   9  20  38  58  84 119 157 193 236 286 333
#     4  10  21  39  59  83 117 154 194 238 283 336
#     4  12  25  38  53  79 111 141 181 235 288 347
#     4  10  21  38  59  83 112 149 191 236 285 341
#     4  10  21  38  59  83 112 149 191 236 285 341
#     4  10  20  38  61  81 107 145 184 227 287 352
#     4   9  19  37  60  86 120 157 195 237 282 332
#     4  10  20  38  61  81 107 145 184 227 287 352
#
# _framework density 19.386493999999999
#
# number of rings (size 3 to 8) (size 9 to 14) (size 15 to 20)
#    0.000    2.000    1.250    3.000    0.000    8.000 
#    0.000    6.250    0.000    0.000    0.000    0.000 
#    0.000    0.000    0.000    0.000    0.000    0.000 
#
# Total GULP energy -396704.758426 kJ/mol
# GULP energy per Si atom -12397.023701 kJ/mol
# Density = 1.934237 g / cm^3
# Si number density = 19.386494 Si / 1000 Ang^3
#
#
#
# Elastic Constant Matrix: (Units=GPa)
#
#
# Indices 1 2 3 4 5 6 
#
# 1 154.2614 44.8240 68.1411 0.0000 0.0000 0.0000
# 2 44.8240 68.6853 52.8063 0.0000 0.0000 0.0000
# 3 68.1411 52.8063 134.7751 0.0000 0.0000 0.0000
# 4 0.0000 0.0000 0.0000 30.2974 0.0000 0.0000
# 5 0.0000 0.0000 0.0000 0.0000 1.9913 0.0000
# 6 0.0000 0.0000 0.0000 0.0000 0.0000 34.9425
#
#
#
# Elastic Compliance Matrix: (Units=1/GPa)
#
#
# Indices 1 2 3 4 5 6 
#
# 1 0.008852 -0.003343 -0.003166 0.000000 0.000000 0.000000
# 2 -0.003343 0.022098 -0.006968 0.000000 0.000000 0.000000
# 3 -0.003166 -0.006968 0.011750 0.000000 0.000000 0.000000
# 4 0.000000 0.000000 0.000000 0.033006 0.000000 0.000000
# 5 0.000000 0.000000 0.000000 0.000000 0.502178 0.000000
# 6 0.000000 0.000000 0.000000 0.000000 0.000000 0.028618
#
#
# Mechanical properties :
#
#
# Convention : Reuss Voigt Hill
#
# Bulk Modulus (GPa) = 63.50407 76.58496 70.04451
# Shear Modulus (GPa) = 7.82833 26.24295 17.03564
#
# Velocity S-wave (km/s) = 2.01167 3.68322 2.96757
# Velocity P-wave (km/s) = 6.18253 7.59462 6.92466
#
# Compressibility (1/GPa) = 0.01574702
#
# Stress axis : x y z
#
# Youngs Moduli (GPa) = 112.96465 45.25311 85.10296
#
# Poissons Ratio (x) = 0.15129 0.26942
# Poissons Ratio (y) = 0.37765 0.59299
# Poissons Ratio (z) = 0.35762 0.31532
#
# Static dielectric constant tensor:
#      x y z
#    x 3.826060 0.000000 0.000000 
#    y 0.000000 3.425380 0.000000 
#    z 0.000000 0.000000 3.598190 
# 
# 
# High freq. dielectric constant tensor:
#      x y z
#    x 1.768020 0.000000 0.000000 
#    y 0.000000 1.741090 0.000000 
#    z 0.000000 0.000000 1.753370 
# 
# From -- ./inp_files/38766.got.cif
#   From: 2010.03.12/outbox.cif.g09.slc.cpg/sg21_20_cif.got.tgz:38766.got - 2010.04.14 01:59:26.
