data_PCOD8161985
_publ_section_title
;
Structure prediction by ZEFSAII (Michael W. Deem and Ramdas Pophale) SiO2 
 PCOD8161985
Probable space group: C 2 2 2
;
_chemical_formula_sum "Si O2"
_cell_formula_units_Z 48
_cell_length_a 28.823122
_cell_length_b 8.506259
_cell_length_c 9.183976
_cell_angle_alpha 90.000000
_cell_angle_beta 90.000000
_cell_angle_gamma 90.000000
_cell_volume 2251.699141
_symmetry_space_group_name_H-M "C 2 2 2"
_symmetry_group_IT_number 21
_symmetry_cell_setting 'orthorhombic'
loop_
_space_group_symop_operation_xyz
x,y,z
-x,-y,z
x,-y,-z
-x,y,-z
1/2+x,1/2+y,z
1/2-x,1/2-y,z
1/2+x,1/2-y,-z
1/2-x,1/2+y,-z
loop_
_atom_site_type_symbol
_atom_site_label
_atom_site_fract_x
_atom_site_fract_y
_atom_site_fract_z
Si Si1 0.279276 0.107411 0.368614
Si Si2 0.633721 0.216181 0.137829
Si Si3 0.635406 0.853408 0.187871
Si Si4 0.720831 0.401465 0.144218
Si Si5 0.447912 0.329171 0.676670
Si Si6 0.553516 0.306996 0.656202
O O1 0.250000 0.250000 0.437437
O O2 0.321299 0.198231 0.286955
O O3 0.298424 0.000000 0.500000
O O4 0.247130 0.003424 0.263796
O O5 0.671447 0.336155 0.206618
O O6 0.583099 0.244185 0.203567
O O7 0.645535 0.037322 0.172243
O O8 0.634998 0.239447 0.964013
O O9 0.586314 0.814224 0.260536
O O10 0.750000 0.250000 0.096317
O O11 0.711961 0.500000 0.000000
O O12 0.500895 0.282206 0.710077
O O13 0.435529 0.512279 0.689640
O O14 0.438254 0.270609 0.513441
#
# Coordination Sequence:
#
# PCOD8161985 Si02
#       6
#     8   8   8   8   8   8
#     4  12  28  46  66  97 134 175 225 281 342 406
#     4  11  25  41  65  96 131 174 224 269 332 403
#     4  11  25  44  62  96 134 173 218 277 334 392
#     4  12  24  44  69  95 134 179 224 280 339 409
#     4   9  21  42  66 100 127 172 222 269 335 404
#     4   9  21  42  68  94 135 168 217 280 330 397
#
# _framework density 21.317233000000002
#
# number of rings (size 3 to 8) (size 9 to 14) (size 15 to 20)
#    0.000    1.333    1.667    4.000    7.000    1.333 
#    0.000    5.000    0.000    0.000    0.000    0.000 
#    0.000    0.000    0.000    0.000    0.000    0.000 
#
# Total GULP energy -297574.895457 kJ/mol
# GULP energy per Si atom -12398.953977 kJ/mol
# Density = 2.126871 g / cm^3
# Si number density = 21.317233 Si / 1000 Ang^3
#
#
#
# Elastic Constant Matrix: (Units=GPa)
#
#
# Indices 1 2 3 4 5 6 
#
# 1 132.6839 32.8968 53.7810 0.0000 0.0000 0.0000
# 2 32.8968 59.0478 18.2355 0.0000 0.0000 0.0000
# 3 53.7810 18.2355 89.5969 0.0000 0.0000 0.0000
# 4 0.0000 0.0000 0.0000 34.8496 0.0000 0.0000
# 5 0.0000 0.0000 0.0000 0.0000 39.1978 0.0000
# 6 0.0000 0.0000 0.0000 0.0000 0.0000 47.9142
#
#
#
# Elastic Compliance Matrix: (Units=1/GPa)
#
#
# Indices 1 2 3 4 5 6 
#
# 1 0.010906 -0.004326 -0.005666 0.000000 0.000000 0.000000
# 2 -0.004326 0.019787 -0.001431 0.000000 0.000000 0.000000
# 3 -0.005666 -0.001431 0.014853 0.000000 0.000000 0.000000
# 4 0.000000 0.000000 0.000000 0.028695 0.000000 0.000000
# 5 0.000000 0.000000 0.000000 0.000000 0.025512 0.000000
# 6 0.000000 0.000000 0.000000 0.000000 0.000000 0.020871
#
#
# Mechanical properties :
#
#
# Convention : Reuss Voigt Hill
#
# Bulk Modulus (GPa) = 44.04987 54.57278 49.31132
# Shear Modulus (GPa) = 33.10482 36.15336 34.62909
#
# Velocity S-wave (km/s) = 3.94504 4.12268 4.03484
# Velocity P-wave (km/s) = 6.43894 6.95111 6.69992
#
# Compressibility (1/GPa) = 0.02270154
#
# Stress axis : x y z
#
# Youngs Moduli (GPa) = 91.69418 50.53722 67.32569
#
# Poissons Ratio (x) = 0.21863 0.38145
# Poissons Ratio (y) = 0.39668 0.09631
# Poissons Ratio (z) = 0.51952 0.07229
#
# Static dielectric constant tensor:
#      x y z
#    x 3.940880 0.000000 0.000000 
#    y 0.000000 3.877540 0.000000 
#    z 0.000000 0.000000 3.863590 
# 
# 
# High freq. dielectric constant tensor:
#      x y z
#    x 1.844380 0.000000 0.000000 
#    y 0.000000 1.840080 0.000000 
#    z 0.000000 0.000000 1.829990 
# 
# From -- ./inp_files/19635.got.cif
#   From: 2010.03.12/outbox.cif.g09.slc.cpg/sg21_10_cif.got.tgz:19635.got - 2010.04.14 01:59:26.
