data_PCOD8161519
_publ_section_title
;
Structure prediction by ZEFSAII (Michael W. Deem and Ramdas Pophale) SiO2 
 PCOD8161519
Probable space group: C 2 2 2
;
_chemical_formula_sum "Si O2"
_cell_formula_units_Z 34
_cell_length_a 10.746199
_cell_length_b 19.997483
_cell_length_c 7.941163
_cell_angle_alpha 90.000000
_cell_angle_beta 90.000000
_cell_angle_gamma 90.000000
_cell_volume 1706.531564
_symmetry_space_group_name_H-M "C 2 2 2"
_symmetry_group_IT_number 21
_symmetry_cell_setting 'orthorhombic'
loop_
_space_group_symop_operation_xyz
x,y,z
-x,-y,z
x,-y,-z
-x,y,-z
1/2+x,1/2+y,z
1/2-x,1/2-y,z
1/2+x,1/2-y,-z
1/2-x,1/2+y,-z
loop_
_atom_site_type_symbol
_atom_site_label
_atom_site_fract_x
_atom_site_fract_y
_atom_site_fract_z
Si Si1 0.796794 0.500000 0.500000
Si Si2 0.588469 0.836423 0.842601
Si Si3 0.381824 0.722957 0.380919
Si Si4 0.000000 0.000000 0.000000
Si Si5 0.500000 0.102961 0.500000
Si Si6 0.675255 0.585695 0.769721
O O1 0.883018 0.560219 0.437077
O O2 0.714126 0.523303 0.655212
O O3 0.612063 0.757771 0.806336
O O4 0.531182 0.854023 0.661849
O O5 0.710087 0.881805 0.874370
O O6 0.500000 0.848453 0.000000
O O7 0.500000 0.739709 0.500000
O O8 0.250000 0.750000 0.463609
O O9 0.382424 0.643461 0.348969
O O10 0.079253 0.947171 0.104657
#
# Coordination Sequence:
#
# PCOD8161519 Si02
#       6
#     4   8   8   2   4   8
#     4   9  20  39  64  88 124 163 205 258 310 386
#     4  10  21  41  70  95 125 160 210 273 323 367
#     4  10  22  44  67  96 126 166 221 270 319 384
#     4  12  28  42  54  92 136 170 216 252 312 398
#     4   9  18  38  64 100 122 153 210 256 326 381
#     4  10  25  42  61  91 131 167 212 257 316 391
#
# _framework density 19.923452999999999
#
# number of rings (size 3 to 8) (size 9 to 14) (size 15 to 20)
#    0.000    2.118    1.176    0.000    8.235    0.000 
#    4.235    0.000    0.000    0.000    0.000    0.000 
#    0.000    0.000    0.000    0.000    0.000    0.000 
#
# Total GULP energy -210616.062149 kJ/mol
# GULP energy per Si atom -12389.180126 kJ/mol
# Density = 1.987811 g / cm^3
# Si number density = 19.923453 Si / 1000 Ang^3
#
#
#
# Elastic Constant Matrix: (Units=GPa)
#
#
# Indices 1 2 3 4 5 6 
#
# 1 147.8719 48.1480 76.7562 0.0000 0.0000 0.0000
# 2 48.1480 103.7002 49.9305 0.0000 0.0000 0.0000
# 3 76.7562 49.9305 95.3948 0.0000 0.0000 0.0000
# 4 0.0000 0.0000 0.0000 13.9104 0.0000 0.0000
# 5 0.0000 0.0000 0.0000 0.0000 43.6673 0.0000
# 6 0.0000 0.0000 0.0000 0.0000 0.0000 38.3562
#
#
#
# Elastic Compliance Matrix: (Units=1/GPa)
#
#
# Indices 1 2 3 4 5 6 
#
# 1 0.011724 -0.001205 -0.008803 0.000000 0.000000 0.000000
# 2 -0.001205 0.013016 -0.005843 0.000000 0.000000 0.000000
# 3 -0.008803 -0.005843 0.020624 0.000000 0.000000 0.000000
# 4 0.000000 0.000000 0.000000 0.071889 0.000000 0.000000
# 5 0.000000 0.000000 0.000000 0.000000 0.022900 0.000000
# 6 0.000000 0.000000 0.000000 0.000000 0.000000 0.026071
#
#
# Mechanical properties :
#
#
# Convention : Reuss Voigt Hill
#
# Bulk Modulus (GPa) = 73.19388 77.40404 75.29896
# Shear Modulus (GPa) = 24.69368 30.66224 27.67796
#
# Velocity S-wave (km/s) = 3.52437 3.92727 3.73126
# Velocity P-wave (km/s) = 7.30609 7.71360 7.51261
#
# Compressibility (1/GPa) = 0.01366234
#
# Stress axis : x y z
#
# Youngs Moduli (GPa) = 85.29308 76.82784 48.48739
#
# Poissons Ratio (x) = 0.09259 0.42682
# Poissons Ratio (y) = 0.10279 0.28332
# Poissons Ratio (z) = 0.75081 0.44891
#
# Static dielectric constant tensor:
#      x y z
#    x 3.929930 0.000000 0.000000 
#    y 0.000000 3.888690 0.000000 
#    z 0.000000 0.000000 3.179550 
# 
# 
# High freq. dielectric constant tensor:
#      x y z
#    x 1.787610 0.000000 0.000000 
#    y 0.000000 1.801130 0.000000 
#    z 0.000000 0.000000 1.746410 
# 
# From -- ./inp_files/10618.got.cif
#   From: 2010.03.12/outbox.cif.g09.slc.cpg/sg21_6_cif.got.tgz:10618.got - 2010.04.14 01:59:26.
