data_PCOD8161084
_publ_section_title
;
Structure prediction by ZEFSAII (Michael W. Deem and Ramdas Pophale) SiO2 
 PCOD8161084
Probable space group: C 2 2 2
;
_chemical_formula_sum "Si O2"
_cell_formula_units_Z 48
_cell_length_a 17.479929
_cell_length_b 14.524194
_cell_length_c 8.411108
_cell_angle_alpha 90.000000
_cell_angle_beta 90.000000
_cell_angle_gamma 90.000000
_cell_volume 2135.427911
_symmetry_space_group_name_H-M "C 2 2 2"
_symmetry_group_IT_number 21
_symmetry_cell_setting 'orthorhombic'
loop_
_space_group_symop_operation_xyz
x,y,z
-x,-y,z
x,-y,-z
-x,y,-z
1/2+x,1/2+y,z
1/2-x,1/2-y,z
1/2+x,1/2-y,-z
1/2-x,1/2+y,-z
loop_
_atom_site_type_symbol
_atom_site_label
_atom_site_fract_x
_atom_site_fract_y
_atom_site_fract_z
Si Si1 0.920645 0.680162 0.825839
Si Si2 0.426190 0.639393 0.383873
Si Si3 0.320778 0.020323 0.817547
Si Si4 0.589071 0.151911 0.814611
Si Si5 0.149266 0.992288 0.819268
Si Si6 0.670330 0.695781 0.344301
O O1 0.930363 0.779618 0.746112
O O2 0.859587 0.611939 0.743317
O O3 0.000257 0.624467 0.812301
O O4 0.891566 0.689474 0.007810
O O5 0.500000 0.632922 0.500000
O O6 0.413959 0.541946 0.292460
O O7 0.348071 0.655646 0.482206
O O8 0.356767 0.928402 0.740041
O O9 0.231561 0.039468 0.793404
O O10 0.343209 0.000000 0.000000
O O11 0.601148 0.235952 0.694953
O O12 0.164177 0.885860 0.782652
O O13 0.120530 0.000000 0.000000
O O14 0.750000 0.750000 0.333469
#
# Coordination Sequence:
#
# PCOD8161084 Si02
#       6
#     8   8   8   8   8   8
#     4  10  21  39  69 100 136 177 225 273 337 408
#     4  12  27  48  66  96 141 184 226 284 347 418
#     4   9  19  37  67 104 137 167 221 287 334 397
#     4  10  19  41  69 102 133 175 225 279 335 401
#     4  11  25  46  72 101 130 179 239 287 338 402
#     4  12  25  44  68  96 140 179 218 283 351 414
#
# _framework density 22.477930000000001
#
# number of rings (size 3 to 8) (size 9 to 14) (size 15 to 20)
#    0.000    1.333    3.333    2.000    2.333    3.333 
#    0.000    1.667    0.000    0.000    0.000    0.000 
#    0.000    0.000    0.000    0.000    0.000    0.000 
#
# Total GULP energy -297421.863005 kJ/mol
# GULP energy per Si atom -12392.577625 kJ/mol
# Density = 2.242677 g / cm^3
# Si number density = 22.477930 Si / 1000 Ang^3
#
#
#
# Elastic Constant Matrix: (Units=GPa)
#
#
# Indices 1 2 3 4 5 6 
#
# 1 82.7941 44.4046 29.3063 0.0000 0.0000 0.0000
# 2 44.4046 103.3424 17.1307 0.0000 0.0000 0.0000
# 3 29.3063 17.1307 50.3369 0.0000 0.0000 0.0000
# 4 0.0000 0.0000 0.0000 25.1846 0.0000 0.0000
# 5 0.0000 0.0000 0.0000 0.0000 31.4385 0.0000
# 6 0.0000 0.0000 0.0000 0.0000 0.0000 41.5069
#
#
#
# Elastic Compliance Matrix: (Units=1/GPa)
#
#
# Indices 1 2 3 4 5 6 
#
# 1 0.018666 -0.006591 -0.008624 0.000000 0.000000 0.000000
# 2 -0.006591 0.012582 -0.000445 0.000000 0.000000 0.000000
# 3 -0.008624 -0.000445 0.025039 0.000000 0.000000 0.000000
# 4 0.000000 0.000000 0.000000 0.039707 0.000000 0.000000
# 5 0.000000 0.000000 0.000000 0.000000 0.031808 0.000000
# 6 0.000000 0.000000 0.000000 0.000000 0.000000 0.024092
#
#
# Mechanical properties :
#
#
# Convention : Reuss Voigt Hill
#
# Bulk Modulus (GPa) = 40.05312 46.46183 43.25747
# Shear Modulus (GPa) = 26.10481 29.33478 27.71980
#
# Velocity S-wave (km/s) = 3.41156 3.61646 3.51551
# Velocity P-wave (km/s) = 5.77719 6.17683 5.98035
#
# Compressibility (1/GPa) = 0.02496684
#
# Stress axis : x y z
#
# Youngs Moduli (GPa) = 53.57455 79.47720 39.93841
#
# Poissons Ratio (x) = 0.52381 0.34444
# Poissons Ratio (y) = 0.35309 0.01777
# Poissons Ratio (z) = 0.46204 0.03536
#
# Static dielectric constant tensor:
#      x y z
#    x 4.018330 0.000000 0.000000 
#    y 0.000000 4.082090 0.000000 
#    z 0.000000 0.000000 3.862180 
# 
# 
# High freq. dielectric constant tensor:
#      x y z
#    x 1.890180 0.000000 0.000000 
#    y 0.000000 1.893810 0.000000 
#    z 0.000000 0.000000 1.865580 
# 
# From -- ./inp_files/16429.got.cif
#   From: 2010.03.12/outbox.cif.g09.slc.cpg/sg21_9_cif.got.tgz:16429.got - 2010.04.14 01:59:26.
