data_PCOD8162432
_publ_section_title
;
Structure prediction by ZEFSAII (Michael W. Deem and Ramdas Pophale) SiO2 
 PCOD8162432
Probable space group: F 2 2 2
;
_chemical_formula_sum "Si O2"
_cell_formula_units_Z 112
_cell_length_a 11.402350
_cell_length_b 16.099125
_cell_length_c 30.215606
_cell_angle_alpha 90.000000
_cell_angle_beta 90.000000
_cell_angle_gamma 90.000000
_cell_volume 5546.614070
_symmetry_space_group_name_H-M "F 2 2 2"
_symmetry_group_IT_number 22
_symmetry_cell_setting 'orthorhombic'
loop_
_space_group_symop_operation_xyz
x,y,z
-x,-y,z
x,-y,-z
-x,y,-z
x,1/2+y,1/2+z
-x,1/2-y,1/2+z
x,1/2-y,1/2-z
-x,1/2+y,1/2-z
1/2+x,y,1/2+z
1/2-x,-y,1/2+z
1/2+x,-y,1/2-z
1/2-x,y,1/2-z
1/2+x,1/2+y,z
1/2-x,1/2-y,z
1/2+x,1/2-y,-z
1/2-x,1/2+y,-z
loop_
_atom_site_type_symbol
_atom_site_label
_atom_site_fract_x
_atom_site_fract_y
_atom_site_fract_z
Si Si1 0.852642 0.921216 0.070454
Si Si2 0.831902 0.554477 0.685297
Si Si3 0.404662 0.216543 0.202000
Si Si4 0.634413 0.302068 0.008163
Si Si5 0.188186 0.868660 0.839849
Si Si6 0.923280 0.921239 0.721986
Si Si7 0.381870 0.597581 0.090706
O O1 0.777221 0.871358 0.107613
O O2 0.981007 0.916923 0.091134
O O3 0.814381 0.017673 0.069425
O O4 0.852000 0.884554 0.021419
O O5 0.862864 0.457972 0.675301
O O6 0.914963 0.587206 0.724666
O O7 0.699391 0.563267 0.699705
O O8 0.845574 0.611305 0.641613
O O9 0.371873 0.250000 0.250000
O O10 0.303610 0.152387 0.187826
O O11 0.408576 0.295694 0.168690
O O12 0.525305 0.164945 0.202747
O O13 0.750000 0.250000 0.994374
O O14 0.649577 0.323814 0.059875
O O15 0.500000 0.264460 0.000000
O O16 0.000000 0.000000 0.708476
#
# Coordination Sequence:
#
# PCOD8162432 Si02
#       7
#    16  16  16  16  16  16  16
#     4   9  19  35  65  91 114 150 207 256 298 363
#     4  10  22  38  61  85 116 161 210 249 304 379
#     4  11  23  35  54  83 121 157 195 254 311 351
#     4  10  21  40  63  93 126 160 198 253 323 381
#     4  10  20  36  58  89 112 149 202 255 302 355
#     4  11  22  38  58  83 120 162 204 253 304 370
#     4   9  19  38  61  89 115 156 206 255 299 362
#
# _framework density 20.192499000000002
#
# number of rings (size 3 to 8) (size 9 to 14) (size 15 to 20)
#    0.000    2.000    1.429    2.143   10.000    1.714 
#    5.143    1.429    0.000    0.857    0.000    0.000 
#    0.000    0.000    0.000    0.000    0.000    0.000 
#
# Total GULP energy -346925.403463 kJ/mol
# GULP energy per Si atom -12390.192981 kJ/mol
# Density = 2.014654 g / cm^3
# Si number density = 20.192499 Si / 1000 Ang^3
#
#
#
# Elastic Constant Matrix: (Units=GPa)
#
#
# Indices 1 2 3 4 5 6 
#
# 1 64.0892 32.3531 14.7992 0.0000 0.0000 0.0000
# 2 32.3531 70.8917 26.8649 0.0000 0.0000 0.0000
# 3 14.7992 26.8649 96.2088 0.0000 0.0000 0.0000
# 4 0.0000 0.0000 0.0000 28.0852 0.0000 0.0000
# 5 0.0000 0.0000 0.0000 0.0000 16.3126 0.0000
# 6 0.0000 0.0000 0.0000 0.0000 0.0000 30.1941
#
#
#
# Elastic Compliance Matrix: (Units=1/GPa)
#
#
# Indices 1 2 3 4 5 6 
#
# 1 0.020305 -0.009040 -0.000599 0.000000 0.000000 0.000000
# 2 -0.009040 0.019800 -0.004138 0.000000 0.000000 0.000000
# 3 -0.000599 -0.004138 0.011642 0.000000 0.000000 0.000000
# 4 0.000000 0.000000 0.000000 0.035606 0.000000 0.000000
# 5 0.000000 0.000000 0.000000 0.000000 0.061302 0.000000
# 6 0.000000 0.000000 0.000000 0.000000 0.000000 0.033119
#
#
# Mechanical properties :
#
#
# Convention : Reuss Voigt Hill
#
# Bulk Modulus (GPa) = 41.33550 42.13602 41.73576
# Shear Modulus (GPa) = 22.99995 25.39655 24.19825
#
# Velocity S-wave (km/s) = 3.37862 3.55029 3.46552
# Velocity P-wave (km/s) = 5.97790 6.14154 6.06027
#
# Compressibility (1/GPa) = 0.02419228
#
# Stress axis : x y z
#
# Youngs Moduli (GPa) = 49.24917 50.50592 85.89747
#
# Poissons Ratio (x) = 0.45655 0.05147
# Poissons Ratio (y) = 0.44519 0.35547
# Poissons Ratio (z) = 0.02951 0.20901
#
# Static dielectric constant tensor:
#      x y z
#    x 3.526740 0.000000 0.000000 
#    y 0.000000 3.794850 0.000000 
#    z 0.000000 0.000000 3.770050 
# 
# 
# High freq. dielectric constant tensor:
#      x y z
#    x 1.768110 0.000000 0.000000 
#    y 0.000000 1.774920 0.000000 
#    z 0.000000 0.000000 1.795830 
# 
# From -- ./inp_files/25400.got.cif
#   From: 2010.03.12/outbox.cif.g09.slc.cpg/sg22_13_cif.got.tgz:25400.got - 2010.04.14 02:24:06.
