data_PCOD8162985
_publ_section_title
;
Structure prediction by ZEFSAII (Michael W. Deem and Ramdas Pophale) SiO2 
 PCOD8162985
Probable space group: F 2 2 2
;
_chemical_formula_sum "Si O2"
_cell_formula_units_Z 52
_cell_length_a 24.211658
_cell_length_b 17.704251
_cell_length_c 5.391914
_cell_angle_alpha 90.000000
_cell_angle_beta 90.000000
_cell_angle_gamma 90.000000
_cell_volume 2311.240002
_symmetry_space_group_name_H-M "F 2 2 2"
_symmetry_group_IT_number 22
_symmetry_cell_setting 'orthorhombic'
loop_
_space_group_symop_operation_xyz
x,y,z
-x,-y,z
x,-y,-z
-x,y,-z
x,1/2+y,1/2+z
-x,1/2-y,1/2+z
x,1/2-y,1/2-z
-x,1/2+y,1/2-z
1/2+x,y,1/2+z
1/2-x,-y,1/2+z
1/2+x,-y,1/2-z
1/2-x,y,1/2-z
1/2+x,1/2+y,z
1/2-x,1/2-y,z
1/2+x,1/2-y,-z
1/2-x,1/2+y,-z
loop_
_atom_site_type_symbol
_atom_site_label
_atom_site_fract_x
_atom_site_fract_y
_atom_site_fract_z
Si Si1 0.431259 0.750000 0.750000
Si Si2 0.750000 0.750000 0.250000
Si Si3 0.000000 0.625685 0.000000
Si Si4 0.601876 0.454113 0.257842
Si Si5 0.161887 0.688260 0.427075
O O1 0.467269 0.677169 0.691625
O O2 0.395347 0.775614 0.518225
O O3 0.789807 0.685761 0.370685
O O4 0.041539 0.575861 0.164509
O O5 0.624033 0.500000 0.500000
O O6 0.648286 0.390503 0.207324
O O7 0.595412 0.500000 0.000000
O O8 0.188991 0.750000 0.250000
#
# Coordination Sequence:
#
# PCOD8162985 Si02
#       5
#     8   4   8  16  16
#     4  11  22  39  70 106 146 187 258 311 340 408
#     4  10  26  44  92 102 128 180 264 310 386 418
#     4  12  23  42  70 108 151 210 244 288 351 442
#     4  12  28  46  71 108 161 200 239 295 365 440
#     4  11  23  48  74 106 137 186 248 315 363 435
#
# _framework density 22.498743000000001
#
# number of rings (size 3 to 8) (size 9 to 14) (size 15 to 20)
#    0.000    0.615    3.077    4.615    4.308    7.385 
#    0.000    0.000    6.769    0.000    0.000    0.000 
#    0.000    0.000    0.000    0.000    0.000    0.000 
#
# Total GULP energy -161050.084796 kJ/mol
# GULP energy per Si atom -12388.468061 kJ/mol
# Density = 2.244753 g / cm^3
# Si number density = 22.498743 Si / 1000 Ang^3
#
#
#
# Elastic Constant Matrix: (Units=GPa)
#
#
# Indices 1 2 3 4 5 6 
#
# 1 125.7179 65.5295 50.8637 0.0002 -0.0053 -0.0012
# 2 65.5295 154.5762 78.7628 -0.0074 0.0028 0.0028
# 3 50.8637 78.7628 143.8761 -0.0147 -0.0024 0.0052
# 4 0.0002 -0.0074 -0.0147 58.8916 0.0047 0.0047
# 5 -0.0053 0.0028 -0.0024 0.0047 23.6682 -0.0076
# 6 -0.0012 0.0028 0.0052 0.0047 -0.0076 15.4386
#
#
#
# Elastic Compliance Matrix: (Units=1/GPa)
#
#
# Indices 1 2 3 4 5 6 
#
# 1 0.010527 -0.003559 -0.001773 -0.000001 0.000003 0.000002
# 2 -0.003559 0.010175 -0.004312 0.000000 -0.000002 -0.000001
# 3 -0.001773 -0.004312 0.009938 0.000002 0.000001 -0.000003
# 4 -0.000001 0.000000 0.000002 0.016980 -0.000003 -0.000005
# 5 0.000003 -0.000002 0.000001 -0.000003 0.042251 0.000021
# 6 0.000002 -0.000001 -0.000003 -0.000005 0.000021 0.064773
#
#
# Mechanical properties :
#
#
# Convention : Reuss Voigt Hill
#
# Bulk Modulus (GPa) = 88.09531 90.49804 89.29668
# Shear Modulus (GPa) = 28.13474 34.86730 31.50102
#
# Velocity S-wave (km/s) = 3.54008 3.94095 3.74588
# Velocity P-wave (km/s) = 7.47999 7.81147 7.64752
#
# Compressibility (1/GPa) = 0.01135134
#
# Stress axis : x y z
#
# Youngs Moduli (GPa) = 94.99475 98.27689 100.62562
#
# Poissons Ratio (x) = 0.34979 0.17842
# Poissons Ratio (y) = 0.33811 0.43390
# Poissons Ratio (z) = 0.16843 0.42378
#
# Static dielectric constant tensor:
#      x y z
#    x 4.014150 -0.000020 -0.000030 
#    y -0.000020 4.208960 0.000020 
#    z -0.000030 0.000020 4.341940 
# 
# 
# High freq. dielectric constant tensor:
#      x y z
#    x 1.885550 0.000000 0.000000 
#    y 0.000000 1.884250 0.000000 
#    z 0.000000 0.000000 1.906230 
# 
# From -- ./inp_files/2566.got.cif
#   From: 2010.03.12/outbox.cif.g09.slc.cpg/sg22_2_cif.got.tgz:2566.got - 2010.04.14 02:24:06.
