data_PCOD8162494
_publ_section_title
;
Structure prediction by ZEFSAII (Michael W. Deem and Ramdas Pophale) SiO2 
 PCOD8162494
Probable space group: F 2 2 2
;
_chemical_formula_sum "Si O2"
_cell_formula_units_Z 104
_cell_length_a 19.678025
_cell_length_b 16.185988
_cell_length_c 15.312355
_cell_angle_alpha 90.000000
_cell_angle_beta 90.000000
_cell_angle_gamma 90.000000
_cell_volume 4877.111800
_symmetry_space_group_name_H-M "F 2 2 2"
_symmetry_group_IT_number 22
_symmetry_cell_setting 'orthorhombic'
loop_
_space_group_symop_operation_xyz
x,y,z
-x,-y,z
x,-y,-z
-x,y,-z
x,1/2+y,1/2+z
-x,1/2-y,1/2+z
x,1/2-y,1/2-z
-x,1/2+y,1/2-z
1/2+x,y,1/2+z
1/2-x,-y,1/2+z
1/2+x,-y,1/2-z
1/2-x,y,1/2-z
1/2+x,1/2+y,z
1/2-x,1/2-y,z
1/2+x,1/2-y,-z
1/2-x,1/2+y,-z
loop_
_atom_site_type_symbol
_atom_site_label
_atom_site_fract_x
_atom_site_fract_y
_atom_site_fract_z
Si Si1 0.554403 0.161541 0.590561
Si Si2 0.654494 0.438870 0.826239
Si Si3 0.135536 0.118509 0.538784
Si Si4 0.808894 0.542222 0.128142
Si Si5 0.084417 0.406436 0.597179
Si Si6 0.000000 0.818120 0.500000
Si Si7 0.671865 0.234729 0.343934
O O1 0.620114 0.150813 0.653667
O O2 0.486273 0.126939 0.638932
O O3 0.573071 0.105227 0.506013
O O4 0.540619 0.257849 0.567383
O O5 0.727618 0.449655 0.870910
O O6 0.659088 0.445470 0.722653
O O7 0.600258 0.501736 0.869758
O O8 0.162387 0.109686 0.439544
O O9 0.151142 0.207833 0.576270
O O10 0.053500 0.117614 0.541898
O O11 0.169047 0.048879 0.598614
O O12 0.151515 0.356864 0.627833
O O13 0.635442 0.250000 0.250000
O O14 0.750000 0.250000 0.328961
#
# Coordination Sequence:
#
# PCOD8162494 Si02
#       7
#    16  16  16  16  16   8  16
#     4  10  21  39  64  98 122 173 210 266 329 367
#     4  11  22  43  61 101 131 156 230 262 319 389
#     4  11  22  45  63  91 130 175 212 254 341 379
#     4  10  26  40  66  94 129 175 207 273 314 390
#     4  10  20  38  63  95 130 165 208 275 322 377
#     4  10  22  45  67  92 132 162 228 260 306 418
#     4  11  22  36  64  99 129 164 214 268 318 383
#
# _framework density 21.324095
#
# number of rings (size 3 to 8) (size 9 to 14) (size 15 to 20)
#    0.000    1.692    3.077    2.769    6.462    6.154 
#    8.308    0.769    0.000    1.846    0.000    0.000 
#    0.000    0.000    0.000    0.000    0.000    0.000 
#
# Total GULP energy -322119.758835 kJ/mol
# GULP energy per Si atom -12389.221494 kJ/mol
# Density = 2.127556 g / cm^3
# Si number density = 21.324095 Si / 1000 Ang^3
#
#
#
# Elastic Constant Matrix: (Units=GPa)
#
#
# Indices 1 2 3 4 5 6 
#
# 1 139.1960 36.2085 48.1545 0.0000 0.0000 0.0000
# 2 36.2085 57.1674 28.1200 0.0000 0.0000 0.0000
# 3 48.1545 28.1200 102.8362 0.0000 0.0000 0.0000
# 4 0.0000 0.0000 0.0000 14.6357 0.0000 0.0000
# 5 0.0000 0.0000 0.0000 0.0000 31.8737 0.0000
# 6 0.0000 0.0000 0.0000 0.0000 0.0000 47.3029
#
#
#
# Elastic Compliance Matrix: (Units=1/GPa)
#
#
# Indices 1 2 3 4 5 6 
#
# 1 0.009441 -0.004397 -0.003219 0.000000 0.000000 0.000000
# 2 -0.004397 0.022258 -0.004028 0.000000 0.000000 0.000000
# 3 -0.003219 -0.004028 0.012333 0.000000 0.000000 0.000000
# 4 0.000000 0.000000 0.000000 0.068326 0.000000 0.000000
# 5 0.000000 0.000000 0.000000 0.000000 0.031374 0.000000
# 6 0.000000 0.000000 0.000000 0.000000 0.000000 0.021140
#
#
# Mechanical properties :
#
#
# Convention : Reuss Voigt Hill
#
# Bulk Modulus (GPa) = 48.20131 58.24063 53.22097
# Shear Modulus (GPa) = 25.63124 31.21023 28.42073
#
# Velocity S-wave (km/s) = 3.47073 3.82987 3.65471
# Velocity P-wave (km/s) = 6.22210 6.85045 6.54382
#
# Compressibility (1/GPa) = 0.02074632
#
# Stress axis : x y z
#
# Youngs Moduli (GPa) = 105.91729 44.92695 81.08459
#
# Poissons Ratio (x) = 0.19753 0.26100
# Poissons Ratio (y) = 0.46568 0.32658
# Poissons Ratio (z) = 0.34093 0.18095
#
# Static dielectric constant tensor:
#      x y z
#    x 3.993350 0.000000 0.000000 
#    y 0.000000 3.674830 0.000000 
#    z 0.000000 0.000000 4.289310 
# 
# 
# High freq. dielectric constant tensor:
#      x y z
#    x 1.851140 0.000000 0.000000 
#    y 0.000000 1.823770 0.000000 
#    z 0.000000 0.000000 1.827160 
# 
# From -- ./inp_files/31693.got.cif
#   From: 2010.03.12/outbox.cif.g09.slc.cpg/sg22_16_cif.got.tgz:31693.got - 2010.04.14 02:24:06.
