data_PCOD8162518
_publ_section_title
;
Structure prediction by ZEFSAII (Michael W. Deem and Ramdas Pophale) SiO2 
 PCOD8162518
Probable space group: F 2 2 2
;
_chemical_formula_sum "Si O2"
_cell_formula_units_Z 68
_cell_length_a 17.358451
_cell_length_b 17.917023
_cell_length_c 9.573047
_cell_angle_alpha 90.000000
_cell_angle_beta 90.000000
_cell_angle_gamma 90.000000
_cell_volume 2977.330252
_symmetry_space_group_name_H-M "F 2 2 2"
_symmetry_group_IT_number 22
_symmetry_cell_setting 'orthorhombic'
loop_
_space_group_symop_operation_xyz
x,y,z
-x,-y,z
x,-y,-z
-x,y,-z
x,1/2+y,1/2+z
-x,1/2-y,1/2+z
x,1/2-y,1/2-z
-x,1/2+y,1/2-z
1/2+x,y,1/2+z
1/2-x,-y,1/2+z
1/2+x,-y,1/2-z
1/2-x,y,1/2-z
1/2+x,1/2+y,z
1/2-x,1/2-y,z
1/2+x,1/2-y,-z
1/2-x,1/2+y,-z
loop_
_atom_site_type_symbol
_atom_site_label
_atom_site_fract_x
_atom_site_fract_y
_atom_site_fract_z
Si Si1 0.000000 0.000000 0.500000
Si Si2 0.085296 0.387212 0.201052
Si Si3 0.588109 0.785277 0.969935
Si Si4 0.423090 0.857999 0.313852
Si Si5 0.319321 0.504431 0.155167
O O1 0.054876 0.949940 0.595037
O O2 0.151686 0.423218 0.295919
O O3 0.016247 0.357809 0.301258
O O4 0.126506 0.319559 0.111142
O O5 0.614332 0.829315 0.830921
O O6 0.600936 0.697187 0.941911
O O7 0.500000 0.805220 0.000000
O O8 0.391999 0.939803 0.344707
O O9 0.250000 0.534692 0.250000
O O10 0.285654 0.500000 0.000000
#
# Coordination Sequence:
#
# PCOD8162518 Si02
#       5
#     4  16  16  16  16
#     4  12  16  36  70 100 128 180 214 280 332 420
#     4  11  20  39  70 100 137 177 227 282 345 414
#     4   9  19  35  67 101 133 169 210 276 341 412
#     4  10  20  39  66 103 130 168 223 277 341 404
#     4  12  29  44  66  94 137 185 236 288 337 409
#
# _framework density 22.839252999999999
#
# number of rings (size 3 to 8) (size 9 to 14) (size 15 to 20)
#    0.000    1.412    5.882    0.000    8.235    0.941 
#    0.000    2.353    0.000    1.412    0.000    0.000 
#    0.000    0.000    0.000    0.000    0.000    0.000 
#
# Total GULP energy -210719.652114 kJ/mol
# GULP energy per Si atom -12395.273654 kJ/mol
# Density = 2.278727 g / cm^3
# Si number density = 22.839253 Si / 1000 Ang^3
#
#
#
# Elastic Constant Matrix: (Units=GPa)
#
#
# Indices 1 2 3 4 5 6 
#
# 1 47.9794 21.6190 37.0940 0.0000 0.0000 0.0000
# 2 21.6190 118.0297 62.5601 0.0000 0.0000 0.0000
# 3 37.0940 62.5601 132.6894 0.0000 0.0000 0.0000
# 4 0.0000 0.0000 0.0000 57.6640 0.0000 0.0000
# 5 0.0000 0.0000 0.0000 0.0000 27.4484 0.0000
# 6 0.0000 0.0000 0.0000 0.0000 0.0000 9.9538
#
#
#
# Elastic Compliance Matrix: (Units=1/GPa)
#
#
# Indices 1 2 3 4 5 6 
#
# 1 0.026726 -0.001247 -0.006884 0.000000 0.000000 0.000000
# 2 -0.001247 0.011353 -0.005004 0.000000 0.000000 0.000000
# 3 -0.006884 -0.005004 0.011820 0.000000 0.000000 0.000000
# 4 0.000000 0.000000 0.000000 0.017342 0.000000 0.000000
# 5 0.000000 0.000000 0.000000 0.000000 0.036432 0.000000
# 6 0.000000 0.000000 0.000000 0.000000 0.000000 0.100464
#
#
# Mechanical properties :
#
#
# Convention : Reuss Voigt Hill
#
# Bulk Modulus (GPa) = 42.31881 60.13830 51.22855
# Shear Modulus (GPa) = 20.98348 30.84162 25.91255
#
# Velocity S-wave (km/s) = 3.03437 3.67874 3.37198
# Velocity P-wave (km/s) = 5.55389 6.66576 6.13507
#
# Compressibility (1/GPa) = 0.02363016
#
# Stress axis : x y z
#
# Youngs Moduli (GPa) = 37.41691 88.08055 84.60145
#
# Poissons Ratio (x) = 0.10981 0.58236
# Poissons Ratio (y) = 0.04665 0.42337
# Poissons Ratio (z) = 0.25756 0.44078
#
# Static dielectric constant tensor:
#      x y z
#    x 3.388230 0.000000 0.000000 
#    y 0.000000 4.271170 0.000000 
#    z 0.000000 0.000000 4.573070 
# 
# 
# High freq. dielectric constant tensor:
#      x y z
#    x 1.828160 0.000000 0.000000 
#    y 0.000000 1.910310 0.000000 
#    z 0.000000 0.000000 1.917910 
# 
# From -- ./inp_files/11265.got.cif
#   From: 2010.03.12/outbox.cif.g09.slc.cpg/sg22_6_cif.got.tgz:11265.got - 2010.04.14 02:24:06.
