data_PCOD8162276
_publ_section_title
;
Structure prediction by ZEFSAII (Michael W. Deem and Ramdas Pophale) SiO2 
 PCOD8162276
Probable space group: F 2 2 2
;
_chemical_formula_sum "Si O2"
_cell_formula_units_Z 116
_cell_length_a 10.979268
_cell_length_b 26.378286
_cell_length_c 20.274009
_cell_angle_alpha 90.000000
_cell_angle_beta 90.000000
_cell_angle_gamma 90.000000
_cell_volume 5871.642344
_symmetry_space_group_name_H-M "F 2 2 2"
_symmetry_group_IT_number 22
_symmetry_cell_setting 'orthorhombic'
loop_
_space_group_symop_operation_xyz
x,y,z
-x,-y,z
x,-y,-z
-x,y,-z
x,1/2+y,1/2+z
-x,1/2-y,1/2+z
x,1/2-y,1/2-z
-x,1/2+y,1/2-z
1/2+x,y,1/2+z
1/2-x,-y,1/2+z
1/2+x,-y,1/2-z
1/2-x,y,1/2-z
1/2+x,1/2+y,z
1/2-x,1/2-y,z
1/2+x,1/2-y,-z
1/2-x,1/2+y,-z
loop_
_atom_site_type_symbol
_atom_site_label
_atom_site_fract_x
_atom_site_fract_y
_atom_site_fract_z
Si Si1 0.642118 0.184323 0.573732
Si Si2 0.822412 0.054051 0.400858
Si Si3 0.573941 0.205001 0.936571
Si Si4 0.000000 0.000000 0.500000
Si Si5 0.008790 0.877393 0.661692
Si Si6 0.867301 0.082851 0.996226
Si Si7 0.135145 0.131475 0.210015
Si Si8 0.237063 0.447684 0.132869
O O1 0.559831 0.234221 0.565511
O O2 0.784119 0.192860 0.560770
O O3 0.606752 0.141530 0.521383
O O4 0.611610 0.166809 0.647838
O O5 0.701564 0.077453 0.434112
O O6 0.918449 0.036879 0.455912
O O7 0.879582 0.097283 0.354465
O O8 0.789942 0.006539 0.353247
O O9 0.516444 0.177627 0.872849
O O10 0.500000 0.184229 0.000000
O O11 0.019441 0.870298 0.740964
O O12 0.116390 0.913468 0.635193
O O13 0.787852 0.054647 0.941259
O O14 0.000000 0.056407 0.000000
O O15 0.250000 0.154277 0.250000
O O16 0.165928 0.074061 0.185499
#
# Coordination Sequence:
#
# PCOD8162276 Si02
#       8
#    16  16  16   4  16  16  16  16
#     4  10  21  38  55  84 122 164 197 253 317 371
#     4  12  21  33  60  89 119 159 206 259 324 368
#     4  11  21  33  57  91 119 150 201 252 320 378
#     4  12  20  32  54  84 120 148 188 262 314 368
#     4  11  20  35  60  88 119 153 200 265 309 363
#     4  11  21  36  57  82 123 163 202 249 312 387
#     4   9  18  36  58  79 118 161 198 251 302 369
#     4  10  19  35  55  84 116 160 197 251 311 355
#
# _framework density 19.755970999999999
#
# number of rings (size 3 to 8) (size 9 to 14) (size 15 to 20)
#    0.000    1.379    6.897    1.241    0.966    1.655 
#    0.000    0.000   33.379    0.000    0.000    0.000 
#    0.000   13.241    0.000    0.000    0.000    0.000 
#
# Total GULP energy -359519.865009 kJ/mol
# GULP energy per Si atom -12397.236724 kJ/mol
# Density = 1.971101 g / cm^3
# Si number density = 19.755971 Si / 1000 Ang^3
#
#
#
# Elastic Constant Matrix: (Units=GPa)
#
#
# Indices 1 2 3 4 5 6 
#
# 1 79.9910 22.6783 42.8706 0.0000 0.0000 0.0000
# 2 22.6783 105.2855 32.8632 0.0000 0.0000 0.0000
# 3 42.8706 32.8632 100.8336 0.0000 0.0000 0.0000
# 4 0.0000 0.0000 0.0000 21.4061 0.0000 0.0000
# 5 0.0000 0.0000 0.0000 0.0000 32.1447 0.0000
# 6 0.0000 0.0000 0.0000 0.0000 0.0000 24.0776
#
#
#
# Elastic Compliance Matrix: (Units=1/GPa)
#
#
# Indices 1 2 3 4 5 6 
#
# 1 0.016404 -0.001510 -0.006482 0.000000 0.000000 0.000000
# 2 -0.001510 0.010713 -0.002849 0.000000 0.000000 0.000000
# 3 -0.006482 -0.002849 0.013602 0.000000 0.000000 0.000000
# 4 0.000000 0.000000 0.000000 0.046716 0.000000 0.000000
# 5 0.000000 0.000000 0.000000 0.000000 0.031109 0.000000
# 6 0.000000 0.000000 0.000000 0.000000 0.000000 0.041532
#
#
# Mechanical properties :
#
#
# Convention : Reuss Voigt Hill
#
# Bulk Modulus (GPa) = 52.53436 53.65937 53.09686
# Shear Modulus (GPa) = 26.58113 28.03888 27.31000
#
# Velocity S-wave (km/s) = 3.67205 3.77140 3.72205
# Velocity P-wave (km/s) = 6.68042 6.79593 6.73842
#
# Compressibility (1/GPa) = 0.01903516
#
# Stress axis : x y z
#
# Youngs Moduli (GPa) = 60.96257 93.34771 73.51911
#
# Poissons Ratio (x) = 0.14096 0.47655
# Poissons Ratio (y) = 0.09205 0.20949
# Poissons Ratio (z) = 0.39516 0.26599
#
# Static dielectric constant tensor:
#      x y z
#    x 3.465520 0.000000 0.000000 
#    y 0.000000 3.739390 0.000000 
#    z 0.000000 0.000000 3.602470 
# 
# 
# High freq. dielectric constant tensor:
#      x y z
#    x 1.750860 0.000000 0.000000 
#    y 0.000000 1.767320 0.000000 
#    z 0.000000 0.000000 1.760120 
# 
# From -- ./inp_files/36485.got.cif
#   From: 2010.03.12/outbox.cif.g09.slc.cpg/sg22_19_cif.got.tgz:36485.got - 2010.04.14 02:24:06.
