data_PCOD8162088
_publ_section_title
;
Structure prediction by ZEFSAII (Michael W. Deem and Ramdas Pophale) SiO2 
 PCOD8162088
Probable space group: F 2 2 2
;
_chemical_formula_sum "Si O2"
_cell_formula_units_Z 92
_cell_length_a 27.131877
_cell_length_b 21.570458
_cell_length_c 8.349804
_cell_angle_alpha 90.000000
_cell_angle_beta 90.000000
_cell_angle_gamma 90.000000
_cell_volume 4886.697853
_symmetry_space_group_name_H-M "F 2 2 2"
_symmetry_group_IT_number 22
_symmetry_cell_setting 'orthorhombic'
loop_
_space_group_symop_operation_xyz
x,y,z
-x,-y,z
x,-y,-z
-x,y,-z
x,1/2+y,1/2+z
-x,1/2-y,1/2+z
x,1/2-y,1/2-z
-x,1/2+y,1/2-z
1/2+x,y,1/2+z
1/2-x,-y,1/2+z
1/2+x,-y,1/2-z
1/2-x,y,1/2-z
1/2+x,1/2+y,z
1/2-x,1/2-y,z
1/2+x,1/2-y,-z
1/2-x,1/2+y,-z
loop_
_atom_site_type_symbol
_atom_site_label
_atom_site_fract_x
_atom_site_fract_y
_atom_site_fract_z
Si Si1 0.192965 0.158076 0.709454
Si Si2 0.450864 0.627349 0.608284
Si Si3 0.250000 0.250000 0.250000
Si Si4 0.084679 0.750000 0.750000
Si Si5 0.875848 0.559849 0.904598
Si Si6 0.329748 0.229566 0.487644
Si Si7 0.943530 0.987239 0.173148
O O1 0.250000 0.154215 0.750000
O O2 0.172184 0.089579 0.676541
O O3 0.164769 0.182363 0.866351
O O4 0.184077 0.202516 0.556990
O O5 0.500000 0.616041 0.500000
O O6 0.450851 0.696310 0.681481
O O7 0.402163 0.614920 0.503080
O O8 0.442406 0.582349 0.759738
O O9 0.286215 0.209106 0.363714
O O10 0.118406 0.727015 0.603428
O O11 0.917634 0.536325 0.786324
O O12 0.856231 0.500000 0.000000
O O13 0.000000 0.000000 0.162101
O O14 0.918770 0.000000 0.000000
#
# Coordination Sequence:
#
# PCOD8162088 Si02
#       7
#    16  16   4   8  16  16  16
#     4  11  20  39  62  91 121 164 205 258 323 365
#     4  11  22  43  61  88 127 166 198 253 322 376
#     4  10  16  34  56  92 108 150 212 240 286 360
#     4  11  24  39  58  94 128 162 203 258 327 358
#     4  10  22  40  65  86 120 161 209 254 307 374
#     4  10  20  35  62  88 120 159 209 253 299 380
#     4  10  21  39  67  90 111 157 218 254 292 371
#
# _framework density 18.826619000000001
#
# number of rings (size 3 to 8) (size 9 to 14) (size 15 to 20)
#    0.000    1.565    5.217    0.522    2.435    0.000 
#    6.261    0.870    1.913    0.000    0.000    0.000 
#    0.000    0.000    0.000    0.000    0.000    0.000 
#
# Total GULP energy -285007.186877 kJ/mol
# GULP energy per Si atom -12391.616821 kJ/mol
# Density = 1.878377 g / cm^3
# Si number density = 18.826619 Si / 1000 Ang^3
#
#
#
# Elastic Constant Matrix: (Units=GPa)
#
#
# Indices 1 2 3 4 5 6 
#
# 1 60.4930 33.6455 28.8715 -0.0006 0.0003 -0.0012
# 2 33.6455 112.9079 49.2840 -0.0011 0.0016 -0.0024
# 3 28.8715 49.2840 114.3524 -0.0024 0.0058 -0.0077
# 4 -0.0006 -0.0011 -0.0024 36.7942 0.0033 -0.0050
# 5 0.0003 0.0016 0.0058 0.0033 25.4770 0.0049
# 6 -0.0012 -0.0024 -0.0077 -0.0050 0.0049 45.5742
#
#
#
# Elastic Compliance Matrix: (Units=1/GPa)
#
#
# Indices 1 2 3 4 5 6 
#
# 1 0.020704 -0.004789 -0.003163 0.000000 0.000001 0.000000
# 2 -0.004789 0.012017 -0.003970 0.000000 0.000000 0.000000
# 3 -0.003163 -0.003970 0.011255 0.000001 -0.000002 0.000002
# 4 0.000000 0.000000 0.000001 0.027178 -0.000004 0.000003
# 5 0.000001 0.000000 -0.000002 -0.000004 0.039251 -0.000004
# 6 0.000000 0.000000 0.000002 0.000003 -0.000004 0.021942
#
#
# Mechanical properties :
#
#
# Convention : Reuss Voigt Hill
#
# Bulk Modulus (GPa) = 49.67456 56.81725 53.24591
# Shear Modulus (GPa) = 30.69337 33.29922 31.99629
#
# Velocity S-wave (km/s) = 4.04210 4.21019 4.12700
# Velocity P-wave (km/s) = 6.94459 7.34023 7.14515
#
# Compressibility (1/GPa) = 0.02013103
#
# Stress axis : x y z
#
# Youngs Moduli (GPa) = 48.29953 83.21786 88.85277
#
# Poissons Ratio (x) = 0.39851 0.28108
# Poissons Ratio (y) = 0.23130 0.35274
# Poissons Ratio (z) = 0.15279 0.33037
#
# Static dielectric constant tensor:
#      x y z
#    x 3.244820 0.000000 -0.000010 
#    y 0.000000 3.306980 0.000360 
#    z -0.000010 0.000360 1.384320 
# 
# 
# High freq. dielectric constant tensor:
#      x y z
#    x 1.722910 0.000000 0.000000 
#    y 0.000000 1.710450 0.000000 
#    z 0.000000 0.000000 1.749220 
# 
# From -- ./inp_files/12899.got.cif
#   From: 2010.03.12/outbox.cif.g09.slc.cpg/sg22_7_cif.got.tgz:12899.got - 2010.04.14 02:24:06.
