data_PCOD8162514
_publ_section_title
;
Structure prediction by ZEFSAII (Michael W. Deem and Ramdas Pophale) SiO2 
 PCOD8162514
Probable space group: F 2 2 2
;
_chemical_formula_sum "Si O2"
_cell_formula_units_Z 112
_cell_length_a 14.941489
_cell_length_b 13.937007
_cell_length_c 24.252458
_cell_angle_alpha 90.000000
_cell_angle_beta 90.000000
_cell_angle_gamma 90.000000
_cell_volume 5050.323045
_symmetry_space_group_name_H-M "F 2 2 2"
_symmetry_group_IT_number 22
_symmetry_cell_setting 'orthorhombic'
loop_
_space_group_symop_operation_xyz
x,y,z
-x,-y,z
x,-y,-z
-x,y,-z
x,1/2+y,1/2+z
-x,1/2-y,1/2+z
x,1/2-y,1/2-z
-x,1/2+y,1/2-z
1/2+x,y,1/2+z
1/2-x,-y,1/2+z
1/2+x,-y,1/2-z
1/2-x,y,1/2-z
1/2+x,1/2+y,z
1/2-x,1/2-y,z
1/2+x,1/2-y,-z
1/2-x,1/2+y,-z
loop_
_atom_site_type_symbol
_atom_site_label
_atom_site_fract_x
_atom_site_fract_y
_atom_site_fract_z
Si Si1 0.750000 0.087596 0.250000
Si Si2 0.742362 0.638084 0.527371
Si Si3 0.500000 0.000000 0.620249
Si Si4 0.069417 0.363773 0.709959
Si Si5 0.317564 0.556599 0.662537
Si Si6 0.075662 0.063841 0.577773
Si Si7 0.511345 0.838037 0.180910
Si Si8 0.180804 0.546154 0.579677
O O1 0.691949 0.018692 0.211334
O O2 0.823221 0.153541 0.218234
O O3 0.750000 0.750000 0.543430
O O4 0.635326 0.617049 0.531494
O O5 0.796013 0.566888 0.568624
O O6 0.780034 0.617070 0.466716
O O7 0.439268 0.064481 0.659620
O O8 0.572351 0.055845 0.582169
O O9 0.014998 0.270273 0.692667
O O10 0.028006 0.401396 0.768155
O O11 0.360924 0.508728 0.609438
O O12 0.380672 0.645979 0.680483
O O13 0.219736 0.585378 0.638441
O O14 0.032019 0.134877 0.622574
O O15 0.000000 0.000000 0.547736
#
# Coordination Sequence:
#
# PCOD8162514 Si02
#       8
#     8  16   8  16  16  16  16  16
#     4  12  20  37  68  95 134 188 230 264 343 407
#     4  10  23  43  71  98 133 172 231 290 359 413
#     4  12  24  43  72  96 134 184 227 272 362 412
#     4  11  24  38  61 102 136 182 224 278 333 411
#     4  10  20  39  64  92 129 180 217 275 337 408
#     4   9  19  38  66  93 130 174 218 282 336 405
#     4  10  22  38  59  97 144 166 228 280 330 399
#     4  10  24  44  69  98 132 175 232 289 344 422
#
# _framework density 22.1768
#
# number of rings (size 3 to 8) (size 9 to 14) (size 15 to 20)
#    0.000    1.714    2.857    0.857    3.000    3.429 
#    0.000   12.143   12.571    0.000    0.000    0.000 
#    0.000    0.000    0.000    0.000    0.000    0.000 
#
# Total GULP energy -346875.888252 kJ/mol
# GULP energy per Si atom -12388.424580 kJ/mol
# Density = 2.212632 g / cm^3
# Si number density = 22.176800 Si / 1000 Ang^3
#
#
#
# Elastic Constant Matrix: (Units=GPa)
#
#
# Indices 1 2 3 4 5 6 
#
# 1 166.2764 47.6146 45.7617 0.0000 0.0000 0.0000
# 2 47.6146 82.9698 16.6232 0.0000 0.0000 0.0000
# 3 45.7617 16.6232 79.8584 0.0000 0.0000 0.0000
# 4 0.0000 0.0000 0.0000 17.0896 0.0000 0.0000
# 5 0.0000 0.0000 0.0000 0.0000 31.7562 0.0000
# 6 0.0000 0.0000 0.0000 0.0000 0.0000 47.5015
#
#
#
# Elastic Compliance Matrix: (Units=1/GPa)
#
#
# Indices 1 2 3 4 5 6 
#
# 1 0.008210 -0.003933 -0.003886 0.000000 0.000000 0.000000
# 2 -0.003933 0.014461 -0.000757 0.000000 0.000000 0.000000
# 3 -0.003886 -0.000757 0.014906 0.000000 0.000000 0.000000
# 4 0.000000 0.000000 0.000000 0.058515 0.000000 0.000000
# 5 0.000000 0.000000 0.000000 0.000000 0.031490 0.000000
# 6 0.000000 0.000000 0.000000 0.000000 0.000000 0.021052
#
#
# Mechanical properties :
#
#
# Convention : Reuss Voigt Hill
#
# Bulk Modulus (GPa) = 48.95531 61.01151 54.98341
# Shear Modulus (GPa) = 28.96978 33.87645 31.42311
#
# Velocity S-wave (km/s) = 3.61821 3.91264 3.76831
# Velocity P-wave (km/s) = 6.29112 6.92697 6.61669
#
# Compressibility (1/GPa) = 0.02042679
#
# Stress axis : x y z
#
# Youngs Moduli (GPa) = 121.80702 69.15089 67.08553
#
# Poissons Ratio (x) = 0.27196 0.26068
# Poissons Ratio (y) = 0.47905 0.05075
# Poissons Ratio (z) = 0.47332 0.05232
#
# Static dielectric constant tensor:
#      x y z
#    x 4.557130 0.000000 0.000000 
#    y 0.000000 3.610870 0.000000 
#    z 0.000000 0.000000 3.432570 
# 
# 
# High freq. dielectric constant tensor:
#      x y z
#    x 1.889230 0.000000 0.000000 
#    y 0.000000 1.835250 0.000000 
#    z 0.000000 0.000000 1.873970 
# 
# From -- ./inp_files/53250.got.cif
#   From: 2010.03.12/outbox.cif.g09.slc.cpg/sg22_27_cif.got.tgz:53250.got - 2010.04.14 02:24:06.
