data_PCOD8162876
_publ_section_title
;
Structure prediction by ZEFSAII (Michael W. Deem and Ramdas Pophale) SiO2 
 PCOD8162876
Probable space group: F 2 2 2
;
_chemical_formula_sum "Si O2"
_cell_formula_units_Z 96
_cell_length_a 21.596129
_cell_length_b 14.045186
_cell_length_c 14.440967
_cell_angle_alpha 90.000000
_cell_angle_beta 90.000000
_cell_angle_gamma 90.000000
_cell_volume 4380.257919
_symmetry_space_group_name_H-M "F 2 2 2"
_symmetry_group_IT_number 22
_symmetry_cell_setting 'orthorhombic'
loop_
_space_group_symop_operation_xyz
x,y,z
-x,-y,z
x,-y,-z
-x,y,-z
x,1/2+y,1/2+z
-x,1/2-y,1/2+z
x,1/2-y,1/2-z
-x,1/2+y,1/2-z
1/2+x,y,1/2+z
1/2-x,-y,1/2+z
1/2+x,-y,1/2-z
1/2-x,y,1/2-z
1/2+x,1/2+y,z
1/2-x,1/2-y,z
1/2+x,1/2-y,-z
1/2-x,1/2+y,-z
loop_
_atom_site_type_symbol
_atom_site_label
_atom_site_fract_x
_atom_site_fract_y
_atom_site_fract_z
Si Si1 0.882986 0.884809 0.820140
Si Si2 0.923238 0.856359 0.467174
Si Si3 0.679805 0.278856 0.034397
Si Si4 0.610994 0.064966 0.578902
Si Si5 0.012422 0.798370 0.849585
Si Si6 0.935549 0.967778 0.644439
O O1 0.832245 0.808396 0.856869
O O2 0.894361 0.898168 0.710042
O O3 0.945711 0.845253 0.869702
O O4 0.858770 0.988362 0.851889
O O5 0.859799 0.811342 0.503269
O O6 0.971021 0.779200 0.426927
O O7 0.956285 0.904916 0.556148
O O8 0.901922 0.935988 0.391196
O O9 0.750000 0.250000 0.021043
O O10 0.662770 0.367530 0.967156
O O11 0.562817 0.119040 0.643730
O O12 0.577799 0.000000 0.500000
O O13 0.014129 0.750000 0.750000
O O14 0.000000 0.000000 0.694905
#
# Coordination Sequence:
#
# PCOD8162876 Si02
#       6
#    16  16  16  16  16  16
#     4  11  23  38  65  97 135 168 214 268 343 397
#     4  10  23  40  64  94 131 181 218 267 331 409
#     4  10  24  44  68  90 126 171 238 281 322 380
#     4   9  20  40  62  95 126 169 214 269 334 398
#     4  11  22  35  65 100 140 166 211 266 342 407
#     4  11  23  39  63  97 142 168 213 258 349 406
#
# _framework density 21.916516000000001
#
# number of rings (size 3 to 8) (size 9 to 14) (size 15 to 20)
#    0.000    1.667    0.000    4.500    7.000    7.333 
#    9.000    1.667    0.000   17.000    0.000    0.000 
#    0.000    0.000    0.000    0.000    0.000    0.000 
#
# Total GULP energy -297331.898554 kJ/mol
# GULP energy per Si atom -12388.829106 kJ/mol
# Density = 2.186663 g / cm^3
# Si number density = 21.916516 Si / 1000 Ang^3
#
#
#
# Elastic Constant Matrix: (Units=GPa)
#
#
# Indices 1 2 3 4 5 6 
#
# 1 100.1750 49.1542 32.5678 0.0000 0.0000 0.0000
# 2 49.1542 124.5323 38.2284 0.0000 0.0000 0.0000
# 3 32.5678 38.2284 102.8119 0.0000 0.0000 0.0000
# 4 0.0000 0.0000 0.0000 38.0326 0.0000 0.0000
# 5 0.0000 0.0000 0.0000 0.0000 13.8244 0.0000
# 6 0.0000 0.0000 0.0000 0.0000 0.0000 19.6041
#
#
#
# Elastic Compliance Matrix: (Units=1/GPa)
#
#
# Indices 1 2 3 4 5 6 
#
# 1 0.012917 -0.004337 -0.002479 0.000000 0.000000 0.000000
# 2 -0.004337 0.010521 -0.002538 0.000000 0.000000 0.000000
# 3 -0.002479 -0.002538 0.011455 0.000000 0.000000 0.000000
# 4 0.000000 0.000000 0.000000 0.026293 0.000000 0.000000
# 5 0.000000 0.000000 0.000000 0.000000 0.072336 0.000000
# 6 0.000000 0.000000 0.000000 0.000000 0.000000 0.051010
#
#
# Mechanical properties :
#
#
# Convention : Reuss Voigt Hill
#
# Bulk Modulus (GPa) = 61.78711 63.04669 62.41690
# Shear Modulus (GPa) = 23.96518 28.13014 26.04766
#
# Velocity S-wave (km/s) = 3.31036 3.58650 3.45119
# Velocity P-wave (km/s) = 6.54710 6.78084 6.66500
#
# Compressibility (1/GPa) = 0.01618461
#
# Stress axis : x y z
#
# Youngs Moduli (GPa) = 77.41900 95.04605 87.29452
#
# Poissons Ratio (x) = 0.41225 0.21639
# Poissons Ratio (y) = 0.33580 0.22156
# Poissons Ratio (z) = 0.19191 0.24124
#
# Static dielectric constant tensor:
#      x y z
#    x 3.330910 0.000000 0.000000 
#    y 0.000000 4.708940 0.000000 
#    z 0.000000 0.000000 4.093860 
# 
# 
# High freq. dielectric constant tensor:
#      x y z
#    x 1.795350 0.000000 0.000000 
#    y 0.000000 1.901460 0.000000 
#    z 0.000000 0.000000 1.870280 
# 
# From -- ./inp_files/29342.got.cif
#   From: 2010.03.12/outbox.cif.g09.slc.cpg/sg22_15_cif.got.tgz:29342.got - 2010.04.14 02:24:06.
