data_PCOD8162846
_publ_section_title
;
Structure prediction by ZEFSAII (Michael W. Deem and Ramdas Pophale) SiO2 
 PCOD8162846
Probable space group: F 2 2 2
;
_chemical_formula_sum "Si O2"
_cell_formula_units_Z 56
_cell_length_a 7.154474
_cell_length_b 22.367930
_cell_length_c 14.103521
_cell_angle_alpha 90.000000
_cell_angle_beta 90.000000
_cell_angle_gamma 90.000000
_cell_volume 2256.997376
_symmetry_space_group_name_H-M "F 2 2 2"
_symmetry_group_IT_number 22
_symmetry_cell_setting 'orthorhombic'
loop_
_space_group_symop_operation_xyz
x,y,z
-x,-y,z
x,-y,-z
-x,y,-z
x,1/2+y,1/2+z
-x,1/2-y,1/2+z
x,1/2-y,1/2-z
-x,1/2+y,1/2-z
1/2+x,y,1/2+z
1/2-x,-y,1/2+z
1/2+x,-y,1/2-z
1/2-x,y,1/2-z
1/2+x,1/2+y,z
1/2-x,1/2-y,z
1/2+x,1/2-y,-z
1/2-x,1/2+y,-z
loop_
_atom_site_type_symbol
_atom_site_label
_atom_site_fract_x
_atom_site_fract_y
_atom_site_fract_z
Si Si1 0.250000 0.250000 0.373525
Si Si2 0.105457 0.941139 0.829602
Si Si3 0.297926 0.637641 0.513745
Si Si4 0.593578 0.328325 0.180569
O O1 0.350043 0.300995 0.433549
O O2 0.417559 0.217345 0.315492
O O3 0.250000 0.962332 0.750000
O O4 0.973100 0.892335 0.777904
O O5 0.184656 0.909389 0.923446
O O6 0.000000 0.000000 0.865365
O O7 0.500000 0.606737 0.500000
O O8 0.175885 0.657858 0.423545
O O9 0.750000 0.301557 0.250000
#
# Coordination Sequence:
#
# PCOD8162846 Si02
#       4
#     8  16  16  16
#     4  10  22  44  70 104 150 194 236 298 368 438
#     4  11  24  45  71 103 143 187 240 302 368 438
#     4  11  23  44  72 105 145 189 241 299 370 437
#     4  11  24  46  74 108 147 192 246 301 365 436
#
# _framework density 24.811727000000001
#
# number of rings (size 3 to 8) (size 9 to 14) (size 15 to 20)
#    0.000    1.143    0.000    7.714    0.000    2.286 
#    0.000   52.143    0.000    0.000    0.000    0.000 
#    0.000    0.000    0.000    0.000    0.000    0.000 
#
# Total GULP energy -173496.289890 kJ/mol
# GULP energy per Si atom -12392.592135 kJ/mol
# Density = 2.475525 g / cm^3
# Si number density = 24.811727 Si / 1000 Ang^3
#
#
#
# Elastic Constant Matrix: (Units=GPa)
#
#
# Indices 1 2 3 4 5 6 
#
# 1 188.9312 80.1745 69.1335 0.0000 0.0000 0.0000
# 2 80.1745 188.7256 54.0918 0.0000 0.0000 0.0000
# 3 69.1335 54.0918 133.9031 0.0000 0.0000 0.0000
# 4 0.0000 0.0000 0.0000 -0.7579 0.0000 0.0000
# 5 0.0000 0.0000 0.0000 0.0000 30.3050 0.0000
# 6 0.0000 0.0000 0.0000 0.0000 0.0000 41.3361
#
#
#
# Elastic Compliance Matrix: (Units=1/GPa)
#
#
# Indices 1 2 3 4 5 6 
#
# 1 0.007306 -0.002287 -0.002848 0.000000 0.000000 0.000000
# 2 -0.002287 0.006709 -0.001529 0.000000 0.000000 0.000000
# 3 -0.002848 -0.001529 0.009556 0.000000 0.000000 0.000000
# 4 0.000000 0.000000 0.000000 -1.319484 0.000000 0.000000
# 5 0.000000 0.000000 0.000000 0.000000 0.032998 0.000000
# 6 0.000000 0.000000 0.000000 0.000000 0.000000 0.024192
#
#
# Mechanical properties :
#
#
# Convention : Reuss Voigt Hill
#
# Bulk Modulus (GPa) = 97.63895 102.03997 99.83946
# Shear Modulus (GPa) = -4.09172 34.72065 15.31447
#
# Velocity S-wave (km/s) = -1.28557 3.74487 2.48710
# Velocity P-wave (km/s) = 6.10195 7.74039 6.96949
#
# Compressibility (1/GPa) = 0.01024181
#
# Stress axis : x y z
#
# Youngs Moduli (GPa) = 136.87972 149.06067 104.64482
#
# Poissons Ratio (x) = 0.34095 0.29802
# Poissons Ratio (y) = 0.31309 0.16001
# Poissons Ratio (z) = 0.38982 0.22793
#
# Static dielectric constant tensor:
#      x y z
#    x 4.954990 0.000000 0.000000 
#    y 0.000000 4.541500 0.000000 
#    z 0.000000 0.000000 4.377540 
# 
# 
# High freq. dielectric constant tensor:
#      x y z
#    x 2.010220 0.000000 0.000000 
#    y 0.000000 1.992380 0.000000 
#    z 0.000000 0.000000 1.986030 
# 
# From -- ./inp_files/26717.got.cif
#   From: 2010.03.12/outbox.cif.g09.slc.cpg/sg22_14_cif.got.tgz:26717.got - 2010.04.14 02:24:06.
