data_PCOD8162829
_publ_section_title
;
Structure prediction by ZEFSAII (Michael W. Deem and Ramdas Pophale) SiO2 
 PCOD8162829
Probable space group: F 2 2 2
;
_chemical_formula_sum "Si O2"
_cell_formula_units_Z 104
_cell_length_a 11.985492
_cell_length_b 24.043099
_cell_length_c 18.148806
_cell_angle_alpha 90.000000
_cell_angle_beta 90.000000
_cell_angle_gamma 90.000000
_cell_volume 5229.911856
_symmetry_space_group_name_H-M "F 2 2 2"
_symmetry_group_IT_number 22
_symmetry_cell_setting 'orthorhombic'
loop_
_space_group_symop_operation_xyz
x,y,z
-x,-y,z
x,-y,-z
-x,y,-z
x,1/2+y,1/2+z
-x,1/2-y,1/2+z
x,1/2-y,1/2-z
-x,1/2+y,1/2-z
1/2+x,y,1/2+z
1/2-x,-y,1/2+z
1/2+x,-y,1/2-z
1/2-x,y,1/2-z
1/2+x,1/2+y,z
1/2-x,1/2-y,z
1/2+x,1/2-y,-z
1/2-x,1/2+y,-z
loop_
_atom_site_type_symbol
_atom_site_label
_atom_site_fract_x
_atom_site_fract_y
_atom_site_fract_z
Si Si1 0.479284 0.268038 0.672021
Si Si2 0.940981 0.946674 0.381843
Si Si3 0.276366 0.500000 0.500000
Si Si4 0.173779 0.387175 0.521601
Si Si5 0.087915 0.151330 0.557944
Si Si6 0.525035 0.150025 0.614490
Si Si7 0.874525 0.361746 0.766764
O O1 0.422426 0.250000 0.750000
O O2 0.393385 0.304941 0.624418
O O3 0.524839 0.216750 0.623753
O O4 0.582767 0.307851 0.690154
O O5 0.874805 0.915824 0.317907
O O6 0.037818 0.907884 0.416209
O O7 0.853433 0.967378 0.442316
O O8 0.000000 0.000000 0.346163
O O9 0.193580 0.453149 0.532463
O O10 0.292140 0.355983 0.521214
O O11 0.114733 0.370340 0.445342
O O12 0.098546 0.369015 0.590883
O O13 0.000000 0.177652 0.500000
O O14 0.555044 0.123580 0.693458
O O15 0.750000 0.345380 0.750000
#
# Coordination Sequence:
#
# PCOD8162829 Si02
#       7
#    16  16   8  16  16  16  16
#     4   9  22  43  65  90 133 170 211 265 330 380
#     4  11  20  39  65  98 125 159 224 269 316 383
#     4  12  21  41  68  90 128 173 207 274 332 370
#     4  11  24  41  66  92 134 166 214 272 323 391
#     4  11  21  38  67 102 120 165 221 271 315 386
#     4  10  24  45  57  97 132 170 214 260 329 400
#     4  10  22  43  65  93 128 172 223 266 319 391
#
# _framework density 19.885612999999999
#
# number of rings (size 3 to 8) (size 9 to 14) (size 15 to 20)
#    0.000    1.538    3.077    1.154    4.308    4.615 
#    5.538    9.231    0.000    0.000    0.000    0.000 
#    0.000    0.000    0.000    0.000    0.000    0.000 
#
# Total GULP energy -322339.227922 kJ/mol
# GULP energy per Si atom -12397.662612 kJ/mol
# Density = 1.984035 g / cm^3
# Si number density = 19.885613 Si / 1000 Ang^3
#
#
#
# Elastic Constant Matrix: (Units=GPa)
#
#
# Indices 1 2 3 4 5 6 
#
# 1 117.6622 41.7582 47.9478 0.0000 0.0000 0.0000
# 2 41.7582 129.8094 66.6549 0.0000 0.0000 0.0000
# 3 47.9478 66.6549 105.8961 0.0000 0.0000 0.0000
# 4 0.0000 0.0000 0.0000 40.3899 0.0000 0.0000
# 5 0.0000 0.0000 0.0000 0.0000 32.7590 0.0000
# 6 0.0000 0.0000 0.0000 0.0000 0.0000 17.2479
#
#
#
# Elastic Compliance Matrix: (Units=1/GPa)
#
#
# Indices 1 2 3 4 5 6 
#
# 1 0.010590 -0.001396 -0.003917 0.000000 0.000000 0.000000
# 2 -0.001396 0.011566 -0.006648 0.000000 0.000000 0.000000
# 3 -0.003917 -0.006648 0.015401 0.000000 0.000000 0.000000
# 4 0.000000 0.000000 0.000000 0.024759 0.000000 0.000000
# 5 0.000000 0.000000 0.000000 0.000000 0.030526 0.000000
# 6 0.000000 0.000000 0.000000 0.000000 0.000000 0.057978
#
#
# Mechanical properties :
#
#
# Convention : Reuss Voigt Hill
#
# Bulk Modulus (GPa) = 73.33157 74.00995 73.67076
# Shear Modulus (GPa) = 27.88815 31.21314 29.55064
#
# Velocity S-wave (km/s) = 3.74896 3.96616 3.85909
# Velocity P-wave (km/s) = 7.46300 7.63364 7.54880
#
# Compressibility (1/GPa) = 0.01363669
#
# Stress axis : x y z
#
# Youngs Moduli (GPa) = 94.42644 86.45736 64.92950
#
# Poissons Ratio (x) = 0.12067 0.25430
# Poissons Ratio (y) = 0.13179 0.43168
# Poissons Ratio (z) = 0.36983 0.57480
#
# Static dielectric constant tensor:
#      x y z
#    x 3.532210 0.000000 0.000000 
#    y 0.000000 3.891560 0.000000 
#    z 0.000000 0.000000 3.820460 
# 
# 
# High freq. dielectric constant tensor:
#      x y z
#    x 1.766360 0.000000 0.000000 
#    y 0.000000 1.785230 0.000000 
#    z 0.000000 0.000000 1.778860 
# 
# From -- ./inp_files/36376.got.cif
#   From: 2010.03.12/outbox.cif.g09.slc.cpg/sg22_19_cif.got.tgz:36376.got - 2010.04.14 02:24:06.
