data_PCOD8162881
_publ_section_title
;
Structure prediction by ZEFSAII (Michael W. Deem and Ramdas Pophale) SiO2 
 PCOD8162881
Probable space group: F 2 2 2
;
_chemical_formula_sum "Si O2"
_cell_formula_units_Z 116
_cell_length_a 24.815147
_cell_length_b 22.805482
_cell_length_c 9.374505
_cell_angle_alpha 90.000000
_cell_angle_beta 90.000000
_cell_angle_gamma 90.000000
_cell_volume 5305.232884
_symmetry_space_group_name_H-M "F 2 2 2"
_symmetry_group_IT_number 22
_symmetry_cell_setting 'orthorhombic'
loop_
_space_group_symop_operation_xyz
x,y,z
-x,-y,z
x,-y,-z
-x,y,-z
x,1/2+y,1/2+z
-x,1/2-y,1/2+z
x,1/2-y,1/2-z
-x,1/2+y,1/2-z
1/2+x,y,1/2+z
1/2-x,-y,1/2+z
1/2+x,-y,1/2-z
1/2-x,y,1/2-z
1/2+x,1/2+y,z
1/2-x,1/2-y,z
1/2+x,1/2-y,-z
1/2-x,1/2+y,-z
loop_
_atom_site_type_symbol
_atom_site_label
_atom_site_fract_x
_atom_site_fract_y
_atom_site_fract_z
Si Si1 0.294307 0.642765 0.928855
Si Si2 0.552038 0.309680 0.667760
Si Si3 0.130102 0.411382 0.214790
Si Si4 0.441149 0.988800 0.336480
Si Si5 0.360054 0.610415 0.203343
Si Si6 0.750000 0.250000 0.750000
Si Si7 0.566189 0.194441 0.151812
Si Si8 0.301370 0.934445 0.039135
O O1 0.315587 0.600251 0.804242
O O2 0.284825 0.707606 0.857298
O O3 0.336855 0.640670 0.060014
O O4 0.240084 0.615574 0.991984
O O5 0.556218 0.250000 0.750000
O O6 0.590728 0.357056 0.738746
O O7 0.491924 0.337912 0.670919
O O8 0.572403 0.290226 0.512858
O O9 0.103005 0.469986 0.267930
O O10 0.143901 0.422307 0.049297
O O11 0.415576 0.924308 0.326193
O O12 0.500000 0.000000 0.262402
O O13 0.449130 0.000000 0.500000
O O14 0.379604 0.660993 0.307849
O O15 0.315201 0.572315 0.291351
O O16 0.562736 0.250000 0.250000
O O17 0.279871 0.000000 0.000000
#
# Coordination Sequence:
#
# PCOD8162881 Si02
#       8
#    16  16  16  16  16   4  16  16
#     4  12  29  45  76  99 142 184 249 304 364 437
#     4  10  23  41  68  97 135 184 234 286 346 435
#     4  12  23  44  70 102 132 193 229 287 364 425
#     4  11  24  42  68 108 150 185 237 294 354 436
#     4  12  25  45  69 108 139 190 234 295 371 423
#     4  12  28  56  74 108 140 196 262 318 376 440
#     4  10  23  42  64  99 137 177 232 290 354 421
#     4  12  26  46  73 105 142 183 241 300 363 441
#
# _framework density 21.865203000000001
#
# number of rings (size 3 to 8) (size 9 to 14) (size 15 to 20)
#    0.000    0.690    5.517    1.241    4.828    2.207 
#    0.000    1.379    0.000    0.000    0.000    0.000 
#    0.000    0.000    0.000    0.000    0.000    0.000 
#
# Total GULP energy -359400.871594 kJ/mol
# GULP energy per Si atom -12393.133503 kJ/mol
# Density = 2.181544 g / cm^3
# Si number density = 21.865203 Si / 1000 Ang^3
#
#
#
# Elastic Constant Matrix: (Units=GPa)
#
#
# Indices 1 2 3 4 5 6 
#
# 1 93.7021 40.6349 30.9682 -0.0013 0.0007 0.0008
# 2 40.6349 89.3089 37.6068 -0.0035 0.0019 0.0017
# 3 30.9682 37.6068 115.9054 -0.0067 0.0015 0.0056
# 4 -0.0013 -0.0035 -0.0067 38.0301 0.0018 0.0039
# 5 0.0007 0.0019 0.0015 0.0018 35.1165 -0.0016
# 6 0.0008 0.0017 0.0056 0.0039 -0.0016 47.1226
#
#
#
# Elastic Compliance Matrix: (Units=1/GPa)
#
#
# Indices 1 2 3 4 5 6 
#
# 1 0.013644 -0.005412 -0.001889 0.000000 0.000000 0.000000
# 2 -0.005412 0.015116 -0.003458 0.000001 -0.000001 0.000000
# 3 -0.001889 -0.003458 0.010255 0.000001 0.000000 -0.000001
# 4 0.000000 0.000001 0.000001 0.026295 -0.000001 -0.000002
# 5 0.000000 -0.000001 0.000000 -0.000001 0.028477 0.000001
# 6 0.000000 0.000000 -0.000001 -0.000002 0.000001 0.021221
#
#
# Mechanical properties :
#
#
# Convention : Reuss Voigt Hill
#
# Bulk Modulus (GPa) = 57.16173 57.48182 57.32177
# Shear Modulus (GPa) = 35.12265 36.70094 35.91179
#
# Velocity S-wave (km/s) = 4.01225 4.10141 4.05707
# Velocity P-wave (km/s) = 6.90389 6.98391 6.94401
#
# Compressibility (1/GPa) = 0.01749422
#
# Stress axis : x y z
#
# Youngs Moduli (GPa) = 73.29460 66.15547 97.51661
#
# Poissons Ratio (x) = 0.35804 0.18424
# Poissons Ratio (y) = 0.39668 0.33726
# Poissons Ratio (z) = 0.13848 0.22880
#
# Static dielectric constant tensor:
#      x y z
#    x 4.198370 0.000000 0.000010 
#    y 0.000000 3.890890 -0.000010 
#    z 0.000010 -0.000010 4.050840 
# 
# 
# High freq. dielectric constant tensor:
#      x y z
#    x 1.868110 0.000000 0.000000 
#    y 0.000000 1.850580 0.000000 
#    z 0.000000 0.000000 1.871510 
# 
# From -- ./inp_files/14989.got.cif
#   From: 2010.03.12/outbox.cif.g09.slc.cpg/sg22_8_cif.got.tgz:14989.got - 2010.04.14 02:24:06.
