data_PCOD8162244
_publ_section_title
;
Structure prediction by ZEFSAII (Michael W. Deem and Ramdas Pophale) SiO2 
 PCOD8162244
Probable space group: F 2 2 2
;
_chemical_formula_sum "Si O2"
_cell_formula_units_Z 120
_cell_length_a 14.099860
_cell_length_b 19.324128
_cell_length_c 23.898888
_cell_angle_alpha 90.000000
_cell_angle_beta 90.000000
_cell_angle_gamma 90.000000
_cell_volume 6511.670252
_symmetry_space_group_name_H-M "F 2 2 2"
_symmetry_group_IT_number 22
_symmetry_cell_setting 'orthorhombic'
loop_
_space_group_symop_operation_xyz
x,y,z
-x,-y,z
x,-y,-z
-x,y,-z
x,1/2+y,1/2+z
-x,1/2-y,1/2+z
x,1/2-y,1/2-z
-x,1/2+y,1/2-z
1/2+x,y,1/2+z
1/2-x,-y,1/2+z
1/2+x,-y,1/2-z
1/2-x,y,1/2-z
1/2+x,1/2+y,z
1/2-x,1/2-y,z
1/2+x,1/2-y,-z
1/2-x,1/2+y,-z
loop_
_atom_site_type_symbol
_atom_site_label
_atom_site_fract_x
_atom_site_fract_y
_atom_site_fract_z
Si Si1 0.941359 0.250000 0.750000
Si Si2 0.067205 0.344052 0.876377
Si Si3 0.244164 0.861929 0.186553
Si Si4 0.550802 0.303178 0.146472
Si Si5 0.584251 0.609115 0.287011
Si Si6 0.056122 0.067491 0.163673
Si Si7 0.261288 0.017339 0.156926
Si Si8 0.600381 0.474318 0.437465
O O1 0.877205 0.312764 0.774047
O O2 0.014511 0.279629 0.706045
O O3 0.160969 0.333845 0.840545
O O4 0.038422 0.265094 0.893918
O O5 0.092651 0.390502 0.931043
O O6 0.991544 0.385396 0.837519
O O7 0.250000 0.836480 0.250000
O O8 0.158354 0.828832 0.151766
O O9 0.235353 0.945026 0.185514
O O10 0.484874 0.367760 0.127523
O O11 0.538063 0.578060 0.230368
O O12 0.671733 0.560835 0.302217
O O13 0.166345 0.061366 0.147460
O O14 0.000000 0.000000 0.143907
O O15 0.313413 0.005118 0.098055
O O16 0.500000 0.500000 0.414089
O O17 0.617885 0.500000 0.500000
#
# Coordination Sequence:
#
# PCOD8162244 Si02
#       8
#     8  16  16  16  16  16  16  16
#     4   8  18  32  48  66 112 164 192 232 256 322
#     4  10  21  33  55  82 114 146 187 244 289 339
#     4  11  19  28  49  81 121 156 195 229 273 328
#     4  10  19  33  46  77 112 157 192 222 272 333
#     4  10  19  33  49  78 118 154 198 224 276 330
#     4  11  21  32  49  77 121 163 190 217 261 338
#     4  11  22  33  53  87 108 150 195 243 277 331
#     4  10  21  40  65  90 105 132 181 250 310 334
#
# _framework density 18.428452
#
# number of rings (size 3 to 8) (size 9 to 14) (size 15 to 20)
#    0.000    1.733    2.667    4.000    3.733    0.533 
#    0.000   10.000    0.000    0.400   27.733    0.000 
#    0.000    0.000    0.000    0.000    0.000    0.000 
#
# Total GULP energy -371737.221613 kJ/mol
# GULP energy per Si atom -12391.240720 kJ/mol
# Density = 1.838651 g / cm^3
# Si number density = 18.428452 Si / 1000 Ang^3
#
#
#
# Elastic Constant Matrix: (Units=GPa)
#
#
# Indices 1 2 3 4 5 6 
#
# 1 74.0696 34.1682 9.8397 0.0000 0.0000 0.0000
# 2 34.1682 146.5954 38.9097 0.0000 0.0000 0.0000
# 3 9.8397 38.9097 57.9253 0.0000 0.0000 0.0000
# 4 0.0000 0.0000 0.0000 18.0805 0.0000 0.0000
# 5 0.0000 0.0000 0.0000 0.0000 13.0447 0.0000
# 6 0.0000 0.0000 0.0000 0.0000 0.0000 34.2772
#
#
#
# Elastic Compliance Matrix: (Units=1/GPa)
#
#
# Indices 1 2 3 4 5 6 
#
# 1 0.015130 -0.003461 -0.000245 0.000000 0.000000 0.000000
# 2 -0.003461 0.009094 -0.005520 0.000000 0.000000 0.000000
# 3 -0.000245 -0.005520 0.021013 0.000000 0.000000 0.000000
# 4 0.000000 0.000000 0.000000 0.055308 0.000000 0.000000
# 5 0.000000 0.000000 0.000000 0.000000 0.076660 0.000000
# 6 0.000000 0.000000 0.000000 0.000000 0.000000 0.029174
#
#
# Mechanical properties :
#
#
# Convention : Reuss Voigt Hill
#
# Bulk Modulus (GPa) = 37.33653 49.38060 43.35856
# Shear Modulus (GPa) = 21.38946 26.12533 23.75740
#
# Velocity S-wave (km/s) = 3.41057 3.76927 3.59440
# Velocity P-wave (km/s) = 5.98444 6.76736 6.38791
#
# Compressibility (1/GPa) = 0.02678342
#
# Stress axis : x y z
#
# Youngs Moduli (GPa) = 66.09327 109.96859 47.58882
#
# Poissons Ratio (x) = 0.38065 0.01166
# Poissons Ratio (y) = 0.22878 0.26270
# Poissons Ratio (z) = 0.01619 0.60706
#
# Static dielectric constant tensor:
#      x y z
#    x 3.404720 0.000000 0.000000 
#    y 0.000000 4.065640 0.000000 
#    z 0.000000 0.000000 2.844380 
# 
# 
# High freq. dielectric constant tensor:
#      x y z
#    x 1.716120 0.000000 0.000000 
#    y 0.000000 1.742580 0.000000 
#    z 0.000000 0.000000 1.647710 
# 
# From -- ./inp_files/31926.got.cif
#   From: 2010.03.12/outbox.cif.g09.slc.cpg/sg22_16_cif.got.tgz:31926.got - 2010.04.14 02:24:06.
