data_PCOD8162025
_publ_section_title
;
Structure prediction by ZEFSAII (Michael W. Deem and Ramdas Pophale) SiO2 
 PCOD8162025
Probable space group: C 2 2 2
;
_chemical_formula_sum "Si O2"
_cell_formula_units_Z 32
_cell_length_a 6.441626
_cell_length_b 13.317364
_cell_length_c 16.863911
_cell_angle_alpha 90.000000
_cell_angle_beta 90.000000
_cell_angle_gamma 90.000000
_cell_volume 1446.678669
_symmetry_space_group_name_H-M "C 2 2 2"
_symmetry_group_IT_number 21
_symmetry_cell_setting 'orthorhombic'
loop_
_space_group_symop_operation_xyz
x,y,z
-x,-y,z
x,-y,-z
-x,y,-z
1/2+x,1/2+y,z
1/2-x,1/2-y,z
1/2+x,1/2-y,-z
1/2-x,1/2+y,-z
loop_
_atom_site_type_symbol
_atom_site_label
_atom_site_fract_x
_atom_site_fract_y
_atom_site_fract_z
Si Si1 0.000000 0.000000 0.000000
Si Si2 0.200549 0.864348 0.129663
Si Si3 0.000000 0.500000 0.786778
Si Si4 0.842446 0.147499 0.743641
Si Si5 0.500000 0.000000 0.500000
Si Si6 0.119385 0.101485 0.426418
O O1 0.138610 0.074093 0.947843
O O2 0.250000 0.750000 0.106808
O O3 0.414970 0.910490 0.159279
O O4 0.032409 0.879577 0.199325
O O5 0.182685 0.553534 0.736994
O O6 0.750000 0.250000 0.778994
O O7 0.906479 0.169391 0.652232
O O8 0.642118 0.925744 0.446846
O O9 0.000000 0.156561 0.500000
O O10 0.000000 0.000000 0.407470
#
# Coordination Sequence:
#
# PCOD8162025 Si02
#       6
#     2   8   4   8   2   8
#     4  12  28  50  76 106 144 172 228 298 352 422
#     4  12  27  48  73 109 139 183 232 281 357 427
#     4  12  23  45  78 100 144 182 228 295 341 413
#     4  12  24  44  71 106 141 190 239 286 348 420
#     4   8  16  36  60  92 124 190 232 286 352 386
#     4   9  19  37  62  94 139 180 234 291 340 399
#
# _framework density 22.119633
#
# number of rings (size 3 to 8) (size 9 to 14) (size 15 to 20)
#    0.000    1.250    5.000    2.250    0.000    5.500 
#    2.250    0.000    0.000    0.000    0.000    0.000 
#    0.000    0.000    0.000    0.000    0.000    0.000 
#
# Total GULP energy -198325.598344 kJ/mol
# GULP energy per Si atom -12395.349896 kJ/mol
# Density = 2.206929 g / cm^3
# Si number density = 22.119633 Si / 1000 Ang^3
#
#
#
# Elastic Constant Matrix: (Units=GPa)
#
#
# Indices 1 2 3 4 5 6 
#
# 1 114.5230 36.6654 49.4101 0.0000 0.0000 0.0000
# 2 36.6654 125.7113 38.8028 0.0000 0.0000 0.0000
# 3 49.4101 38.8028 153.5791 0.0000 0.0000 0.0000
# 4 0.0000 0.0000 0.0000 16.0694 0.0000 0.0000
# 5 0.0000 0.0000 0.0000 0.0000 15.8674 0.0000
# 6 0.0000 0.0000 0.0000 0.0000 0.0000 40.6608
#
#
#
# Elastic Compliance Matrix: (Units=1/GPa)
#
#
# Indices 1 2 3 4 5 6 
#
# 1 0.010686 -0.002229 -0.002875 0.000000 0.000000 0.000000
# 2 -0.002229 0.009093 -0.001580 0.000000 0.000000 0.000000
# 3 -0.002875 -0.001580 0.007835 0.000000 0.000000 0.000000
# 4 0.000000 0.000000 0.000000 0.062230 0.000000 0.000000
# 5 0.000000 0.000000 0.000000 0.000000 0.063022 0.000000
# 6 0.000000 0.000000 0.000000 0.000000 0.000000 0.024594
#
#
# Mechanical properties :
#
#
# Convention : Reuss Voigt Hill
#
# Bulk Modulus (GPa) = 70.19652 71.50777 70.85214
# Shear Modulus (GPa) = 25.56543 32.44853 29.00698
#
# Velocity S-wave (km/s) = 3.40336 3.83424 3.62521
# Velocity P-wave (km/s) = 6.87370 7.21109 7.04441
#
# Compressibility (1/GPa) = 0.01424572
#
# Stress axis : x y z
#
# Youngs Moduli (GPa) = 93.58162 109.97860 127.62660
#
# Poissons Ratio (x) = 0.24518 0.36688
# Poissons Ratio (y) = 0.20863 0.20166
# Poissons Ratio (z) = 0.26901 0.17378
#
# Static dielectric constant tensor:
#      x y z
#    x 4.157840 0.000000 0.000000 
#    y 0.000000 3.892000 0.000000 
#    z 0.000000 0.000000 4.092870 
# 
# 
# High freq. dielectric constant tensor:
#      x y z
#    x 1.876420 0.000000 0.000000 
#    y 0.000000 1.868640 0.000000 
#    z 0.000000 0.000000 1.868780 
# 
# From -- ./inp_files/34543.got.cif
#   From: 2010.03.12/outbox.cif.g09.slc.cpg/sg21_18_cif.got.tgz:34543.got - 2010.04.14 01:59:26.
