data_PCOD8162759
_publ_section_title
;
Structure prediction by ZEFSAII (Michael W. Deem and Ramdas Pophale) SiO2 
 PCOD8162759
Probable space group: F 2 2 2
;
_chemical_formula_sum "Si O2"
_cell_formula_units_Z 112
_cell_length_a 15.454642
_cell_length_b 12.099805
_cell_length_c 29.255876
_cell_angle_alpha 90.000000
_cell_angle_beta 90.000000
_cell_angle_gamma 90.000000
_cell_volume 5470.794822
_symmetry_space_group_name_H-M "F 2 2 2"
_symmetry_group_IT_number 22
_symmetry_cell_setting 'orthorhombic'
loop_
_space_group_symop_operation_xyz
x,y,z
-x,-y,z
x,-y,-z
-x,y,-z
x,1/2+y,1/2+z
-x,1/2-y,1/2+z
x,1/2-y,1/2-z
-x,1/2+y,1/2-z
1/2+x,y,1/2+z
1/2-x,-y,1/2+z
1/2+x,-y,1/2-z
1/2-x,y,1/2-z
1/2+x,1/2+y,z
1/2-x,1/2-y,z
1/2+x,1/2-y,-z
1/2-x,1/2+y,-z
loop_
_atom_site_type_symbol
_atom_site_label
_atom_site_fract_x
_atom_site_fract_y
_atom_site_fract_z
Si Si1 0.002800 0.217807 0.052912
Si Si2 0.971539 0.125947 0.633194
Si Si3 0.738418 0.077831 0.302828
Si Si4 0.727095 0.137288 0.852705
Si Si5 0.893286 0.237971 0.303292
Si Si6 0.686755 0.346668 0.044524
Si Si7 0.676248 0.401805 0.941519
O O1 0.907872 0.174801 0.064970
O O2 0.022297 0.328074 0.081768
O O3 0.072862 0.121428 0.064738
O O4 0.000000 0.252842 0.000000
O O5 0.874122 0.121942 0.649277
O O6 0.022288 0.209460 0.667150
O O7 0.000000 0.000000 0.635015
O O8 0.750000 0.050807 0.250000
O O9 0.824752 0.143269 0.316158
O O10 0.652158 0.146059 0.315893
O O11 0.725708 0.965223 0.329728
O O12 0.750000 0.250000 0.825520
O O13 0.766755 0.156344 0.903189
O O14 0.918397 0.250000 0.250000
O O15 0.750000 0.250000 0.064288
O O16 0.706410 0.470373 0.061412
O O17 0.697292 0.346070 0.989994
#
# Coordination Sequence:
#
# PCOD8162759 Si02
#       7
#    16  16  16  16  16  16  16
#     4  10  23  43  64  89 131 177 228 270 328 394
#     4  12  25  42  65  98 137 174 217 278 342 395
#     4   9  20  42  72  97 126 170 218 268 325 398
#     4  12  24  42  64  93 137 173 205 271 337 401
#     4   9  20  44  71  97 128 169 222 273 322 395
#     4  10  22  38  66  93 117 167 229 274 319 388
#     4  10  22  42  61  87 131 171 211 273 328 381
#
# _framework density 20.472346000000002
#
# number of rings (size 3 to 8) (size 9 to 14) (size 15 to 20)
#    0.000    1.714    2.857    1.714    6.000    2.286 
#    2.571    0.714    0.000    0.000    0.000    0.000 
#    0.000    0.000    0.000    0.000    0.000    0.000 
#
# Total GULP energy -347005.309285 kJ/mol
# GULP energy per Si atom -12393.046760 kJ/mol
# Density = 2.042575 g / cm^3
# Si number density = 20.472346 Si / 1000 Ang^3
#
#
#
# Elastic Constant Matrix: (Units=GPa)
#
#
# Indices 1 2 3 4 5 6 
#
# 1 125.8745 62.0066 31.4425 0.0000 0.0000 0.0000
# 2 62.0066 164.1904 51.2309 0.0000 0.0000 0.0000
# 3 31.4425 51.2309 55.3462 0.0000 0.0000 0.0000
# 4 0.0000 0.0000 0.0000 22.9676 0.0000 0.0000
# 5 0.0000 0.0000 0.0000 0.0000 35.7915 0.0000
# 6 0.0000 0.0000 0.0000 0.0000 0.0000 31.9799
#
#
#
# Elastic Compliance Matrix: (Units=1/GPa)
#
#
# Indices 1 2 3 4 5 6 
#
# 1 0.010128 -0.002854 -0.003112 0.000000 0.000000 0.000000
# 2 -0.002854 0.009368 -0.007050 0.000000 0.000000 0.000000
# 3 -0.003112 -0.007050 0.026362 0.000000 0.000000 0.000000
# 4 0.000000 0.000000 0.000000 0.043540 0.000000 0.000000
# 5 0.000000 0.000000 0.000000 0.000000 0.027940 0.000000
# 6 0.000000 0.000000 0.000000 0.000000 0.000000 0.031270
#
#
# Mechanical properties :
#
#
# Convention : Reuss Voigt Hill
#
# Bulk Modulus (GPa) = 50.43955 70.53013 60.48484
# Shear Modulus (GPa) = 27.58665 31.52985 29.55825
#
# Velocity S-wave (km/s) = 3.67482 3.92869 3.80388
# Velocity P-wave (km/s) = 6.53431 7.42332 6.99296
#
# Compressibility (1/GPa) = 0.01982571
#
# Stress axis : x y z
#
# Youngs Moduli (GPa) = 98.74099 106.74630 37.93324
#
# Poissons Ratio (x) = 0.30462 0.11805
# Poissons Ratio (y) = 0.28177 0.26744
# Poissons Ratio (z) = 0.30729 0.75259
#
# Static dielectric constant tensor:
#      x y z
#    x 3.685130 0.000000 0.000000 
#    y 0.000000 3.658690 0.000000 
#    z 0.000000 0.000000 3.511020 
# 
# 
# High freq. dielectric constant tensor:
#      x y z
#    x 1.799030 0.000000 0.000000 
#    y 0.000000 1.810140 0.000000 
#    z 0.000000 0.000000 1.790160 
# 
# From -- ./inp_files/28447.got.cif
#   From: 2010.03.12/outbox.cif.g09.slc.cpg/sg22_15_cif.got.tgz:28447.got - 2010.04.14 02:24:06.
