data_PCOD8162909
_publ_section_title
;
Structure prediction by ZEFSAII (Michael W. Deem and Ramdas Pophale) SiO2 
 PCOD8162909
Probable space group: F 2 2 2
;
_chemical_formula_sum "Si O2"
_cell_formula_units_Z 116
_cell_length_a 23.920880
_cell_length_b 25.629979
_cell_length_c 9.366728
_cell_angle_alpha 90.000000
_cell_angle_beta 90.000000
_cell_angle_gamma 90.000000
_cell_volume 5742.662744
_symmetry_space_group_name_H-M "F 2 2 2"
_symmetry_group_IT_number 22
_symmetry_cell_setting 'orthorhombic'
loop_
_space_group_symop_operation_xyz
x,y,z
-x,-y,z
x,-y,-z
-x,y,-z
x,1/2+y,1/2+z
-x,1/2-y,1/2+z
x,1/2-y,1/2-z
-x,1/2+y,1/2-z
1/2+x,y,1/2+z
1/2-x,-y,1/2+z
1/2+x,-y,1/2-z
1/2-x,y,1/2-z
1/2+x,1/2+y,z
1/2-x,1/2-y,z
1/2+x,1/2-y,-z
1/2-x,1/2+y,-z
loop_
_atom_site_type_symbol
_atom_site_label
_atom_site_fract_x
_atom_site_fract_y
_atom_site_fract_z
Si Si1 0.563226 0.360721 0.516353
Si Si2 0.804160 0.508296 0.834091
Si Si3 0.858288 0.908460 0.267715
Si Si4 0.750000 0.250000 0.750000
Si Si5 0.720288 0.335513 0.560656
Si Si6 0.350446 0.841431 0.511646
Si Si7 0.944314 0.242946 0.917288
Si Si8 0.655116 0.123610 0.193092
O O1 0.500000 0.377551 0.500000
O O2 0.585717 0.386923 0.659896
O O3 0.572807 0.298753 0.518273
O O4 0.595474 0.384201 0.380858
O O5 0.750000 0.489281 0.750000
O O6 0.854930 0.471015 0.782916
O O7 0.815588 0.567842 0.792856
O O8 0.792926 0.500000 0.000000
O O9 0.803456 0.884515 0.348855
O O10 0.864105 0.893556 0.101700
O O11 0.706289 0.283765 0.652594
O O12 0.786713 0.329795 0.550450
O O13 0.693636 0.337410 0.402547
O O14 0.392524 0.795671 0.557297
O O15 0.355852 0.850995 0.344721
O O16 0.958357 0.250000 0.750000
O O17 0.000000 0.222436 0.000000
#
# Coordination Sequence:
#
# PCOD8162909 Si02
#       8
#    16  16  16   4  16  16  16  16
#     4  10  23  45  68  92 133 173 230 281 328 402
#     4  12  24  42  69  98 136 180 221 274 332 415
#     4  11  23  41  68  98 131 180 229 265 342 401
#     4  12  24  36  66  84 132 172 226 260 336 404
#     4  11  23  40  60  92 134 177 216 267 324 413
#     4  12  24  40  67  95 135 176 217 279 333 401
#     4  11  26  44  70  98 130 178 234 280 340 404
#     4  11  27  43  64 100 139 172 230 280 338 396
#
# _framework density 20.199687999999998
#
# number of rings (size 3 to 8) (size 9 to 14) (size 15 to 20)
#    0.000    0.828    5.517    2.069   10.621    0.000 
#    0.000    2.069    0.000    0.000    0.000    2.897 
#    0.000    0.000    0.000    0.000    0.000    0.000 
#
# Total GULP energy -359519.291563 kJ/mol
# GULP energy per Si atom -12397.216950 kJ/mol
# Density = 2.015371 g / cm^3
# Si number density = 20.199688 Si / 1000 Ang^3
#
#
#
# Elastic Constant Matrix: (Units=GPa)
#
#
# Indices 1 2 3 4 5 6 
#
# 1 133.8507 35.2509 39.9195 -0.0008 -0.0005 0.0000
# 2 35.2509 81.4630 33.7532 0.0004 -0.0012 -0.0002
# 3 39.9195 33.7532 152.0819 0.0018 -0.0042 -0.0007
# 4 -0.0008 0.0004 0.0018 25.3442 -0.0001 0.0006
# 5 -0.0005 -0.0012 -0.0042 -0.0001 23.3203 0.0011
# 6 0.0000 -0.0002 -0.0007 0.0006 0.0011 24.8425
#
#
#
# Elastic Compliance Matrix: (Units=1/GPa)
#
#
# Indices 1 2 3 4 5 6 
#
# 1 0.008775 -0.003131 -0.001609 0.000000 0.000000 0.000000
# 2 -0.003131 0.014636 -0.002426 0.000000 0.000000 0.000000
# 3 -0.001609 -0.002426 0.007536 -0.000001 0.000001 0.000000
# 4 0.000000 0.000000 -0.000001 0.039457 0.000000 -0.000001
# 5 0.000000 0.000000 0.000001 0.000000 0.042881 -0.000002
# 6 0.000000 0.000000 0.000000 -0.000001 -0.000002 0.040254
#
#
# Mechanical properties :
#
#
# Convention : Reuss Voigt Hill
#
# Bulk Modulus (GPa) = 60.18474 65.02695 62.60585
# Shear Modulus (GPa) = 28.83365 31.93288 30.38326
#
# Velocity S-wave (km/s) = 3.78223 3.98032 3.88254
# Velocity P-wave (km/s) = 6.99523 7.30656 7.15259
#
# Compressibility (1/GPa) = 0.01661551
#
# Stress axis : x y z
#
# Youngs Moduli (GPa) = 113.95676 68.32638 132.69361
#
# Poissons Ratio (x) = 0.21391 0.21344
# Poissons Ratio (y) = 0.35677 0.32198
# Poissons Ratio (z) = 0.18330 0.16579
#
# Static dielectric constant tensor:
#      x y z
#    x 3.664240 0.000000 0.000000 
#    y 0.000000 3.722150 -0.000010 
#    z 0.000000 -0.000010 3.924990 
# 
# 
# High freq. dielectric constant tensor:
#      x y z
#    x 1.780400 0.000000 0.000000 
#    y 0.000000 1.780560 0.000000 
#    z 0.000000 0.000000 1.802880 
# 
# From -- ./inp_files/14116.got.cif
#   From: 2010.03.12/outbox.cif.g09.slc.cpg/sg22_8_cif.got.tgz:14116.got - 2010.04.14 02:24:06.
