data_PCOD8163935
_publ_section_title
;
Structure prediction by ZEFSAII (Michael W. Deem and Ramdas Pophale) SiO2 
 PCOD8163935
Probable space group: I 2 2 2
;
_chemical_formula_sum "Si O2"
_cell_formula_units_Z 32
_cell_length_a 11.509783
_cell_length_b 14.872486
_cell_length_c 8.537171
_cell_angle_alpha 90.000000
_cell_angle_beta 90.000000
_cell_angle_gamma 90.000000
_cell_volume 1461.385133
_symmetry_space_group_name_H-M "I 2 2 2"
_symmetry_group_IT_number 23
_symmetry_cell_setting 'orthorhombic'
loop_
_space_group_symop_operation_xyz
x,y,z
-x,-y,z
x,-y,-z
-x,y,-z
1/2+x,1/2+y,1/2+z
1/2-x,1/2-y,1/2+z
1/2+x,1/2-y,1/2-z
1/2-x,1/2+y,1/2-z
loop_
_atom_site_type_symbol
_atom_site_label
_atom_site_fract_x
_atom_site_fract_y
_atom_site_fract_z
Si Si1 0.113423 0.594259 0.388012
Si Si2 0.014869 0.278372 0.181517
Si Si3 0.461305 0.404730 0.179606
Si Si4 0.706093 0.908579 0.799990
O O1 0.095971 0.678530 0.273105
O O2 0.143107 0.506325 0.282675
O O3 0.219656 0.610956 0.511692
O O4 0.000000 0.580593 0.500000
O O5 0.024845 0.173893 0.225263
O O6 0.130054 0.329926 0.227413
O O7 0.000000 0.290526 0.000000
O O8 0.500000 0.500000 0.250609
O O9 0.323562 0.401981 0.202642
O O10 0.500000 0.395732 0.000000
#
# Coordination Sequence:
#
# PCOD8163935 Si02
#       4
#     8   8   8   8
#     4   9  19  41  71 102 131 165 216 264 317 391
#     4  11  24  39  65 102 133 169 218 263 316 393
#     4  11  27  46  63  90 129 172 223 273 324 390
#     4  10  21  41  70  93 128 177 208 268 329 367
#
# _framework density 21.897031999999999
#
# number of rings (size 3 to 8) (size 9 to 14) (size 15 to 20)
#    0.000    1.750    0.000    7.500    0.000   16.500 
#    0.000    0.000    0.000    0.000    0.000    0.000 
#    0.000    0.000    0.000    0.000    0.000    0.000 
#
# Total GULP energy -198262.206235 kJ/mol
# GULP energy per Si atom -12391.387890 kJ/mol
# Density = 2.184719 g / cm^3
# Si number density = 21.897032 Si / 1000 Ang^3
#
#
#
# Elastic Constant Matrix: (Units=GPa)
#
#
# Indices 1 2 3 4 5 6 
#
# 1 116.6988 55.3480 50.8998 0.0000 0.0000 0.0000
# 2 55.3480 179.1132 70.0129 0.0000 0.0000 0.0000
# 3 50.8998 70.0129 126.5702 0.0000 0.0000 0.0000
# 4 0.0000 0.0000 0.0000 16.1623 0.0000 0.0000
# 5 0.0000 0.0000 0.0000 0.0000 41.5088 0.0000
# 6 0.0000 0.0000 0.0000 0.0000 0.0000 10.5456
#
#
#
# Elastic Compliance Matrix: (Units=1/GPa)
#
#
# Indices 1 2 3 4 5 6 
#
# 1 0.010994 -0.002129 -0.003243 0.000000 0.000000 0.000000
# 2 -0.002129 0.007536 -0.003312 0.000000 0.000000 0.000000
# 3 -0.003243 -0.003312 0.011037 0.000000 0.000000 0.000000
# 4 0.000000 0.000000 0.000000 0.061872 0.000000 0.000000
# 5 0.000000 0.000000 0.000000 0.000000 0.024091 0.000000
# 6 0.000000 0.000000 0.000000 0.000000 0.000000 0.094826
#
#
# Mechanical properties :
#
#
# Convention : Reuss Voigt Hill
#
# Bulk Modulus (GPa) = 81.98689 86.10039 84.04364
# Shear Modulus (GPa) = 21.57112 30.05144 25.81128
#
# Velocity S-wave (km/s) = 3.14206 3.70861 3.43703
# Velocity P-wave (km/s) = 7.11946 7.59897 7.36312
#
# Compressibility (1/GPa) = 0.01219707
#
# Stress axis : x y z
#
# Youngs Moduli (GPa) = 90.96247 132.70120 90.60395
#
# Poissons Ratio (x) = 0.28258 0.29384
# Poissons Ratio (y) = 0.19370 0.30009
# Poissons Ratio (z) = 0.29500 0.43952
#
# Static dielectric constant tensor:
#      x y z
#    x 3.888240 0.000000 0.000000 
#    y 0.000000 4.310610 0.000000 
#    z 0.000000 0.000000 4.159430 
# 
# 
# High freq. dielectric constant tensor:
#      x y z
#    x 1.841600 0.000000 0.000000 
#    y 0.000000 1.879610 0.000000 
#    z 0.000000 0.000000 1.856390 
# 
# From -- ./inp_files/7922.got.cif
#   From: 2010.03.12/outbox.cif.g09.slc.cpg/sg23_4_cif.got.tgz:7922.got - 2010.04.14 02:50:06.
