data_PCOD8163519
_publ_section_title
;
Structure prediction by ZEFSAII (Michael W. Deem and Ramdas Pophale) SiO2 
 PCOD8163519
Probable space group: I 2 2 2
;
_chemical_formula_sum "Si O2"
_cell_formula_units_Z 64
_cell_length_a 9.534405
_cell_length_b 18.446666
_cell_length_c 19.154494
_cell_angle_alpha 90.000000
_cell_angle_beta 90.000000
_cell_angle_gamma 90.000000
_cell_volume 3368.853800
_symmetry_space_group_name_H-M "I 2 2 2"
_symmetry_group_IT_number 23
_symmetry_cell_setting 'orthorhombic'
loop_
_space_group_symop_operation_xyz
x,y,z
-x,-y,z
x,-y,-z
-x,y,-z
1/2+x,1/2+y,1/2+z
1/2-x,1/2-y,1/2+z
1/2+x,1/2-y,1/2-z
1/2-x,1/2+y,1/2-z
loop_
_atom_site_type_symbol
_atom_site_label
_atom_site_fract_x
_atom_site_fract_y
_atom_site_fract_z
Si Si1 0.912551 0.565782 0.284234
Si Si2 0.562661 0.926834 0.623337
Si Si3 0.370458 0.721902 0.677347
Si Si4 0.673253 0.578295 0.037627
Si Si5 0.962006 0.871593 0.354040
Si Si6 0.810817 0.340747 0.082258
Si Si7 0.934911 0.277605 0.711015
Si Si8 0.912174 0.933532 0.785079
O O1 0.959857 0.578781 0.205264
O O2 0.954528 0.641612 0.322655
O O3 0.749770 0.544094 0.285258
O O4 0.000000 0.500000 0.318661
O O5 0.725974 0.924150 0.604752
O O6 0.469995 0.867040 0.584166
O O7 0.500000 0.000000 0.592067
O O8 0.324962 0.755077 0.601919
O O9 0.232237 0.725756 0.726741
O O10 0.489450 0.770796 0.713992
O O11 0.427899 0.639757 0.669021
O O12 0.522937 0.601926 0.070337
O O13 0.663832 0.500000 0.000000
O O14 0.737278 0.643648 0.991342
O O15 0.024209 0.920139 0.292261
O O16 0.792561 0.879803 0.360067
O O17 0.992998 0.785835 0.340056
O O18 0.000000 0.000000 0.818735
#
# Coordination Sequence:
#
# PCOD8163519 Si02
#       8
#     8   8   8   8   8   8   8   8
#     4  10  20  32  53  76 102 137 176 218 271 319
#     4  11  21  35  46  70 104 143 179 215 252 300
#     4   9  19  35  50  75  97 139 178 218 275 319
#     4  12  24  37  48  74 112 151 189 223 250 311
#     4  10  23  36  50  74 105 145 185 220 268 315
#     4  11  22  34  53  68 103 146 184 217 261 309
#     4   9  18  35  53  70 103 138 175 228 268 320
#     4  10  21  34  52  75 106 132 174 227 275 324
#
# _framework density 18.99756
#
# number of rings (size 3 to 8) (size 9 to 14) (size 15 to 20)
#    0.000    1.750    3.750    0.750    5.250    1.500 
#    0.000    0.000    0.000    0.000    0.000    0.000 
#    0.000   32.000    0.000    0.000    0.000    0.000 
#
# Total GULP energy -396444.834157 kJ/mol
# GULP energy per Si atom -12388.901067 kJ/mol
# Density = 1.895432 g / cm^3
# Si number density = 18.997560 Si / 1000 Ang^3
#
#
#
# Elastic Constant Matrix: (Units=GPa)
#
#
# Indices 1 2 3 4 5 6 
#
# 1 81.8882 48.0239 -0.9977 0.0000 0.0000 0.0000
# 2 48.0239 137.6001 28.2051 0.0000 0.0000 0.0000
# 3 -0.9977 28.2051 38.7039 0.0000 0.0000 0.0000
# 4 0.0000 0.0000 0.0000 20.1589 0.0000 0.0000
# 5 0.0000 0.0000 0.0000 0.0000 15.5786 0.0000
# 6 0.0000 0.0000 0.0000 0.0000 0.0000 32.7956
#
#
#
# Elastic Compliance Matrix: (Units=1/GPa)
#
#
# Indices 1 2 3 4 5 6 
#
# 1 0.016245 -0.006766 0.005350 0.000000 0.000000 0.000000
# 2 -0.006766 0.011362 -0.008454 0.000000 0.000000 0.000000
# 3 0.005350 -0.008454 0.032136 0.000000 0.000000 0.000000
# 4 0.000000 0.000000 0.000000 0.049606 0.000000 0.000000
# 5 0.000000 0.000000 0.000000 0.000000 0.064191 0.000000
# 6 0.000000 0.000000 0.000000 0.000000 0.000000 0.030492
#
#
# Mechanical properties :
#
#
# Convention : Reuss Voigt Hill
#
# Bulk Modulus (GPa) = 24.99930 45.40609 35.20270
# Shear Modulus (GPa) = 21.08754 25.90402 23.49578
#
# Velocity S-wave (km/s) = 3.33530 3.69663 3.52060
# Velocity P-wave (km/s) = 5.29340 6.49407 5.92423
#
# Compressibility (1/GPa) = 0.04000111
#
# Stress axis : x y z
#
# Youngs Moduli (GPa) = 61.55718 88.01368 31.11774
#
# Poissons Ratio (x) = 0.59552 -0.16647
# Poissons Ratio (y) = 0.41651 0.26308
# Poissons Ratio (z) = -0.32931 0.74409
#
# Static dielectric constant tensor:
#      x y z
#    x 3.744290 0.000000 0.000000 
#    y 0.000000 3.821410 0.000000 
#    z 0.000000 0.000000 3.066340 
# 
# 
# High freq. dielectric constant tensor:
#      x y z
#    x 1.759960 0.000000 0.000000 
#    y 0.000000 1.741450 0.000000 
#    z 0.000000 0.000000 1.672730 
# 
# From -- ./inp_files/26346.got.cif
#   From: 2010.03.12/outbox.cif.g09.slc.cpg/sg23_14_cif.got.tgz:26346.got - 2010.04.14 02:50:06.
