data_PCOD8163690
_publ_section_title
;
Structure prediction by ZEFSAII (Michael W. Deem and Ramdas Pophale) SiO2 
 PCOD8163690
Probable space group: I 2 2 2
;
_chemical_formula_sum "Si O2"
_cell_formula_units_Z 36
_cell_length_a 19.097127
_cell_length_b 5.133999
_cell_length_c 16.782077
_cell_angle_alpha 90.000000
_cell_angle_beta 90.000000
_cell_angle_gamma 90.000000
_cell_volume 1645.392546
_symmetry_space_group_name_H-M "I 2 2 2"
_symmetry_group_IT_number 23
_symmetry_cell_setting 'orthorhombic'
loop_
_space_group_symop_operation_xyz
x,y,z
-x,-y,z
x,-y,-z
-x,y,-z
1/2+x,1/2+y,1/2+z
1/2-x,1/2-y,1/2+z
1/2+x,1/2-y,1/2-z
1/2-x,1/2+y,1/2-z
loop_
_atom_site_type_symbol
_atom_site_label
_atom_site_fract_x
_atom_site_fract_y
_atom_site_fract_z
Si Si1 0.500000 0.500000 0.000000
Si Si2 0.569875 0.653174 0.625172
Si Si3 0.231531 0.000000 0.500000
Si Si4 0.388659 0.613484 0.881880
Si Si5 0.500000 0.000000 0.500000
Si Si6 0.173022 0.000000 0.000000
Si Si7 0.078301 0.599366 0.713080
O O1 0.448705 0.314769 0.052850
O O2 0.500000 0.500000 0.654906
O O3 0.628725 0.476297 0.583080
O O4 0.602247 0.821751 0.697581
O O5 0.551841 0.836513 0.552592
O O6 0.184556 0.960202 0.421550
O O7 0.278822 0.749420 0.507142
O O8 0.416805 0.357453 0.838592
O O9 0.376202 0.859614 0.822726
O O10 0.000000 0.500000 0.717195
#
# Coordination Sequence:
#
# PCOD8163690 Si02
#       7
#     2   8   4   8   2   4   8
#     4  10  20  38  70  98 134 180 226 278 350 386
#     4  12  25  41  72 107 140 176 228 297 352 422
#     4  11  27  47  71  98 140 188 248 282 319 419
#     4  11  24  43  66 105 139 182 230 285 337 412
#     4  12  20  40  66 106 146 164 224 292 344 408
#     4  12  25  48  72 101 134 194 238 284 344 401
#     4  12  23  40  68 106 145 173 214 292 369 407
#
# _framework density 21.879276999999998
#
# number of rings (size 3 to 8) (size 9 to 14) (size 15 to 20)
#    0.000    0.444    5.556    3.333    0.000    3.556 
#    0.000    4.444    0.000    0.000    0.000    0.000 
#    0.000    0.000    0.000    0.000    0.000    0.000 
#
# Total GULP energy -223141.563525 kJ/mol
# GULP energy per Si atom -12396.753529 kJ/mol
# Density = 2.182948 g / cm^3
# Si number density = 21.879277 Si / 1000 Ang^3
#
#
#
# Elastic Constant Matrix: (Units=GPa)
#
#
# Indices 1 2 3 4 5 6 
#
# 1 111.0312 48.9642 59.1688 0.0000 0.0000 0.0000
# 2 48.9642 153.1726 67.3937 0.0000 0.0000 0.0000
# 3 59.1688 67.3937 147.5724 0.0000 0.0000 0.0000
# 4 0.0000 0.0000 0.0000 48.7300 0.0000 0.0000
# 5 0.0000 0.0000 0.0000 0.0000 11.1854 0.0000
# 6 0.0000 0.0000 0.0000 0.0000 0.0000 38.3434
#
#
#
# Elastic Compliance Matrix: (Units=1/GPa)
#
#
# Indices 1 2 3 4 5 6 
#
# 1 0.011994 -0.002150 -0.003827 0.000000 0.000000 0.000000
# 2 -0.002150 0.008556 -0.003045 0.000000 0.000000 0.000000
# 3 -0.003827 -0.003045 0.009701 0.000000 0.000000 0.000000
# 4 0.000000 0.000000 0.000000 0.020521 0.000000 0.000000
# 5 0.000000 0.000000 0.000000 0.000000 0.089403 0.000000
# 6 0.000000 0.000000 0.000000 0.000000 0.000000 0.026080
#
#
# Mechanical properties :
#
#
# Convention : Reuss Voigt Hill
#
# Bulk Modulus (GPa) = 81.92367 84.75883 83.34125
# Shear Modulus (GPa) = 26.54364 35.40172 30.97268
#
# Velocity S-wave (km/s) = 3.48686 4.02686 3.76655
# Velocity P-wave (km/s) = 7.33047 7.77459 7.55579
#
# Compressibility (1/GPa) = 0.01220648
#
# Stress axis : x y z
#
# Youngs Moduli (GPa) = 83.37379 116.88024 103.07774
#
# Poissons Ratio (x) = 0.25133 0.39448
# Poissons Ratio (y) = 0.17928 0.31388
# Poissons Ratio (z) = 0.31907 0.35591
#
# Static dielectric constant tensor:
#      x y z
#    x 4.103820 0.000000 0.000000 
#    y 0.000000 4.245970 0.000000 
#    z 0.000000 0.000000 4.285890 
# 
# 
# High freq. dielectric constant tensor:
#      x y z
#    x 1.842170 0.000000 0.000000 
#    y 0.000000 1.870750 0.000000 
#    z 0.000000 0.000000 1.872520 
# 
# From -- ./inp_files/22278.got.cif
#   From: 2010.03.12/outbox.cif.g09.slc.cpg/sg23_12_cif.got.tgz:22278.got - 2010.04.14 02:50:06.
