data_PCOD8163924
_publ_section_title
;
Structure prediction by ZEFSAII (Michael W. Deem and Ramdas Pophale) SiO2 
 PCOD8163924
Probable space group: I 2 2 2
;
_chemical_formula_sum "Si O2"
_cell_formula_units_Z 38
_cell_length_a 15.408283
_cell_length_b 8.536885
_cell_length_c 13.225962
_cell_angle_alpha 90.000000
_cell_angle_beta 90.000000
_cell_angle_gamma 90.000000
_cell_volume 1739.726377
_symmetry_space_group_name_H-M "I 2 2 2"
_symmetry_group_IT_number 23
_symmetry_cell_setting 'orthorhombic'
loop_
_space_group_symop_operation_xyz
x,y,z
-x,-y,z
x,-y,-z
-x,y,-z
1/2+x,1/2+y,1/2+z
1/2-x,1/2-y,1/2+z
1/2+x,1/2-y,1/2-z
1/2-x,1/2+y,1/2-z
loop_
_atom_site_type_symbol
_atom_site_label
_atom_site_fract_x
_atom_site_fract_y
_atom_site_fract_z
Si Si1 0.000000 0.500000 0.667557
Si Si2 0.303399 0.683473 0.481385
Si Si3 0.855557 0.663222 0.216251
Si Si4 0.500000 0.500000 0.000000
Si Si5 0.797865 0.317815 0.189935
Si Si6 0.619594 0.253146 0.893897
O O1 0.950234 0.375262 0.739775
O O2 0.935329 0.593433 0.594801
O O3 0.311830 0.500000 0.500000
O O4 0.363654 0.739292 0.388207
O O5 0.336159 0.770070 0.581756
O O6 0.204350 0.734370 0.462282
O O7 0.801450 0.504271 0.199023
O O8 0.802605 0.766043 0.298251
O O9 0.561917 0.398871 0.927983
O O10 0.854140 0.230848 0.276199
#
# Coordination Sequence:
#
# PCOD8163924 Si02
#       6
#     4   8   8   2   8   8
#     4  10  22  45  63  94 134 174 212 274 332 384
#     4  11  23  40  66  96 125 176 226 267 320 394
#     4  10  22  39  67  94 130 175 218 269 326 391
#     4  12  28  38  64 100 138 172 208 280 332 382
#     4  10  21  41  62  90 128 170 222 264 317 393
#     4  10  26  40  63  96 130 175 212 273 327 385
#
# _framework density 21.842516
#
# number of rings (size 3 to 8) (size 9 to 14) (size 15 to 20)
#    0.000    1.684    0.000    4.421   11.789    1.684 
#    0.000    8.421    0.000    5.053    0.000    0.000 
#    0.000    0.000    0.000    0.000    0.000    0.000 
#
# Total GULP energy -235616.050159 kJ/mol
# GULP energy per Si atom -12400.844745 kJ/mol
# Density = 2.179280 g / cm^3
# Si number density = 21.842516 Si / 1000 Ang^3
#
#
#
# Elastic Constant Matrix: (Units=GPa)
#
#
# Indices 1 2 3 4 5 6 
#
# 1 63.7319 18.8472 -3.5098 0.0000 0.0000 0.0000
# 2 18.8472 102.9541 30.5242 0.0000 0.0000 0.0000
# 3 -3.5098 30.5242 91.7865 0.0000 0.0000 0.0000
# 4 0.0000 0.0000 0.0000 47.8092 0.0000 0.0000
# 5 0.0000 0.0000 0.0000 0.0000 10.6090 0.0000
# 6 0.0000 0.0000 0.0000 0.0000 0.0000 48.6679
#
#
#
# Elastic Compliance Matrix: (Units=1/GPa)
#
#
# Indices 1 2 3 4 5 6 
#
# 1 0.016869 -0.003638 0.001855 0.000000 0.000000 0.000000
# 2 -0.003638 0.011560 -0.003983 0.000000 0.000000 0.000000
# 3 0.001855 -0.003983 0.012291 0.000000 0.000000 0.000000
# 4 0.000000 0.000000 0.000000 0.020916 0.000000 0.000000
# 5 0.000000 0.000000 0.000000 0.000000 0.094259 0.000000
# 6 0.000000 0.000000 0.000000 0.000000 0.000000 0.020547
#
#
# Mechanical properties :
#
#
# Convention : Reuss Voigt Hill
#
# Bulk Modulus (GPa) = 34.26286 38.91062 36.58674
# Shear Modulus (GPa) = 25.29028 35.59129 30.44079
#
# Velocity S-wave (km/s) = 3.40641 4.04102 3.73721
# Velocity P-wave (km/s) = 5.58497 6.29492 5.95054
#
# Compressibility (1/GPa) = 0.02918612
#
# Stress axis : x y z
#
# Youngs Moduli (GPa) = 59.28128 86.50449 81.36355
#
# Poissons Ratio (x) = 0.31470 -0.15092
# Poissons Ratio (y) = 0.21567 0.32411
# Poissons Ratio (z) = -0.10996 0.34459
#
# Static dielectric constant tensor:
#      x y z
#    x 3.921720 0.000000 0.000000 
#    y 0.000000 4.010110 0.000000 
#    z 0.000000 0.000000 4.081160 
# 
# 
# High freq. dielectric constant tensor:
#      x y z
#    x 1.840920 0.000000 0.000000 
#    y 0.000000 1.867510 0.000000 
#    z 0.000000 0.000000 1.867850 
# 
# From -- ./inp_files/17266.got.cif
#   From: 2010.03.12/outbox.cif.g09.slc.cpg/sg23_9_cif.got.tgz:17266.got - 2010.04.14 02:50:06.
