data_PCOD8163078
_publ_section_title
;
Structure prediction by ZEFSAII (Michael W. Deem and Ramdas Pophale) SiO2 
 PCOD8163078
Probable space group: F 2 2 2
;
_chemical_formula_sum "Si O2"
_cell_formula_units_Z 72
_cell_length_a 9.367576
_cell_length_b 13.590201
_cell_length_c 23.859706
_cell_angle_alpha 90.000000
_cell_angle_beta 90.000000
_cell_angle_gamma 90.000000
_cell_volume 3037.513335
_symmetry_space_group_name_H-M "F 2 2 2"
_symmetry_group_IT_number 22
_symmetry_cell_setting 'orthorhombic'
loop_
_space_group_symop_operation_xyz
x,y,z
-x,-y,z
x,-y,-z
-x,y,-z
x,1/2+y,1/2+z
-x,1/2-y,1/2+z
x,1/2-y,1/2-z
-x,1/2+y,1/2-z
1/2+x,y,1/2+z
1/2-x,-y,1/2+z
1/2+x,-y,1/2-z
1/2-x,y,1/2-z
1/2+x,1/2+y,z
1/2-x,1/2-y,z
1/2+x,1/2-y,-z
1/2-x,1/2+y,-z
loop_
_atom_site_type_symbol
_atom_site_label
_atom_site_fract_x
_atom_site_fract_y
_atom_site_fract_z
Si Si1 0.563259 0.152747 0.770592
Si Si2 0.616042 0.184293 0.952076
Si Si3 0.109396 0.308123 0.867621
Si Si4 0.798926 0.975470 0.369325
Si Si5 0.000000 0.500000 0.321684
O O1 0.650447 0.250000 0.750000
O O2 0.424411 0.198116 0.801949
O O3 0.656140 0.083558 0.812292
O O4 0.508126 0.095558 0.716756
O O5 0.750000 0.250000 0.973464
O O6 0.523761 0.237312 0.902866
O O7 0.687110 0.086860 0.925994
O O8 0.500000 0.160045 0.000000
O O9 0.250000 0.250000 0.884625
O O10 0.110584 0.425665 0.880386
O O11 0.636390 0.009629 0.361670
#
# Coordination Sequence:
#
# PCOD8163078 Si02
#       5
#    16  16  16  16   8
#     4  11  23  40  65 101 151 207 244 295 358 427
#     4  11  26  50  77 106 139 182 244 312 379 437
#     4  11  24  46  72 106 147 196 244 299 364 444
#     4  11  26  43  70 106 147 197 245 298 365 443
#     4  12  24  40  64 107 151 192 258 290 340 444
#
# _framework density 23.703599000000001
#
# number of rings (size 3 to 8) (size 9 to 14) (size 15 to 20)
#    0.000    0.889    2.222    4.667    9.333    4.889 
#    0.000    0.000    0.000    0.000    0.000    0.000 
#    0.000    0.000    0.000    0.000    0.000    0.000 
#
# Total GULP energy -223050.314094 kJ/mol
# GULP energy per Si atom -12391.684116 kJ/mol
# Density = 2.364965 g / cm^3
# Si number density = 23.703599 Si / 1000 Ang^3
#
#
#
# Elastic Constant Matrix: (Units=GPa)
#
#
# Indices 1 2 3 4 5 6 
#
# 1 143.4421 33.1894 51.8852 0.0000 0.0000 0.0000
# 2 33.1894 130.1179 31.4369 0.0000 0.0000 0.0000
# 3 51.8852 31.4369 102.0690 0.0000 0.0000 0.0000
# 4 0.0000 0.0000 0.0000 24.4216 0.0000 0.0000
# 5 0.0000 0.0000 0.0000 0.0000 -7.8025 0.0000
# 6 0.0000 0.0000 0.0000 0.0000 0.0000 0.2857
#
#
#
# Elastic Compliance Matrix: (Units=1/GPa)
#
#
# Indices 1 2 3 4 5 6 
#
# 1 0.008725 -0.001247 -0.004051 0.000000 0.000000 0.000000
# 2 -0.001247 0.008481 -0.001978 0.000000 0.000000 0.000000
# 3 -0.004051 -0.001978 0.012466 0.000000 0.000000 0.000000
# 4 0.000000 0.000000 0.000000 0.040947 0.000000 0.000000
# 5 0.000000 0.000000 0.000000 0.000000 -0.128163 0.000000
# 6 0.000000 0.000000 0.000000 0.000000 0.000000 3.500258
#
#
# Mechanical properties :
#
#
# Convention : Reuss Voigt Hill
#
# Bulk Modulus (GPa) = 66.13932 67.62799 66.88365
# Shear Modulus (GPa) = 1.44412 20.65545 11.04978
#
# Velocity S-wave (km/s) = 0.78139 2.95516 2.16143
# Velocity P-wave (km/s) = 5.36445 6.34323 5.87426
#
# Compressibility (1/GPa) = 0.01511960
#
# Stress axis : x y z
#
# Youngs Moduli (GPa) = 114.60815 117.90570 80.21736
#
# Poissons Ratio (x) = 0.14700 0.32499
# Poissons Ratio (y) = 0.14289 0.15871
# Poissons Ratio (z) = 0.46433 0.23327
#
# Static dielectric constant tensor:
#      x y z
#    x 4.426320 0.000000 0.000000 
#    y 0.000000 4.299120 0.000000 
#    z 0.000000 0.000000 4.170120 
# 
# 
# High freq. dielectric constant tensor:
#      x y z
#    x 1.958530 0.000000 0.000000 
#    y 0.000000 1.940060 0.000000 
#    z 0.000000 0.000000 1.922000 
# 
# From -- ./inp_files/51688.got.cif
#   From: 2010.03.12/outbox.cif.g09.slc.cpg/sg22_26_cif.got.tgz:51688.got - 2010.04.14 02:24:06.
