data_PCOD8163912
_publ_section_title
;
Structure prediction by ZEFSAII (Michael W. Deem and Ramdas Pophale) SiO2 
 PCOD8163912
Probable space group: I 2 2 2
;
_chemical_formula_sum "Si O2"
_cell_formula_units_Z 58
_cell_length_a 27.558230
_cell_length_b 11.154175
_cell_length_c 9.284740
_cell_angle_alpha 90.000000
_cell_angle_beta 90.000000
_cell_angle_gamma 90.000000
_cell_volume 2854.029916
_symmetry_space_group_name_H-M "I 2 2 2"
_symmetry_group_IT_number 23
_symmetry_cell_setting 'orthorhombic'
loop_
_space_group_symop_operation_xyz
x,y,z
-x,-y,z
x,-y,-z
-x,y,-z
1/2+x,1/2+y,1/2+z
1/2-x,1/2-y,1/2+z
1/2+x,1/2-y,1/2-z
1/2-x,1/2+y,1/2-z
loop_
_atom_site_type_symbol
_atom_site_label
_atom_site_fract_x
_atom_site_fract_y
_atom_site_fract_z
Si Si1 0.608897 0.890234 0.316273
Si Si2 0.444257 0.132070 0.043014
Si Si3 0.303747 0.720760 0.699391
Si Si4 0.210751 0.788919 0.864868
Si Si5 0.422688 0.338710 0.854020
Si Si6 0.000000 0.000000 0.500000
Si Si7 0.109821 0.334991 0.135914
Si Si8 0.326455 0.486385 0.838709
O O1 0.566443 0.844498 0.210846
O O2 0.663313 0.840335 0.286116
O O3 0.593575 0.841806 0.471227
O O4 0.607805 0.033092 0.297608
O O5 0.500000 0.150862 0.000000
O O6 0.411853 0.232681 0.967029
O O7 0.426084 0.000000 0.000000
O O8 0.258556 0.723700 0.808114
O O9 0.285705 0.691031 0.537022
O O10 0.335938 0.611728 0.758980
O O11 0.164589 0.706178 0.835977
O O12 0.207382 0.909550 0.768826
O O13 0.470249 0.414467 0.892369
O O14 0.426736 0.264211 0.703941
O O15 0.378870 0.429709 0.857243
O O16 0.303072 0.500000 0.000000
#
# Coordination Sequence:
#
# PCOD8163912 Si02
#       8
#     8   8   8   8   8   2   8   8
#     4  10  21  40  67  93 126 174 206 275 334 397
#     4  11  22  39  67  97 129 158 216 277 327 392
#     4  11  23  39  62  94 128 171 225 271 330 393
#     4  10  23  40  61  93 131 173 224 276 324 396
#     4  11  22  41  64  97 125 175 213 274 323 396
#     4  12  24  40  74  94 140 164 234 270 332 384
#     4   9  21  42  65  90 133 169 216 261 342 394
#     4  11  22  39  62  88 131 175 218 268 332 387
#
# _framework density 20.322141999999999
#
# number of rings (size 3 to 8) (size 9 to 14) (size 15 to 20)
#    0.000    1.517    2.759    2.069    1.931    1.103 
#    0.000    0.690    0.000    0.828    0.000    0.000 
#    0.000    0.000    0.000    0.000    0.000    0.000 
#
# Total GULP energy -359415.889218 kJ/mol
# GULP energy per Si atom -12393.651352 kJ/mol
# Density = 2.027589 g / cm^3
# Si number density = 20.322142 Si / 1000 Ang^3
#
#
#
# Elastic Constant Matrix: (Units=GPa)
#
#
# Indices 1 2 3 4 5 6 
#
# 1 93.0466 50.5699 65.7874 0.0000 0.0000 0.0000
# 2 50.5699 123.8247 62.5091 0.0000 0.0000 0.0000
# 3 65.7874 62.5091 160.6829 0.0000 0.0000 0.0000
# 4 0.0000 0.0000 0.0000 40.2448 0.0000 0.0000
# 5 0.0000 0.0000 0.0000 0.0000 35.7941 0.0000
# 6 0.0000 0.0000 0.0000 0.0000 0.0000 16.9571
#
#
#
# Elastic Compliance Matrix: (Units=1/GPa)
#
#
# Indices 1 2 3 4 5 6 
#
# 1 0.016711 -0.004195 -0.005210 0.000000 0.000000 0.000000
# 2 -0.004195 0.011102 -0.002602 0.000000 0.000000 0.000000
# 3 -0.005210 -0.002602 0.009369 0.000000 0.000000 0.000000
# 4 0.000000 0.000000 0.000000 0.024848 0.000000 0.000000
# 5 0.000000 0.000000 0.000000 0.000000 0.027938 0.000000
# 6 0.000000 0.000000 0.000000 0.000000 0.000000 0.058972
#
#
# Mechanical properties :
#
#
# Convention : Reuss Voigt Hill
#
# Bulk Modulus (GPa) = 75.93462 81.69856 78.81659
# Shear Modulus (GPa) = 28.19415 31.84505 30.01960
#
# Velocity S-wave (km/s) = 3.72877 3.96285 3.84759
# Velocity P-wave (km/s) = 7.48230 7.82482 7.65548
#
# Compressibility (1/GPa) = 0.01316922
#
# Stress axis : x y z
#
# Youngs Moduli (GPa) = 59.84210 90.07081 106.73897
#
# Poissons Ratio (x) = 0.37780 0.55611
# Poissons Ratio (y) = 0.25101 0.27770
# Poissons Ratio (z) = 0.31178 0.23434
#
# Static dielectric constant tensor:
#      x y z
#    x 3.401080 0.000000 0.000000 
#    y 0.000000 3.985090 0.000000 
#    z 0.000000 0.000000 3.958100 
# 
# 
# High freq. dielectric constant tensor:
#      x y z
#    x 1.770530 0.000000 0.000000 
#    y 0.000000 1.810530 0.000000 
#    z 0.000000 0.000000 1.806270 
# 
# From -- ./inp_files/8865.got.cif
#   From: 2010.03.12/outbox.cif.g09.slc.cpg/sg23_5_cif.got.tgz:8865.got - 2010.04.14 02:50:06.
