data_PCOD8163540
_publ_section_title
;
Structure prediction by ZEFSAII (Michael W. Deem and Ramdas Pophale) SiO2 
 PCOD8163540
Probable space group: I 2 2 2
;
_chemical_formula_sum "Si O2"
_cell_formula_units_Z 44
_cell_length_a 4.905046
_cell_length_b 17.810844
_cell_length_c 21.009731
_cell_angle_alpha 90.000000
_cell_angle_beta 90.000000
_cell_angle_gamma 90.000000
_cell_volume 1835.473321
_symmetry_space_group_name_H-M "I 2 2 2"
_symmetry_group_IT_number 23
_symmetry_cell_setting 'orthorhombic'
loop_
_space_group_symop_operation_xyz
x,y,z
-x,-y,z
x,-y,-z
-x,y,-z
1/2+x,1/2+y,1/2+z
1/2-x,1/2-y,1/2+z
1/2+x,1/2-y,1/2-z
1/2-x,1/2+y,1/2-z
loop_
_atom_site_type_symbol
_atom_site_label
_atom_site_fract_x
_atom_site_fract_y
_atom_site_fract_z
Si Si1 0.690148 0.060815 0.271842
Si Si2 0.000000 0.000000 0.844458
Si Si3 0.462567 0.657400 0.623187
Si Si4 0.560247 0.344520 0.152257
Si Si5 0.054778 0.691016 0.929555
Si Si6 0.037662 0.309705 0.700360
O O1 0.963820 0.078600 0.312703
O O2 0.522940 0.140026 0.263346
O O3 0.500000 0.000000 0.308110
O O4 0.756754 0.024508 0.203037
O O5 0.940574 0.071317 0.891053
O O6 0.507125 0.718250 0.567520
O O7 0.644080 0.684176 0.683611
O O8 0.145421 0.657724 0.642300
O O9 0.857178 0.351618 0.120656
O O10 0.553928 0.277920 0.206214
O O11 0.360229 0.325179 0.093242
O O12 0.000000 0.659105 0.000000
#
# Coordination Sequence:
#
# PCOD8163540 Si02
#       6
#     8   4   8   8   8   8
#     4  11  22  35  58  89 134 170 194 240 313 384
#     4  10  20  34  53  84 131 164 192 226 308 388
#     4   9  18  33  55  81 114 157 203 243 297 365
#     4  10  23  36  61  90 119 158 212 254 304 373
#     4  10  21  41  62  84 113 157 213 276 307 338
#     4   9  19  35  51  81 120 162 200 237 294 368
#
# _framework density 23.972017999999998
#
# number of rings (size 3 to 8) (size 9 to 14) (size 15 to 20)
#    0.000    2.182    1.818    0.545    2.545    7.273 
#    0.000    0.455    0.000    0.545    0.000    7.636 
#    0.000    0.000    0.000    0.000    0.000    0.000 
#
# Total GULP energy -272600.655098 kJ/mol
# GULP energy per Si atom -12390.938868 kJ/mol
# Density = 2.391746 g / cm^3
# Si number density = 23.972018 Si / 1000 Ang^3
#
#
#
# Elastic Constant Matrix: (Units=GPa)
#
#
# Indices 1 2 3 4 5 6 
#
# 1 72.7699 14.5495 9.3229 0.0000 0.0000 0.0000
# 2 14.5495 80.6247 -2.7117 0.0000 0.0000 0.0000
# 3 9.3229 -2.7117 63.1039 0.0000 0.0000 0.0000
# 4 0.0000 0.0000 0.0000 16.6720 0.0000 0.0000
# 5 0.0000 0.0000 0.0000 0.0000 11.1535 0.0000
# 6 0.0000 0.0000 0.0000 0.0000 0.0000 39.4995
#
#
#
# Elastic Compliance Matrix: (Units=1/GPa)
#
#
# Indices 1 2 3 4 5 6 
#
# 1 0.014574 -0.002706 -0.002269 0.000000 0.000000 0.000000
# 2 -0.002706 0.012924 0.000955 0.000000 0.000000 0.000000
# 3 -0.002269 0.000955 0.016223 0.000000 0.000000 0.000000
# 4 0.000000 0.000000 0.000000 0.059981 0.000000 0.000000
# 5 0.000000 0.000000 0.000000 0.000000 0.089658 0.000000
# 6 0.000000 0.000000 0.000000 0.000000 0.000000 0.025317
#
#
# Mechanical properties :
#
#
# Convention : Reuss Voigt Hill
#
# Bulk Modulus (GPa) = 28.02723 28.75776 28.39250
# Shear Modulus (GPa) = 20.95470 26.48754 23.72112
#
# Velocity S-wave (km/s) = 2.95978 3.32766 3.14910
# Velocity P-wave (km/s) = 4.83709 5.17561 5.00921
#
# Compressibility (1/GPa) = 0.03567958
#
# Stress axis : x y z
#
# Youngs Moduli (GPa) = 68.61631 77.37744 61.64013
#
# Poissons Ratio (x) = 0.20941 0.13989
# Poissons Ratio (y) = 0.18570 -0.05888
# Poissons Ratio (z) = 0.15572 -0.07391
#
# Static dielectric constant tensor:
#      x y z
#    x 4.449930 0.000000 0.000000 
#    y 0.000000 4.663520 0.000000 
#    z 0.000000 0.000000 3.513770 
# 
# 
# High freq. dielectric constant tensor:
#      x y z
#    x 1.972130 0.000000 0.000000 
#    y 0.000000 1.954620 0.000000 
#    z 0.000000 0.000000 1.876410 
# 
# From -- ./inp_files/27643.got.cif
#   From: 2010.03.12/outbox.cif.g09.slc.cpg/sg23_14_cif.got.tgz:27643.got - 2010.04.14 02:50:06.
