data_PCOD8163897
_publ_section_title
;
Structure prediction by ZEFSAII (Michael W. Deem and Ramdas Pophale) SiO2 
 PCOD8163897
Probable space group: I 2 2 2
;
_chemical_formula_sum "Si O2"
_cell_formula_units_Z 32
_cell_length_a 33.838050
_cell_length_b 6.895504
_cell_length_c 5.289970
_cell_angle_alpha 90.000000
_cell_angle_beta 90.000000
_cell_angle_gamma 90.000000
_cell_volume 1234.310864
_symmetry_space_group_name_H-M "I 2 2 2"
_symmetry_group_IT_number 23
_symmetry_cell_setting 'orthorhombic'
loop_
_space_group_symop_operation_xyz
x,y,z
-x,-y,z
x,-y,-z
-x,y,-z
1/2+x,1/2+y,1/2+z
1/2-x,1/2-y,1/2+z
1/2+x,1/2-y,1/2-z
1/2-x,1/2+y,1/2-z
loop_
_atom_site_type_symbol
_atom_site_label
_atom_site_fract_x
_atom_site_fract_y
_atom_site_fract_z
Si Si1 0.016834 0.782668 0.248274
Si Si2 0.609399 0.228936 0.738861
Si Si3 0.227361 0.211231 0.404274
Si Si4 0.642593 0.202124 0.235039
O O1 0.063585 0.776032 0.230952
O O2 0.000000 0.676815 0.500000
O O3 0.000000 0.000000 0.249771
O O4 0.000000 0.674016 0.000000
O O5 0.631495 0.317931 0.491957
O O6 0.619472 0.000894 0.750359
O O7 0.626596 0.324265 0.994986
O O8 0.244854 0.317429 0.655144
O O9 0.189502 0.329107 0.299498
O O10 0.214750 0.000000 0.500000
#
# Coordination Sequence:
#
# PCOD8163897 Si02
#       4
#     8   8   8   8
#     4  10  21  40  63  98 138 183 234 299 366 440
#     4  10  21  41  72  97 138 188 237 299 367 440
#     4  12  28  48  78 111 153 199 253 321 389 460
#     4  10  23  43  67 104 136 188 242 300 363 447
#
# _framework density 25.925397
#
# number of rings (size 3 to 8) (size 9 to 14) (size 15 to 20)
#    0.000    1.500    0.000    3.750   10.500    0.000 
#   13.500   15.000    0.000    0.000    0.000    0.000 
#    0.000    0.000    0.000    0.000    0.000    0.000 
#
# Total GULP energy -198234.655732 kJ/mol
# GULP energy per Si atom -12389.665983 kJ/mol
# Density = 2.586639 g / cm^3
# Si number density = 25.925397 Si / 1000 Ang^3
#
#
#
# Elastic Constant Matrix: (Units=GPa)
#
#
# Indices 1 2 3 4 5 6 
#
# 1 228.2872 29.7602 103.5023 0.0001 0.0000 0.0000
# 2 29.7602 72.7765 -7.5487 0.0005 0.0003 0.0004
# 3 103.5023 -7.5487 338.2073 0.0003 0.0002 0.0002
# 4 0.0001 0.0005 0.0003 -9.2124 0.0004 0.0004
# 5 0.0000 0.0003 0.0002 0.0004 65.9802 0.0002
# 6 0.0000 0.0004 0.0002 0.0004 0.0002 19.2832
#
#
#
# Elastic Compliance Matrix: (Units=1/GPa)
#
#
# Indices 1 2 3 4 5 6 
#
# 1 0.005481 -0.002421 -0.001731 0.000000 0.000000 0.000000
# 2 -0.002421 0.014842 0.001072 0.000001 0.000000 0.000000
# 3 -0.001731 0.001072 0.003511 0.000000 0.000000 0.000000
# 4 0.000000 0.000001 0.000000 -0.108550 0.000001 0.000002
# 5 0.000000 0.000000 0.000000 0.000001 0.015156 0.000000
# 6 0.000000 0.000000 0.000000 0.000002 0.000000 0.051859
#
#
# Mechanical properties :
#
#
# Convention : Reuss Voigt Hill
#
# Bulk Modulus (GPa) = 56.58312 98.96650 77.77481
# Shear Modulus (GPa) = -884.96356 49.44736 -417.75810
#
# Velocity S-wave (km/s) = -18.49570 4.37200 -12.70781
# Velocity P-wave (km/s) = 20.83864 7.98387 13.61078
#
# Compressibility (1/GPa) = 0.01767312
#
# Stress axis : x y z
#
# Youngs Moduli (GPa) = 182.44693 67.37689 284.85442
#
# Poissons Ratio (x) = 0.16311 0.49320
# Poissons Ratio (y) = 0.44169 -0.30541
# Poissons Ratio (z) = 0.31589 -0.07224
#
# Static dielectric constant tensor:
#      x y z
#    x 4.410460 0.000000 0.000000 
#    y 0.000000 4.050600 0.000000 
#    z 0.000000 0.000000 5.706240 
# 
# 
# High freq. dielectric constant tensor:
#      x y z
#    x 2.030020 0.000000 0.000000 
#    y 0.000000 2.019880 0.000000 
#    z 0.000000 0.000000 2.086620 
# 
# From -- ./inp_files/723.got.cif
#   From: 2010.03.12/outbox.cif.g09.slc.cpg/sg23_1_cif.got.tgz:723.got - 2010.04.14 02:50:06.
