data_PCOD8163220
_publ_section_title
;
Structure prediction by ZEFSAII (Michael W. Deem and Ramdas Pophale) SiO2 
 PCOD8163220
Probable space group: I 2 2 2
;
_chemical_formula_sum "Si O2"
_cell_formula_units_Z 48
_cell_length_a 27.127041
_cell_length_b 8.829309
_cell_length_c 9.109513
_cell_angle_alpha 90.000000
_cell_angle_beta 90.000000
_cell_angle_gamma 90.000000
_cell_volume 2181.847035
_symmetry_space_group_name_H-M "I 2 2 2"
_symmetry_group_IT_number 23
_symmetry_cell_setting 'orthorhombic'
loop_
_space_group_symop_operation_xyz
x,y,z
-x,-y,z
x,-y,-z
-x,y,-z
1/2+x,1/2+y,1/2+z
1/2-x,1/2-y,1/2+z
1/2+x,1/2-y,1/2-z
1/2-x,1/2+y,1/2-z
loop_
_atom_site_type_symbol
_atom_site_label
_atom_site_fract_x
_atom_site_fract_y
_atom_site_fract_z
Si Si1 0.593116 0.500000 0.500000
Si Si2 0.220048 0.201996 0.633057
Si Si3 0.377494 0.287739 0.248348
Si Si4 0.415565 0.500000 0.000000
Si Si5 0.415899 0.307536 0.753948
Si Si6 0.941815 0.512257 0.667706
Si Si7 0.300600 0.356413 0.808776
O O1 0.623826 0.619612 0.401121
O O2 0.561631 0.605870 0.611335
O O3 0.175875 0.288705 0.722889
O O4 0.272000 0.273838 0.676943
O O5 0.211925 0.228610 0.460339
O O6 0.218172 0.027404 0.680829
O O7 0.382013 0.402719 0.110473
O O8 0.421480 0.164109 0.244493
O O9 0.445322 0.620553 0.103074
O O10 0.358222 0.346027 0.769780
O O11 0.421942 0.129366 0.739462
O O12 0.923204 0.500000 0.500000
O O13 0.000000 0.500000 0.676843
#
# Coordination Sequence:
#
# PCOD8163220 Si02
#       7
#     4   8   8   4   8   8   8
#     4  10  24  40  73  92 120 184 220 264 325 408
#     4  11  23  39  61  92 131 170 217 269 323 388
#     4  11  21  43  66  95 132 178 218 275 333 383
#     4  10  16  40  69  82 128 172 218 264 321 386
#     4  11  21  43  66  95 132 178 218 275 333 383
#     4  11  24  43  71 105 132 169 224 277 334 400
#     4  11  23  39  61  92 131 170 217 269 323 388
#
# _framework density 21.999707999999998
#
# number of rings (size 3 to 8) (size 9 to 14) (size 15 to 20)
#    0.000    1.167    6.667    0.000    4.667    1.333 
#    0.000    6.667    0.000    0.000    0.000    0.000 
#    0.000    0.000    0.000    0.000    0.000    0.000 
#
# Total GULP energy -297340.455298 kJ/mol
# GULP energy per Si atom -12389.185637 kJ/mol
# Density = 2.194964 g / cm^3
# Si number density = 21.999708 Si / 1000 Ang^3
#
#
#
# Elastic Constant Matrix: (Units=GPa)
#
#
# Indices 1 2 3 4 5 6 
#
# 1 53.8495 42.1809 22.8014 0.0000 0.0000 0.0000
# 2 42.1809 118.1863 46.1592 0.0000 0.0000 0.0000
# 3 22.8014 46.1592 132.8117 0.0000 0.0000 0.0000
# 4 0.0000 0.0000 0.0000 37.4122 0.0000 0.0000
# 5 0.0000 0.0000 0.0000 0.0000 14.7650 0.0000
# 6 0.0000 0.0000 0.0000 0.0000 0.0000 26.1722
#
#
#
# Elastic Compliance Matrix: (Units=1/GPa)
#
#
# Indices 1 2 3 4 5 6 
#
# 1 0.026010 -0.008723 -0.001434 0.000000 0.000000 0.000000
# 2 -0.008723 0.012716 -0.002922 0.000000 0.000000 0.000000
# 3 -0.001434 -0.002922 0.008791 0.000000 0.000000 0.000000
# 4 0.000000 0.000000 0.000000 0.026729 0.000000 0.000000
# 5 0.000000 0.000000 0.000000 0.000000 0.067728 0.000000
# 6 0.000000 0.000000 0.000000 0.000000 0.000000 0.038208
#
#
# Mechanical properties :
#
#
# Convention : Reuss Voigt Hill
#
# Bulk Modulus (GPa) = 46.81712 58.57007 52.69359
# Shear Modulus (GPa) = 23.42365 28.58363 26.00364
#
# Velocity S-wave (km/s) = 3.26655 3.60845 3.44175
# Velocity P-wave (km/s) = 5.96273 6.63643 6.30858
#
# Compressibility (1/GPa) = 0.02135971
#
# Stress axis : x y z
#
# Youngs Moduli (GPa) = 38.44634 78.64320 113.75166
#
# Poissons Ratio (x) = 0.68602 0.16309
# Poissons Ratio (y) = 0.33537 0.33236
# Poissons Ratio (z) = 0.05512 0.22978
#
# Static dielectric constant tensor:
#      x y z
#    x 3.601410 0.000000 0.000000 
#    y 0.000000 4.214540 0.000000 
#    z 0.000000 0.000000 4.296330 
# 
# 
# High freq. dielectric constant tensor:
#      x y z
#    x 1.831370 0.000000 0.000000 
#    y 0.000000 1.870830 0.000000 
#    z 0.000000 0.000000 1.871300 
# 
# From -- ./inp_files/13377.got.cif
#   From: 2010.03.12/outbox.cif.g09.slc.cpg/sg23_7_cif.got.tgz:13377.got - 2010.04.14 02:50:06.
