data_PCOD8163873
_publ_section_title
;
Structure prediction by ZEFSAII (Michael W. Deem and Ramdas Pophale) SiO2 
 PCOD8163873
Probable space group: I 2 2 2
;
_chemical_formula_sum "Si O2"
_cell_formula_units_Z 64
_cell_length_a 8.842552
_cell_length_b 32.859942
_cell_length_c 10.673032
_cell_angle_alpha 90.000000
_cell_angle_beta 90.000000
_cell_angle_gamma 90.000000
_cell_volume 3101.217504
_symmetry_space_group_name_H-M "I 2 2 2"
_symmetry_group_IT_number 23
_symmetry_cell_setting 'orthorhombic'
loop_
_space_group_symop_operation_xyz
x,y,z
-x,-y,z
x,-y,-z
-x,y,-z
1/2+x,1/2+y,1/2+z
1/2-x,1/2-y,1/2+z
1/2+x,1/2-y,1/2-z
1/2-x,1/2+y,1/2-z
loop_
_atom_site_type_symbol
_atom_site_label
_atom_site_fract_x
_atom_site_fract_y
_atom_site_fract_z
Si Si1 0.178519 0.302878 0.999998
Si Si2 0.175996 0.715700 0.500003
Si Si3 0.178143 0.339950 0.264421
Si Si4 0.678143 0.160050 0.764425
Si Si5 0.821033 0.076201 0.749108
Si Si6 0.178967 0.076201 0.749109
Si Si7 0.677553 0.047537 0.500000
Si Si8 0.664341 0.000000 0.141604
O O1 0.232036 0.256908 1.000000
O O2 0.236345 0.324756 0.127599
O O3 0.236345 0.324755 0.872396
O O4 0.000000 0.302707 0.000000
O O5 0.220313 0.691846 0.626674
O O6 0.220313 0.691844 0.373335
O O7 0.000000 0.726217 0.500000
O O8 0.265012 0.380929 0.303115
O O9 0.000000 0.348733 0.262316
O O10 0.765011 0.119070 0.803116
O O11 0.750379 0.070752 0.614000
O O12 1.000000 0.074847 0.743920
O O13 0.762244 0.039733 0.834042
O O14 0.249622 0.070752 0.614001
O O15 0.237757 0.039734 0.834044
O O16 0.500000 0.054605 0.500000
O O17 0.721581 0.000000 0.500000
O O18 0.500000 0.000000 0.216379
O O19 0.618573 0.000000 0.000000
#
# Coordination Sequence:
#
# PCOD8163873 Si02
#       8
#     8   8   8   8   8   8   8   8
#     4  10  21  39  64  90 121 159 204 256 316 375
#     4  10  22  39  63  91 122 160 207 257 312 376
#     4  10  22  40  61  89 124 167 210 253 308 383
#     4  10  22  40  61  89 124 167 210 253 308 383
#     4  12  25  40  63  95 128 160 205 266 317 360
#     4  12  25  40  63  95 128 160 205 266 317 360
#     4  11  22  39  64  88 117 163 209 247 304 375
#     4  11  25  44  65  86 119 171 217 255 308 379
#
# _framework density 20.637055
#
# number of rings (size 3 to 8) (size 9 to 14) (size 15 to 20)
#    0.000    1.250    1.250    4.500    1.750    4.500 
#    0.000    0.000    0.000    0.000    0.000    0.000 
#    0.000    0.000    0.000    0.000    0.000    0.000 
#
# Total GULP energy -396830.978500 kJ/mol
# GULP energy per Si atom -12400.968078 kJ/mol
# Density = 2.059008 g / cm^3
# Si number density = 20.637055 Si / 1000 Ang^3
#
#
#
# Elastic Constant Matrix: (Units=GPa)
#
#
# Indices 1 2 3 4 5 6 
#
# 1 82.8636 42.1698 24.0881 -0.0001 -0.0001 -0.0001
# 2 42.1698 140.6298 37.6063 -0.0055 0.0005 0.0002
# 3 24.0881 37.6063 114.4557 -0.0089 0.0011 0.0006
# 4 -0.0001 -0.0055 -0.0089 244.1611 0.0014 0.0058
# 5 -0.0001 0.0005 0.0011 0.0014 15.9207 -0.0002
# 6 -0.0001 0.0002 0.0006 0.0058 -0.0002 15.7292
#
#
#
# Elastic Compliance Matrix: (Units=1/GPa)
#
#
# Indices 1 2 3 4 5 6 
#
# 1 0.014567 -0.003890 -0.001788 0.000000 0.000000 0.000000
# 2 -0.003890 0.008835 -0.002084 0.000000 0.000000 0.000000
# 3 -0.001788 -0.002084 0.009798 0.000000 -0.000001 0.000000
# 4 0.000000 0.000000 0.000000 0.004096 0.000000 -0.000002
# 5 0.000000 0.000000 -0.000001 0.000000 0.062811 0.000001
# 6 0.000000 0.000000 0.000000 -0.000002 0.000001 0.063576
#
#
# Mechanical properties :
#
#
# Convention : Reuss Voigt Hill
#
# Bulk Modulus (GPa) = 56.57293 60.63085 58.60189
# Shear Modulus (GPa) = 27.01256 70.76786 48.89021
#
# Velocity S-wave (km/s) = 3.62185 5.86226 4.87257
# Velocity P-wave (km/s) = 6.70546 8.67553 7.75332
#
# Compressibility (1/GPa) = 0.01767630
#
# Stress axis : x y z
#
# Youngs Moduli (GPa) = 68.64632 113.18998 102.06184
#
# Poissons Ratio (x) = 0.44033 0.18245
# Poissons Ratio (y) = 0.26705 0.21270
# Poissons Ratio (z) = 0.12271 0.23590
#
# Static dielectric constant tensor:
#      x y z
#    x 3.656300 0.000000 0.000000 
#    y 0.000000 4.004500 0.000000 
#    z 0.000000 0.000000 3.984210 
# 
# 
# High freq. dielectric constant tensor:
#      x y z
#    x 1.804190 0.000000 0.000000 
#    y 0.000000 1.819750 0.000000 
#    z 0.000000 0.000000 1.819540 
# 
# From -- ./inp_files/14993.got.cif
#   From: 2010.03.12/outbox.cif.g09.slc.cpg/sg23_8_cif.got.tgz:14993.got - 2010.04.14 02:50:06.
