data_PCOD8163677
_publ_section_title
;
Structure prediction by ZEFSAII (Michael W. Deem and Ramdas Pophale) SiO2 
 PCOD8163677
Probable space group: I 2 2 2
;
_chemical_formula_sum "Si O2"
_cell_formula_units_Z 44
_cell_length_a 10.111957
_cell_length_b 18.430722
_cell_length_c 12.469535
_cell_angle_alpha 90.000000
_cell_angle_beta 90.000000
_cell_angle_gamma 90.000000
_cell_volume 2323.955572
_symmetry_space_group_name_H-M "I 2 2 2"
_symmetry_group_IT_number 23
_symmetry_cell_setting 'orthorhombic'
loop_
_space_group_symop_operation_xyz
x,y,z
-x,-y,z
x,-y,-z
-x,y,-z
1/2+x,1/2+y,1/2+z
1/2-x,1/2-y,1/2+z
1/2+x,1/2-y,1/2-z
1/2-x,1/2+y,1/2-z
loop_
_atom_site_type_symbol
_atom_site_label
_atom_site_fract_x
_atom_site_fract_y
_atom_site_fract_z
Si Si1 0.378860 0.305032 0.868931
Si Si2 0.844091 0.408401 0.195601
Si Si3 0.652093 0.358725 0.902903
Si Si4 0.654798 0.011994 0.116644
Si Si5 0.375588 0.848162 0.236199
Si Si6 0.741547 0.000000 0.500000
O O1 0.254915 0.340857 0.809361
O O2 0.511249 0.351465 0.842854
O O3 0.403736 0.223891 0.829959
O O4 0.349140 0.304371 0.995760
O O5 0.791359 0.455554 0.295607
O O6 0.847069 0.457599 0.087805
O O7 0.991611 0.378990 0.210363
O O8 0.771821 0.332097 0.829664
O O9 0.665936 0.442158 0.939484
O O10 0.686600 0.093384 0.154770
O O11 0.500000 0.000000 0.105869
O O12 0.722366 0.000000 0.000000
#
# Coordination Sequence:
#
# PCOD8163677 Si02
#       6
#     8   8   8   8   8   4
#     4  10  23  37  57  86 121 163 191 241 305 368
#     4  10  21  37  61  91 116 155 199 257 299 345
#     4  10  22  38  59  86 117 162 196 247 303 354
#     4   9  19  35  57  85 111 154 199 248 290 344
#     4  11  21  38  58  88 121 152 205 250 301 351
#     4  10  20  38  62  92 120 150 208 256 300 356
#
# _framework density 18.933236999999998
#
# number of rings (size 3 to 8) (size 9 to 14) (size 15 to 20)
#    0.000    2.000    1.818    1.091    0.000   16.727 
#    0.000    0.000    0.000    4.364    0.000    0.000 
#    0.000    0.000    0.000    0.000    0.000    0.000 
#
# Total GULP energy -272789.396035 kJ/mol
# GULP energy per Si atom -12399.518002 kJ/mol
# Density = 1.889014 g / cm^3
# Si number density = 18.933237 Si / 1000 Ang^3
#
#
#
# Elastic Constant Matrix: (Units=GPa)
#
#
# Indices 1 2 3 4 5 6 
#
# 1 94.3075 40.4600 48.4006 0.0000 0.0000 0.0000
# 2 40.4600 116.1105 58.5695 0.0001 0.0000 0.0000
# 3 48.4006 58.5695 111.3541 0.0001 0.0000 0.0000
# 4 0.0000 0.0001 0.0001 39.1780 0.0000 0.0000
# 5 0.0000 0.0000 0.0000 0.0000 6.4925 0.0000
# 6 0.0000 0.0000 0.0000 0.0000 0.0000 23.5001
#
#
#
# Elastic Compliance Matrix: (Units=1/GPa)
#
#
# Indices 1 2 3 4 5 6 
#
# 1 0.014158 -0.002490 -0.004844 0.000000 0.000000 0.000000
# 2 -0.002490 0.012161 -0.005314 0.000000 0.000000 0.000000
# 3 -0.004844 -0.005314 0.013881 0.000000 0.000000 0.000000
# 4 0.000000 0.000000 0.000000 0.025525 0.000000 0.000000
# 5 0.000000 0.000000 0.000000 0.000000 0.154024 0.000000
# 6 0.000000 0.000000 0.000000 0.000000 0.000000 0.042553
#
#
# Mechanical properties :
#
#
# Convention : Reuss Voigt Hill
#
# Bulk Modulus (GPa) = 67.09878 68.51469 67.80673
# Shear Modulus (GPa) = 17.09023 25.45693 21.27358
#
# Velocity S-wave (km/s) = 3.00769 3.67081 3.35567
# Velocity P-wave (km/s) = 6.89769 7.36427 7.13480
#
# Compressibility (1/GPa) = 0.01490340
#
# Stress axis : x y z
#
# Youngs Moduli (GPa) = 70.63146 82.23259 72.04155
#
# Poissons Ratio (x) = 0.20476 0.34898
# Poissons Ratio (y) = 0.17587 0.38282
# Poissons Ratio (z) = 0.34215 0.43698
#
# Static dielectric constant tensor:
#      x y z
#    x 3.332360 0.000000 0.000000 
#    y 0.000000 3.479500 0.000000 
#    z 0.000000 0.000000 3.810840 
# 
# 
# High freq. dielectric constant tensor:
#      x y z
#    x 1.719360 0.000000 0.000000 
#    y 0.000000 1.739290 0.000000 
#    z 0.000000 0.000000 1.739040 
# 
# From -- ./inp_files/19957.got.cif
#   From: 2010.03.12/outbox.cif.g09.slc.cpg/sg23_10_cif.got.tgz:19957.got - 2010.04.14 02:50:06.
