data_PCOD8163304
_publ_section_title
;
Structure prediction by ZEFSAII (Michael W. Deem and Ramdas Pophale) SiO2 
 PCOD8163304
Probable space group: I 2 2 2
;
_chemical_formula_sum "Si O2"
_cell_formula_units_Z 48
_cell_length_a 8.615725
_cell_length_b 29.272163
_cell_length_c 9.318583
_cell_angle_alpha 90.000000
_cell_angle_beta 90.000000
_cell_angle_gamma 90.000000
_cell_volume 2350.155080
_symmetry_space_group_name_H-M "I 2 2 2"
_symmetry_group_IT_number 23
_symmetry_cell_setting 'orthorhombic'
loop_
_space_group_symop_operation_xyz
x,y,z
-x,-y,z
x,-y,-z
-x,y,-z
1/2+x,1/2+y,1/2+z
1/2-x,1/2-y,1/2+z
1/2+x,1/2-y,1/2-z
1/2-x,1/2+y,1/2-z
loop_
_atom_site_type_symbol
_atom_site_label
_atom_site_fract_x
_atom_site_fract_y
_atom_site_fract_z
Si Si1 0.184979 0.710383 0.233661
Si Si2 0.860240 0.417038 0.592990
Si Si3 0.453844 0.452846 0.336869
Si Si4 0.165847 0.793242 0.446240
Si Si5 0.628895 0.633475 0.610851
Si Si6 0.925475 0.354691 0.851214
O O1 0.153484 0.753141 0.332601
O O2 0.314992 0.674694 0.289688
O O3 0.018258 0.687875 0.212870
O O4 0.239695 0.727935 0.079074
O O5 0.733724 0.450682 0.664810
O O6 0.775708 0.382866 0.482747
O O7 0.935203 0.393098 0.730860
O O8 0.000000 0.440703 0.500000
O O9 0.500000 0.500000 0.253077
O O10 0.500000 0.458014 0.500000
O O11 0.550028 0.407114 0.288805
O O12 0.250032 0.837702 0.379412
O O13 0.000000 0.810457 0.500000
O O14 0.500000 0.652156 0.500000
O O15 0.000000 0.373261 0.000000
#
# Coordination Sequence:
#
# PCOD8163304 Si02
#       6
#     8   8   8   8   8   8
#     4  11  23  39  55  81 118 154 201 250 297 349
#     4  10  18  33  64  86 115 155 194 236 298 355
#     4   8  17  35  55  92 131 142 182 245 299 354
#     4  11  26  37  57  80 109 163 200 257 299 348
#     4   9  20  32  58  87 116 156 187 242 290 362
#     4  10  23  40  53  82 120 152 202 254 291 346
#
# _framework density 20.424184
#
# number of rings (size 3 to 8) (size 9 to 14) (size 15 to 20)
#    0.000    2.500    1.667    1.000    9.333    2.000 
#    0.000    6.667    0.000    0.000    0.000   14.000 
#    0.000    0.000    0.000    0.000    0.000    0.000 
#
# Total GULP energy -297347.006764 kJ/mol
# GULP energy per Si atom -12389.458615 kJ/mol
# Density = 2.037770 g / cm^3
# Si number density = 20.424184 Si / 1000 Ang^3
#
#
#
# Elastic Constant Matrix: (Units=GPa)
#
#
# Indices 1 2 3 4 5 6 
#
# 1 116.1148 16.1297 23.7892 0.0002 0.0004 0.0000
# 2 16.1297 34.8815 21.3458 0.0004 0.0001 -0.0001
# 3 23.7892 21.3458 69.0937 0.0023 0.0011 0.0007
# 4 0.0002 0.0004 0.0023 9.5533 0.0000 0.0004
# 5 0.0004 0.0001 0.0011 0.0000 21.1577 0.0003
# 6 0.0000 -0.0001 0.0007 0.0004 0.0003 21.1409
#
#
#
# Elastic Compliance Matrix: (Units=1/GPa)
#
#
# Indices 1 2 3 4 5 6 
#
# 1 0.009506 -0.002951 -0.002361 0.000000 0.000000 0.000000
# 2 -0.002951 0.036268 -0.010189 0.000001 0.000000 0.000000
# 3 -0.002361 -0.010189 0.018434 -0.000004 -0.000001 -0.000001
# 4 0.000000 0.000001 -0.000004 0.104676 0.000000 -0.000002
# 5 0.000000 0.000000 -0.000001 0.000000 0.047264 -0.000001
# 6 0.000000 0.000000 -0.000001 -0.000002 -0.000001 0.047302
#
#
# Mechanical properties :
#
#
# Convention : Reuss Voigt Hill
#
# Bulk Modulus (GPa) = 30.11482 38.06883 34.09182
# Shear Modulus (GPa) = 16.36557 20.95872 18.66214
#
# Velocity S-wave (km/s) = 2.83377 3.20687 3.02607
# Velocity P-wave (km/s) = 5.04814 5.69136 5.37937
#
# Compressibility (1/GPa) = 0.03320625
#
# Stress axis : x y z
#
# Youngs Moduli (GPa) = 105.19864 27.57266 54.24821
#
# Poissons Ratio (x) = 0.08136 0.12810
# Poissons Ratio (y) = 0.31040 0.55272
# Poissons Ratio (z) = 0.24841 0.28093
#
# Static dielectric constant tensor:
#      x y z
#    x 3.075900 -0.000020 0.000000 
#    y -0.000020 5.253460 0.000010 
#    z 0.000000 0.000010 3.584430 
# 
# 
# High freq. dielectric constant tensor:
#      x y z
#    x 1.821250 0.000000 0.000000 
#    y 0.000000 1.764120 0.000000 
#    z 0.000000 0.000000 1.777990 
# 
# From -- ./inp_files/7358.got.cif
#   From: 2010.03.12/outbox.cif.g09.slc.cpg/sg23_4_cif.got.tgz:7358.got - 2010.04.14 02:50:06.
