data_PCOD8163024
_publ_section_title
;
Structure prediction by ZEFSAII (Michael W. Deem and Ramdas Pophale) SiO2 
 PCOD8163024
Probable space group: F 2 2 2
;
_chemical_formula_sum "Si O2"
_cell_formula_units_Z 68
_cell_length_a 30.289314
_cell_length_b 14.124449
_cell_length_c 7.225535
_cell_angle_alpha 90.000000
_cell_angle_beta 90.000000
_cell_angle_gamma 90.000000
_cell_volume 3091.227450
_symmetry_space_group_name_H-M "F 2 2 2"
_symmetry_group_IT_number 22
_symmetry_cell_setting 'orthorhombic'
loop_
_space_group_symop_operation_xyz
x,y,z
-x,-y,z
x,-y,-z
-x,y,-z
x,1/2+y,1/2+z
-x,1/2-y,1/2+z
x,1/2-y,1/2-z
-x,1/2+y,1/2-z
1/2+x,y,1/2+z
1/2-x,-y,1/2+z
1/2+x,-y,1/2-z
1/2-x,y,1/2-z
1/2+x,1/2+y,z
1/2-x,1/2-y,z
1/2+x,1/2-y,-z
1/2-x,1/2+y,-z
loop_
_atom_site_type_symbol
_atom_site_label
_atom_site_fract_x
_atom_site_fract_y
_atom_site_fract_z
Si Si1 0.810070 0.101867 0.538534
Si Si2 0.250000 0.750000 0.750000
Si Si3 0.619853 0.642889 0.190076
Si Si4 0.119480 0.644413 0.264676
Si Si5 0.451568 0.506665 0.782481
O O1 0.777396 0.183547 0.610124
O O2 0.845155 0.078883 0.699904
O O3 0.836069 0.137835 0.356781
O O4 0.786149 0.000000 0.500000
O O5 0.626534 0.750000 0.250000
O O6 0.571067 0.608917 0.252065
O O7 0.631111 0.623242 0.977363
O O8 0.099938 0.750000 0.250000
O O9 0.080251 0.574589 0.198138
O O10 0.500000 0.500000 0.687797
O O11 0.457059 0.500000 0.000000
#
# Coordination Sequence:
#
# PCOD8163024 Si02
#       5
#    16   4  16  16  16
#     4  12  25  49  74 102 134 181 232 288 370 424
#     4  12  28  56  70 110 154 164 244 318 348 446
#     4  11  21  41  69  95 139 184 230 289 341 413
#     4  11  21  39  70  96 133 188 230 279 350 414
#     4   9  20  37  61  99 142 185 235 284 332 404
#
# _framework density 21.997731999999999
#
# number of rings (size 3 to 8) (size 9 to 14) (size 15 to 20)
#    0.000    1.176    5.882    0.000    0.000    0.941 
#    8.471    3.529    0.000    0.000    0.000    0.000 
#    0.000    0.000    0.000    0.000    0.000    0.000 
#
# Total GULP energy -210678.314667 kJ/mol
# GULP energy per Si atom -12392.842039 kJ/mol
# Density = 2.194766 g / cm^3
# Si number density = 21.997732 Si / 1000 Ang^3
#
#
#
# Elastic Constant Matrix: (Units=GPa)
#
#
# Indices 1 2 3 4 5 6 
#
# 1 136.7414 60.8036 52.3237 0.0000 0.0000 0.0000
# 2 60.8036 145.1394 33.3003 0.0000 0.0000 0.0000
# 3 52.3237 33.3003 121.8079 0.0000 0.0000 0.0000
# 4 0.0000 0.0000 0.0000 13.5542 0.0000 0.0000
# 5 0.0000 0.0000 0.0000 0.0000 3.7507 0.0000
# 6 0.0000 0.0000 0.0000 0.0000 0.0000 24.4482
#
#
#
# Elastic Compliance Matrix: (Units=1/GPa)
#
#
# Indices 1 2 3 4 5 6 
#
# 1 0.010166 -0.003475 -0.003417 0.000000 0.000000 0.000000
# 2 -0.003475 0.008539 -0.000842 0.000000 0.000000 0.000000
# 3 -0.003417 -0.000842 0.009907 0.000000 0.000000 0.000000
# 4 0.000000 0.000000 0.000000 0.073778 0.000000 0.000000
# 5 0.000000 0.000000 0.000000 0.000000 0.266616 0.000000
# 6 0.000000 0.000000 0.000000 0.000000 0.000000 0.040903
#
#
# Mechanical properties :
#
#
# Convention : Reuss Voigt Hill
#
# Bulk Modulus (GPa) = 76.07309 77.39375 76.73342
# Shear Modulus (GPa) = 11.63447 25.50135 18.56791
#
# Velocity S-wave (km/s) = 2.30226 3.40850 2.90846
# Velocity P-wave (km/s) = 6.45945 7.12387 6.79978
#
# Compressibility (1/GPa) = 0.01314525
#
# Stress axis : x y z
#
# Youngs Moduli (GPa) = 98.37112 117.11322 100.93395
#
# Poissons Ratio (x) = 0.40694 0.34487
# Poissons Ratio (y) = 0.34182 0.08496
# Poissons Ratio (z) = 0.33611 0.09858
#
# Static dielectric constant tensor:
#      x y z
#    x 4.150740 0.000000 0.000000 
#    y 0.000000 4.194410 0.000000 
#    z 0.000000 0.000000 4.122370 
# 
# 
# High freq. dielectric constant tensor:
#      x y z
#    x 1.843340 0.000000 0.000000 
#    y 0.000000 1.879430 0.000000 
#    z 0.000000 0.000000 1.875320 
# 
# From -- ./inp_files/14432.got.cif
#   From: 2010.03.12/outbox.cif.g09.slc.cpg/sg22_8_cif.got.tgz:14432.got - 2010.04.14 02:24:06.
