data_PCOD8163486
_publ_section_title
;
Structure prediction by ZEFSAII (Michael W. Deem and Ramdas Pophale) SiO2 
 PCOD8163486
Probable space group: I 2 2 2
;
_chemical_formula_sum "Si O2"
_cell_formula_units_Z 64
_cell_length_a 23.426461
_cell_length_b 15.033811
_cell_length_c 8.077882
_cell_angle_alpha 90.000000
_cell_angle_beta 90.000000
_cell_angle_gamma 90.000000
_cell_volume 2844.941079
_symmetry_space_group_name_H-M "I 2 2 2"
_symmetry_group_IT_number 23
_symmetry_cell_setting 'orthorhombic'
loop_
_space_group_symop_operation_xyz
x,y,z
-x,-y,z
x,-y,-z
-x,y,-z
1/2+x,1/2+y,1/2+z
1/2-x,1/2-y,1/2+z
1/2+x,1/2-y,1/2-z
1/2-x,1/2+y,1/2-z
loop_
_atom_site_type_symbol
_atom_site_label
_atom_site_fract_x
_atom_site_fract_y
_atom_site_fract_z
Si Si1 0.059519 0.470997 0.189286
Si Si2 0.681809 0.019287 0.694116
Si Si3 0.731642 0.628152 0.248101
Si Si4 0.114021 0.967003 0.184198
Si Si5 0.880571 0.845336 0.315144
Si Si6 0.547621 0.334734 0.883787
Si Si7 0.969894 0.724872 0.174159
Si Si8 0.755601 0.817013 0.369161
O O1 0.116821 0.516274 0.266517
O O2 0.064189 0.365266 0.211569
O O3 0.000000 0.500000 0.278410
O O4 0.055570 0.500000 0.000000
O O5 0.710607 0.116317 0.720406
O O6 0.679396 0.000000 0.500000
O O7 0.717778 0.942103 0.786319
O O8 0.673842 0.581428 0.299447
O O9 0.734651 0.715729 0.361937
O O10 0.733140 0.654030 0.056313
O O11 0.063617 0.899625 0.233519
O O12 0.112866 0.048707 0.311291
O O13 0.102816 0.000000 0.000000
O O14 0.897780 0.811757 0.500404
O O15 0.921704 0.801530 0.177204
O O16 0.815706 0.820375 0.272221
O O17 0.519516 0.244848 0.808913
O O18 0.500000 0.381915 0.000000
O O19 0.000000 0.718377 0.000000
#
# Coordination Sequence:
#
# PCOD8163486 Si02
#       8
#     8   8   8   8   8   8   8   8
#     4  10  19  38  64 100 133 180 224 297 354 410
#     4   9  20  39  64  96 135 181 236 280 356 429
#     4  11  24  41  67 102 142 186 239 294 365 428
#     4  12  25  43  70 103 145 181 242 299 353 431
#     4  11  23  43  69  94 145 192 230 293 365 429
#     4  10  24  43  67  99 137 192 230 279 360 438
#     4  11  22  40  68 104 140 175 248 296 350 430
#     4  11  23  42  66 101 142 189 237 299 360 435
#
# _framework density 22.496074
#
# number of rings (size 3 to 8) (size 9 to 14) (size 15 to 20)
#    0.000    1.375    3.750    1.875    1.750    4.500 
#    2.250    3.125    0.000    3.375    0.000    0.000 
#    0.000    0.000    0.000    0.000    0.000    0.000 
#
# Total GULP energy -396724.940526 kJ/mol
# GULP energy per Si atom -12397.654391 kJ/mol
# Density = 2.244487 g / cm^3
# Si number density = 22.496074 Si / 1000 Ang^3
#
#
#
# Elastic Constant Matrix: (Units=GPa)
#
#
# Indices 1 2 3 4 5 6 
#
# 1 172.0877 63.8203 30.7144 0.0000 0.0000 0.0000
# 2 63.8203 133.2935 20.6803 0.0000 0.0000 0.0000
# 3 30.7144 20.6803 65.1245 0.0000 0.0000 0.0000
# 4 0.0000 0.0000 0.0000 23.4888 0.0000 0.0000
# 5 0.0000 0.0000 0.0000 0.0000 16.0283 0.0000
# 6 0.0000 0.0000 0.0000 0.0000 0.0000 62.0189
#
#
#
# Elastic Compliance Matrix: (Units=1/GPa)
#
#
# Indices 1 2 3 4 5 6 
#
# 1 0.007433 -0.003171 -0.002499 0.000000 0.000000 0.000000
# 2 -0.003171 0.009244 -0.001440 0.000000 0.000000 0.000000
# 3 -0.002499 -0.001440 0.016991 0.000000 0.000000 0.000000
# 4 0.000000 0.000000 0.000000 0.042573 0.000000 0.000000
# 5 0.000000 0.000000 0.000000 0.000000 0.062390 0.000000
# 6 0.000000 0.000000 0.000000 0.000000 0.000000 0.016124
#
#
# Mechanical properties :
#
#
# Convention : Reuss Voigt Hill
#
# Bulk Modulus (GPa) = 51.41758 66.77063 59.09411
# Shear Modulus (GPa) = 28.49696 37.32657 32.91177
#
# Velocity S-wave (km/s) = 3.56301 4.07781 3.82907
# Velocity P-wave (km/s) = 6.31131 7.20533 6.77308
#
# Compressibility (1/GPa) = 0.01944860
#
# Stress axis : x y z
#
# Youngs Moduli (GPa) = 134.53475 108.17822 58.85534
#
# Poissons Ratio (x) = 0.34306 0.14705
# Poissons Ratio (y) = 0.42664 0.08474
# Poissons Ratio (z) = 0.33614 0.15576
#
# Static dielectric constant tensor:
#      x y z
#    x 4.563240 0.000000 0.000000 
#    y 0.000000 4.211940 0.000000 
#    z 0.000000 0.000000 3.883760 
# 
# 
# High freq. dielectric constant tensor:
#      x y z
#    x 1.904780 0.000000 0.000000 
#    y 0.000000 1.886190 0.000000 
#    z 0.000000 0.000000 1.857520 
# 
# From -- ./inp_files/12721.got.cif
#   From: 2010.03.12/outbox.cif.g09.slc.cpg/sg23_7_cif.got.tgz:12721.got - 2010.04.14 02:50:06.
