data_PCOD8163818
_publ_section_title
;
Structure prediction by ZEFSAII (Michael W. Deem and Ramdas Pophale) SiO2 
 PCOD8163818
Probable space group: I 2 2 2
;
_chemical_formula_sum "Si O2"
_cell_formula_units_Z 64
_cell_length_a 25.821703
_cell_length_b 8.712226
_cell_length_c 14.810562
_cell_angle_alpha 90.000000
_cell_angle_beta 90.000000
_cell_angle_gamma 90.000000
_cell_volume 3331.850856
_symmetry_space_group_name_H-M "I 2 2 2"
_symmetry_group_IT_number 23
_symmetry_cell_setting 'orthorhombic'
loop_
_space_group_symop_operation_xyz
x,y,z
-x,-y,z
x,-y,-z
-x,y,-z
1/2+x,1/2+y,1/2+z
1/2-x,1/2-y,1/2+z
1/2+x,1/2-y,1/2-z
1/2-x,1/2+y,1/2-z
loop_
_atom_site_type_symbol
_atom_site_label
_atom_site_fract_x
_atom_site_fract_y
_atom_site_fract_z
Si Si1 0.710496 0.322709 1.000000
Si Si2 0.332377 0.822098 0.500000
Si Si3 0.556779 0.181476 0.000000
Si Si4 0.610430 0.681905 0.668180
Si Si5 1.000000 0.817843 0.897978
Si Si6 0.138630 0.318222 0.356786
Si Si7 0.638629 0.181778 0.856786
Si Si8 0.110430 0.181905 0.831820
O O1 0.771348 0.298996 1.000000
O O2 0.688678 0.244438 0.909267
O O3 0.694432 0.500000 0.000000
O O4 0.688678 0.244438 0.090733
O O5 0.354851 0.739931 0.412970
O O6 0.354851 0.739931 0.587030
O O7 0.348133 0.000000 0.500000
O O8 0.587371 0.234796 0.089038
O O9 0.500000 0.258851 0.000000
O O10 0.587371 0.234796 0.910962
O O11 0.551882 0.000000 0.000000
O O12 0.551150 0.740035 0.654801
O O13 0.635458 0.749195 0.757943
O O14 0.612488 0.500000 0.671910
O O15 0.948850 0.759965 0.845199
O O16 0.000000 0.000000 0.903904
O O17 0.000000 0.750535 0.000000
O O18 0.143460 0.500000 0.350928
O O19 0.635458 0.250805 0.757943
#
# Coordination Sequence:
#
# PCOD8163818 Si02
#       8
#     8   8   8   8   8   8   8   8
#     4  10  22  42  64  84 114 153 194 245 298 348
#     4  11  24  41  61  87 115 148 198 250 295 346
#     4   8  16  32  53  79 114 151 186 230 284 336
#     4  11  22  38  61  87 120 158 195 236 287 349
#     4   9  18  36  58  83 118 157 194 234 285 345
#     4  10  21  37  59  87 120 153 192 241 289 344
#     4  10  21  37  59  87 120 153 192 241 289 344
#     4  11  22  38  61  87 120 158 195 236 287 349
#
# _framework density 19.208544
#
# number of rings (size 3 to 8) (size 9 to 14) (size 15 to 20)
#    0.000    2.000    1.250    3.000    1.750    3.000 
#    0.000    2.500    0.000    2.250    0.000    0.000 
#    0.000    0.000    0.000    0.000    0.000    0.000 
#
# Total GULP energy -396834.665821 kJ/mol
# GULP energy per Si atom -12401.083307 kJ/mol
# Density = 1.916482 g / cm^3
# Si number density = 19.208544 Si / 1000 Ang^3
#
#
#
# Elastic Constant Matrix: (Units=GPa)
#
#
# Indices 1 2 3 4 5 6 
#
# 1 111.4484 52.3282 59.5136 0.0000 0.0000 0.0000
# 2 52.3282 93.8869 55.6586 0.0000 0.0000 0.0000
# 3 59.5136 55.6586 176.5024 0.0000 0.0000 0.0000
# 4 0.0000 0.0000 0.0000 17.3023 0.0000 0.0000
# 5 0.0000 0.0000 0.0000 0.0000 33.4157 0.0000
# 6 0.0000 0.0000 0.0000 0.0000 0.0000 25.6235
#
#
#
# Elastic Compliance Matrix: (Units=1/GPa)
#
#
# Indices 1 2 3 4 5 6 
#
# 1 0.013050 -0.005738 -0.002591 0.000000 0.000000 0.000000
# 2 -0.005738 0.015623 -0.002992 0.000000 0.000000 0.000000
# 3 -0.002591 -0.002992 0.007483 0.000000 0.000000 0.000000
# 4 0.000000 0.000000 0.000000 0.057796 0.000000 0.000000
# 5 0.000000 0.000000 0.000000 0.000000 0.029926 0.000000
# 6 0.000000 0.000000 0.000000 0.000000 0.000000 0.039027
#
#
# Mechanical properties :
#
#
# Convention : Reuss Voigt Hill
#
# Bulk Modulus (GPa) = 73.99334 79.64873 76.82103
# Shear Modulus (GPa) = 26.30885 29.55745 27.93315
#
# Velocity S-wave (km/s) = 3.70488 3.92697 3.81754
# Velocity P-wave (km/s) = 7.54362 7.88141 7.71437
#
# Compressibility (1/GPa) = 0.01351473
#
# Stress axis : x y z
#
# Youngs Moduli (GPa) = 76.62629 64.00964 133.64059
#
# Poissons Ratio (x) = 0.36726 0.34627
# Poissons Ratio (y) = 0.43965 0.39983
# Poissons Ratio (z) = 0.19854 0.19151
#
# Static dielectric constant tensor:
#      x y z
#    x 3.756770 0.000000 0.000000 
#    y 0.000000 3.449310 0.000000 
#    z 0.000000 0.000000 6.195090 
# 
# 
# High freq. dielectric constant tensor:
#      x y z
#    x 1.754950 0.000000 0.000000 
#    y 0.000000 1.739690 0.000000 
#    z 0.000000 0.000000 1.755570 
# 
# From -- ./inp_files/22597.got.cif
#   From: 2010.03.12/outbox.cif.g09.slc.cpg/sg23_12_cif.got.tgz:22597.got - 2010.04.14 02:50:06.
