data_PCOD8163465
_publ_section_title
;
Structure prediction by ZEFSAII (Michael W. Deem and Ramdas Pophale) SiO2 
 PCOD8163465
Probable space group: I 2 2 2
;
_chemical_formula_sum "Si O2"
_cell_formula_units_Z 60
_cell_length_a 21.726696
_cell_length_b 14.248489
_cell_length_c 9.244925
_cell_angle_alpha 90.000000
_cell_angle_beta 90.000000
_cell_angle_gamma 90.000000
_cell_volume 2861.975367
_symmetry_space_group_name_H-M "I 2 2 2"
_symmetry_group_IT_number 23
_symmetry_cell_setting 'orthorhombic'
loop_
_space_group_symop_operation_xyz
x,y,z
-x,-y,z
x,-y,-z
-x,y,-z
1/2+x,1/2+y,1/2+z
1/2-x,1/2-y,1/2+z
1/2+x,1/2-y,1/2-z
1/2-x,1/2+y,1/2-z
loop_
_atom_site_type_symbol
_atom_site_label
_atom_site_fract_x
_atom_site_fract_y
_atom_site_fract_z
Si Si1 0.300209 0.689317 0.070499
Si Si2 0.902956 0.243932 0.786805
Si Si3 0.755143 0.934415 0.183290
Si Si4 0.963507 0.408885 0.643035
Si Si5 0.566063 0.533299 0.663214
Si Si6 0.332033 0.591080 0.783084
Si Si7 0.684310 0.699404 0.485938
Si Si8 0.851966 0.500000 0.500000
O O1 0.328700 0.623882 0.947158
O O2 0.254358 0.764914 0.002000
O O3 0.357081 0.738366 0.150125
O O4 0.255015 0.631134 0.175968
O O5 0.955488 0.323263 0.757120
O O6 0.935587 0.145409 0.819300
O O7 0.862927 0.269165 0.930949
O O8 0.811093 0.898568 0.077948
O O9 0.768737 0.041163 0.232321
O O10 0.689746 0.933836 0.102505
O O11 0.894121 0.435986 0.601700
O O12 0.000000 0.500000 0.708770
O O13 0.000000 0.374188 0.500000
O O14 0.500000 0.500000 0.716171
O O15 0.579321 0.500000 0.500000
O O16 0.614428 0.486133 0.772914
O O17 0.340913 0.680044 0.675390
#
# Coordination Sequence:
#
# PCOD8163465 Si02
#       8
#     8   8   8   8   8   8   8   4
#     4  11  25  34  58  99 140 161 211 272 331 394
#     4  11  22  41  65  97 129 166 225 279 324 405
#     4  11  20  35  59  89 127 172 209 255 330 395
#     4   9  22  43  66  96 129 173 235 289 333 389
#     4  11  23  42  66  91 120 174 219 259 332 405
#     4  12  20  40  58  89 137 172 203 274 332 398
#     4  11  21  37  60  91 126 176 212 256 326 406
#     4  10  19  36  70  92 123 186 224 258 332 410
#
# _framework density 20.964542000000002
#
# number of rings (size 3 to 8) (size 9 to 14) (size 15 to 20)
#    0.000    1.333    5.333    2.800    1.867    1.067 
#    0.000    2.000    0.000    0.000    0.000    0.933 
#    0.000    0.000    0.000    0.000    0.000    0.000 
#
# Total GULP energy -371924.390491 kJ/mol
# GULP energy per Si atom -12397.479683 kJ/mol
# Density = 2.091683 g / cm^3
# Si number density = 20.964542 Si / 1000 Ang^3
#
#
#
# Elastic Constant Matrix: (Units=GPa)
#
#
# Indices 1 2 3 4 5 6 
#
# 1 96.9325 46.0347 32.4340 0.0000 0.0000 0.0000
# 2 46.0347 115.9120 45.8409 0.0000 0.0000 0.0000
# 3 32.4340 45.8409 92.5575 0.0000 0.0000 0.0000
# 4 0.0000 0.0000 0.0000 33.0978 0.0000 0.0000
# 5 0.0000 0.0000 0.0000 0.0000 25.6862 0.0000
# 6 0.0000 0.0000 0.0000 0.0000 0.0000 32.2843
#
#
#
# Elastic Compliance Matrix: (Units=1/GPa)
#
#
# Indices 1 2 3 4 5 6 
#
# 1 0.013170 -0.004235 -0.002518 0.000000 0.000000 0.000000
# 2 -0.004235 0.012090 -0.004504 0.000000 0.000000 0.000000
# 3 -0.002518 -0.004504 0.013917 0.000000 0.000000 0.000000
# 4 0.000000 0.000000 0.000000 0.030213 0.000000 0.000000
# 5 0.000000 0.000000 0.000000 0.000000 0.038931 0.000000
# 6 0.000000 0.000000 0.000000 0.000000 0.000000 0.030975
#
#
# Mechanical properties :
#
#
# Convention : Reuss Voigt Hill
#
# Bulk Modulus (GPa) = 60.00808 61.55792 60.78300
# Shear Modulus (GPa) = 29.87485 30.28651 30.08068
#
# Velocity S-wave (km/s) = 3.77904 3.80498 3.79203
# Velocity P-wave (km/s) = 6.90849 6.98072 6.94470
#
# Compressibility (1/GPa) = 0.01666442
#
# Stress axis : x y z
#
# Youngs Moduli (GPa) = 75.92977 82.71053 71.85438
#
# Poissons Ratio (x) = 0.35027 0.18091
# Poissons Ratio (y) = 0.32155 0.32363
# Poissons Ratio (z) = 0.19117 0.37253
#
# Static dielectric constant tensor:
#      x y z
#    x 3.734340 0.000000 0.000000 
#    y 0.000000 3.738440 0.000000 
#    z 0.000000 0.000000 3.710300 
# 
# 
# High freq. dielectric constant tensor:
#      x y z
#    x 1.812520 0.000000 0.000000 
#    y 0.000000 1.816440 0.000000 
#    z 0.000000 0.000000 1.811440 
# 
# From -- ./inp_files/12692.got.cif
#   From: 2010.03.12/outbox.cif.g09.slc.cpg/sg23_7_cif.got.tgz:12692.got - 2010.04.14 02:50:06.
