data_PCOD8163883
_publ_section_title
;
Structure prediction by ZEFSAII (Michael W. Deem and Ramdas Pophale) SiO2 
 PCOD8163883
Probable space group: I 2 2 2
;
_chemical_formula_sum "Si O2"
_cell_formula_units_Z 58
_cell_length_a 12.480085
_cell_length_b 8.310010
_cell_length_c 26.122851
_cell_angle_alpha 90.000000
_cell_angle_beta 90.000000
_cell_angle_gamma 90.000000
_cell_volume 2709.191242
_symmetry_space_group_name_H-M "I 2 2 2"
_symmetry_group_IT_number 23
_symmetry_cell_setting 'orthorhombic'
loop_
_space_group_symop_operation_xyz
x,y,z
-x,-y,z
x,-y,-z
-x,y,-z
1/2+x,1/2+y,1/2+z
1/2-x,1/2-y,1/2+z
1/2+x,1/2-y,1/2-z
1/2-x,1/2+y,1/2-z
loop_
_atom_site_type_symbol
_atom_site_label
_atom_site_fract_x
_atom_site_fract_y
_atom_site_fract_z
Si Si1 0.891561 0.924836 0.773431
Si Si2 0.657424 0.905623 0.630556
Si Si3 0.283464 0.646375 0.540336
Si Si4 0.000000 0.000000 0.500000
Si Si5 0.190427 0.171612 0.546151
Si Si6 0.934514 0.252726 0.125001
Si Si7 0.217978 0.677170 0.296000
Si Si8 0.874786 0.522744 0.607327
O O1 0.912208 0.883855 0.832905
O O2 0.862401 0.760375 0.744004
O O3 0.800929 0.061022 0.767172
O O4 0.000000 0.000000 0.749502
O O5 0.732927 0.935304 0.581527
O O6 0.560595 0.784218 0.616852
O O7 0.722293 0.824877 0.676611
O O8 0.618611 0.082680 0.645757
O O9 0.300951 0.500000 0.500000
O O10 0.247046 0.803929 0.508760
O O11 0.392676 0.687382 0.570386
O O12 0.191525 0.627243 0.584452
O O13 0.073160 0.100012 0.538645
O O14 0.173383 0.339284 0.572913
O O15 0.149400 0.562284 0.333618
O O16 0.000000 0.500000 0.598742
#
# Coordination Sequence:
#
# PCOD8163883 Si02
#       8
#     8   8   8   2   8   8   8   8
#     4  12  25  45  72  98 134 179 228 284 356 414
#     4  10  23  43  65  96 137 169 223 279 343 410
#     4  10  21  39  66  97 132 175 226 280 328 404
#     4  12  20  36  58  86 132 188 216 270 336 394
#     4  10  22  37  60  95 133 174 226 275 328 402
#     4  11  22  43  70  93 131 183 216 280 349 412
#     4  11  24  45  65  99 131 168 227 283 335 422
#     4  10  21  40  60  90 128 172 220 273 328 397
#
# _framework density 21.408604
#
# number of rings (size 3 to 8) (size 9 to 14) (size 15 to 20)
#    0.000    1.379    2.759    2.483    0.000    3.586 
#    9.931    4.828    0.000    0.000    0.000    0.000 
#    0.000    0.000    0.000    0.000    0.000    0.000 
#
# Total GULP energy -359576.593598 kJ/mol
# GULP energy per Si atom -12399.192883 kJ/mol
# Density = 2.135988 g / cm^3
# Si number density = 21.408604 Si / 1000 Ang^3
#
#
#
# Elastic Constant Matrix: (Units=GPa)
#
#
# Indices 1 2 3 4 5 6 
#
# 1 107.6862 13.3472 35.3353 0.0000 0.0000 0.0000
# 2 13.3472 46.9843 19.6804 0.0000 0.0000 0.0000
# 3 35.3353 19.6804 93.7313 0.0000 0.0000 0.0000
# 4 0.0000 0.0000 0.0000 -52.1405 0.0000 0.0000
# 5 0.0000 0.0000 0.0000 0.0000 32.6474 0.0000
# 6 0.0000 0.0000 0.0000 0.0000 0.0000 43.7387
#
#
#
# Elastic Compliance Matrix: (Units=1/GPa)
#
#
# Indices 1 2 3 4 5 6 
#
# 1 0.010690 -0.001479 -0.003719 0.000000 0.000000 0.000000
# 2 -0.001479 0.023541 -0.004385 0.000000 0.000000 0.000000
# 3 -0.003719 -0.004385 0.012992 0.000000 0.000000 0.000000
# 4 0.000000 0.000000 0.000000 -0.019179 0.000000 0.000000
# 5 0.000000 0.000000 0.000000 0.000000 0.030630 0.000000
# 6 0.000000 0.000000 0.000000 0.000000 0.000000 0.022863
#
#
# Mechanical properties :
#
#
# Convention : Reuss Voigt Hill
#
# Bulk Modulus (GPa) = 35.64387 42.79197 39.21792
# Shear Modulus (GPa) = 45.43159 16.85172 31.14166
#
# Velocity S-wave (km/s) = 4.61164 2.80866 3.81810
# Velocity P-wave (km/s) = 6.71132 5.52718 6.14782
#
# Compressibility (1/GPa) = 0.02805532
#
# Stress axis : x y z
#
# Youngs Moduli (GPa) = 93.54523 42.47975 76.97201
#
# Poissons Ratio (x) = 0.06282 0.28630
# Poissons Ratio (y) = 0.13834 0.33754
# Poissons Ratio (z) = 0.34794 0.18628
#
# Static dielectric constant tensor:
#      x y z
#    x 4.123610 0.000000 0.000000 
#    y 0.000000 3.896900 0.000000 
#    z 0.000000 0.000000 3.817960 
# 
# 
# High freq. dielectric constant tensor:
#      x y z
#    x 1.843990 0.000000 0.000000 
#    y 0.000000 1.846160 0.000000 
#    z 0.000000 0.000000 1.833910 
# 
# From -- ./inp_files/18609.got.cif
#   From: 2010.03.12/outbox.cif.g09.slc.cpg/sg23_10_cif.got.tgz:18609.got - 2010.04.14 02:50:06.
