data_PCOD8163283
_publ_section_title
;
Structure prediction by ZEFSAII (Michael W. Deem and Ramdas Pophale) SiO2 
 PCOD8163283
Probable space group: I 2 2 2
;
_chemical_formula_sum "Si O2"
_cell_formula_units_Z 56
_cell_length_a 8.574017
_cell_length_b 22.375932
_cell_length_c 16.470319
_cell_angle_alpha 90.000000
_cell_angle_beta 90.000000
_cell_angle_gamma 90.000000
_cell_volume 3159.857404
_symmetry_space_group_name_H-M "I 2 2 2"
_symmetry_group_IT_number 23
_symmetry_cell_setting 'orthorhombic'
loop_
_space_group_symop_operation_xyz
x,y,z
-x,-y,z
x,-y,-z
-x,y,-z
1/2+x,1/2+y,1/2+z
1/2-x,1/2-y,1/2+z
1/2+x,1/2-y,1/2-z
1/2-x,1/2+y,1/2-z
loop_
_atom_site_type_symbol
_atom_site_label
_atom_site_fract_x
_atom_site_fract_y
_atom_site_fract_z
Si Si1 0.796163 0.895801 0.680147
Si Si2 0.853682 0.862213 0.353775
Si Si3 0.610604 0.212064 0.724675
Si Si4 0.317685 0.510776 0.087905
Si Si5 0.336337 0.753224 0.033903
Si Si6 0.810453 0.682678 0.309406
Si Si7 0.101382 0.693075 0.926239
O O1 0.760365 0.964708 0.657830
O O2 0.728586 0.882502 0.771427
O O3 0.707271 0.857982 0.612110
O O4 0.977768 0.879142 0.680436
O O5 0.740389 0.840214 0.281564
O O6 0.861766 0.810433 0.421385
O O7 0.774678 0.921678 0.389368
O O8 0.701868 0.273166 0.744966
O O9 0.493037 0.198210 0.797553
O O10 0.517517 0.219847 0.639816
O O11 0.500000 0.500000 0.078202
O O12 0.238176 0.500000 0.000000
O O13 0.276054 0.805375 0.095839
O O14 0.500000 0.775875 0.000000
O O15 0.210655 0.746215 0.961900
O O16 0.000000 0.665552 0.000000
#
# Coordination Sequence:
#
# PCOD8163283 Si02
#       7
#     8   8   8   8   8   8   8
#     4  10  20  33  50  68 105 137 172 209 258 303
#     4  10  18  32  50  70  97 135 178 206 253 298
#     4  10  21  31  49  68 101 132 174 206 254 313
#     4   9  18  29  49  74  97 135 178 210 240 305
#     4  11  20  32  52  71  98 139 172 212 260 310
#     4  10  20  33  46  70  98 141 164 214 260 308
#     4  11  19  31  47  70  97 132 171 208 252 305
#
# _framework density 17.722318999999999
#
# number of rings (size 3 to 8) (size 9 to 14) (size 15 to 20)
#    0.000    1.857    4.286    2.571    4.000    0.000 
#    0.000    2.857    3.143    0.000    0.000    0.000 
#    0.000    2.286    2.857    0.000    0.000    0.000 
#
# Total GULP energy -346994.322466 kJ/mol
# GULP energy per Si atom -12392.654374 kJ/mol
# Density = 1.768198 g / cm^3
# Si number density = 17.722319 Si / 1000 Ang^3
#
#
#
# Elastic Constant Matrix: (Units=GPa)
#
#
# Indices 1 2 3 4 5 6 
#
# 1 73.4076 5.7841 9.3750 0.0000 0.0000 0.0000
# 2 5.7841 74.8577 34.7318 0.0000 0.0000 0.0000
# 3 9.3750 34.7318 56.3815 0.0000 0.0000 -0.0001
# 4 0.0000 0.0000 0.0000 27.4591 0.0000 0.0000
# 5 0.0000 0.0000 0.0000 0.0000 29.9633 0.0000
# 6 0.0000 0.0000 -0.0001 0.0000 0.0000 16.7063
#
#
#
# Elastic Compliance Matrix: (Units=1/GPa)
#
#
# Indices 1 2 3 4 5 6 
#
# 1 0.013918 -0.000002 -0.002313 0.000000 0.000000 0.000000
# 2 -0.000002 0.018705 -0.011522 0.000000 0.000000 0.000000
# 3 -0.002313 -0.011522 0.025219 0.000000 0.000000 0.000000
# 4 0.000000 0.000000 0.000000 0.036418 0.000000 0.000000
# 5 0.000000 0.000000 0.000000 0.000000 0.033374 0.000000
# 6 0.000000 0.000000 0.000000 0.000000 0.000000 0.059858
#
#
# Mechanical properties :
#
#
# Convention : Reuss Voigt Hill
#
# Bulk Modulus (GPa) = 33.14866 33.82540 33.48703
# Shear Modulus (GPa) = 22.20041 25.14279 23.67160
#
# Velocity S-wave (km/s) = 3.54316 3.77066 3.65868
# Velocity P-wave (km/s) = 5.95682 6.17130 6.06501
#
# Compressibility (1/GPa) = 0.03016713
#
# Stress axis : x y z
#
# Youngs Moduli (GPa) = 71.84871 53.46246 39.65330
#
# Poissons Ratio (x) = 0.00013 0.09171
# Poissons Ratio (y) = 0.00017 0.45688
# Poissons Ratio (z) = 0.16617 0.61599
#
# Static dielectric constant tensor:
#      x y z
#    x 3.579980 0.000000 0.000000 
#    y 0.000000 3.138930 0.000000 
#    z 0.000000 0.000000 3.220320 
# 
# 
# High freq. dielectric constant tensor:
#      x y z
#    x 1.702160 0.000000 0.000000 
#    y 0.000000 1.642720 0.000000 
#    z 0.000000 0.000000 1.664530 
# 
# From -- ./inp_files/11365.got.cif
#   From: 2010.03.12/outbox.cif.g09.slc.cpg/sg23_6_cif.got.tgz:11365.got - 2010.04.14 02:50:06.
