data_PCOD8163428
_publ_section_title
;
Structure prediction by ZEFSAII (Michael W. Deem and Ramdas Pophale) SiO2 
 PCOD8163428
Probable space group: I 2 2 2
;
_chemical_formula_sum "Si O2"
_cell_formula_units_Z 60
_cell_length_a 22.163844
_cell_length_b 17.461210
_cell_length_c 7.318400
_cell_angle_alpha 90.000000
_cell_angle_beta 90.000000
_cell_angle_gamma 90.000000
_cell_volume 2832.275940
_symmetry_space_group_name_H-M "I 2 2 2"
_symmetry_group_IT_number 23
_symmetry_cell_setting 'orthorhombic'
loop_
_space_group_symop_operation_xyz
x,y,z
-x,-y,z
x,-y,-z
-x,y,-z
1/2+x,1/2+y,1/2+z
1/2-x,1/2-y,1/2+z
1/2+x,1/2-y,1/2-z
1/2-x,1/2+y,1/2-z
loop_
_atom_site_type_symbol
_atom_site_label
_atom_site_fract_x
_atom_site_fract_y
_atom_site_fract_z
Si Si1 0.670431 0.500000 0.000000
Si Si2 0.307505 0.683030 0.472220
Si Si3 0.646136 0.658520 0.904471
Si Si4 0.750906 0.949692 0.824720
Si Si5 0.616703 0.078010 0.267837
Si Si6 0.109311 0.590761 0.179541
Si Si7 0.777167 0.326536 0.164608
Si Si8 0.568708 0.199126 0.982430
O O1 0.626396 0.574216 0.976333
O O2 0.713684 0.500618 0.822372
O O3 0.359310 0.667190 0.318096
O O4 0.299446 0.614927 0.616273
O O5 0.243189 0.695367 0.369623
O O6 0.320983 0.761214 0.580454
O O7 0.717592 0.660950 0.960589
O O8 0.608928 0.724649 0.004065
O O9 0.689504 0.912304 0.742627
O O10 0.733050 0.000000 0.000000
O O11 0.590236 0.095248 0.468579
O O12 0.596067 0.990791 0.223987
O O13 0.585272 0.137046 0.134124
O O14 0.182436 0.597489 0.183687
O O15 0.077709 0.659975 0.286015
O O16 0.500000 0.225395 0.000000
#
# Coordination Sequence:
#
# PCOD8163428 Si02
#       8
#     4   8   8   8   8   8   8   8
#     4  12  24  38  65  98 138 173 218 270 352 416
#     4  10  22  31  56  88 137 177 211 261 324 405
#     4  10  23  41  59  95 128 170 224 279 335 405
#     4  12  21  38  58  98 142 177 205 264 339 419
#     4  11  23  39  64  95 136 169 225 269 327 403
#     4  11  23  39  65 101 128 177 218 274 337 393
#     4  10  19  35  56  96 132 171 207 261 339 406
#     4  12  27  47  67  89 131 183 235 281 330 392
#
# _framework density 21.184377000000001
#
# number of rings (size 3 to 8) (size 9 to 14) (size 15 to 20)
#    0.800    0.267    1.333    7.600    5.600    1.600 
#    0.000    1.667    0.000    0.000    0.000    0.000 
#    0.000    0.000    0.000    0.000    0.000    0.000 
#
# Total GULP energy -371853.375550 kJ/mol
# GULP energy per Si atom -12395.112518 kJ/mol
# Density = 2.113616 g / cm^3
# Si number density = 21.184377 Si / 1000 Ang^3
#
#
#
# Elastic Constant Matrix: (Units=GPa)
#
#
# Indices 1 2 3 4 5 6 
#
# 1 71.3781 34.9966 12.0982 0.0000 0.0000 0.0000
# 2 34.9966 137.2649 46.3735 0.0000 0.0000 0.0000
# 3 12.0982 46.3735 94.5646 0.0000 0.0000 0.0000
# 4 0.0000 0.0000 0.0000 36.1006 0.0000 0.0000
# 5 0.0000 0.0000 0.0000 0.0000 11.2036 0.0000
# 6 0.0000 0.0000 0.0000 0.0000 0.0000 12.4509
#
#
#
# Elastic Compliance Matrix: (Units=1/GPa)
#
#
# Indices 1 2 3 4 5 6 
#
# 1 0.016012 -0.004063 -0.000056 0.000000 0.000000 0.000000
# 2 -0.004063 0.009763 -0.004268 0.000000 0.000000 0.000000
# 3 -0.000056 -0.004268 0.012675 0.000000 0.000000 0.000000
# 4 0.000000 0.000000 0.000000 0.027700 0.000000 0.000000
# 5 0.000000 0.000000 0.000000 0.000000 0.089257 0.000000
# 6 0.000000 0.000000 0.000000 0.000000 0.000000 0.080316
#
#
# Mechanical properties :
#
#
# Convention : Reuss Voigt Hill
#
# Bulk Modulus (GPa) = 46.13530 54.46047 50.29789
# Shear Modulus (GPa) = 19.25137 25.93364 22.59251
#
# Velocity S-wave (km/s) = 3.01782 3.50263 3.26923
# Velocity P-wave (km/s) = 5.82823 6.49011 6.16806
#
# Compressibility (1/GPa) = 0.02167538
#
# Stress axis : x y z
#
# Youngs Moduli (GPa) = 62.45453 102.42733 78.89657
#
# Poissons Ratio (x) = 0.41620 0.00440
# Poissons Ratio (y) = 0.25378 0.33672
# Poissons Ratio (z) = 0.00349 0.43714
#
# Static dielectric constant tensor:
#      x y z
#    x 3.213760 0.000000 0.000000 
#    y 0.000000 3.941330 0.000000 
#    z 0.000000 0.000000 4.001190 
# 
# 
# High freq. dielectric constant tensor:
#      x y z
#    x 1.753920 0.000000 0.000000 
#    y 0.000000 1.844580 0.000000 
#    z 0.000000 0.000000 1.847030 
# 
# From -- ./inp_files/12191.got.cif
#   From: 2010.03.12/outbox.cif.g09.slc.cpg/sg23_7_cif.got.tgz:12191.got - 2010.04.14 02:50:06.
