data_PCOD8163653
_publ_section_title
;
Structure prediction by ZEFSAII (Michael W. Deem and Ramdas Pophale) SiO2 
 PCOD8163653
Probable space group: I 2 2 2
;
_chemical_formula_sum "Si O2"
_cell_formula_units_Z 64
_cell_length_a 14.202587
_cell_length_b 8.813473
_cell_length_c 25.032153
_cell_angle_alpha 90.000000
_cell_angle_beta 90.000000
_cell_angle_gamma 90.000000
_cell_volume 3133.377650
_symmetry_space_group_name_H-M "I 2 2 2"
_symmetry_group_IT_number 23
_symmetry_cell_setting 'orthorhombic'
loop_
_space_group_symop_operation_xyz
x,y,z
-x,-y,z
x,-y,-z
-x,y,-z
1/2+x,1/2+y,1/2+z
1/2-x,1/2-y,1/2+z
1/2+x,1/2-y,1/2-z
1/2-x,1/2+y,1/2-z
loop_
_atom_site_type_symbol
_atom_site_label
_atom_site_fract_x
_atom_site_fract_y
_atom_site_fract_z
Si Si1 0.335539 0.855997 0.404487
Si Si2 0.709560 0.329705 0.806025
Si Si3 0.995943 0.821316 0.663856
Si Si4 0.491020 0.677902 0.560483
Si Si5 0.302837 0.799148 0.600442
Si Si6 0.304332 0.313394 0.795704
Si Si7 0.199793 0.831634 0.495421
Si Si8 0.537460 0.828130 0.053558
O O1 0.262268 0.788614 0.361095
O O2 0.433709 0.764910 0.401863
O O3 0.298862 0.844955 0.464958
O O4 0.346975 0.033737 0.392447
O O5 0.601736 0.268332 0.808676
O O6 0.706790 0.507231 0.795382
O O7 0.765557 0.249500 0.759178
O O8 0.085373 0.766496 0.698658
O O9 0.003409 0.750705 0.605357
O O10 0.000000 0.000000 0.655630
O O11 0.500000 0.500000 0.561148
O O12 0.500000 0.741499 0.500000
O O13 0.388682 0.693320 0.585821
O O14 0.254967 0.743314 0.655339
O O15 0.221009 0.778958 0.555752
O O16 0.147648 0.705332 0.457758
O O17 0.152069 0.000000 0.500000
O O18 0.500000 0.000000 0.054546
O O19 0.500000 0.744869 0.000000
#
# Coordination Sequence:
#
# PCOD8163653 Si02
#       8
#     8   8   8   8   8   8   8   8
#     4  10  20  39  65  90 118 162 212 255 303 368
#     4  10  22  42  65  90 123 157 208 259 307 373
#     4  10  22  42  66  89 119 161 212 256 303 379
#     4  11  23  38  55  91 130 168 202 252 317 376
#     4  10  21  39  64  93 122 160 214 259 302 371
#     4  10  23  41  63  94 119 159 209 255 312 366
#     4  10  20  37  65  91 122 167 206 251 311 372
#     4  11  24  38  54  96 133 160 202 249 313 371
#
# _framework density 20.425242999999998
#
# number of rings (size 3 to 8) (size 9 to 14) (size 15 to 20)
#    0.000    1.750    2.500    1.125    3.500    3.500 
#    6.750    2.500    0.000    0.000    0.000    0.000 
#    0.000    0.000    0.000    0.000    0.000    0.000 
#
# Total GULP energy -396557.120712 kJ/mol
# GULP energy per Si atom -12392.410022 kJ/mol
# Density = 2.037875 g / cm^3
# Si number density = 20.425243 Si / 1000 Ang^3
#
#
#
# Elastic Constant Matrix: (Units=GPa)
#
#
# Indices 1 2 3 4 5 6 
#
# 1 136.1107 49.0552 54.2721 0.0000 0.0000 0.0000
# 2 49.0552 48.6419 29.3569 0.0000 0.0000 0.0000
# 3 54.2721 29.3569 125.9007 0.0000 0.0000 0.0000
# 4 0.0000 0.0000 0.0000 30.4393 0.0000 0.0000
# 5 0.0000 0.0000 0.0000 0.0000 33.0501 0.0000
# 6 0.0000 0.0000 0.0000 0.0000 0.0000 25.5186
#
#
#
# Elastic Compliance Matrix: (Units=1/GPa)
#
#
# Indices 1 2 3 4 5 6 
#
# 1 0.012343 -0.010750 -0.002814 0.000000 0.000000 0.000000
# 2 -0.010750 0.033287 -0.003128 0.000000 0.000000 0.000000
# 3 -0.002814 -0.003128 0.009885 0.000000 0.000000 0.000000
# 4 0.000000 0.000000 0.000000 0.032852 0.000000 0.000000
# 5 0.000000 0.000000 0.000000 0.000000 0.030257 0.000000
# 6 0.000000 0.000000 0.000000 0.000000 0.000000 0.039187
#
#
# Mechanical properties :
#
#
# Convention : Reuss Voigt Hill
#
# Bulk Modulus (GPa) = 45.18323 64.00241 54.59282
# Shear Modulus (GPa) = 25.17958 29.66621 27.42290
#
# Velocity S-wave (km/s) = 3.51489 3.81521 3.66812
# Velocity P-wave (km/s) = 6.21626 7.12817 6.68777
#
# Compressibility (1/GPa) = 0.02213210
#
# Stress axis : x y z
#
# Youngs Moduli (GPa) = 81.01492 30.04150 101.16063
#
# Poissons Ratio (x) = 0.32294 0.28470
# Poissons Ratio (y) = 0.87089 0.31642
# Poissons Ratio (z) = 0.22800 0.09397
#
# Static dielectric constant tensor:
#      x y z
#    x 3.973780 0.000000 0.000000 
#    y 0.000000 3.470560 0.000000 
#    z 0.000000 0.000000 3.783820 
# 
# 
# High freq. dielectric constant tensor:
#      x y z
#    x 1.806650 0.000000 0.000000 
#    y 0.000000 1.779670 0.000000 
#    z 0.000000 0.000000 1.796690 
# 
# From -- ./inp_files/28568.got.cif
#   From: 2010.03.12/outbox.cif.g09.slc.cpg/sg23_15_cif.got.tgz:28568.got - 2010.04.14 02:50:06.
