data_PCOD8163075
_publ_section_title
;
Structure prediction by ZEFSAII (Michael W. Deem and Ramdas Pophale) SiO2 
 PCOD8163075
Probable space group: F 2 2 2
;
_chemical_formula_sum "Si O2"
_cell_formula_units_Z 80
_cell_length_a 28.039489
_cell_length_b 5.144401
_cell_length_c 23.786454
_cell_angle_alpha 90.000000
_cell_angle_beta 90.000000
_cell_angle_gamma 90.000000
_cell_volume 3431.109770
_symmetry_space_group_name_H-M "F 2 2 2"
_symmetry_group_IT_number 22
_symmetry_cell_setting 'orthorhombic'
loop_
_space_group_symop_operation_xyz
x,y,z
-x,-y,z
x,-y,-z
-x,y,-z
x,1/2+y,1/2+z
-x,1/2-y,1/2+z
x,1/2-y,1/2-z
-x,1/2+y,1/2-z
1/2+x,y,1/2+z
1/2-x,-y,1/2+z
1/2+x,-y,1/2-z
1/2-x,y,1/2-z
1/2+x,1/2+y,z
1/2-x,1/2-y,z
1/2+x,1/2-y,-z
1/2-x,1/2+y,-z
loop_
_atom_site_type_symbol
_atom_site_label
_atom_site_fract_x
_atom_site_fract_y
_atom_site_fract_z
Si Si1 0.207778 0.426980 0.561716
Si Si2 0.585994 0.054873 0.868862
Si Si3 0.400273 0.922387 0.438178
Si Si4 0.829172 0.996130 0.287219
Si Si5 0.000000 0.500000 0.213319
Si Si6 0.750000 0.750000 0.351114
O O1 0.226136 0.500000 0.500000
O O2 0.250000 0.250000 0.586851
O O3 0.154417 0.318124 0.557170
O O4 0.207042 0.654519 0.608112
O O5 0.593719 0.329283 0.898863
O O6 0.544020 0.089829 0.824471
O O7 0.571639 0.826460 0.913332
O O8 0.633711 0.963103 0.837561
O O9 0.419420 0.000000 0.500000
O O10 0.829136 0.250000 0.250000
O O11 0.845101 0.750000 0.250000
O O12 0.775732 0.960513 0.311426
O O13 0.984754 0.250000 0.250000
#
# Coordination Sequence:
#
# PCOD8163075 Si02
#       6
#    16  16  16  16   8   8
#     4  11  23  39  66  99 136 184 240 292 343 415
#     4  12  24  49  73 104 140 184 227 300 361 415
#     4  11  25  44  72 105 144 185 230 283 360 435
#     4  12  27  45  64  93 135 182 233 286 346 413
#     4  12  26  48  81 112 137 182 248 300 350 426
#     4  12  25  42  62  94 130 186 227 284 344 406
#
# _framework density 23.31607
#
# number of rings (size 3 to 8) (size 9 to 14) (size 15 to 20)
#    0.000    0.400    3.000    5.700    2.800    0.800 
#    0.000    3.000    0.000    0.000    0.000    0.000 
#    0.000    0.000    0.000    0.000    0.000    0.000 
#
# Total GULP energy -247981.537997 kJ/mol
# GULP energy per Si atom -12399.076900 kJ/mol
# Density = 2.326300 g / cm^3
# Si number density = 23.316070 Si / 1000 Ang^3
#
#
#
# Elastic Constant Matrix: (Units=GPa)
#
#
# Indices 1 2 3 4 5 6 
#
# 1 76.7400 19.8082 34.7112 -0.0088 0.0401 0.0170
# 2 19.8082 139.3646 50.7286 -0.0126 -0.0491 0.0164
# 3 34.7112 50.7286 128.4316 -0.0020 -0.0254 -0.0029
# 4 -0.0088 -0.0126 -0.0020 47.6631 -0.0137 0.0077
# 5 0.0401 -0.0491 -0.0254 -0.0137 -13.3754 -0.0406
# 6 0.0170 0.0164 -0.0029 0.0077 -0.0406 26.5705
#
#
#
# Elastic Compliance Matrix: (Units=1/GPa)
#
#
# Indices 1 2 3 4 5 6 
#
# 1 0.014915 -0.000762 -0.003730 0.000002 0.000055 -0.000009
# 2 -0.000762 0.008419 -0.003119 0.000002 -0.000027 -0.000005
# 3 -0.003730 -0.003119 0.010026 -0.000001 -0.000019 0.000005
# 4 0.000002 0.000002 -0.000001 0.020981 -0.000021 -0.000006
# 5 0.000055 -0.000027 -0.000019 -0.000021 -0.074763 -0.000114
# 6 -0.000009 -0.000005 0.000005 -0.000006 -0.000114 0.037636
#
#
# Mechanical properties :
#
#
# Convention : Reuss Voigt Hill
#
# Bulk Modulus (GPa) = 55.13487 61.67023 58.40255
# Shear Modulus (GPa) = 129.92918 28.12420 79.02669
#
# Velocity S-wave (km/s) = 7.47303 3.47683 5.82814
# Velocity P-wave (km/s) = 9.90755 6.52877 8.39001
#
# Compressibility (1/GPa) = 0.01813734
#
# Stress axis : x y z
#
# Youngs Moduli (GPa) = 67.04716 118.77572 99.73574
#
# Poissons Ratio (x) = 0.09052 0.37201
# Poissons Ratio (y) = 0.05110 0.31112
# Poissons Ratio (z) = 0.25009 0.37052
#
# Static dielectric constant tensor:
#      x y z
#    x 3.979810 0.000310 0.000030 
#    y 0.000310 4.380630 -0.000080 
#    z 0.000030 -0.000080 4.526090 
# 
# 
# High freq. dielectric constant tensor:
#      x y z
#    x 1.899390 0.000000 0.000000 
#    y 0.000000 1.923860 0.000000 
#    z 0.000000 0.000000 1.950780 
# 
# From -- ./inp_files/50632.got.cif
#   From: 2010.03.12/outbox.cif.g09.slc.cpg/sg22_26_cif.got.tgz:50632.got - 2010.04.14 02:24:06.
