data_PCOD8163658
_publ_section_title
;
Structure prediction by ZEFSAII (Michael W. Deem and Ramdas Pophale) SiO2 
 PCOD8163658
Probable space group: I 2 2 2
;
_chemical_formula_sum "Si O2"
_cell_formula_units_Z 58
_cell_length_a 20.041845
_cell_length_b 16.377474
_cell_length_c 8.996113
_cell_angle_alpha 90.000000
_cell_angle_beta 90.000000
_cell_angle_gamma 90.000000
_cell_volume 2952.837310
_symmetry_space_group_name_H-M "I 2 2 2"
_symmetry_group_IT_number 23
_symmetry_cell_setting 'orthorhombic'
loop_
_space_group_symop_operation_xyz
x,y,z
-x,-y,z
x,-y,-z
-x,y,-z
1/2+x,1/2+y,1/2+z
1/2-x,1/2-y,1/2+z
1/2+x,1/2-y,1/2-z
1/2-x,1/2+y,1/2-z
loop_
_atom_site_type_symbol
_atom_site_label
_atom_site_fract_x
_atom_site_fract_y
_atom_site_fract_z
Si Si1 0.886240 0.688104 0.788415
Si Si2 0.644843 0.933047 0.883264
Si Si3 0.287820 0.954728 0.651061
Si Si4 0.531714 0.133738 0.291221
Si Si5 0.000000 0.500000 0.000000
Si Si6 0.690857 0.331650 0.269228
Si Si7 0.929817 0.203679 0.958143
Si Si8 0.699787 0.218322 0.982481
O O1 0.835509 0.624475 0.866735
O O2 0.861152 0.724538 0.632916
O O3 0.953768 0.638360 0.751000
O O4 0.893091 0.768206 0.891364
O O5 0.578793 0.879307 0.850122
O O6 0.676443 0.974618 0.741234
O O7 0.700434 0.872473 0.948507
O O8 0.621864 0.000000 0.000000
O O9 0.222337 0.920960 0.738311
O O10 0.266532 0.000000 0.500000
O O11 0.550847 0.214580 0.374618
O O12 0.547019 0.057104 0.399423
O O13 0.618085 0.346653 0.345462
O O14 0.731841 0.275214 0.386937
O O15 0.690258 0.286123 0.109459
O O16 0.000000 0.156963 0.000000
#
# Coordination Sequence:
#
# PCOD8163658 Si02
#       8
#     8   8   8   8   2   8   8   8
#     4  10  20  38  54  86 121 166 203 239 295 354
#     4  12  23  39  51  84 124 160 202 248 285 351
#     4  11  24  38  59  84 122 161 207 246 295 353
#     4  11  22  33  56  80 126 165 206 233 289 355
#     4  12  20  32  50  80 116 184 198 222 278 348
#     4  11  22  41  59  84 118 159 210 249 304 351
#     4  10  20  39  59  84 116 154 201 254 297 364
#     4  11  24  38  58  84 120 163 201 250 296 357
#
# _framework density 19.642126000000001
#
# number of rings (size 3 to 8) (size 9 to 14) (size 15 to 20)
#    0.000    1.103    6.207    3.310    3.862    0.552 
#    2.483    0.000    0.000    0.000    0.000    1.931 
#    0.000    0.000    0.000    0.000    0.000    0.000 
#
# Total GULP energy -359428.374285 kJ/mol
# GULP energy per Si atom -12394.081872 kJ/mol
# Density = 1.959742 g / cm^3
# Si number density = 19.642126 Si / 1000 Ang^3
#
#
#
# Elastic Constant Matrix: (Units=GPa)
#
#
# Indices 1 2 3 4 5 6 
#
# 1 119.0830 27.3089 52.4679 0.0000 0.0000 0.0000
# 2 27.3089 26.5309 14.5416 0.0000 0.0000 0.0000
# 3 52.4679 14.5416 105.5856 0.0000 0.0000 0.0000
# 4 0.0000 0.0000 0.0000 34.3320 0.0000 0.0000
# 5 0.0000 0.0000 0.0000 0.0000 18.9868 0.0000
# 6 0.0000 0.0000 0.0000 0.0000 0.0000 27.3256
#
#
#
# Elastic Compliance Matrix: (Units=1/GPa)
#
#
# Indices 1 2 3 4 5 6 
#
# 1 0.013060 -0.010693 -0.005017 0.000000 0.000000 0.000000
# 2 -0.010693 0.049525 -0.001507 0.000000 0.000000 0.000000
# 3 -0.005017 -0.001507 0.012172 0.000000 0.000000 0.000000
# 4 0.000000 0.000000 0.000000 0.029127 0.000000 0.000000
# 5 0.000000 0.000000 0.000000 0.000000 0.052668 0.000000
# 6 0.000000 0.000000 0.000000 0.000000 0.000000 0.036596
#
#
# Mechanical properties :
#
#
# Convention : Reuss Voigt Hill
#
# Bulk Modulus (GPa) = 24.80054 48.87070 36.83562
# Shear Modulus (GPa) = 20.74483 26.58762 23.66623
#
# Velocity S-wave (km/s) = 3.25336 3.68312 3.47489
# Velocity P-wave (km/s) = 5.17359 6.55910 5.90711
#
# Compressibility (1/GPa) = 0.04032171
#
# Stress axis : x y z
#
# Youngs Moduli (GPa) = 76.56733 20.19192 82.15756
#
# Poissons Ratio (x) = 0.21592 0.41221
# Poissons Ratio (y) = 0.81876 0.12380
# Poissons Ratio (z) = 0.38416 0.03043
#
# Static dielectric constant tensor:
#      x y z
#    x 3.915060 0.000000 0.000000 
#    y 0.000000 3.460360 0.000000 
#    z 0.000000 0.000000 3.509620 
# 
# 
# High freq. dielectric constant tensor:
#      x y z
#    x 1.760720 0.000000 0.000000 
#    y 0.000000 1.721750 0.000000 
#    z 0.000000 0.000000 1.781990 
# 
# From -- ./inp_files/11290.got.cif
#   From: 2010.03.12/outbox.cif.g09.slc.cpg/sg23_6_cif.got.tgz:11290.got - 2010.04.14 02:50:06.
