data_PCOD8163411
_publ_section_title
;
Structure prediction by ZEFSAII (Michael W. Deem and Ramdas Pophale) SiO2 
 PCOD8163411
Probable space group: I 2 2 2
;
_chemical_formula_sum "Si O2"
_cell_formula_units_Z 48
_cell_length_a 9.721469
_cell_length_b 13.699576
_cell_length_c 16.394035
_cell_angle_alpha 90.000000
_cell_angle_beta 90.000000
_cell_angle_gamma 90.000000
_cell_volume 2183.357637
_symmetry_space_group_name_H-M "I 2 2 2"
_symmetry_group_IT_number 23
_symmetry_cell_setting 'orthorhombic'
loop_
_space_group_symop_operation_xyz
x,y,z
-x,-y,z
x,-y,-z
-x,y,-z
1/2+x,1/2+y,1/2+z
1/2-x,1/2-y,1/2+z
1/2+x,1/2-y,1/2-z
1/2-x,1/2+y,1/2-z
loop_
_atom_site_type_symbol
_atom_site_label
_atom_site_fract_x
_atom_site_fract_y
_atom_site_fract_z
Si Si1 0.903600 0.167161 0.920977
Si Si2 0.906642 0.701828 0.226196
Si Si3 0.848727 0.773806 0.527891
Si Si4 0.614029 0.336720 0.800114
Si Si5 0.360957 0.905662 0.545966
Si Si6 0.000000 0.500000 0.809682
Si Si7 0.000000 0.000000 0.192388
O O1 0.951949 0.260323 0.865110
O O2 0.742893 0.179859 0.945763
O O3 0.910227 0.070224 0.865489
O O4 0.000000 0.157260 0.000000
O O5 0.744565 0.719731 0.238400
O O6 0.983842 0.765029 0.293528
O O7 0.928794 0.585796 0.242045
O O8 0.861917 0.851020 0.603089
O O9 0.760482 0.825667 0.456276
O O10 0.000000 0.739616 0.500000
O O11 0.597186 0.438339 0.752734
O O12 0.500000 0.866784 0.500000
O O13 0.388387 0.939784 0.637858
O O14 0.304631 0.000000 0.500000
#
# Coordination Sequence:
#
# PCOD8163411 Si02
#       7
#     8   8   8   8   8   4   4
#     4  10  20  41  65  88 114 159 215 249 284 349
#     4  10  22  37  60  87 123 159 199 250 298 359
#     4  11  23  36  59  92 128 156 185 251 319 362
#     4  10  23  42  58  88 122 161 202 242 301 357
#     4   9  17  32  53  81 115 151 195 238 282 349
#     4  10  19  34  62  90 111 156 208 250 295 352
#     4  10  23  40  67  86 116 164 212 250 279 350
#
# _framework density 21.984487999999999
#
# number of rings (size 3 to 8) (size 9 to 14) (size 15 to 20)
#    0.000    2.167    0.000    5.750    0.000   11.667 
#    0.000    0.000    0.000   12.000    0.000    0.000 
#    0.000    0.000    0.000    0.000    0.000    0.000 
#
# Total GULP energy -297395.962725 kJ/mol
# GULP energy per Si atom -12391.498447 kJ/mol
# Density = 2.193445 g / cm^3
# Si number density = 21.984488 Si / 1000 Ang^3
#
#
#
# Elastic Constant Matrix: (Units=GPa)
#
#
# Indices 1 2 3 4 5 6 
#
# 1 131.5182 43.9684 31.3170 0.0000 0.0000 0.0000
# 2 43.9684 108.6741 32.2091 0.0000 0.0000 0.0000
# 3 31.3170 32.2091 71.0570 0.0000 0.0000 0.0000
# 4 0.0000 0.0000 0.0000 25.9405 0.0000 0.0000
# 5 0.0000 0.0000 0.0000 0.0000 27.9654 0.0000
# 6 0.0000 0.0000 0.0000 0.0000 0.0000 22.0934
#
#
#
# Elastic Compliance Matrix: (Units=1/GPa)
#
#
# Indices 1 2 3 4 5 6 
#
# 1 0.009234 -0.002922 -0.002745 0.000000 0.000000 0.000000
# 2 -0.002922 0.011555 -0.003950 0.000000 0.000000 0.000000
# 3 -0.002745 -0.003950 0.017073 0.000000 0.000000 0.000000
# 4 0.000000 0.000000 0.000000 0.038550 0.000000 0.000000
# 5 0.000000 0.000000 0.000000 0.000000 0.035759 0.000000
# 6 0.000000 0.000000 0.000000 0.000000 0.000000 0.045262
#
#
# Mechanical properties :
#
#
# Convention : Reuss Voigt Hill
#
# Bulk Modulus (GPa) = 53.68249 58.47092 56.07670
# Shear Modulus (GPa) = 27.34085 28.78353 28.06219
#
# Velocity S-wave (km/s) = 3.53036 3.62230 3.57663
# Velocity P-wave (km/s) = 6.41009 6.64447 6.52833
#
# Compressibility (1/GPa) = 0.01862805
#
# Stress axis : x y z
#
# Youngs Moduli (GPa) = 108.29333 86.54406 58.57087
#
# Poissons Ratio (x) = 0.25292 0.16078
# Poissons Ratio (y) = 0.31648 0.23133
# Poissons Ratio (z) = 0.29727 0.34181
#
# Static dielectric constant tensor:
#      x y z
#    x 3.897280 0.000000 0.000000 
#    y 0.000000 3.945360 0.000000 
#    z 0.000000 0.000000 3.770610 
# 
# 
# High freq. dielectric constant tensor:
#      x y z
#    x 1.857260 0.000000 0.000000 
#    y 0.000000 1.851690 0.000000 
#    z 0.000000 0.000000 1.845880 
# 
# From -- ./inp_files/23762.got.cif
#   From: 2010.03.12/outbox.cif.g09.slc.cpg/sg23_12_cif.got.tgz:23762.got - 2010.04.14 02:50:06.
