data_PCOD8163836
_publ_section_title
;
Structure prediction by ZEFSAII (Michael W. Deem and Ramdas Pophale) SiO2 
 PCOD8163836
Probable space group: I 2 2 2
;
_chemical_formula_sum "Si O2"
_cell_formula_units_Z 48
_cell_length_a 10.156879
_cell_length_b 18.411795
_cell_length_c 12.763756
_cell_angle_alpha 90.000000
_cell_angle_beta 90.000000
_cell_angle_gamma 90.000000
_cell_volume 2386.903728
_symmetry_space_group_name_H-M "I 2 2 2"
_symmetry_group_IT_number 23
_symmetry_cell_setting 'orthorhombic'
loop_
_space_group_symop_operation_xyz
x,y,z
-x,-y,z
x,-y,-z
-x,y,-z
1/2+x,1/2+y,1/2+z
1/2-x,1/2-y,1/2+z
1/2+x,1/2-y,1/2-z
1/2-x,1/2+y,1/2-z
loop_
_atom_site_type_symbol
_atom_site_label
_atom_site_fract_x
_atom_site_fract_y
_atom_site_fract_z
Si Si1 0.153650 0.509939 0.788999
Si Si2 0.305327 0.132231 0.194509
Si Si3 0.875488 0.762998 0.069036
Si Si4 0.799077 0.209146 0.608172
Si Si5 0.203099 0.000000 0.500000
Si Si6 0.095263 0.334120 0.268365
Si Si7 0.000000 0.879217 0.500000
O O1 0.211912 0.455658 0.699374
O O2 0.179220 0.593611 0.758998
O O3 0.000000 0.500000 0.800574
O O4 0.210515 0.482709 0.899361
O O5 0.205995 0.166706 0.109864
O O6 0.281381 0.161950 0.310390
O O7 0.458258 0.149938 0.171849
O O8 0.928182 0.714673 0.164948
O O9 0.779392 0.712074 0.001074
O O10 0.000000 0.789761 0.000000
O O11 0.814843 0.290799 0.650043
O O12 0.943008 0.172246 0.591936
O O13 0.117815 0.930963 0.461933
#
# Coordination Sequence:
#
# PCOD8163836 Si02
#       7
#     8   8   8   8   4   8   4
#     4  10  21  38  60  89 126 161 207 256 316 374
#     4  10  21  39  60  89 124 159 208 259 313 379
#     4  11  22  39  64  92 126 162 210 258 317 378
#     4  11  21  39  59  88 122 161 211 252 316 373
#     4  11  21  36  56  94 125 163 202 256 332 375
#     4  10  22  37  63  93 122 166 204 262 312 372
#     4  11  22  34  56  86 129 160 198 256 313 382
#
# _framework density 20.109734
#
# number of rings (size 3 to 8) (size 9 to 14) (size 15 to 20)
#    0.000    1.500    3.333    2.250    0.000    1.333 
#    0.000    0.833    0.000    4.000    0.000    0.000 
#    0.000    0.000    0.000    0.000    0.000    0.000 
#
# Total GULP energy -297506.301616 kJ/mol
# GULP energy per Si atom -12396.095901 kJ/mol
# Density = 2.006396 g / cm^3
# Si number density = 20.109734 Si / 1000 Ang^3
#
#
#
# Elastic Constant Matrix: (Units=GPa)
#
#
# Indices 1 2 3 4 5 6 
#
# 1 72.2687 41.9349 26.3587 0.0001 0.0000 0.0000
# 2 41.9349 121.4292 25.7137 0.0000 0.0000 0.0000
# 3 26.3587 25.7137 57.8695 -0.0001 0.0000 0.0000
# 4 0.0001 0.0000 -0.0001 20.0483 0.0000 0.0000
# 5 0.0000 0.0000 0.0000 0.0000 35.8683 0.0000
# 6 0.0000 0.0000 0.0000 0.0000 0.0000 7.0004
#
#
#
# Elastic Compliance Matrix: (Units=1/GPa)
#
#
# Indices 1 2 3 4 5 6 
#
# 1 0.019246 -0.005288 -0.006417 0.000000 0.000000 0.000000
# 2 -0.005288 0.010543 -0.002276 0.000000 0.000000 0.000000
# 3 -0.006417 -0.002276 0.021214 0.000000 0.000000 0.000000
# 4 0.000000 0.000000 0.000000 0.049880 0.000000 0.000000
# 5 0.000000 0.000000 0.000000 0.000000 0.027880 0.000000
# 6 0.000000 0.000000 0.000000 0.000000 0.000000 0.142849
#
#
# Mechanical properties :
#
#
# Convention : Reuss Voigt Hill
#
# Bulk Modulus (GPa) = 43.39861 48.84244 46.12053
# Shear Modulus (GPa) = 16.27317 23.08741 19.68029
#
# Velocity S-wave (km/s) = 2.84776 3.39200 3.13172
# Velocity P-wave (km/s) = 5.69568 6.29933 6.00509
#
# Compressibility (1/GPa) = 0.02304221
#
# Stress axis : x y z
#
# Youngs Moduli (GPa) = 51.95928 94.84651 47.13765
#
# Poissons Ratio (x) = 0.50151 0.30247
# Poissons Ratio (y) = 0.27474 0.10730
# Poissons Ratio (z) = 0.33341 0.21591
#
# Static dielectric constant tensor:
#      x y z
#    x 3.625440 0.000000 0.000000 
#    y 0.000000 4.018220 0.000000 
#    z 0.000000 0.000000 3.398190 
# 
# 
# High freq. dielectric constant tensor:
#      x y z
#    x 1.786080 0.000000 0.000000 
#    y 0.000000 1.793630 0.000000 
#    z 0.000000 0.000000 1.761480 
# 
# From -- ./inp_files/15884.got.cif
#   From: 2010.03.12/outbox.cif.g09.slc.cpg/sg23_8_cif.got.tgz:15884.got - 2010.04.14 02:50:06.
