data_PCOD8163746
_publ_section_title
;
Structure prediction by ZEFSAII (Michael W. Deem and Ramdas Pophale) SiO2 
 PCOD8163746
Probable space group: I 2 2 2
;
_chemical_formula_sum "Si O2"
_cell_formula_units_Z 48
_cell_length_a 8.126545
_cell_length_b 31.008212
_cell_length_c 7.702583
_cell_angle_alpha 90.000000
_cell_angle_beta 90.000000
_cell_angle_gamma 90.000000
_cell_volume 1940.971042
_symmetry_space_group_name_H-M "I 2 2 2"
_symmetry_group_IT_number 23
_symmetry_cell_setting 'orthorhombic'
loop_
_space_group_symop_operation_xyz
x,y,z
-x,-y,z
x,-y,-z
-x,y,-z
1/2+x,1/2+y,1/2+z
1/2-x,1/2-y,1/2+z
1/2+x,1/2-y,1/2-z
1/2-x,1/2+y,1/2-z
loop_
_atom_site_type_symbol
_atom_site_label
_atom_site_fract_x
_atom_site_fract_y
_atom_site_fract_z
Si Si1 0.500000 0.500000 0.500000
Si Si2 0.500000 0.141075 0.500000
Si Si3 0.918850 0.567577 0.747987
Si Si4 0.500000 0.000000 0.500000
Si Si5 0.744673 0.432413 0.594902
Si Si6 0.691297 0.691785 0.885070
Si Si7 0.407851 0.346576 0.322675
Si Si8 0.321883 0.786052 0.991228
O O1 0.610597 0.469661 0.622999
O O2 0.471902 0.113202 0.328312
O O3 0.329555 0.168787 0.506842
O O4 0.875729 0.531256 0.891502
O O5 0.769152 0.576494 0.613847
O O6 0.082713 0.548771 0.658240
O O7 0.696339 0.390256 0.707599
O O8 0.521885 0.664096 0.846599
O O9 0.654075 0.735229 0.987260
O O10 0.752468 0.703377 0.695519
O O11 0.500000 0.357729 0.500000
O O12 0.292583 0.305067 0.356794
O O13 0.500000 0.808739 0.000000
#
# Coordination Sequence:
#
# PCOD8163746 Si02
#       8
#     2   4   8   2   8   8   8   8
#     4  12  24  38  74 106 146 170 226 302 380 442
#     4  11  26  43  73  98 142 194 247 301 378 443
#     4  10  23  43  72 100 137 189 242 296 360 453
#     4  10  20  42  64  98 146 170 232 290 352 428
#     4  11  23  43  73 107 135 186 242 301 370 445
#     4  11  26  44  68 103 144 192 249 313 371 446
#     4  10  22  42  66 100 145 179 243 311 362 434
#     4  11  25  41  70  99 141 194 244 306 376 442
#
# _framework density 24.729890000000001
#
# number of rings (size 3 to 8) (size 9 to 14) (size 15 to 20)
#    0.000    1.333    0.833    4.000   10.500    2.667 
#    0.000    0.000    0.000    5.500    0.000    0.000 
#    0.000    0.000    0.000    0.000    0.000    0.000 
#
# Total GULP energy -297462.644580 kJ/mol
# GULP energy per Si atom -12394.276858 kJ/mol
# Density = 2.467360 g / cm^3
# Si number density = 24.729890 Si / 1000 Ang^3
#
#
#
# Elastic Constant Matrix: (Units=GPa)
#
#
# Indices 1 2 3 4 5 6 
#
# 1 136.0252 47.3802 23.0811 0.0608 0.0221 0.0305
# 2 47.3802 142.6810 42.2670 0.0561 0.0252 0.0291
# 3 23.0811 42.2670 94.7687 0.0273 0.0026 0.0525
# 4 0.0608 0.0561 0.0273 35.1738 -0.0082 0.0291
# 5 0.0221 0.0252 0.0026 -0.0082 33.1591 0.0185
# 6 0.0305 0.0291 0.0525 0.0291 0.0185 35.9402
#
#
#
# Elastic Compliance Matrix: (Units=1/GPa)
#
#
# Indices 1 2 3 4 5 6 
#
# 1 0.008382 -0.002510 -0.000922 -0.000010 -0.000004 -0.000004
# 2 -0.002510 0.008827 -0.003326 -0.000007 -0.000005 0.000000
# 3 -0.000922 -0.003326 0.012260 -0.000003 0.000002 -0.000014
# 4 -0.000010 -0.000007 -0.000003 0.028430 0.000007 -0.000023
# 5 -0.000004 -0.000005 0.000002 0.000007 0.030158 -0.000016
# 6 -0.000004 0.000000 -0.000014 -0.000023 -0.000016 0.027824
#
#
# Mechanical properties :
#
#
# Convention : Reuss Voigt Hill
#
# Bulk Modulus (GPa) = 62.68128 66.54795 64.61461
# Shear Modulus (GPa) = 37.11524 38.23774 37.67649
#
# Velocity S-wave (km/s) = 3.87825 3.93646 3.90746
# Velocity P-wave (km/s) = 6.74209 6.90140 6.82221
#
# Compressibility (1/GPa) = 0.01595373
#
# Stress axis : x y z
#
# Youngs Moduli (GPa) = 119.29679 113.28282 81.56755
#
# Poissons Ratio (x) = 0.28439 0.07520
# Poissons Ratio (y) = 0.29949 0.27126
# Poissons Ratio (z) = 0.10998 0.37674
#
# Static dielectric constant tensor:
#      x y z
#    x 4.740620 -0.000020 -0.000020 
#    y -0.000020 4.419530 -0.000310 
#    z -0.000020 -0.000310 4.576750 
# 
# 
# High freq. dielectric constant tensor:
#      x y z
#    x 1.986560 0.000000 0.000000 
#    y 0.000000 1.988390 -0.000010 
#    z 0.000000 -0.000010 1.983360 
# 
# From -- ./inp_files/7428.got.cif
#   From: 2010.03.12/outbox.cif.g09.slc.cpg/sg23_4_cif.got.tgz:7428.got - 2010.04.14 02:50:06.
