data_PCOD8163609
_publ_section_title
;
Structure prediction by ZEFSAII (Michael W. Deem and Ramdas Pophale) SiO2 
 PCOD8163609
Probable space group: I 2 2 2
;
_chemical_formula_sum "Si O2"
_cell_formula_units_Z 34
_cell_length_a 10.112361
_cell_length_b 16.215879
_cell_length_c 10.656808
_cell_angle_alpha 90.000000
_cell_angle_beta 90.000000
_cell_angle_gamma 90.000000
_cell_volume 1747.512140
_symmetry_space_group_name_H-M "I 2 2 2"
_symmetry_group_IT_number 23
_symmetry_cell_setting 'orthorhombic'
loop_
_space_group_symop_operation_xyz
x,y,z
-x,-y,z
x,-y,-z
-x,y,-z
1/2+x,1/2+y,1/2+z
1/2-x,1/2-y,1/2+z
1/2+x,1/2-y,1/2-z
1/2-x,1/2+y,1/2-z
loop_
_atom_site_type_symbol
_atom_site_label
_atom_site_fract_x
_atom_site_fract_y
_atom_site_fract_z
Si Si1 0.254289 0.587650 0.336233
Si Si2 0.498743 0.315362 0.357414
Si Si3 0.000000 0.500000 0.000000
Si Si4 0.986880 0.373310 0.800219
Si Si5 0.743005 0.100981 0.121996
O O1 0.383408 0.636835 0.284345
O O2 0.221223 0.621398 0.475235
O O3 0.287628 0.491769 0.348781
O O4 0.135994 0.602144 0.237744
O O5 0.500000 0.347580 0.500000
O O6 0.518542 0.218241 0.352786
O O7 0.353012 0.341513 0.309095
O O8 0.925519 0.563862 0.094369
O O9 0.899631 0.379481 0.677152
#
# Coordination Sequence:
#
# PCOD8163609 Si02
#       5
#     8   8   2   8   8
#     4  10  20  36  59  83 107 139 181 229 273 312
#     4  10  21  35  56  84 112 140 177 225 275 320
#     4  12  24  36  58  78 110 152 180 212 268 328
#     4  12  21  38  56  80 111 147 185 216 262 327
#     4  10  20  36  59  83 107 139 181 229 273 312
#
# _framework density 19.456230999999999
#
# number of rings (size 3 to 8) (size 9 to 14) (size 15 to 20)
#    0.000    1.412    3.529    2.824    0.000    4.706 
#    0.000    0.000    0.000    1.412    0.000    0.000 
#    0.000    0.000    0.000    0.000    0.000    0.000 
#
# Total GULP energy -210672.999074 kJ/mol
# GULP energy per Si atom -12392.529357 kJ/mol
# Density = 1.941195 g / cm^3
# Si number density = 19.456231 Si / 1000 Ang^3
#
#
#
# Elastic Constant Matrix: (Units=GPa)
#
#
# Indices 1 2 3 4 5 6 
#
# 1 88.1136 33.3986 22.9483 -0.0005 -0.0003 0.0005
# 2 33.3986 108.2503 11.4038 0.0002 0.0000 -0.0001
# 3 22.9483 11.4038 52.6203 0.0002 0.0000 -0.0004
# 4 -0.0005 0.0002 0.0002 26.9222 0.0003 -0.0009
# 5 -0.0003 0.0000 0.0000 0.0003 11.1896 -0.0003
# 6 0.0005 -0.0001 -0.0004 -0.0009 -0.0003 30.8780
#
#
#
# Elastic Compliance Matrix: (Units=1/GPa)
#
#
# Indices 1 2 3 4 5 6 
#
# 1 0.014191 -0.003813 -0.005362 0.000000 0.000000 0.000000
# 2 -0.003813 0.010478 -0.000608 0.000000 0.000000 0.000000
# 3 -0.005362 -0.000608 0.021474 0.000000 0.000000 0.000000
# 4 0.000000 0.000000 0.000000 0.037144 -0.000001 0.000001
# 5 0.000000 0.000000 0.000000 -0.000001 0.089369 0.000001
# 6 0.000000 0.000000 0.000000 0.000001 0.000001 0.032385
#
#
# Mechanical properties :
#
#
# Convention : Reuss Voigt Hill
#
# Bulk Modulus (GPa) = 37.62717 42.72064 40.17390
# Shear Modulus (GPa) = 21.41616 25.88018 23.64817
#
# Velocity S-wave (km/s) = 3.32133 3.65111 3.49012
# Velocity P-wave (km/s) = 5.83864 6.30707 6.07737
#
# Compressibility (1/GPa) = 0.02657654
#
# Stress axis : x y z
#
# Youngs Moduli (GPa) = 70.46704 95.43392 46.56705
#
# Poissons Ratio (x) = 0.36393 0.24971
# Poissons Ratio (y) = 0.26872 0.02830
# Poissons Ratio (z) = 0.37787 0.05800
#
# Static dielectric constant tensor:
#      x y z
#    x 3.587930 0.000000 0.000000 
#    y 0.000000 3.620600 0.000000 
#    z 0.000000 0.000000 3.537520 
# 
# 
# High freq. dielectric constant tensor:
#      x y z
#    x 1.750560 0.000000 0.000000 
#    y 0.000000 1.773840 0.000000 
#    z 0.000000 0.000000 1.731440 
# 
# From -- ./inp_files/7958.got.cif
#   From: 2010.03.12/outbox.cif.g09.slc.cpg/sg23_4_cif.got.tgz:7958.got - 2010.04.14 02:50:06.
