data_PCOD8163726
_publ_section_title
;
Structure prediction by ZEFSAII (Michael W. Deem and Ramdas Pophale) SiO2 
 PCOD8163726
Probable space group: I 2 2 2
;
_chemical_formula_sum "Si O2"
_cell_formula_units_Z 40
_cell_length_a 15.320032
_cell_length_b 12.754738
_cell_length_c 8.124939
_cell_angle_alpha 90.000000
_cell_angle_beta 90.000000
_cell_angle_gamma 90.000000
_cell_volume 1587.637409
_symmetry_space_group_name_H-M "I 2 2 2"
_symmetry_group_IT_number 23
_symmetry_cell_setting 'orthorhombic'
loop_
_space_group_symop_operation_xyz
x,y,z
-x,-y,z
x,-y,-z
-x,y,-z
1/2+x,1/2+y,1/2+z
1/2-x,1/2-y,1/2+z
1/2+x,1/2-y,1/2-z
1/2-x,1/2+y,1/2-z
loop_
_atom_site_type_symbol
_atom_site_label
_atom_site_fract_x
_atom_site_fract_y
_atom_site_fract_z
Si Si1 0.819649 0.790921 0.641164
Si Si2 0.569832 0.321601 0.146013
Si Si3 0.349513 0.495695 0.305645
Si Si4 0.371917 0.141692 0.658475
Si Si5 0.835341 0.422723 0.207320
O O1 0.836593 0.810979 0.448252
O O2 0.719869 0.801007 0.694238
O O3 0.851863 0.671552 0.667442
O O4 0.873415 0.876720 0.750880
O O5 0.570314 0.428812 0.251837
O O6 0.556154 0.223636 0.272318
O O7 0.500000 0.321267 0.000000
O O8 0.333333 0.500000 0.500000
O O9 0.265020 0.537238 0.205878
O O10 0.373041 0.119256 0.465134
O O11 0.386552 0.030592 0.753140
#
# Coordination Sequence:
#
# PCOD8163726 Si02
#       5
#     8   8   8   8   8
#     4  11  21  38  65 101 139 185 254 304 375 448
#     4  12  26  44  67 102 152 201 244 305 386 464
#     4  11  23  39  67 103 145 192 248 315 380 445
#     4  10  20  40  65  99 140 183 251 307 370 441
#     4  10  21  37  68 104 137 182 248 317 367 438
#
# _framework density 25.194668
#
# number of rings (size 3 to 8) (size 9 to 14) (size 15 to 20)
#    0.000    1.200    4.000    1.800    5.600    1.600 
#    0.000    7.000    0.000    2.400    0.000    0.000 
#    0.000    0.000    0.000    0.000    0.000    0.000 
#
# Total GULP energy -247781.020021 kJ/mol
# GULP energy per Si atom -12389.051001 kJ/mol
# Density = 2.513732 g / cm^3
# Si number density = 25.194668 Si / 1000 Ang^3
#
#
#
# Elastic Constant Matrix: (Units=GPa)
#
#
# Indices 1 2 3 4 5 6 
#
# 1 33.3228 11.3386 6.3960 0.0000 0.0000 0.0000
# 2 11.3386 157.6418 9.1691 0.0000 0.0000 0.0000
# 3 6.3960 9.1691 72.6419 0.0000 0.0000 0.0000
# 4 0.0000 0.0000 0.0000 52.9895 0.0000 0.0000
# 5 0.0000 0.0000 0.0000 0.0000 35.8688 0.0000
# 6 0.0000 0.0000 0.0000 0.0000 0.0000 12.4893
#
#
#
# Elastic Compliance Matrix: (Units=1/GPa)
#
#
# Indices 1 2 3 4 5 6 
#
# 1 0.031200 -0.002100 -0.002482 0.000000 0.000000 0.000000
# 2 -0.002100 0.006532 -0.000640 0.000000 0.000000 0.000000
# 3 -0.002482 -0.000640 0.014065 0.000000 0.000000 0.000000
# 4 0.000000 0.000000 0.000000 0.018872 0.000000 0.000000
# 5 0.000000 0.000000 0.000000 0.000000 0.027879 0.000000
# 6 0.000000 0.000000 0.000000 0.000000 0.000000 0.080068
#
#
# Mechanical properties :
#
#
# Convention : Reuss Voigt Hill
#
# Bulk Modulus (GPa) = 24.18104 35.26819 29.72461
# Shear Modulus (GPa) = 24.64938 36.04971 30.34955
#
# Velocity S-wave (km/s) = 3.13126 3.78676 3.47450
# Velocity P-wave (km/s) = 4.76357 5.75743 5.28392
#
# Compressibility (1/GPa) = 0.04135472
#
# Stress axis : x y z
#
# Youngs Moduli (GPa) = 32.05085 153.09895 71.09631
#
# Poissons Ratio (x) = 0.32147 0.17647
# Poissons Ratio (y) = 0.06730 0.04547
# Poissons Ratio (z) = 0.07955 0.09792
#
# Static dielectric constant tensor:
#      x y z
#    x 4.130360 0.000000 0.000000 
#    y 0.000000 5.099100 0.000000 
#    z 0.000000 0.000000 4.413470 
# 
# 
# High freq. dielectric constant tensor:
#      x y z
#    x 1.961940 0.000000 0.000000 
#    y 0.000000 2.035270 0.000000 
#    z 0.000000 0.000000 1.994910 
# 
# From -- ./inp_files/10744.got.cif
#   From: 2010.03.12/outbox.cif.g09.slc.cpg/sg23_6_cif.got.tgz:10744.got - 2010.04.14 02:50:06.
