data_PCOD8163386
_publ_section_title
;
Structure prediction by ZEFSAII (Michael W. Deem and Ramdas Pophale) SiO2 
 PCOD8163386
Probable space group: I 2 2 2
;
_chemical_formula_sum "Si O2"
_cell_formula_units_Z 58
_cell_length_a 15.672945
_cell_length_b 9.949543
_cell_length_c 18.515106
_cell_angle_alpha 90.000000
_cell_angle_beta 90.000000
_cell_angle_gamma 90.000000
_cell_volume 2887.220453
_symmetry_space_group_name_H-M "I 2 2 2"
_symmetry_group_IT_number 23
_symmetry_cell_setting 'orthorhombic'
loop_
_space_group_symop_operation_xyz
x,y,z
-x,-y,z
x,-y,-z
-x,y,-z
1/2+x,1/2+y,1/2+z
1/2-x,1/2-y,1/2+z
1/2+x,1/2-y,1/2-z
1/2-x,1/2+y,1/2-z
loop_
_atom_site_type_symbol
_atom_site_label
_atom_site_fract_x
_atom_site_fract_y
_atom_site_fract_z
Si Si1 0.168673 0.775256 0.567452
Si Si2 0.682937 0.263801 0.907183
Si Si3 0.905732 0.495161 0.585626
Si Si4 0.327750 0.386848 0.449014
Si Si5 0.591194 0.556537 0.675397
Si Si6 0.601697 0.499198 0.167728
Si Si7 0.500000 0.000000 0.500000
Si Si8 0.884853 0.722336 0.068988
O O1 0.137770 0.792232 0.484444
O O2 0.126497 0.650890 0.609582
O O3 0.269120 0.740645 0.569030
O O4 0.147816 0.911415 0.607233
O O5 0.659771 0.109578 0.884901
O O6 0.639415 0.352365 0.844812
O O7 0.783611 0.296324 0.915645
O O8 0.910662 0.500000 0.500000
O O9 0.000000 0.500000 0.620209
O O10 0.279825 0.500000 0.500000
O O11 0.360241 0.454012 0.376689
O O12 0.401437 0.322822 0.500359
O O13 0.500000 0.500000 0.692253
O O14 0.634093 0.557186 0.754664
O O15 0.581247 0.705016 0.641495
O O16 0.500000 0.500000 0.157152
O O17 0.562038 0.913230 0.552711
#
# Coordination Sequence:
#
# PCOD8163386 Si02
#       8
#     8   8   8   8   8   8   2   8
#     4  10  19  33  57  83 116 153 201 249 294 350
#     4  10  21  37  59  88 124 158 201 260 301 359
#     4   9  16  29  52  80 112 153 199 245 291 339
#     4   9  18  36  63  87 107 146 197 250 306 362
#     4  10  21  40  60  82 120 158 201 246 300 369
#     4  11  24  37  56  84 124 167 203 239 297 363
#     4  12  24  36  66  96 118 152 196 272 336 372
#     4  10  22  38  63  91 120 149 201 261 321 371
#
# _framework density 20.088525000000001
#
# number of rings (size 3 to 8) (size 9 to 14) (size 15 to 20)
#    0.000    2.069    0.000    4.966    3.862    5.241 
#    0.000    0.000   10.621    0.000    0.000    0.000 
#    0.000    0.000    0.000    0.000    0.000    0.000 
#
# Total GULP energy -359303.635242 kJ/mol
# GULP energy per Si atom -12389.780526 kJ/mol
# Density = 2.004280 g / cm^3
# Si number density = 20.088525 Si / 1000 Ang^3
#
#
#
# Elastic Constant Matrix: (Units=GPa)
#
#
# Indices 1 2 3 4 5 6 
#
# 1 84.4164 32.2429 16.1472 0.0000 0.0000 0.0000
# 2 32.2429 101.9145 31.9088 0.0000 0.0000 0.0000
# 3 16.1472 31.9088 86.7894 0.0000 0.0000 0.0000
# 4 0.0000 0.0000 0.0000 171.2093 0.0000 0.0000
# 5 0.0000 0.0000 0.0000 0.0000 16.6207 0.0000
# 6 0.0000 0.0000 0.0000 0.0000 0.0000 38.5976
#
#
#
# Elastic Compliance Matrix: (Units=1/GPa)
#
#
# Indices 1 2 3 4 5 6 
#
# 1 0.013561 -0.003956 -0.001069 0.000000 0.000000 0.000000
# 2 -0.003956 0.012242 -0.003765 0.000000 0.000000 0.000000
# 3 -0.001069 -0.003765 0.013105 0.000000 0.000000 0.000000
# 4 0.000000 0.000000 0.000000 0.005841 0.000000 0.000000
# 5 0.000000 0.000000 0.000000 0.000000 0.060166 0.000000
# 6 0.000000 0.000000 0.000000 0.000000 0.000000 0.025908
#
#
# Mechanical properties :
#
#
# Convention : Reuss Voigt Hill
#
# Bulk Modulus (GPa) = 46.88258 48.19092 47.53675
# Shear Modulus (GPa) = 32.15161 58.14029 45.14595
#
# Velocity S-wave (km/s) = 4.00496 5.38562 4.74577
# Velocity P-wave (km/s) = 6.69141 7.91925 7.33108
#
# Compressibility (1/GPa) = 0.02132989
#
# Stress axis : x y z
#
# Youngs Moduli (GPa) = 73.73872 81.68277 76.30537
#
# Poissons Ratio (x) = 0.32312 0.08155
# Poissons Ratio (y) = 0.29170 0.28729
# Poissons Ratio (z) = 0.07881 0.30754
#
# Static dielectric constant tensor:
#      x y z
#    x 3.006680 0.000000 0.000000 
#    y 0.000000 3.695110 0.000000 
#    z 0.000000 0.000000 3.607280 
# 
# 
# High freq. dielectric constant tensor:
#      x y z
#    x 1.783270 0.000000 0.000000 
#    y 0.000000 1.784960 0.000000 
#    z 0.000000 0.000000 1.752760 
# 
# From -- ./inp_files/25081.got.cif
#   From: 2010.03.12/outbox.cif.g09.slc.cpg/sg23_13_cif.got.tgz:25081.got - 2010.04.14 02:50:06.
