data_PCOD8164519
_publ_section_title
;
Structure prediction by ZEFSAII (Michael W. Deem and Ramdas Pophale) SiO2 
 PCOD8164519
Probable space group: I 2 2 2
;
_chemical_formula_sum "Si O2"
_cell_formula_units_Z 30
_cell_length_a 5.043726
_cell_length_b 20.422277
_cell_length_c 10.989036
_cell_angle_alpha 90.000000
_cell_angle_beta 90.000000
_cell_angle_gamma 90.000000
_cell_volume 1131.918724
_symmetry_space_group_name_H-M "I 2 2 2"
_symmetry_group_IT_number 23
_symmetry_cell_setting 'orthorhombic'
loop_
_space_group_symop_operation_xyz
x,y,z
-x,-y,z
x,-y,-z
-x,y,-z
1/2+x,1/2+y,1/2+z
1/2-x,1/2-y,1/2+z
1/2+x,1/2-y,1/2-z
1/2-x,1/2+y,1/2-z
loop_
_atom_site_type_symbol
_atom_site_label
_atom_site_fract_x
_atom_site_fract_y
_atom_site_fract_z
Si Si1 0.000000 0.285326 0.500000
Si Si2 0.000000 0.700093 0.000000
Si Si3 0.500000 0.000000 0.847445
Si Si4 0.675932 0.613450 0.614717
Si Si5 0.000000 0.000000 0.500000
Si Si6 0.237110 0.100511 0.679870
O O1 0.752080 0.241771 0.546755
O O2 0.914231 0.332684 0.386939
O O3 0.890329 0.659542 0.115326
O O4 0.733636 0.037605 0.920292
O O5 0.430040 0.064404 0.771693
O O6 0.500000 0.635137 0.500000
O O7 0.526655 0.620476 0.744703
O O8 0.180814 0.046500 0.579426
#
# Coordination Sequence:
#
# PCOD8164519 Si02
#       6
#     4   4   4   8   2   8
#     4  12  29  59  84 119 179 234 302 346 426 540
#     4  12  30  57  84 127 176 232 296 354 432 530
#     4  12  26  48  84 128 162 217 279 366 442 502
#     4  12  28  56  82 130 173 234 295 361 440 520
#     4  12  22  54  82 130 166 198 284 346 472 502
#     4  12  27  51  87 123 171 221 277 373 434 525
#
# _framework density 26.503671000000001
#
# number of rings (size 3 to 8) (size 9 to 14) (size 15 to 20)
#    0.000    0.000    4.000    4.000    3.733    8.000 
#    9.600    0.000    0.000    0.000    0.000    0.000 
#    0.000    0.000    0.000    0.000    0.000    0.000 
#
# Total GULP energy -185854.346522 kJ/mol
# GULP energy per Si atom -12390.289768 kJ/mol
# Density = 2.644335 g / cm^3
# Si number density = 26.503671 Si / 1000 Ang^3
#
#
#
# Elastic Constant Matrix: (Units=GPa)
#
#
# Indices 1 2 3 4 5 6 
#
# 1 173.3347 102.4627 57.0278 0.0000 0.0000 0.0000
# 2 102.4627 201.6803 76.7107 0.0000 0.0000 0.0000
# 3 57.0278 76.7107 125.9535 0.0000 0.0001 0.0002
# 4 0.0000 0.0000 0.0000 24.2430 0.0000 0.0000
# 5 0.0000 0.0000 0.0001 0.0000 15.0487 -0.0001
# 6 0.0000 0.0000 0.0002 0.0000 -0.0001 89.6935
#
#
#
# Elastic Compliance Matrix: (Units=1/GPa)
#
#
# Indices 1 2 3 4 5 6 
#
# 1 0.008481 -0.003707 -0.001582 0.000000 0.000000 0.000000
# 2 -0.003707 0.008073 -0.003239 0.000000 0.000000 0.000000
# 3 -0.001582 -0.003239 0.010628 0.000000 0.000000 0.000000
# 4 0.000000 0.000000 0.000000 0.041249 0.000000 0.000000
# 5 0.000000 0.000000 0.000000 0.000000 0.066451 0.000000
# 6 0.000000 0.000000 0.000000 0.000000 0.000000 0.011149
#
#
# Mechanical properties :
#
#
# Convention : Reuss Voigt Hill
#
# Bulk Modulus (GPa) = 98.74535 108.15233 103.44884
# Shear Modulus (GPa) = 30.03669 43.44822 36.74246
#
# Velocity S-wave (km/s) = 3.37011 4.05325 3.72737
# Velocity P-wave (km/s) = 7.24442 7.92466 7.59216
#
# Compressibility (1/GPa) = 0.01012706
#
# Stress axis : x y z
#
# Youngs Moduli (GPa) = 117.91050 123.86230 94.08803
#
# Poissons Ratio (x) = 0.45915 0.14887
# Poissons Ratio (y) = 0.43708 0.30472
# Poissons Ratio (z) = 0.18657 0.40115
#
# Static dielectric constant tensor:
#      x y z
#    x 5.145020 0.000000 0.000000 
#    y 0.000000 5.096180 0.000000 
#    z 0.000000 0.000000 3.774390 
# 
# 
# High freq. dielectric constant tensor:
#      x y z
#    x 2.084070 0.000000 0.000000 
#    y 0.000000 2.086080 0.000000 
#    z 0.000000 0.000000 2.057780 
# 
# From -- ./inp_files/13750.got.cif
#   From: 2010.03.12/outbox.cif.g09.slc.cpg/sg23_7_cif.got.tgz:13750.got - 2010.04.14 02:50:06.
