data_PCOD8164997
_publ_section_title
;
Structure prediction by ZEFSAII (Michael W. Deem and Ramdas Pophale) SiO2 
 PCOD8164997
Probable space group: I 21 21 21
;
_chemical_formula_sum "Si O2"
_cell_formula_units_Z 56
_cell_length_a 16.287845
_cell_length_b 20.861385
_cell_length_c 8.562551
_cell_angle_alpha 90.000000
_cell_angle_beta 90.000000
_cell_angle_gamma 90.000000
_cell_volume 2909.443563
_symmetry_space_group_name_H-M "I 21 21 21"
_symmetry_group_IT_number 24
_symmetry_cell_setting 'orthorhombic'
loop_
_space_group_symop_operation_xyz
x,y,z
-x,1/2-y,z
x,-y,1/2-z
1/2-x,y,-z
1/2+x,1/2+y,1/2+z
1/2-x,-y,1/2+z
1/2+x,1/2-y,-z
-x,1/2+y,1/2-z
loop_
_atom_site_type_symbol
_atom_site_label
_atom_site_fract_x
_atom_site_fract_y
_atom_site_fract_z
Si Si1 0.928537 0.097329 0.543214
Si Si2 0.580296 0.569785 0.228461
Si Si3 0.918191 0.786572 0.744121
Si Si4 0.164491 0.520643 0.427814
Si Si5 0.021625 0.822046 0.182592
Si Si6 0.162525 0.819536 0.924602
Si Si7 0.526838 0.126160 0.994673
O O1 0.899689 0.145049 0.678259
O O2 0.013275 0.062752 0.591073
O O3 0.943746 0.140830 0.391245
O O4 0.860354 0.043334 0.521665
O O5 0.619987 0.500000 0.250000
O O6 0.654240 0.615870 0.176240
O O7 0.536197 0.597518 0.380863
O O8 0.846605 0.738365 0.797613
O O9 0.930048 0.807732 0.562542
O O10 0.000000 0.750000 0.807714
O O11 0.175392 0.500000 0.250000
O O12 0.250000 0.545758 0.500000
O O13 0.096571 0.575653 0.445910
O O14 0.000000 0.750000 0.218828
O O15 0.032674 0.856649 0.349601
O O16 0.099205 0.822529 0.068093
O O17 0.250000 0.812625 0.000000
#
# Coordination Sequence:
#
# PCOD8164997 Si02
#       7
#     8   8   8   8   8   8   8
#     4  10  19  37  63  85 120 168 212 241 304 387
#     4  10  20  38  68  88 115 164 216 253 310 379
#     4  11  19  39  66  91 118 166 216 250 313 379
#     4  12  27  41  58  96 136 166 210 265 321 378
#     4  11  20  40  63  92 119 163 219 257 298 388
#     4  11  23  42  64  93 128 167 206 265 326 379
#     4  11  23  38  68  92 121 170 216 261 305 374
#
# _framework density 19.247667
#
# number of rings (size 3 to 8) (size 9 to 14) (size 15 to 20)
#    0.000    1.143    8.571    0.429    4.000    0.571 
#    2.571    2.143    0.000    0.000    0.000    0.000 
#    0.000    0.000    0.000    0.000    0.000    0.000 
#
# Total GULP energy -346948.549751 kJ/mol
# GULP energy per Si atom -12391.019634 kJ/mol
# Density = 1.920386 g / cm^3
# Si number density = 19.247667 Si / 1000 Ang^3
#
#
#
# Elastic Constant Matrix: (Units=GPa)
#
#
# Indices 1 2 3 4 5 6 
#
# 1 56.0145 26.6606 15.0428 0.0000 0.0000 0.0000
# 2 26.6606 121.5368 31.0013 0.0000 0.0000 0.0000
# 3 15.0428 31.0013 96.9814 0.0000 0.0000 0.0000
# 4 0.0000 0.0000 0.0000 26.2589 0.0000 0.0000
# 5 0.0000 0.0000 0.0000 0.0000 22.2291 0.0000
# 6 0.0000 0.0000 0.0000 0.0000 0.0000 22.3231
#
#
#
# Elastic Compliance Matrix: (Units=1/GPa)
#
#
# Indices 1 2 3 4 5 6 
#
# 1 0.020242 -0.003962 -0.001873 0.000000 0.000000 0.000000
# 2 -0.003962 0.009734 -0.002497 0.000000 0.000000 0.000000
# 3 -0.001873 -0.002497 0.011400 0.000000 0.000000 0.000000
# 4 0.000000 0.000000 0.000000 0.038082 0.000000 0.000000
# 5 0.000000 0.000000 0.000000 0.000000 0.044986 0.000000
# 6 0.000000 0.000000 0.000000 0.000000 0.000000 0.044797
#
#
# Mechanical properties :
#
#
# Convention : Reuss Voigt Hill
#
# Bulk Modulus (GPa) = 40.46843 46.66023 43.56433
# Shear Modulus (GPa) = 25.75429 27.61742 26.68586
#
# Velocity S-wave (km/s) = 3.66190 3.79204 3.72754
# Velocity P-wave (km/s) = 6.24100 6.59298 6.41941
#
# Compressibility (1/GPa) = 0.02471062
#
# Stress axis : x y z
#
# Youngs Moduli (GPa) = 49.40342 102.73157 87.71945
#
# Poissons Ratio (x) = 0.40707 0.16430
# Poissons Ratio (y) = 0.19576 0.21904
# Poissons Ratio (z) = 0.09253 0.25652
#
# Static dielectric constant tensor:
#      x y z
#    x 3.144070 0.000000 0.000000 
#    y 0.000000 3.832350 0.000000 
#    z 0.000000 0.000000 3.780950 
# 
# 
# High freq. dielectric constant tensor:
#      x y z
#    x 1.701550 0.000000 0.000000 
#    y 0.000000 1.767290 0.000000 
#    z 0.000000 0.000000 1.759520 
# 
# From -- ./inp_files/13121.got.cif
#   From: 2010.03.12/outbox.cif.g09.slc.cpg/sg24_7_cif.got.tgz:13121.got - 2010.04.14 03:06:53.
