data_PCOD8164419
_publ_section_title
;
Structure prediction by ZEFSAII (Michael W. Deem and Ramdas Pophale) SiO2 
 PCOD8164419
Probable space group: I 2 2 2
;
_chemical_formula_sum "Si O2"
_cell_formula_units_Z 40
_cell_length_a 8.634561
_cell_length_b 20.652605
_cell_length_c 10.050387
_cell_angle_alpha 90.000000
_cell_angle_beta 90.000000
_cell_angle_gamma 90.000000
_cell_volume 1792.247098
_symmetry_space_group_name_H-M "I 2 2 2"
_symmetry_group_IT_number 23
_symmetry_cell_setting 'orthorhombic'
loop_
_space_group_symop_operation_xyz
x,y,z
-x,-y,z
x,-y,-z
-x,y,-z
1/2+x,1/2+y,1/2+z
1/2-x,1/2-y,1/2+z
1/2+x,1/2-y,1/2-z
1/2-x,1/2+y,1/2-z
loop_
_atom_site_type_symbol
_atom_site_label
_atom_site_fract_x
_atom_site_fract_y
_atom_site_fract_z
Si Si1 0.893465 0.128295 0.609643
Si Si2 0.562111 0.126221 0.142695
Si Si3 0.000000 0.500000 0.781646
Si Si4 0.418128 0.794406 0.635218
Si Si5 0.751350 0.500000 0.000000
Si Si6 0.085780 0.141412 0.865954
O O1 0.747416 0.171778 0.646981
O O2 0.000000 0.165553 0.500000
O O3 0.988243 0.113755 0.743345
O O4 0.851097 0.061166 0.538579
O O5 0.468571 0.062361 0.189685
O O6 0.527700 0.184913 0.243253
O O7 0.744092 0.110466 0.136464
O O8 0.500000 0.148076 0.000000
O O9 0.854335 0.481796 0.872614
O O10 0.500000 0.817591 0.500000
O O11 0.396113 0.718319 0.641334
O O12 0.000000 0.119590 0.000000
#
# Coordination Sequence:
#
# PCOD8164419 Si02
#       6
#     8   8   4   8   4   8
#     4  12  24  41  69 107 140 181 239 298 358 421
#     4  12  25  44  70  99 139 190 237 288 355 432
#     4  11  23  44  72 100 132 184 240 286 346 444
#     4  11  23  44  70 102 140 192 238 290 355 436
#     4  11  23  42  74 100 136 184 236 296 356 426
#     4  11  26  44  69 105 146 181 236 299 367 421
#
# _framework density 22.318352000000001
#
# number of rings (size 3 to 8) (size 9 to 14) (size 15 to 20)
#    0.000    0.600    2.000    6.600    0.000    6.400 
#    0.000    0.000    0.000    0.000    0.000    0.000 
#    0.000    0.000    0.000    0.000    0.000    0.000 
#
# Total GULP energy -248142.192705 kJ/mol
# GULP energy per Si atom -12407.109635 kJ/mol
# Density = 2.226755 g / cm^3
# Si number density = 22.318352 Si / 1000 Ang^3
#
#
#
# Elastic Constant Matrix: (Units=GPa)
#
#
# Indices 1 2 3 4 5 6 
#
# 1 143.7817 14.7771 64.9929 0.0000 0.0000 0.0000
# 2 14.7771 64.6506 27.4081 -0.0001 0.0000 0.0000
# 3 64.9929 27.4081 185.9807 -0.0009 0.0000 -0.0001
# 4 0.0000 -0.0001 -0.0009 34.5594 0.0000 0.0000
# 5 0.0000 0.0000 0.0000 0.0000 37.7773 0.0000
# 6 0.0000 0.0000 -0.0001 0.0000 0.0000 24.2322
#
#
#
# Elastic Compliance Matrix: (Units=1/GPa)
#
#
# Indices 1 2 3 4 5 6 
#
# 1 0.008290 -0.000711 -0.002792 0.000000 0.000000 0.000000
# 2 -0.000711 0.016560 -0.002192 0.000000 0.000000 0.000000
# 3 -0.002792 -0.002192 0.006676 0.000000 0.000000 0.000000
# 4 0.000000 0.000000 0.000000 0.028936 0.000000 0.000000
# 5 0.000000 0.000000 0.000000 0.000000 0.026471 0.000000
# 6 0.000000 0.000000 0.000000 0.000000 0.000000 0.041267
#
#
# Mechanical properties :
#
#
# Convention : Reuss Voigt Hill
#
# Bulk Modulus (GPa) = 49.66504 67.64102 58.65303
# Shear Modulus (GPa) = 34.17592 38.46276 36.31934
#
# Velocity S-wave (km/s) = 3.91742 4.15585 4.03840
# Velocity P-wave (km/s) = 6.53933 7.30762 6.93412
#
# Compressibility (1/GPa) = 0.02013489
#
# Stress axis : x y z
#
# Youngs Moduli (GPa) = 120.62327 60.38820 149.79628
#
# Poissons Ratio (x) = 0.04294 0.41828
# Poissons Ratio (y) = 0.08578 0.32834
# Poissons Ratio (z) = 0.33682 0.13236
#
# Static dielectric constant tensor:
#      x y z
#    x 4.234340 0.000000 0.000000 
#    y 0.000000 3.808460 0.000000 
#    z 0.000000 0.000000 4.258670 
# 
# 
# High freq. dielectric constant tensor:
#      x y z
#    x 1.894210 0.000000 0.000000 
#    y 0.000000 1.867290 0.000000 
#    z 0.000000 0.000000 1.896710 
# 
# From -- ./inp_files/7134.got.cif
#   From: 2010.03.12/outbox.cif.g09.slc.cpg/sg23_4_cif.got.tgz:7134.got - 2010.04.14 02:50:06.
