data_PCOD8164449
_publ_section_title
;
Structure prediction by ZEFSAII (Michael W. Deem and Ramdas Pophale) SiO2 
 PCOD8164449
Probable space group: I 2 2 2
;
_chemical_formula_sum "Si O2"
_cell_formula_units_Z 34
_cell_length_a 18.830697
_cell_length_b 4.977675
_cell_length_c 15.316141
_cell_angle_alpha 90.000000
_cell_angle_beta 90.000000
_cell_angle_gamma 90.000000
_cell_volume 1435.629218
_symmetry_space_group_name_H-M "I 2 2 2"
_symmetry_group_IT_number 23
_symmetry_cell_setting 'orthorhombic'
loop_
_space_group_symop_operation_xyz
x,y,z
-x,-y,z
x,-y,-z
-x,y,-z
1/2+x,1/2+y,1/2+z
1/2-x,1/2-y,1/2+z
1/2+x,1/2-y,1/2-z
1/2-x,1/2+y,1/2-z
loop_
_atom_site_type_symbol
_atom_site_label
_atom_site_fract_x
_atom_site_fract_y
_atom_site_fract_z
Si Si1 0.000000 0.500000 0.000000
Si Si2 0.282562 0.407175 0.593626
Si Si3 0.580415 0.458055 0.899508
Si Si4 0.126148 0.599516 0.122231
Si Si5 0.141450 0.465693 0.318165
O O1 0.053808 0.350885 0.933422
O O2 0.251113 0.500000 0.500000
O O3 0.343952 0.602678 0.625983
O O4 0.221980 0.426438 0.667833
O O5 0.317782 0.113218 0.580570
O O6 0.500000 0.500000 0.872146
O O7 0.593517 0.147097 0.880354
O O8 0.632420 0.654270 0.844908
O O9 0.596337 0.500000 0.000000
O O10 0.113221 0.497510 0.220099
#
# Coordination Sequence:
#
# PCOD8164449 Si02
#       5
#     2   8   8   8   8
#     4  12  28  50  72 102 154 194 234 290 360 430
#     4  12  23  46  70 104 140 185 242 296 359 412
#     4  11  24  43  66 103 142 182 232 288 365 429
#     4  12  27  46  70 105 141 191 243 291 353 421
#     4  12  25  44  74 103 139 187 237 302 346 426
#
# _framework density 23.682997
#
# number of rings (size 3 to 8) (size 9 to 14) (size 15 to 20)
#    0.000    0.235    2.353    7.059    3.294    3.765 
#    0.000    0.000    0.000    0.000    0.000    0.000 
#    0.000    0.000    0.000    0.000    0.000    0.000 
#
# Total GULP energy -210737.259328 kJ/mol
# GULP energy per Si atom -12396.309372 kJ/mol
# Density = 2.362909 g / cm^3
# Si number density = 23.682997 Si / 1000 Ang^3
#
#
#
# Elastic Constant Matrix: (Units=GPa)
#
#
# Indices 1 2 3 4 5 6 
#
# 1 126.3761 15.5979 51.8278 0.0000 0.0000 0.0000
# 2 15.5979 80.8615 12.7633 0.0000 0.0000 0.0000
# 3 51.8278 12.7633 109.6615 0.0000 0.0000 0.0000
# 4 0.0000 0.0000 0.0000 39.7953 0.0000 0.0000
# 5 0.0000 0.0000 0.0000 0.0000 62.4822 0.0000
# 6 0.0000 0.0000 0.0000 0.0000 0.0000 33.8181
#
#
#
# Elastic Compliance Matrix: (Units=1/GPa)
#
#
# Indices 1 2 3 4 5 6 
#
# 1 0.009928 -0.001196 -0.004553 0.000000 0.000000 0.000000
# 2 -0.001196 0.012742 -0.000918 0.000000 0.000000 0.000000
# 3 -0.004553 -0.000918 0.011377 0.000000 0.000000 0.000000
# 4 0.000000 0.000000 0.000000 0.025129 0.000000 0.000000
# 5 0.000000 0.000000 0.000000 0.000000 0.016005 0.000000
# 6 0.000000 0.000000 0.000000 0.000000 0.000000 0.029570
#
#
# Mechanical properties :
#
#
# Convention : Reuss Voigt Hill
#
# Bulk Modulus (GPa) = 48.27638 53.03078 50.65358
# Shear Modulus (GPa) = 40.00355 42.99980 41.50168
#
# Velocity S-wave (km/s) = 4.11436 4.26566 4.19069
# Velocity P-wave (km/s) = 6.55738 6.83386 6.69705
#
# Compressibility (1/GPa) = 0.02071406
#
# Stress axis : x y z
#
# Youngs Moduli (GPa) = 100.72868 78.47783 87.89303
#
# Poissons Ratio (x) = 0.09389 0.40015
# Poissons Ratio (y) = 0.12051 0.08065
# Poissons Ratio (z) = 0.45859 0.07201
#
# Static dielectric constant tensor:
#      x y z
#    x 4.263640 0.000000 0.000000 
#    y 0.000000 4.124670 0.000000 
#    z 0.000000 0.000000 4.413800 
# 
# 
# High freq. dielectric constant tensor:
#      x y z
#    x 1.934880 0.000000 0.000000 
#    y 0.000000 1.941480 0.000000 
#    z 0.000000 0.000000 1.955390 
# 
# From -- ./inp_files/21865.got.cif
#   From: 2010.03.12/outbox.cif.g09.slc.cpg/sg23_11_cif.got.tgz:21865.got - 2010.04.14 02:50:06.
