data_PCOD8164369
_publ_section_title
;
Structure prediction by ZEFSAII (Michael W. Deem and Ramdas Pophale) SiO2 
 PCOD8164369
Probable space group: I 2 2 2
;
_chemical_formula_sum "Si O2"
_cell_formula_units_Z 26
_cell_length_a 7.063588
_cell_length_b 7.436714
_cell_length_c 21.718913
_cell_angle_alpha 90.000000
_cell_angle_beta 90.000000
_cell_angle_gamma 90.000000
_cell_volume 1140.891975
_symmetry_space_group_name_H-M "I 2 2 2"
_symmetry_group_IT_number 23
_symmetry_cell_setting 'orthorhombic'
loop_
_space_group_symop_operation_xyz
x,y,z
-x,-y,z
x,-y,-z
-x,y,-z
1/2+x,1/2+y,1/2+z
1/2-x,1/2-y,1/2+z
1/2+x,1/2-y,1/2-z
1/2-x,1/2+y,1/2-z
loop_
_atom_site_type_symbol
_atom_site_label
_atom_site_fract_x
_atom_site_fract_y
_atom_site_fract_z
Si Si1 0.743461 0.139413 0.681865
Si Si2 0.828399 0.750507 0.679920
Si Si3 0.500000 0.000000 0.000000
Si Si4 0.805065 0.065970 0.091889
O O1 0.687652 0.179564 0.751248
O O2 0.630458 0.265403 0.634049
O O3 0.959469 0.188072 0.668459
O O4 0.697961 0.928433 0.669938
O O5 0.778156 0.593632 0.633392
O O6 0.356178 0.119977 0.958323
O O7 0.000000 0.000000 0.059863
#
# Coordination Sequence:
#
# PCOD8164369 Si02
#       4
#     8   8   2   8
#     4  11  22  38  65 102 141 176 221 285 351 406
#     4  11  22  38  65 102 141 176 221 285 351 406
#     4  12  26  52  70  94 148 186 238 274 326 430
#     4  12  25  45  71 100 133 185 233 278 343 406
#
# _framework density 22.789187999999999
#
# number of rings (size 3 to 8) (size 9 to 14) (size 15 to 20)
#    0.000    0.615    6.154    2.308    0.000    3.692 
#    0.000    3.077    0.000    3.692    0.000    0.000 
#    0.000    0.000    0.000    0.000    0.000    0.000 
#
# Total GULP energy -161142.345774 kJ/mol
# GULP energy per Si atom -12395.565060 kJ/mol
# Density = 2.273732 g / cm^3
# Si number density = 22.789188 Si / 1000 Ang^3
#
#
#
# Elastic Constant Matrix: (Units=GPa)
#
#
# Indices 1 2 3 4 5 6 
#
# 1 61.5802 2.9635 38.3333 0.0000 0.0000 0.0000
# 2 2.9635 143.7996 43.0137 0.0000 0.0000 0.0000
# 3 38.3333 43.0137 111.7390 0.0000 0.0000 0.0000
# 4 0.0000 0.0000 0.0000 4.8109 0.0000 0.0000
# 5 0.0000 0.0000 0.0000 0.0000 10.8106 0.0000
# 6 0.0000 0.0000 0.0000 0.0000 0.0000 32.4671
#
#
#
# Elastic Compliance Matrix: (Units=1/GPa)
#
#
# Indices 1 2 3 4 5 6 
#
# 1 0.021125 0.001958 -0.008001 0.000000 0.000000 0.000000
# 2 0.001958 0.008041 -0.003767 0.000000 0.000000 0.000000
# 3 -0.008001 -0.003767 0.013144 0.000000 0.000000 0.000000
# 4 0.000000 0.000000 0.000000 0.207862 0.000000 0.000000
# 5 0.000000 0.000000 0.000000 0.000000 0.092501 0.000000
# 6 0.000000 0.000000 0.000000 0.000000 0.000000 0.030800
#
#
# Mechanical properties :
#
#
# Convention : Reuss Voigt Hill
#
# Bulk Modulus (GPa) = 44.07172 53.97106 49.02139
# Shear Modulus (GPa) = 12.47948 25.13828 18.80888
#
# Velocity S-wave (km/s) = 2.34264 3.32487 2.87599
# Velocity P-wave (km/s) = 5.16702 6.20273 5.70841
#
# Compressibility (1/GPa) = 0.02269029
#
# Stress axis : x y z
#
# Youngs Moduli (GPa) = 47.33663 124.36991 76.07865
#
# Poissons Ratio (x) = -0.24351 0.60870
# Poissons Ratio (y) = -0.09268 0.28658
# Poissons Ratio (z) = 0.37874 0.46849
#
# Static dielectric constant tensor:
#      x y z
#    x 4.550440 0.000000 0.000000 
#    y 0.000000 4.466540 0.000000 
#    z 0.000000 0.000000 4.002370 
# 
# 
# High freq. dielectric constant tensor:
#      x y z
#    x 1.928790 0.000000 0.000000 
#    y 0.000000 1.892440 0.000000 
#    z 0.000000 0.000000 1.878760 
# 
# From -- ./inp_files/11546.got.cif
#   From: 2010.03.12/outbox.cif.g09.slc.cpg/sg23_6_cif.got.tgz:11546.got - 2010.04.14 02:50:06.
