data_PCOD8164545
_publ_section_title
;
Structure prediction by ZEFSAII (Michael W. Deem and Ramdas Pophale) SiO2 
 PCOD8164545
Probable space group: I 2 2 2
;
_chemical_formula_sum "Si O2"
_cell_formula_units_Z 44
_cell_length_a 7.979152
_cell_length_b 15.019700
_cell_length_c 15.975152
_cell_angle_alpha 90.000000
_cell_angle_beta 90.000000
_cell_angle_gamma 90.000000
_cell_volume 1914.533613
_symmetry_space_group_name_H-M "I 2 2 2"
_symmetry_group_IT_number 23
_symmetry_cell_setting 'orthorhombic'
loop_
_space_group_symop_operation_xyz
x,y,z
-x,-y,z
x,-y,-z
-x,y,-z
1/2+x,1/2+y,1/2+z
1/2-x,1/2-y,1/2+z
1/2+x,1/2-y,1/2-z
1/2-x,1/2+y,1/2-z
loop_
_atom_site_type_symbol
_atom_site_label
_atom_site_fract_x
_atom_site_fract_y
_atom_site_fract_z
Si Si1 0.500000 0.500000 0.290166
Si Si2 0.500000 0.000000 0.783162
Si Si3 0.487545 0.677459 0.212805
Si Si4 0.762090 0.460551 0.589555
Si Si5 0.000000 0.706760 0.000000
Si Si6 0.880127 0.333953 0.824478
Si Si7 0.650398 0.229256 0.059122
O O1 0.419506 0.577134 0.232262
O O2 0.602468 0.563107 0.354284
O O3 0.644825 0.031435 0.848871
O O4 0.563060 0.918618 0.728369
O O5 0.679087 0.674668 0.180358
O O6 0.468722 0.743925 0.291550
O O7 0.360414 0.710964 0.141707
O O8 0.715491 0.500000 0.500000
O O9 0.878912 0.374024 0.581007
O O10 0.054768 0.648432 0.919354
O O11 0.835758 0.766145 0.980848
O O12 0.500000 0.261961 0.000000
#
# Coordination Sequence:
#
# PCOD8164545 Si02
#       7
#     4   4   8   8   4   8   8
#     4  12  27  46  73 112 150 202 256 309 378 459
#     4  12  25  49  68 110 148 204 254 303 393 448
#     4  12  26  50  75 111 155 205 256 322 380 460
#     4  12  27  44  73 113 155 197 247 321 384 459
#     4  12  28  45  79 114 148 210 256 319 386 449
#     4  12  27  47  75 108 154 201 264 318 383 459
#     4  12  26  51  78 114 157 198 257 318 386 457
#
# _framework density 22.982099000000002
#
# number of rings (size 3 to 8) (size 9 to 14) (size 15 to 20)
#    0.000    0.000    5.455    3.818   10.182    0.364 
#    0.000    0.455    0.000    0.000    0.000    0.000 
#    0.000    0.000    0.000    0.000    0.000    0.000 
#
# Total GULP energy -272589.144977 kJ/mol
# GULP energy per Si atom -12390.415681 kJ/mol
# Density = 2.292979 g / cm^3
# Si number density = 22.982099 Si / 1000 Ang^3
#
#
#
# Elastic Constant Matrix: (Units=GPa)
#
#
# Indices 1 2 3 4 5 6 
#
# 1 118.9637 21.6572 45.2054 0.0000 0.0000 0.0000
# 2 21.6572 118.2113 45.6188 0.0000 0.0000 0.0000
# 3 45.2054 45.6188 151.9299 0.0000 0.0000 0.0000
# 4 0.0000 0.0000 0.0000 15.1896 0.0000 0.0000
# 5 0.0000 0.0000 0.0000 0.0000 43.8868 0.0000
# 6 0.0000 0.0000 0.0000 0.0000 0.0000 29.1513
#
#
#
# Elastic Compliance Matrix: (Units=1/GPa)
#
#
# Indices 1 2 3 4 5 6 
#
# 1 0.009534 -0.000737 -0.002615 0.000000 0.000000 0.000000
# 2 -0.000737 0.009625 -0.002671 0.000000 0.000000 0.000000
# 3 -0.002615 -0.002671 0.008162 0.000000 0.000000 0.000000
# 4 0.000000 0.000000 0.000000 0.065834 0.000000 0.000000
# 5 0.000000 0.000000 0.000000 0.000000 0.022786 0.000000
# 6 0.000000 0.000000 0.000000 0.000000 0.000000 0.034304
#
#
# Mechanical properties :
#
#
# Convention : Reuss Voigt Hill
#
# Bulk Modulus (GPa) = 65.46917 68.22976 66.84946
# Shear Modulus (GPa) = 29.87150 36.08711 32.97931
#
# Velocity S-wave (km/s) = 3.60915 3.96691 3.79225
# Velocity P-wave (km/s) = 6.77619 7.12281 6.95166
#
# Compressibility (1/GPa) = 0.01527437
#
# Stress axis : x y z
#
# Youngs Moduli (GPa) = 104.88795 103.89440 122.51821
#
# Poissons Ratio (x) = 0.07661 0.32043
# Poissons Ratio (y) = 0.07735 0.32720
# Poissons Ratio (z) = 0.27432 0.27747
#
# Static dielectric constant tensor:
#      x y z
#    x 4.593450 0.000000 0.000000 
#    y 0.000000 3.949740 0.000000 
#    z 0.000000 0.000000 4.427990 
# 
# 
# High freq. dielectric constant tensor:
#      x y z
#    x 1.922820 0.000000 0.000000 
#    y 0.000000 1.885370 0.000000 
#    z 0.000000 0.000000 1.928380 
# 
# From -- ./inp_files/23713.got.cif
#   From: 2010.03.12/outbox.cif.g09.slc.cpg/sg23_12_cif.got.tgz:23713.got - 2010.04.14 02:50:06.
