data_PCOD8164945
_publ_section_title
;
Structure prediction by ZEFSAII (Michael W. Deem and Ramdas Pophale) SiO2 
 PCOD8164945
Probable space group: I 21 21 21
;
_chemical_formula_sum "Si O2"
_cell_formula_units_Z 40
_cell_length_a 5.077580
_cell_length_b 16.285054
_cell_length_c 23.446513
_cell_angle_alpha 90.000000
_cell_angle_beta 90.000000
_cell_angle_gamma 90.000000
_cell_volume 1938.760847
_symmetry_space_group_name_H-M "I 21 21 21"
_symmetry_group_IT_number 24
_symmetry_cell_setting 'orthorhombic'
loop_
_space_group_symop_operation_xyz
x,y,z
-x,1/2-y,z
x,-y,1/2-z
1/2-x,y,-z
1/2+x,1/2+y,1/2+z
1/2-x,-y,1/2+z
1/2+x,1/2-y,-z
-x,1/2+y,1/2-z
loop_
_atom_site_type_symbol
_atom_site_label
_atom_site_fract_x
_atom_site_fract_y
_atom_site_fract_z
Si Si1 0.565420 0.154292 0.832514
Si Si2 0.935767 0.342982 0.775453
Si Si3 0.760643 0.305430 0.651432
Si Si4 0.767101 0.059835 0.935327
Si Si5 0.727230 0.452924 0.564955
O O1 0.500000 0.250000 0.825269
O O2 0.283493 0.113441 0.816357
O O3 0.682530 0.135568 0.895032
O O4 0.777902 0.116520 0.786884
O O5 0.835392 0.348738 0.710957
O O6 0.000000 0.250000 0.794650
O O7 0.500000 0.250000 0.658514
O O8 0.737452 0.374472 0.604501
O O9 0.000000 0.250000 0.630454
O O10 0.561490 0.987745 0.924370
O O11 0.750000 0.093247 0.000000
O O12 0.054790 0.022877 0.921520
O O13 0.750000 0.422491 0.500000
#
# Coordination Sequence:
#
# PCOD8164945 Si02
#       5
#     8   8   8   8   8
#     4  10  19  35  58  81 108 144 185 224 267 327
#     4   9  18  33  53  80 112 142 174 224 283 321
#     4  11  21  36  59  84 110 143 187 230 271 330
#     4  10  21  39  57  78 113 151 183 226 283 330
#     4  10  22  39  57  79 113 150 182 226 284 330
#
# _framework density 20.631734999999999
#
# number of rings (size 3 to 8) (size 9 to 14) (size 15 to 20)
#    0.000    2.000    0.000    5.400    0.000    0.800 
#    0.000   12.000    0.000    0.000    0.000    0.000 
#    0.000    0.000    0.000    0.000    0.000    0.000 
#
# Total GULP energy -247791.536172 kJ/mol
# GULP energy per Si atom -12389.576809 kJ/mol
# Density = 2.058478 g / cm^3
# Si number density = 20.631735 Si / 1000 Ang^3
#
#
#
# Elastic Constant Matrix: (Units=GPa)
#
#
# Indices 1 2 3 4 5 6 
#
# 1 135.0915 27.5313 65.7935 0.0000 0.0000 0.0000
# 2 27.5313 25.1363 37.4217 0.0000 0.0000 0.0000
# 3 65.7935 37.4217 121.6177 0.0000 0.0000 0.0000
# 4 0.0000 0.0000 0.0000 6.4948 0.0000 0.0000
# 5 0.0000 0.0000 0.0000 0.0000 42.5115 0.0000
# 6 0.0000 0.0000 0.0000 0.0000 0.0000 22.1388
#
#
#
# Elastic Compliance Matrix: (Units=1/GPa)
#
#
# Indices 1 2 3 4 5 6 
#
# 1 0.010460 -0.005596 -0.003937 0.000000 0.000000 0.000000
# 2 -0.005596 0.076406 -0.020483 0.000000 0.000000 0.000000
# 3 -0.003937 -0.020483 0.016655 0.000000 0.000000 0.000000
# 4 0.000000 0.000000 0.000000 0.153969 0.000000 0.000000
# 5 0.000000 0.000000 0.000000 0.000000 0.023523 0.000000
# 6 0.000000 0.000000 0.000000 0.000000 0.000000 0.045170
#
#
# Mechanical properties :
#
#
# Convention : Reuss Voigt Hill
#
# Bulk Modulus (GPa) = 22.99382 60.37094 41.68238
# Shear Modulus (GPa) = 12.47782 24.30227 18.39005
#
# Velocity S-wave (km/s) = 2.46191 3.43579 2.98878
# Velocity P-wave (km/s) = 4.38753 6.71299 5.67074
#
# Compressibility (1/GPa) = 0.04348994
#
# Stress axis : x y z
#
# Youngs Moduli (GPa) = 95.60018 13.08800 60.04200
#
# Poissons Ratio (x) = 0.07323 0.23639
# Poissons Ratio (y) = 0.53493 1.22984
# Poissons Ratio (z) = 0.37639 0.26808
#
# Static dielectric constant tensor:
#      x y z
#    x 4.505420 0.000000 0.000000 
#    y 0.000000 3.198160 0.000000 
#    z 0.000000 0.000000 3.794470 
# 
# 
# High freq. dielectric constant tensor:
#      x y z
#    x 1.845660 0.000000 0.000000 
#    y 0.000000 1.758900 0.000000 
#    z 0.000000 0.000000 1.809340 
# 
# From -- ./inp_files/34617.got.cif
#   From: 2010.03.12/outbox.cif.g09.slc.cpg/sg24_18_cif.got.tgz:34617.got - 2010.04.14 03:06:53.
