data_PCOD8164869
_publ_section_title
;
Structure prediction by ZEFSAII (Michael W. Deem and Ramdas Pophale) SiO2 
 PCOD8164869
Probable space group: I 21 21 21
;
_chemical_formula_sum "Si O2"
_cell_formula_units_Z 56
_cell_length_a 15.983992
_cell_length_b 21.662310
_cell_length_c 9.665607
_cell_angle_alpha 90.000000
_cell_angle_beta 90.000000
_cell_angle_gamma 90.000000
_cell_volume 3346.718258
_symmetry_space_group_name_H-M "I 21 21 21"
_symmetry_group_IT_number 24
_symmetry_cell_setting 'orthorhombic'
loop_
_space_group_symop_operation_xyz
x,y,z
-x,1/2-y,z
x,-y,1/2-z
1/2-x,y,-z
1/2+x,1/2+y,1/2+z
1/2-x,-y,1/2+z
1/2+x,1/2-y,-z
-x,1/2+y,1/2-z
loop_
_atom_site_type_symbol
_atom_site_label
_atom_site_fract_x
_atom_site_fract_y
_atom_site_fract_z
Si Si1 0.053577 0.311577 0.551306
Si Si2 0.032798 0.319580 0.243650
Si Si3 0.395400 0.147155 0.955066
Si Si4 0.655914 0.500000 0.250000
Si Si5 0.427823 0.127781 0.262617
Si Si6 0.750000 0.444071 0.000000
Si Si7 0.699555 0.730729 0.134259
Si Si8 0.688232 0.227852 0.886356
O O1 0.050312 0.343053 0.399469
O O2 0.146867 0.292420 0.596729
O O3 0.000000 0.250000 0.551802
O O4 0.015530 0.360061 0.660416
O O5 0.119421 0.322748 0.157791
O O6 0.000000 0.250000 0.249089
O O7 0.962766 0.361420 0.168639
O O8 0.322004 0.098029 0.932284
O O9 0.357025 0.215175 0.960849
O O10 0.442681 0.137522 0.099974
O O11 0.598314 0.442352 0.291103
O O12 0.714456 0.513298 0.380205
O O13 0.356193 0.173454 0.317524
O O14 0.764997 0.747789 0.251602
O O15 0.750000 0.708196 0.000000
O O16 0.750000 0.197500 0.000000
#
# Coordination Sequence:
#
# PCOD8164869 Si02
#       8
#     8   8   8   4   8   4   8   8
#     4   9  19  33  46  72  99 136 169 204 258 317
#     4   9  19  29  45  68 100 132 169 205 247 309
#     4  10  19  33  46  66  98 135 168 210 247 300
#     4  10  22  36  50  76  96 132 186 216 246 304
#     4  10  21  34  50  69 103 139 175 213 257 303
#     4  10  20  36  50  70  98 126 178 218 250 300
#     4  11  20  31  50  74 108 134 167 212 258 313
#     4  11  18  29  46  72  99 136 166 199 251 306
#
# _framework density 16.732811000000002
#
# number of rings (size 3 to 8) (size 9 to 14) (size 15 to 20)
#    0.000    2.000    3.571    0.857    5.000    2.857 
#    0.000    0.000    0.000    0.000    0.000    0.000 
#    8.571    0.000    0.000    0.000    0.000    0.000 
#
# Total GULP energy -347192.876746 kJ/mol
# GULP energy per Si atom -12399.745598 kJ/mol
# Density = 1.669473 g / cm^3
# Si number density = 16.732811 Si / 1000 Ang^3
#
#
#
# Elastic Constant Matrix: (Units=GPa)
#
#
# Indices 1 2 3 4 5 6 
#
# 1 64.9875 34.3772 21.5368 0.0000 0.0000 0.0000
# 2 34.3772 63.0801 36.3132 0.0000 0.0000 0.0000
# 3 21.5368 36.3132 85.2671 0.0000 0.0000 0.0000
# 4 0.0000 0.0000 0.0000 19.2645 0.0000 0.0000
# 5 0.0000 0.0000 0.0000 0.0000 27.1975 0.0000
# 6 0.0000 0.0000 0.0000 0.0000 0.0000 5.8933
#
#
#
# Elastic Compliance Matrix: (Units=1/GPa)
#
#
# Indices 1 2 3 4 5 6 
#
# 1 0.021643 -0.011457 -0.000587 0.000000 0.000000 0.000000
# 2 -0.011457 0.027066 -0.008633 0.000000 0.000000 0.000000
# 3 -0.000587 -0.008633 0.015553 0.000000 0.000000 0.000000
# 4 0.000000 0.000000 0.000000 0.051909 0.000000 0.000000
# 5 0.000000 0.000000 0.000000 0.000000 0.036768 0.000000
# 6 0.000000 0.000000 0.000000 0.000000 0.000000 0.169685
#
#
# Mechanical properties :
#
#
# Convention : Reuss Voigt Hill
#
# Bulk Modulus (GPa) = 43.65393 44.19877 43.92635
# Shear Modulus (GPa) = 13.45482 18.54490 15.99986
#
# Velocity S-wave (km/s) = 2.83874 3.33272 3.09560
# Velocity P-wave (km/s) = 6.07372 6.42504 6.25185
#
# Compressibility (1/GPa) = 0.02290745
#
# Stress axis : x y z
#
# Youngs Moduli (GPa) = 46.20526 36.94635 64.29677
#
# Poissons Ratio (x) = 0.42328 0.03777
# Poissons Ratio (y) = 0.52935 0.55509
# Poissons Ratio (z) = 0.02714 0.31896
#
# Static dielectric constant tensor:
#      x y z
#    x 3.371260 0.000000 0.000000 
#    y 0.000000 2.750640 0.000000 
#    z 0.000000 0.000000 3.422280 
# 
# 
# High freq. dielectric constant tensor:
#      x y z
#    x 1.647150 0.000000 0.000000 
#    y 0.000000 1.585230 0.000000 
#    z 0.000000 0.000000 1.666580 
# 
# From -- ./inp_files/14563.got.cif
#   From: 2010.03.12/outbox.cif.g09.slc.cpg/sg24_8_cif.got.tgz:14563.got - 2010.04.14 03:06:53.
