data_PCOD8164975
_publ_section_title
;
Structure prediction by ZEFSAII (Michael W. Deem and Ramdas Pophale) SiO2 
 PCOD8164975
Probable space group: I 21 21 21
;
_chemical_formula_sum "Si O2"
_cell_formula_units_Z 44
_cell_length_a 15.009774
_cell_length_b 5.027875
_cell_length_c 29.658969
_cell_angle_alpha 90.000000
_cell_angle_beta 90.000000
_cell_angle_gamma 90.000000
_cell_volume 2238.281346
_symmetry_space_group_name_H-M "I 21 21 21"
_symmetry_group_IT_number 24
_symmetry_cell_setting 'orthorhombic'
loop_
_space_group_symop_operation_xyz
x,y,z
-x,1/2-y,z
x,-y,1/2-z
1/2-x,y,-z
1/2+x,1/2+y,1/2+z
1/2-x,-y,1/2+z
1/2+x,1/2-y,-z
-x,1/2+y,1/2-z
loop_
_atom_site_type_symbol
_atom_site_label
_atom_site_fract_x
_atom_site_fract_y
_atom_site_fract_z
Si Si1 0.267613 0.164171 0.142706
Si Si2 0.099217 0.285465 0.438831
Si Si3 0.792947 0.276388 0.046165
Si Si4 0.655168 0.153232 0.657336
Si Si5 0.561930 0.503301 0.301470
Si Si6 0.500000 0.750000 0.777185
O O1 0.276589 0.227412 0.088660
O O2 0.234650 0.439131 0.165985
O O3 0.358674 0.045774 0.162944
O O4 0.193368 0.947751 0.153892
O O5 0.160428 0.493925 0.466397
O O6 0.101831 0.410845 0.388637
O O7 0.000000 0.250000 0.457912
O O8 0.134079 0.988493 0.439950
O O9 0.750000 0.377333 0.000000
O O10 0.582898 0.129532 0.695999
O O11 0.500000 0.750000 0.308214
O O12 0.599430 0.500000 0.250000
O O13 0.500000 0.250000 0.312827
O O14 0.538445 0.500000 0.750000
#
# Coordination Sequence:
#
# PCOD8164975 Si02
#       6
#     8   8   8   8   8   4
#     4  10  21  37  61  81 109 156 188 235 299 349
#     4  10  19  36  60  79 106 152 195 228 272 346
#     4  10  21  36  56  85 118 144 186 243 291 347
#     4  10  21  37  55  81 112 149 195 228 276 350
#     4  10  21  38  59  83 110 144 193 246 290 345
#     4  12  24  36  52  82 124 154 186 244 292 324
#
# _framework density 19.65794
#
# number of rings (size 3 to 8) (size 9 to 14) (size 15 to 20)
#    0.000    1.818    0.909    3.273    0.000    2.182 
#    0.000    2.727    0.000    0.000    0.000    0.000 
#    0.000    0.000    0.000    0.000    0.000    0.000 
#
# Total GULP energy -272655.061717 kJ/mol
# GULP energy per Si atom -12393.411896 kJ/mol
# Density = 1.961320 g / cm^3
# Si number density = 19.657940 Si / 1000 Ang^3
#
#
#
# Elastic Constant Matrix: (Units=GPa)
#
#
# Indices 1 2 3 4 5 6 
#
# 1 99.5000 25.5997 56.7361 0.0000 0.0000 0.0000
# 2 25.5997 113.2829 24.2943 0.0000 0.0000 0.0000
# 3 56.7361 24.2943 97.3583 0.0000 0.0000 0.0000
# 4 0.0000 0.0000 0.0000 21.1585 0.0000 0.0000
# 5 0.0000 0.0000 0.0000 0.0000 11.1159 0.0000
# 6 0.0000 0.0000 0.0000 0.0000 0.0000 -21.1971
#
#
#
# Elastic Compliance Matrix: (Units=1/GPa)
#
#
# Indices 1 2 3 4 5 6 
#
# 1 0.015334 -0.001636 -0.008528 0.000000 0.000000 0.000000
# 2 -0.001636 0.009501 -0.001417 0.000000 0.000000 0.000000
# 3 -0.008528 -0.001417 0.015594 0.000000 0.000000 0.000000
# 4 0.000000 0.000000 0.000000 0.047262 0.000000 0.000000
# 5 0.000000 0.000000 0.000000 0.000000 0.089961 0.000000
# 6 0.000000 0.000000 0.000000 0.000000 0.000000 -0.047176
#
#
# Mechanical properties :
#
#
# Convention : Reuss Voigt Hill
#
# Bulk Modulus (GPa) = 57.91357 58.15572 58.03465
# Shear Modulus (GPa) = 31.36871 15.78287 23.57579
#
# Velocity S-wave (km/s) = 3.99899 2.83658 3.46685
# Velocity P-wave (km/s) = 7.13072 6.35423 6.75365
#
# Compressibility (1/GPa) = 0.01726711
#
# Stress axis : x y z
#
# Youngs Moduli (GPa) = 65.21565 105.24999 64.12540
#
# Poissons Ratio (x) = 0.17223 0.54683
# Poissons Ratio (y) = 0.10672 0.09088
# Poissons Ratio (z) = 0.55613 0.14917
#
# Static dielectric constant tensor:
#      x y z
#    x 3.289610 0.000000 0.000000 
#    y 0.000000 3.833400 0.000000 
#    z 0.000000 0.000000 4.406090 
# 
# 
# High freq. dielectric constant tensor:
#      x y z
#    x 1.749760 0.000000 0.000000 
#    y 0.000000 1.791560 0.000000 
#    z 0.000000 0.000000 1.750690 
# 
# From -- ./inp_files/38679.got.cif
#   From: 2010.03.12/outbox.cif.g09.slc.cpg/sg24_20_cif.got.tgz:38679.got - 2010.04.14 03:06:53.
