data_PCOD8164796
_publ_section_title
;
Structure prediction by ZEFSAII (Michael W. Deem and Ramdas Pophale) SiO2 
 PCOD8164796
Probable space group: I 21 21 21
;
_chemical_formula_sum "Si O2"
_cell_formula_units_Z 32
_cell_length_a 5.302471
_cell_length_b 18.185865
_cell_length_c 14.360716
_cell_angle_alpha 90.000000
_cell_angle_beta 90.000000
_cell_angle_gamma 90.000000
_cell_volume 1384.804157
_symmetry_space_group_name_H-M "I 21 21 21"
_symmetry_group_IT_number 24
_symmetry_cell_setting 'orthorhombic'
loop_
_space_group_symop_operation_xyz
x,y,z
-x,1/2-y,z
x,-y,1/2-z
1/2-x,y,-z
1/2+x,1/2+y,1/2+z
1/2-x,-y,1/2+z
1/2+x,1/2-y,-z
-x,1/2+y,1/2-z
loop_
_atom_site_type_symbol
_atom_site_label
_atom_site_fract_x
_atom_site_fract_y
_atom_site_fract_z
Si Si1 0.072859 0.333090 0.269055
Si Si2 0.604234 0.830451 0.401286
Si Si3 0.607453 0.401909 0.900404
Si Si4 0.500500 0.434280 0.558167
O O1 0.338571 0.338569 0.210608
O O2 0.859467 0.371642 0.204968
O O3 0.000000 0.250000 0.289729
O O4 0.076969 0.373780 0.366813
O O5 0.500000 0.750000 0.424443
O O6 0.883896 0.849387 0.446511
O O7 0.393687 0.890357 0.439820
O O8 0.547366 0.487292 0.894421
O O9 0.750000 0.410015 0.500000
O O10 0.250000 0.443440 0.500000
#
# Coordination Sequence:
#
# PCOD8164796 Si02
#       4
#     8   8   8   8
#     4  10  23  42  71  97 127 168 227 274 320 376
#     4  10  18  37  68 100 121 152 218 285 320 356
#     4  10  21  41  68  94 126 171 223 273 312 382
#     4  12  28  44  62  98 143 180 209 259 337 407
#
# _framework density 23.107959999999999
#
# number of rings (size 3 to 8) (size 9 to 14) (size 15 to 20)
#    1.500    0.000    2.500    3.000    3.500    1.000 
#    4.500    0.000    0.000   25.500    0.000    0.000 
#    0.000    0.000    0.000    0.000    0.000    0.000 
#
# Total GULP energy -198285.160575 kJ/mol
# GULP energy per Si atom -12392.822536 kJ/mol
# Density = 2.305537 g / cm^3
# Si number density = 23.107960 Si / 1000 Ang^3
#
#
#
# Elastic Constant Matrix: (Units=GPa)
#
#
# Indices 1 2 3 4 5 6 
#
# 1 142.0884 64.1710 40.1720 -0.0002 0.0000 0.0000
# 2 64.1710 175.2480 84.7573 0.0002 0.0000 0.0000
# 3 40.1720 84.7573 85.9937 0.0002 0.0000 0.0000
# 4 -0.0002 0.0002 0.0002 14.6977 0.0000 0.0000
# 5 0.0000 0.0000 0.0000 0.0000 36.4308 0.0000
# 6 0.0000 0.0000 0.0000 0.0000 0.0000 22.9386
#
#
#
# Elastic Compliance Matrix: (Units=1/GPa)
#
#
# Indices 1 2 3 4 5 6 
#
# 1 0.008566 -0.002296 -0.001739 0.000000 0.000000 0.000000
# 2 -0.002296 0.011519 -0.010281 0.000000 0.000000 0.000000
# 3 -0.001739 -0.010281 0.022575 0.000000 0.000000 0.000000
# 4 0.000000 0.000000 0.000000 0.068038 0.000000 0.000000
# 5 0.000000 0.000000 0.000000 0.000000 0.027449 0.000000
# 6 0.000000 0.000000 0.000000 0.000000 0.000000 0.043595
#
#
# Mechanical properties :
#
#
# Convention : Reuss Voigt Hill
#
# Bulk Modulus (GPa) = 71.28496 86.83672 79.06084
# Shear Modulus (GPa) = 23.25041 29.09542 26.17291
#
# Velocity S-wave (km/s) = 3.17545 3.55224 3.36912
# Velocity P-wave (km/s) = 6.66035 7.38138 7.03012
#
# Compressibility (1/GPa) = 0.01402820
#
# Stress axis : x y z
#
# Youngs Moduli (GPa) = 116.73591 86.81149 44.29762
#
# Poissons Ratio (x) = 0.19929 0.07704
# Poissons Ratio (y) = 0.26798 0.45543
# Poissons Ratio (z) = 0.20302 0.89253
#
# Static dielectric constant tensor:
#      x y z
#    x 4.542750 0.000000 0.000000 
#    y 0.000000 3.872980 0.000000 
#    z 0.000000 0.000000 4.475560 
# 
# 
# High freq. dielectric constant tensor:
#      x y z
#    x 1.936820 0.000000 0.000000 
#    y 0.000000 1.900650 0.000000 
#    z 0.000000 0.000000 1.936440 
# 
# From -- ./inp_files/3071.got.cif
#   From: 2010.03.12/outbox.cif.g09.slc.cpg/sg24_2_cif.got.tgz:3071.got - 2010.04.14 03:06:53.
