data_PCOD8164664
_publ_section_title
;
Structure prediction by ZEFSAII (Michael W. Deem and Ramdas Pophale) SiO2 
 PCOD8164664
Probable space group: I 21 21 21
;
_chemical_formula_sum "Si O2"
_cell_formula_units_Z 56
_cell_length_a 7.623823
_cell_length_b 22.266968
_cell_length_c 21.336089
_cell_angle_alpha 90.000000
_cell_angle_beta 90.000000
_cell_angle_gamma 90.000000
_cell_volume 3622.002153
_symmetry_space_group_name_H-M "I 21 21 21"
_symmetry_group_IT_number 24
_symmetry_cell_setting 'orthorhombic'
loop_
_space_group_symop_operation_xyz
x,y,z
-x,1/2-y,z
x,-y,1/2-z
1/2-x,y,-z
1/2+x,1/2+y,1/2+z
1/2-x,-y,1/2+z
1/2+x,1/2-y,-z
-x,1/2+y,1/2-z
loop_
_atom_site_type_symbol
_atom_site_label
_atom_site_fract_x
_atom_site_fract_y
_atom_site_fract_z
Si Si1 0.798343 0.508789 0.571941
Si Si2 0.201657 0.508790 0.571941
Si Si3 0.500000 0.532837 0.846007
Si Si4 0.303852 0.369485 0.140600
Si Si5 0.000000 0.593609 0.277930
Si Si6 0.294498 0.750000 0.572417
Si Si7 0.803850 0.630515 0.640599
O O1 0.750000 0.502080 0.500000
O O2 0.675143 0.463824 0.611592
O O3 0.758794 0.577163 0.592153
O O4 0.000000 0.490886 0.584109
O O5 0.250000 0.502081 0.500000
O O6 0.324857 0.463825 0.611592
O O7 0.241205 0.577164 0.592153
O O8 0.500000 0.588860 0.797694
O O9 0.500001 0.472103 0.806843
O O10 0.172397 0.370460 0.199562
O O11 0.291003 0.308023 0.103177
O O12 0.500001 0.377098 0.167468
O O13 0.827607 0.629541 0.300439
O O14 0.500000 0.750000 0.584418
O O15 0.250000 0.749998 0.500000
O O16 0.208998 0.808024 0.603175
#
# Coordination Sequence:
#
# PCOD8164664 Si02
#       7
#     8   8   8   8   8   8   8
#     4  10  18  28  45  66  90 120 152 188 232 274
#     4  10  18  28  45  66  90 120 152 188 232 274
#     4   9  18  30  46  64  88 115 155 194 224 273
#     4  10  20  32  46  64  89 122 157 194 229 267
#     4   9  18  33  46  62  86 121 157 191 228 269
#     4  12  22  32  46  67  93 122 159 196 234 266
#     4  10  20  32  46  64  89 122 157 194 229 267
#
# _framework density 15.461062999999999
#
# number of rings (size 3 to 8) (size 9 to 14) (size 15 to 20)
#    0.000    2.000    2.857    2.143    0.000    3.429 
#    0.000    5.714    0.000    0.000    0.000    0.000 
#    0.000    0.000    0.000    5.143    0.000    0.286 
#
# Total GULP energy -347199.351042 kJ/mol
# GULP energy per Si atom -12399.976823 kJ/mol
# Density = 1.542587 g / cm^3
# Si number density = 15.461063 Si / 1000 Ang^3
#
#
#
# Elastic Constant Matrix: (Units=GPa)
#
#
# Indices 1 2 3 4 5 6 
#
# 1 130.8762 25.7855 62.3250 0.0000 0.0000 0.0000
# 2 25.7855 40.0624 45.9346 0.0000 0.0000 0.0000
# 3 62.3250 45.9346 120.2920 0.0000 0.0000 0.0000
# 4 0.0000 0.0000 0.0000 19.5380 0.0000 0.0000
# 5 0.0000 0.0000 0.0000 0.0000 25.1536 0.0000
# 6 0.0000 0.0000 0.0000 0.0000 0.0000 13.5758
#
#
#
# Elastic Compliance Matrix: (Units=1/GPa)
#
#
# Indices 1 2 3 4 5 6 
#
# 1 0.010162 -0.000896 -0.004923 0.000000 0.000000 0.000000
# 2 -0.000896 0.044480 -0.016521 0.000000 0.000000 0.000000
# 3 -0.004923 -0.016521 0.017172 0.000000 0.000000 0.000000
# 4 0.000000 0.000000 0.000000 0.051182 0.000000 0.000000
# 5 0.000000 0.000000 0.000000 0.000000 0.039756 0.000000
# 6 0.000000 0.000000 0.000000 0.000000 0.000000 0.073660
#
#
# Mechanical properties :
#
#
# Convention : Reuss Voigt Hill
#
# Bulk Modulus (GPa) = 36.85313 62.14676 49.49994
# Shear Modulus (GPa) = 17.23324 22.13252 19.68288
#
# Velocity S-wave (km/s) = 3.34222 3.78762 3.57187
# Velocity P-wave (km/s) = 6.22750 7.70785 7.00688
#
# Compressibility (1/GPa) = 0.02713474
#
# Stress axis : x y z
#
# Youngs Moduli (GPa) = 98.40963 22.48188 58.23347
#
# Poissons Ratio (x) = 0.02015 0.28666
# Poissons Ratio (y) = 0.08819 0.96207
# Poissons Ratio (z) = 0.48444 0.37142
#
# Static dielectric constant tensor:
#      x y z
#    x 3.314460 0.000000 0.000000 
#    y 0.000000 2.680160 0.000000 
#    z 0.000000 0.000000 2.990480 
# 
# 
# High freq. dielectric constant tensor:
#      x y z
#    x 1.618980 0.000000 0.000000 
#    y 0.000000 1.542140 0.000000 
#    z 0.000000 0.000000 1.578920 
# 
# From -- ./inp_files/29769.got.cif
#   From: 2010.03.12/outbox.cif.g09.slc.cpg/sg24_15_cif.got.tgz:29769.got - 2010.04.14 03:06:53.
