data_PCOD8164238
_publ_section_title
;
Structure prediction by ZEFSAII (Michael W. Deem and Ramdas Pophale) SiO2 
 PCOD8164238
Probable space group: I 2 2 2
;
_chemical_formula_sum "Si O2"
_cell_formula_units_Z 48
_cell_length_a 18.389646
_cell_length_b 15.258875
_cell_length_c 8.418733
_cell_angle_alpha 90.000000
_cell_angle_beta 90.000000
_cell_angle_gamma 90.000000
_cell_volume 2362.341180
_symmetry_space_group_name_H-M "I 2 2 2"
_symmetry_group_IT_number 23
_symmetry_cell_setting 'orthorhombic'
loop_
_space_group_symop_operation_xyz
x,y,z
-x,-y,z
x,-y,-z
-x,y,-z
1/2+x,1/2+y,1/2+z
1/2-x,1/2-y,1/2+z
1/2+x,1/2-y,1/2-z
1/2-x,1/2+y,1/2-z
loop_
_atom_site_type_symbol
_atom_site_label
_atom_site_fract_x
_atom_site_fract_y
_atom_site_fract_z
Si Si1 0.298238 0.697598 0.382738
Si Si2 0.702881 0.350058 0.750085
Si Si3 0.574531 0.782478 0.781981
Si Si4 0.224695 0.524260 0.317973
Si Si5 0.078462 0.477803 0.183964
Si Si6 0.438965 0.290969 0.102346
O O1 0.298184 0.678624 0.568425
O O2 0.250195 0.783134 0.351849
O O3 0.380164 0.711940 0.320549
O O4 0.265221 0.615573 0.285737
O O5 0.734720 0.446974 0.778497
O O6 0.620053 0.351058 0.813385
O O7 0.487077 0.763839 0.766832
O O8 0.596288 0.876653 0.715353
O O9 0.597380 0.775114 0.970303
O O10 0.226658 0.500000 0.500000
O O11 0.141321 0.535809 0.263690
O O12 0.000000 0.500000 0.260924
O O13 0.077254 0.500000 0.000000
O O14 0.500000 0.347146 0.000000
#
# Coordination Sequence:
#
# PCOD8164238 Si02
#       6
#     8   8   8   8   8   8
#     4  11  23  38  68  90 131 169 211 264 318 384
#     4  11  22  41  64  95 129 168 214 262 320 381
#     4   9  21  43  60  95 122 167 210 257 321 381
#     4  10  25  41  61  96 127 167 213 258 320 384
#     4  11  25  39  58  94 133 161 211 263 315 376
#     4   8  22  40  68  87 123 169 212 257 322 384
#
# _framework density 20.318826000000001
#
# number of rings (size 3 to 8) (size 9 to 14) (size 15 to 20)
#    1.000    0.833    1.667    1.000    7.000    5.000 
#    0.000    0.833    3.667    3.000    0.000    0.000 
#    0.000    0.000    0.000    0.000    0.000    0.000 
#
# Total GULP energy -297413.127296 kJ/mol
# GULP energy per Si atom -12392.213637 kJ/mol
# Density = 2.027258 g / cm^3
# Si number density = 20.318826 Si / 1000 Ang^3
#
#
#
# Elastic Constant Matrix: (Units=GPa)
#
#
# Indices 1 2 3 4 5 6 
#
# 1 120.2908 51.4911 39.1757 0.0000 0.0000 0.0000
# 2 51.4911 99.6583 28.9118 0.0000 0.0000 0.0000
# 3 39.1757 28.9118 38.8308 0.0000 0.0000 0.0000
# 4 0.0000 0.0000 0.0000 25.3678 0.0000 0.0000
# 5 0.0000 0.0000 0.0000 0.0000 42.2047 0.0000
# 6 0.0000 0.0000 0.0000 0.0000 0.0000 29.0780
#
#
#
# Elastic Compliance Matrix: (Units=1/GPa)
#
#
# Indices 1 2 3 4 5 6 
#
# 1 0.013443 -0.003841 -0.010703 0.000000 0.000000 0.000000
# 2 -0.003841 0.013896 -0.006472 0.000000 0.000000 0.000000
# 3 -0.010703 -0.006472 0.041369 0.000000 0.000000 0.000000
# 4 0.000000 0.000000 0.000000 0.039420 0.000000 0.000000
# 5 0.000000 0.000000 0.000000 0.000000 0.023694 0.000000
# 6 0.000000 0.000000 0.000000 0.000000 0.000000 0.034390
#
#
# Mechanical properties :
#
#
# Convention : Reuss Voigt Hill
#
# Bulk Modulus (GPa) = 37.48409 55.32634 46.40522
# Shear Modulus (GPa) = 23.02716 28.61019 25.81867
#
# Velocity S-wave (km/s) = 3.37009 3.75649 3.56852
# Velocity P-wave (km/s) = 5.79926 6.78993 6.31405
#
# Compressibility (1/GPa) = 0.02667798
#
# Stress axis : x y z
#
# Youngs Moduli (GPa) = 74.38958 71.96221 24.17268
#
# Poissons Ratio (x) = 0.27638 0.25871
# Poissons Ratio (y) = 0.28570 0.15644
# Poissons Ratio (z) = 0.79616 0.46572
#
# Static dielectric constant tensor:
#      x y z
#    x 4.034140 0.000000 0.000000 
#    y 0.000000 3.625320 0.000000 
#    z 0.000000 0.000000 3.568370 
# 
# 
# High freq. dielectric constant tensor:
#      x y z
#    x 1.807700 0.000000 0.000000 
#    y 0.000000 1.770230 0.000000 
#    z 0.000000 0.000000 1.789060 
# 
# From -- ./inp_files/11033.got.cif
#   From: 2010.03.12/outbox.cif.g09.slc.cpg/sg23_6_cif.got.tgz:11033.got - 2010.04.14 02:50:06.
