data_PCOD8164936
_publ_section_title
;
Structure prediction by ZEFSAII (Michael W. Deem and Ramdas Pophale) SiO2 
 PCOD8164936
Probable space group: I 21 21 21
;
_chemical_formula_sum "Si O2"
_cell_formula_units_Z 60
_cell_length_a 12.906396
_cell_length_b 14.863539
_cell_length_c 17.042089
_cell_angle_alpha 90.000000
_cell_angle_beta 90.000000
_cell_angle_gamma 90.000000
_cell_volume 3269.264377
_symmetry_space_group_name_H-M "I 21 21 21"
_symmetry_group_IT_number 24
_symmetry_cell_setting 'orthorhombic'
loop_
_space_group_symop_operation_xyz
x,y,z
-x,1/2-y,z
x,-y,1/2-z
1/2-x,y,-z
1/2+x,1/2+y,1/2+z
1/2-x,-y,1/2+z
1/2+x,1/2-y,-z
-x,1/2+y,1/2-z
loop_
_atom_site_type_symbol
_atom_site_label
_atom_site_fract_x
_atom_site_fract_y
_atom_site_fract_z
Si Si1 0.917791 0.668061 0.533599
Si Si2 0.283658 0.818860 0.622352
Si Si3 0.868172 0.132901 0.133631
Si Si4 0.217669 0.492007 0.666516
Si Si5 0.437008 0.896807 0.728818
Si Si6 0.330339 0.361447 0.564397
Si Si7 0.090387 0.461801 0.982910
Si Si8 0.500000 0.250000 0.646715
O O1 0.838541 0.668408 0.607129
O O2 0.851639 0.672696 0.455395
O O3 0.000000 0.750000 0.540278
O O4 0.973480 0.570002 0.535107
O O5 0.303624 0.720177 0.656886
O O6 0.322301 0.887095 0.690761
O O7 0.987090 0.138841 0.160217
O O8 0.818823 0.052071 0.182723
O O9 0.860757 0.114309 0.039963
O O10 0.156567 0.500000 0.750000
O O11 0.259952 0.394846 0.638252
O O12 0.150095 0.537760 0.598881
O O13 0.455690 0.833707 0.804038
O O14 0.456400 0.000000 0.750000
O O15 0.250000 0.322909 0.500000
O O16 0.399308 0.442451 0.526936
O O17 0.406348 0.282887 0.591473
#
# Coordination Sequence:
#
# PCOD8164936 Si02
#       8
#     8   8   8   8   8   8   8   4
#     4  11  20  34  54  82 119 161 194 233 294 367
#     4  11  22  33  54  85 124 149 192 246 295 362
#     4  11  17  34  54  85 117 151 186 241 297 352
#     4  10  20  32  56  88 113 149 195 250 298 343
#     4  12  23  37  58  90 125 153 190 249 308 355
#     4   9  21  39  59  85 115 150 206 254 290 350
#     4  10  19  35  56  80 116 154 201 239 290 359
#     4  12  22  38  64  92 118 158 196 256 312 342
#
# _framework density 18.352753
#
# number of rings (size 3 to 8) (size 9 to 14) (size 15 to 20)
#    0.000    1.333    4.000    4.800    1.867    0.000 
#    0.000    2.000    0.000    1.600    0.000    0.000 
#    0.000    0.000    0.000    0.000    0.000    0.000 
#
# Total GULP energy -371778.497646 kJ/mol
# GULP energy per Si atom -12392.616588 kJ/mol
# Density = 1.831098 g / cm^3
# Si number density = 18.352753 Si / 1000 Ang^3
#
#
#
# Elastic Constant Matrix: (Units=GPa)
#
#
# Indices 1 2 3 4 5 6 
#
# 1 100.2820 42.4600 41.8359 0.0000 0.0000 0.0000
# 2 42.4600 86.9647 41.0626 0.0000 0.0000 0.0000
# 3 41.8359 41.0626 110.9593 0.0000 0.0000 0.0000
# 4 0.0000 0.0000 0.0000 20.2944 0.0000 0.0000
# 5 0.0000 0.0000 0.0000 0.0000 32.7916 0.0000
# 6 0.0000 0.0000 0.0000 0.0000 0.0000 27.7647
#
#
#
# Elastic Compliance Matrix: (Units=1/GPa)
#
#
# Indices 1 2 3 4 5 6 
#
# 1 0.013447 -0.005055 -0.003199 0.000000 0.000000 0.000000
# 2 -0.005055 0.015834 -0.003954 0.000000 0.000000 0.000000
# 3 -0.003199 -0.003954 0.011682 0.000000 0.000000 0.000000
# 4 0.000000 0.000000 0.000000 0.049275 0.000000 0.000000
# 5 0.000000 0.000000 0.000000 0.000000 0.030496 0.000000
# 6 0.000000 0.000000 0.000000 0.000000 0.000000 0.036017
#
#
# Mechanical properties :
#
#
# Convention : Reuss Voigt Hill
#
# Bulk Modulus (GPa) = 60.43519 60.99146 60.71333
# Shear Modulus (GPa) = 26.78372 27.69331 27.23852
#
# Velocity S-wave (km/s) = 3.82433 3.88873 3.85667
# Velocity P-wave (km/s) = 7.24582 7.31218 7.27908
#
# Compressibility (1/GPa) = 0.01654665
#
# Stress axis : x y z
#
# Youngs Moduli (GPa) = 74.36732 63.15652 85.60343
#
# Poissons Ratio (x) = 0.31923 0.27388
# Poissons Ratio (y) = 0.37590 0.33846
# Poissons Ratio (z) = 0.23793 0.24971
#
# Static dielectric constant tensor:
#      x y z
#    x 3.501960 0.000000 0.000000 
#    y 0.000000 3.298210 0.000000 
#    z 0.000000 0.000000 3.417830 
# 
# 
# High freq. dielectric constant tensor:
#      x y z
#    x 1.696380 0.000000 0.000000 
#    y 0.000000 1.696390 0.000000 
#    z 0.000000 0.000000 1.708640 
# 
# From -- ./inp_files/30335.got.cif
#   From: 2010.03.12/outbox.cif.g09.slc.cpg/sg24_16_cif.got.tgz:30335.got - 2010.04.14 03:06:53.
