data_PCOD8164343
_publ_section_title
;
Structure prediction by ZEFSAII (Michael W. Deem and Ramdas Pophale) SiO2 
 PCOD8164343
Probable space group: I 2 2 2
;
_chemical_formula_sum "Si O2"
_cell_formula_units_Z 40
_cell_length_a 8.888559
_cell_length_b 24.447774
_cell_length_c 9.569427
_cell_angle_alpha 90.000000
_cell_angle_beta 90.000000
_cell_angle_gamma 90.000000
_cell_volume 2079.488943
_symmetry_space_group_name_H-M "I 2 2 2"
_symmetry_group_IT_number 23
_symmetry_cell_setting 'orthorhombic'
loop_
_space_group_symop_operation_xyz
x,y,z
-x,-y,z
x,-y,-z
-x,y,-z
1/2+x,1/2+y,1/2+z
1/2-x,1/2-y,1/2+z
1/2+x,1/2-y,1/2-z
1/2-x,1/2+y,1/2-z
loop_
_atom_site_type_symbol
_atom_site_label
_atom_site_fract_x
_atom_site_fract_y
_atom_site_fract_z
Si Si1 0.854172 0.094613 0.312448
Si Si2 0.667533 0.994009 0.333763
Si Si3 0.183294 0.890578 0.617972
Si Si4 0.894484 0.772579 0.366530
Si Si5 0.395691 0.701116 0.634579
O O1 0.770302 0.114498 0.454222
O O2 0.853166 0.141974 0.196461
O O3 0.022719 0.080677 0.357841
O O4 0.771810 0.039462 0.257016
O O5 0.707144 0.931018 0.296727
O O6 0.500000 0.000000 0.278391
O O7 0.686188 0.000000 0.500000
O O8 0.186791 0.829291 0.678332
O O9 0.766767 0.728065 0.397382
O O10 0.000000 0.782517 0.500000
O O11 0.009551 0.759472 0.239706
O O12 0.500000 0.693218 0.500000
#
# Coordination Sequence:
#
# PCOD8164343 Si02
#       5
#     8   8   8   8   8
#     4   9  17  33  52  77 110 145 188 233 281 349
#     4   9  17  28  49  84 113 138 183 242 297 335
#     4   9  16  32  54  75 108 150 186 231 284 340
#     4  11  21  40  57  86 119 158 202 244 286 349
#     4  11  23  36  59  86 119 161 198 242 295 347
#
# _framework density 19.235495
#
# number of rings (size 3 to 8) (size 9 to 14) (size 15 to 20)
#    0.000    2.200    4.000    1.800    0.000    4.000 
#    3.600    0.000    0.000    9.600    0.000    5.600 
#    0.000    0.000    0.000    0.000    0.000    0.000 
#
# Total GULP energy -247781.977107 kJ/mol
# GULP energy per Si atom -12389.098855 kJ/mol
# Density = 1.919171 g / cm^3
# Si number density = 19.235495 Si / 1000 Ang^3
#
#
#
# Elastic Constant Matrix: (Units=GPa)
#
#
# Indices 1 2 3 4 5 6 
#
# 1 95.6586 69.6696 35.7312 0.0003 -0.0001 -0.0001
# 2 69.6696 118.3286 36.5715 -0.0020 -0.0010 -0.0003
# 3 35.7312 36.5715 55.0199 -0.0050 -0.0016 -0.0022
# 4 0.0003 -0.0020 -0.0050 17.3363 -0.0005 -0.0004
# 5 -0.0001 -0.0010 -0.0016 -0.0005 17.8037 -0.0008
# 6 -0.0001 -0.0003 -0.0022 -0.0004 -0.0008 33.2890
#
#
#
# Elastic Compliance Matrix: (Units=1/GPa)
#
#
# Indices 1 2 3 4 5 6 
#
# 1 0.019989 -0.009763 -0.006492 -0.000003 -0.000001 0.000000
# 2 -0.009763 0.015404 -0.003899 0.000001 0.000000 0.000000
# 3 -0.006492 -0.003899 0.024983 0.000007 0.000002 0.000002
# 4 -0.000003 0.000001 0.000007 0.057682 0.000002 0.000001
# 5 -0.000001 0.000000 0.000002 0.000002 0.056168 0.000001
# 6 0.000000 0.000000 0.000002 0.000001 0.000001 0.030040
#
#
# Mechanical properties :
#
#
# Convention : Reuss Voigt Hill
#
# Bulk Modulus (GPa) = 49.82893 61.43908 55.63401
# Shear Modulus (GPa) = 19.89939 22.15480 21.02709
#
# Velocity S-wave (km/s) = 3.21988 3.39745 3.30985
# Velocity P-wave (km/s) = 6.30749 6.88477 6.60244
#
# Compressibility (1/GPa) = 0.02006866
#
# Stress axis : x y z
#
# Youngs Moduli (GPa) = 50.02705 64.91744 40.02713
#
# Poissons Ratio (x) = 0.63377 0.25986
# Poissons Ratio (y) = 0.48840 0.15606
# Poissons Ratio (z) = 0.32479 0.25311
#
# Static dielectric constant tensor:
#      x y z
#    x 3.526170 0.000000 -0.000010 
#    y 0.000000 3.489400 0.000000 
#    z -0.000010 0.000000 3.172760 
# 
# 
# High freq. dielectric constant tensor:
#      x y z
#    x 1.746140 0.000000 0.000000 
#    y 0.000000 1.748300 0.000000 
#    z 0.000000 0.000000 1.702300 
# 
# From -- ./inp_files/7095.got.cif
#   From: 2010.03.12/outbox.cif.g09.slc.cpg/sg23_4_cif.got.tgz:7095.got - 2010.04.14 02:50:06.
