data_PCOD8164395
_publ_section_title
;
Structure prediction by ZEFSAII (Michael W. Deem and Ramdas Pophale) SiO2 
 PCOD8164395
Probable space group: I 2 2 2
;
_chemical_formula_sum "Si O2"
_cell_formula_units_Z 26
_cell_length_a 7.121404
_cell_length_b 28.348502
_cell_length_c 6.350021
_cell_angle_alpha 90.000000
_cell_angle_beta 90.000000
_cell_angle_gamma 90.000000
_cell_volume 1281.949450
_symmetry_space_group_name_H-M "I 2 2 2"
_symmetry_group_IT_number 23
_symmetry_cell_setting 'orthorhombic'
loop_
_space_group_symop_operation_xyz
x,y,z
-x,-y,z
x,-y,-z
-x,y,-z
1/2+x,1/2+y,1/2+z
1/2-x,1/2-y,1/2+z
1/2+x,1/2-y,1/2-z
1/2-x,1/2+y,1/2-z
loop_
_atom_site_type_symbol
_atom_site_label
_atom_site_fract_x
_atom_site_fract_y
_atom_site_fract_z
Si Si1 0.184147 0.046682 0.619869
Si Si2 0.000000 0.000000 0.000000
Si Si3 0.500000 0.884063 0.500000
Si Si4 0.000000 0.772355 0.000000
Si Si5 0.361405 0.193787 0.194489
O O1 0.348307 0.084924 0.624574
O O2 0.000000 0.066687 0.500000
O O3 0.256591 0.000000 0.500000
O O4 0.132464 0.033549 0.859310
O O5 0.609654 0.852843 0.330933
O O6 0.109919 0.740603 0.168028
O O7 0.852437 0.806446 0.114831
O O8 0.500000 0.194031 0.000000
#
# Coordination Sequence:
#
# PCOD8164395 Si02
#       5
#     8   2   4   4   8
#     4   9  20  41  65  93 132 170 209 261 315 378
#     4   8  18  40  76  88 120 190 200 256 320 370
#     4  11  25  40  63 103 128 166 216 264 315 377
#     4  11  22  44  66  88 119 169 217 260 327 383
#     4  11  24  40  67  91 124 167 215 266 321 377
#
# _framework density 20.281610000000001
#
# number of rings (size 3 to 8) (size 9 to 14) (size 15 to 20)
#    0.000    2.154    3.077    0.462    0.000    7.385 
#    0.000    7.692    0.000    0.000    0.000    0.000 
#    0.000    0.000    0.000    0.000    0.000    0.000 
#
# Total GULP energy -161243.280170 kJ/mol
# GULP energy per Si atom -12403.329244 kJ/mol
# Density = 2.023545 g / cm^3
# Si number density = 20.281610 Si / 1000 Ang^3
#
#
#
# Elastic Constant Matrix: (Units=GPa)
#
#
# Indices 1 2 3 4 5 6 
#
# 1 163.5479 81.9026 69.2224 -0.0017 -0.0014 -0.0024
# 2 81.9026 117.9208 60.2083 -0.0022 -0.0016 -0.0029
# 3 69.2224 60.2083 147.4997 -0.0032 -0.0003 -0.0062
# 4 -0.0017 -0.0022 -0.0032 13.7083 -0.0016 -0.0026
# 5 -0.0014 -0.0016 -0.0003 -0.0016 36.7619 -0.0027
# 6 -0.0024 -0.0029 -0.0062 -0.0026 -0.0027 38.2001
#
#
#
# Elastic Compliance Matrix: (Units=1/GPa)
#
#
# Indices 1 2 3 4 5 6 
#
# 1 0.009977 -0.005734 -0.002342 0.000000 0.000000 0.000000
# 2 -0.005734 0.014008 -0.003027 0.000001 0.000000 0.000000
# 3 -0.002342 -0.003027 0.009114 0.000001 0.000000 0.000001
# 4 0.000000 0.000001 0.000001 0.072948 0.000003 0.000005
# 5 0.000000 0.000000 0.000000 0.000003 0.027202 0.000002
# 6 0.000000 0.000000 0.000001 0.000005 0.000002 0.026178
#
#
# Mechanical properties :
#
#
# Convention : Reuss Voigt Hill
#
# Bulk Modulus (GPa) = 91.79269 94.62609 93.20939
# Shear Modulus (GPa) = 26.98831 32.24307 29.61569
#
# Velocity S-wave (km/s) = 3.65180 3.99152 3.82543
# Velocity P-wave (km/s) = 7.94596 8.24623 8.09749
#
# Compressibility (1/GPa) = 0.01089411
#
# Stress axis : x y z
#
# Youngs Moduli (GPa) = 100.22989 71.38547 109.71748
#
# Poissons Ratio (x) = 0.40932 0.25693
# Poissons Ratio (y) = 0.57472 0.33213
# Poissons Ratio (z) = 0.23471 0.21609
#
# Static dielectric constant tensor:
#      x y z
#    x 3.752910 0.000000 -0.000050 
#    y 0.000000 3.541570 0.000010 
#    z -0.000050 0.000010 3.830860 
# 
# 
# High freq. dielectric constant tensor:
#      x y z
#    x 1.797270 0.000000 0.000000 
#    y 0.000000 1.779520 0.000000 
#    z 0.000000 0.000000 1.804620 
# 
# From -- ./inp_files/573.got.cif
#   From: 2010.03.12/outbox.cif.g09.slc.cpg/sg23_1_cif.got.tgz:573.got - 2010.04.14 02:50:06.
