data_PCOD8164015
_publ_section_title
;
Structure prediction by ZEFSAII (Michael W. Deem and Ramdas Pophale) SiO2 
 PCOD8164015
Probable space group: I 2 2 2
;
_chemical_formula_sum "Si O2"
_cell_formula_units_Z 64
_cell_length_a 13.359901
_cell_length_b 12.013307
_cell_length_c 19.433192
_cell_angle_alpha 90.000000
_cell_angle_beta 90.000000
_cell_angle_gamma 90.000000
_cell_volume 3118.961092
_symmetry_space_group_name_H-M "I 2 2 2"
_symmetry_group_IT_number 23
_symmetry_cell_setting 'orthorhombic'
loop_
_space_group_symop_operation_xyz
x,y,z
-x,-y,z
x,-y,-z
-x,y,-z
1/2+x,1/2+y,1/2+z
1/2-x,1/2-y,1/2+z
1/2+x,1/2-y,1/2-z
1/2-x,1/2+y,1/2-z
loop_
_atom_site_type_symbol
_atom_site_label
_atom_site_fract_x
_atom_site_fract_y
_atom_site_fract_z
Si Si1 0.118231 0.375214 0.679928
Si Si2 0.880947 1.000000 0.385326
Si Si3 0.881768 0.624786 0.320071
Si Si4 0.880941 1.000000 0.228864
Si Si5 0.224253 0.779169 0.577858
Si Si6 0.382092 0.259497 0.684956
Si Si7 0.617908 0.259497 0.684956
Si Si8 0.224253 0.220831 0.577858
O O1 0.161870 0.500000 0.688990
O O2 0.150956 0.302384 0.745435
O O3 0.159878 0.319804 0.610998
O O4 1.000000 0.378861 0.673245
O O5 0.839225 0.891848 0.423121
O O6 0.842423 1.000000 0.306932
O O7 0.839225 0.108152 0.423121
O O8 0.000000 0.000000 0.390821
O O9 0.840121 0.680196 0.389001
O O10 0.849044 0.697616 0.254565
O O11 0.844456 0.111970 0.190292
O O12 0.844456 0.888030 0.190292
O O13 0.000000 0.000000 0.230804
O O14 0.327546 0.795893 0.619930
O O15 0.250937 0.745631 0.500000
O O16 0.500000 0.249686 0.672664
O O17 0.327547 0.204107 0.619930
#
# Coordination Sequence:
#
# PCOD8164015 Si02
#       8
#     8   8   8   8   8   8   8   8
#     4  10  22  40  64  92 119 156 204 254 308 361
#     4  11  23  42  66  93 122 153 202 260 308 361
#     4  10  22  40  64  92 119 156 204 254 308 361
#     4   9  18  37  67  94 111 149 208 258 301 338
#     4  12  26  39  60  91 125 166 201 242 309 369
#     4  10  22  41  65  91 121 158 208 259 299 353
#     4  10  22  41  65  91 121 158 208 259 299 353
#     4  12  26  39  60  91 125 166 201 242 309 369
#
# _framework density 20.519653999999999
#
# number of rings (size 3 to 8) (size 9 to 14) (size 15 to 20)
#    0.000    1.500    2.500    1.875    3.500    3.500 
#    0.000    1.250    0.000    3.750    0.000    0.000 
#    0.000    0.000    0.000    0.000    0.000    0.000 
#
# Total GULP energy -396963.456816 kJ/mol
# GULP energy per Si atom -12405.108025 kJ/mol
# Density = 2.047295 g / cm^3
# Si number density = 20.519654 Si / 1000 Ang^3
#
#
#
# Elastic Constant Matrix: (Units=GPa)
#
#
# Indices 1 2 3 4 5 6 
#
# 1 48.2291 46.0391 43.3923 0.0000 0.0000 0.0000
# 2 46.0391 145.5720 45.4056 0.0000 0.0000 0.0000
# 3 43.3923 45.4056 154.9767 0.0000 0.0000 0.0000
# 4 0.0000 0.0000 0.0000 7.0078 0.0000 0.0000
# 5 0.0000 0.0000 0.0000 0.0000 18.4855 0.0000
# 6 0.0000 0.0000 0.0000 0.0000 0.0000 36.2874
#
#
#
# Elastic Compliance Matrix: (Units=1/GPa)
#
#
# Indices 1 2 3 4 5 6 
#
# 1 0.036123 -0.009101 -0.007448 0.000000 0.000000 0.000000
# 2 -0.009101 0.009854 -0.000339 0.000000 0.000000 0.000000
# 3 -0.007448 -0.000339 0.008637 0.000000 0.000000 0.000000
# 4 0.000000 0.000000 0.000000 0.142698 0.000000 0.000000
# 5 0.000000 0.000000 0.000000 0.000000 0.054096 0.000000
# 6 0.000000 0.000000 0.000000 0.000000 0.000000 0.027558
#
#
# Mechanical properties :
#
#
# Convention : Reuss Voigt Hill
#
# Bulk Modulus (GPa) = 47.98813 68.71685 58.35249
# Shear Modulus (GPa) = 15.64025 26.61886 21.12956
#
# Velocity S-wave (km/s) = 2.76381 3.60563 3.21241
# Velocity P-wave (km/s) = 5.79845 7.13408 6.50066
#
# Compressibility (1/GPa) = 0.02083849
#
# Stress axis : x y z
#
# Youngs Moduli (GPa) = 27.68290 101.48648 115.77999
#
# Poissons Ratio (x) = 0.92368 0.86229
# Poissons Ratio (y) = 0.25196 0.03920
# Poissons Ratio (z) = 0.20617 0.03436
#
# Static dielectric constant tensor:
#      x y z
#    x 3.739760 0.000000 0.000000 
#    y 0.000000 4.047080 0.000000 
#    z 0.000000 0.000000 3.486310 
# 
# 
# High freq. dielectric constant tensor:
#      x y z
#    x 1.821810 0.000000 0.000000 
#    y 0.000000 1.813720 0.000000 
#    z 0.000000 0.000000 1.778540 
# 
# From -- ./inp_files/16981.got.cif
#   From: 2010.03.12/outbox.cif.g09.slc.cpg/sg23_9_cif.got.tgz:16981.got - 2010.04.14 02:50:06.
