data_PCOD8164747
_publ_section_title
;
Structure prediction by ZEFSAII (Michael W. Deem and Ramdas Pophale) SiO2 
 PCOD8164747
Probable space group: I 21 21 21
;
_chemical_formula_sum "Si O2"
_cell_formula_units_Z 40
_cell_length_a 10.848750
_cell_length_b 17.222158
_cell_length_c 11.263181
_cell_angle_alpha 90.000000
_cell_angle_beta 90.000000
_cell_angle_gamma 90.000000
_cell_volume 2104.400198
_symmetry_space_group_name_H-M "I 21 21 21"
_symmetry_group_IT_number 24
_symmetry_cell_setting 'orthorhombic'
loop_
_space_group_symop_operation_xyz
x,y,z
-x,1/2-y,z
x,-y,1/2-z
1/2-x,y,-z
1/2+x,1/2+y,1/2+z
1/2-x,-y,1/2+z
1/2+x,1/2-y,-z
-x,1/2+y,1/2-z
loop_
_atom_site_type_symbol
_atom_site_label
_atom_site_fract_x
_atom_site_fract_y
_atom_site_fract_z
Si Si1 0.298567 0.865344 0.251496
Si Si2 0.122244 0.559492 0.545412
Si Si3 0.416329 0.041586 0.868363
Si Si4 0.137562 0.268277 0.913646
Si Si5 0.750000 0.422751 0.500000
Si Si6 0.988036 0.500000 0.750000
O O1 0.180817 0.892622 0.328669
O O2 0.341608 0.780220 0.292051
O O3 0.406230 0.925656 0.279050
O O4 0.279789 0.865978 0.109778
O O5 0.250000 0.524521 0.500000
O O6 0.147028 0.640379 0.614971
O O7 0.072389 0.492860 0.633357
O O8 0.031838 0.579453 0.435196
O O9 0.465099 0.000000 0.750000
O O10 0.360586 0.979075 0.960619
O O11 0.000000 0.250000 0.965189
O O12 0.250000 0.243477 0.000000
#
# Coordination Sequence:
#
# PCOD8164747 Si02
#       6
#     8   8   8   8   4   4
#     4  11  20  34  63  88 118 146 198 258 297 344
#     4  11  24  38  56  86 125 161 193 234 296 367
#     4  10  19  34  60  91 115 145 196 255 298 334
#     4  11  23  37  59  87 121 156 196 244 296 358
#     4  10  18  34  58  92 112 140 190 262 294 328
#     4  12  20  36  62  88 112 154 200 242 300 344
#
# _framework density 19.007791000000001
#
# number of rings (size 3 to 8) (size 9 to 14) (size 15 to 20)
#    0.000    1.200    7.000    1.200    2.800    0.000 
#    0.000    0.000    2.200   10.800    0.000    0.000 
#    0.000    0.000    0.000    0.000    0.000    0.000 
#
# Total GULP energy -247877.286007 kJ/mol
# GULP energy per Si atom -12393.864300 kJ/mol
# Density = 1.896453 g / cm^3
# Si number density = 19.007791 Si / 1000 Ang^3
#
#
#
# Elastic Constant Matrix: (Units=GPa)
#
#
# Indices 1 2 3 4 5 6 
#
# 1 131.1822 16.8033 64.5393 -0.0001 0.0001 -0.0001
# 2 16.8033 57.1653 35.8891 0.0015 -0.0003 0.0000
# 3 64.5393 35.8891 118.3421 0.0020 -0.0004 -0.0001
# 4 -0.0001 0.0015 0.0020 29.3959 -0.0004 0.0000
# 5 0.0001 -0.0003 -0.0004 -0.0004 26.5773 0.0001
# 6 -0.0001 0.0000 -0.0001 0.0000 0.0001 4.1090
#
#
#
# Elastic Compliance Matrix: (Units=1/GPa)
#
#
# Indices 1 2 3 4 5 6 
#
# 1 0.010436 0.000624 -0.005881 0.000000 0.000000 0.000000
# 2 0.000624 0.021644 -0.006905 -0.000001 0.000000 0.000000
# 3 -0.005881 -0.006905 0.013751 -0.000001 0.000000 0.000000
# 4 0.000000 -0.000001 -0.000001 0.034018 0.000000 0.000000
# 5 0.000000 0.000000 0.000000 0.000000 0.037626 -0.000001
# 6 0.000000 0.000000 0.000000 0.000000 -0.000001 0.243370
#
#
# Mechanical properties :
#
#
# Convention : Reuss Voigt Hill
#
# Bulk Modulus (GPa) = 46.49041 60.12812 53.30927
# Shear Modulus (GPa) = 12.74409 24.64696 18.69553
#
# Velocity S-wave (km/s) = 2.59215 3.60485 3.13960
# Velocity P-wave (km/s) = 5.78538 7.00205 6.42259
#
# Compressibility (1/GPa) = 0.02150981
#
# Stress axis : x y z
#
# Youngs Moduli (GPa) = 95.81927 46.20152 72.72083
#
# Poissons Ratio (x) = -0.02885 0.42767
# Poissons Ratio (y) = -0.05983 0.50210
# Poissons Ratio (z) = 0.56351 0.31900
#
# Static dielectric constant tensor:
#      x y z
#    x 3.681150 0.000000 0.000000 
#    y 0.000000 3.245250 0.000000 
#    z 0.000000 0.000000 3.589730 
# 
# 
# High freq. dielectric constant tensor:
#      x y z
#    x 1.747240 0.000000 0.000000 
#    y 0.000000 1.708920 0.000000 
#    z 0.000000 0.000000 1.738060 
# 
# From -- ./inp_files/18429.got.cif
#   From: 2010.03.12/outbox.cif.g09.slc.cpg/sg24_10_cif.got.tgz:18429.got - 2010.04.14 03:06:53.
