data_PCOD8164980
_publ_section_title
;
Structure prediction by ZEFSAII (Michael W. Deem and Ramdas Pophale) SiO2 
 PCOD8164980
Probable space group: I 21 21 21
;
_chemical_formula_sum "Si O2"
_cell_formula_units_Z 64
_cell_length_a 12.700355
_cell_length_b 15.230930
_cell_length_c 15.797809
_cell_angle_alpha 90.000000
_cell_angle_beta 90.000000
_cell_angle_gamma 90.000000
_cell_volume 3055.900021
_symmetry_space_group_name_H-M "I 21 21 21"
_symmetry_group_IT_number 24
_symmetry_cell_setting 'orthorhombic'
loop_
_space_group_symop_operation_xyz
x,y,z
-x,1/2-y,z
x,-y,1/2-z
1/2-x,y,-z
1/2+x,1/2+y,1/2+z
1/2-x,-y,1/2+z
1/2+x,1/2-y,-z
-x,1/2+y,1/2-z
loop_
_atom_site_type_symbol
_atom_site_label
_atom_site_fract_x
_atom_site_fract_y
_atom_site_fract_z
Si Si1 0.415976 0.188498 0.788952
Si Si2 0.552870 0.091037 0.214661
Si Si3 0.063512 0.145244 0.398779
Si Si4 0.838868 0.176927 0.432443
Si Si5 0.073566 0.829065 0.865586
Si Si6 0.838832 0.536967 0.395079
Si Si7 0.394614 0.021845 0.080860
Si Si8 0.729438 0.213287 0.271349
O O1 0.500000 0.250000 0.838577
O O2 0.460636 0.180821 0.694630
O O3 0.407652 0.093847 0.831460
O O4 0.302782 0.235884 0.794396
O O5 0.470722 0.132201 0.278777
O O6 0.492064 0.071885 0.126189
O O7 0.650322 0.158712 0.210758
O O8 0.598344 0.000000 0.250000
O O9 0.128961 0.220739 0.448817
O O10 0.949748 0.123678 0.442889
O O11 0.137894 0.064151 0.384772
O O12 0.750000 0.147188 0.500000
O O13 0.795508 0.154000 0.337872
O O14 0.181207 0.783656 0.837775
O O15 0.000000 0.750000 0.903937
O O16 0.087933 0.914364 0.927426
O O17 0.876546 0.563700 0.488982
O O18 0.714921 0.543991 0.371794
#
# Coordination Sequence:
#
# PCOD8164980 Si02
#       8
#     8   8   8   8   8   8   8   8
#     4  11  21  43  61  82 111 160 227 256 290 364
#     4   9  19  36  57  90 127 155 195 246 306 388
#     4  10  21  40  61  91 124 164 203 249 302 391
#     4  10  21  36  59  94 133 158 191 247 312 383
#     4   9  18  32  59  89 122 157 186 232 313 387
#     4  11  24  37  64  86 117 164 205 264 308 354
#     4  10  21  39  57  95 124 153 203 259 313 369
#     4  10  19  36  61  89 115 167 197 247 311 369
#
# _framework density 20.943093999999999
#
# number of rings (size 3 to 8) (size 9 to 14) (size 15 to 20)
#    0.000    2.000    2.500    2.625    3.500    5.000 
#    4.500    4.375    0.000    0.000    0.000    0.000 
#    0.000    0.000    0.000    0.000    0.000    0.000 
#
# Total GULP energy -396452.915205 kJ/mol
# GULP energy per Si atom -12389.153600 kJ/mol
# Density = 2.089543 g / cm^3
# Si number density = 20.943094 Si / 1000 Ang^3
#
#
#
# Elastic Constant Matrix: (Units=GPa)
#
#
# Indices 1 2 3 4 5 6 
#
# 1 119.1075 24.8793 30.2184 0.0000 0.0000 0.0000
# 2 24.8793 47.9309 19.8201 0.0000 0.0000 0.0000
# 3 30.2184 19.8201 43.6205 0.0000 0.0000 0.0000
# 4 0.0000 0.0000 0.0000 23.0829 0.0000 0.0000
# 5 0.0000 0.0000 0.0000 0.0000 27.9108 0.0000
# 6 0.0000 0.0000 0.0000 0.0000 0.0000 33.6985
#
#
#
# Elastic Compliance Matrix: (Units=1/GPa)
#
#
# Indices 1 2 3 4 5 6 
#
# 1 0.010529 -0.003016 -0.005924 0.000000 0.000000 0.000000
# 2 -0.003016 0.026554 -0.009977 0.000000 0.000000 0.000000
# 3 -0.005924 -0.009977 0.031562 0.000000 0.000000 0.000000
# 4 0.000000 0.000000 0.000000 0.043322 0.000000 0.000000
# 5 0.000000 0.000000 0.000000 0.000000 0.035828 0.000000
# 6 0.000000 0.000000 0.000000 0.000000 0.000000 0.029675
#
#
# Mechanical properties :
#
#
# Convention : Reuss Voigt Hill
#
# Bulk Modulus (GPa) = 32.45369 40.05493 36.25431
# Shear Modulus (GPa) = 22.16588 25.98784 24.07686
#
# Velocity S-wave (km/s) = 3.25681 3.52643 3.39430
# Velocity P-wave (km/s) = 5.44722 5.97897 5.71928
#
# Compressibility (1/GPa) = 0.03081314
#
# Stress axis : x y z
#
# Youngs Moduli (GPa) = 94.98026 37.65901 31.68399
#
# Poissons Ratio (x) = 0.11356 0.18768
# Poissons Ratio (y) = 0.28641 0.31610
# Poissons Ratio (z) = 0.56262 0.37571
#
# Static dielectric constant tensor:
#      x y z
#    x 3.902150 0.000000 0.000000 
#    y 0.000000 3.845630 0.000000 
#    z 0.000000 0.000000 3.571820 
# 
# 
# High freq. dielectric constant tensor:
#      x y z
#    x 1.833460 0.000000 0.000000 
#    y 0.000000 1.797230 0.000000 
#    z 0.000000 0.000000 1.799530 
# 
# From -- ./inp_files/30357.got.cif
#   From: 2010.03.12/outbox.cif.g09.slc.cpg/sg24_16_cif.got.tgz:30357.got - 2010.04.14 03:06:53.
