data_PCOD8164030
_publ_section_title
;
Structure prediction by ZEFSAII (Michael W. Deem and Ramdas Pophale) SiO2 
 PCOD8164030
Probable space group: I 2 2 2
;
_chemical_formula_sum "Si O2"
_cell_formula_units_Z 58
_cell_length_a 26.470655
_cell_length_b 11.651482
_cell_length_c 8.657248
_cell_angle_alpha 90.000000
_cell_angle_beta 90.000000
_cell_angle_gamma 90.000000
_cell_volume 2670.088862
_symmetry_space_group_name_H-M "I 2 2 2"
_symmetry_group_IT_number 23
_symmetry_cell_setting 'orthorhombic'
loop_
_space_group_symop_operation_xyz
x,y,z
-x,-y,z
x,-y,-z
-x,y,-z
1/2+x,1/2+y,1/2+z
1/2-x,1/2-y,1/2+z
1/2+x,1/2-y,1/2-z
1/2-x,1/2+y,1/2-z
loop_
_atom_site_type_symbol
_atom_site_label
_atom_site_fract_x
_atom_site_fract_y
_atom_site_fract_z
Si Si1 0.640768 0.890735 0.802685
Si Si2 0.617076 0.861769 0.131425
Si Si3 0.811660 0.217449 0.166955
Si Si4 0.409077 0.390127 0.403326
Si Si5 0.735245 0.118639 0.414457
Si Si6 0.028865 0.806481 0.350593
Si Si7 0.945663 0.709607 0.132484
Si Si8 0.000000 0.500000 0.000000
O O1 0.690372 0.911349 0.702572
O O2 0.607337 0.793856 0.721643
O O3 0.608352 0.007060 0.819864
O O4 0.652078 0.848993 0.977448
O O5 0.647621 0.807342 0.271206
O O6 0.562136 0.805298 0.103246
O O7 0.847629 0.117977 0.095291
O O8 0.780070 0.164066 0.306983
O O9 0.777661 0.281153 0.037996
O O10 0.425560 0.500000 0.500000
O O11 0.432693 0.398801 0.229249
O O12 0.435397 0.276385 0.473508
O O13 0.750877 0.000000 0.500000
O O14 0.000000 0.857489 0.500000
O O15 0.985748 0.778053 0.230087
O O16 0.963986 0.580542 0.101662
#
# Coordination Sequence:
#
# PCOD8164030 Si02
#       8
#     8   8   8   8   8   8   8   2
#     4  11  22  39  67 101 141 180 219 282 349 420
#     4  10  22  41  66 101 145 176 220 280 356 413
#     4  11  25  46  70  99 133 181 234 296 357 428
#     4  11  26  49  69  95 140 191 237 284 348 425
#     4  12  25  45  73 102 138 178 240 296 363 436
#     4  11  22  43  68 104 138 181 233 285 335 401
#     4  12  23  40  68 101 141 183 227 279 336 420
#     4  12  24  36  68 104 136 180 230 270 344 404
#
# _framework density 21.722123
#
# number of rings (size 3 to 8) (size 9 to 14) (size 15 to 20)
#    0.000    0.828    5.517    1.655    2.897    2.207 
#    4.966    1.379    0.000    0.000    0.000    0.000 
#    0.000    0.000    0.000    0.000    0.000    0.000 
#
# Total GULP energy -359496.289543 kJ/mol
# GULP energy per Si atom -12396.423777 kJ/mol
# Density = 2.167268 g / cm^3
# Si number density = 21.722123 Si / 1000 Ang^3
#
#
#
# Elastic Constant Matrix: (Units=GPa)
#
#
# Indices 1 2 3 4 5 6 
#
# 1 96.3641 31.7779 50.8045 0.0000 0.0000 0.0000
# 2 31.7779 76.7077 38.4822 0.0000 0.0000 0.0000
# 3 50.8045 38.4822 120.6517 0.0000 0.0000 0.0000
# 4 0.0000 0.0000 0.0000 31.4245 0.0000 0.0000
# 5 0.0000 0.0000 0.0000 0.0000 55.0452 0.0000
# 6 0.0000 0.0000 0.0000 0.0000 0.0000 23.3930
#
#
#
# Elastic Compliance Matrix: (Units=1/GPa)
#
#
# Indices 1 2 3 4 5 6 
#
# 1 0.014044 -0.003394 -0.004831 0.000000 0.000000 0.000000
# 2 -0.003394 0.016340 -0.003782 0.000000 0.000000 0.000000
# 3 -0.004831 -0.003782 0.011529 0.000000 0.000000 0.000000
# 4 0.000000 0.000000 0.000000 0.031822 0.000000 0.000000
# 5 0.000000 0.000000 0.000000 0.000000 0.018167 0.000000
# 6 0.000000 0.000000 0.000000 0.000000 0.000000 0.042748
#
#
# Mechanical properties :
#
#
# Convention : Reuss Voigt Hill
#
# Bulk Modulus (GPa) = 55.87407 59.53918 57.70662
# Shear Modulus (GPa) = 30.37093 33.48311 31.92702
#
# Velocity S-wave (km/s) = 3.74325 3.93036 3.83795
# Velocity P-wave (km/s) = 6.66788 6.93296 6.80171
#
# Compressibility (1/GPa) = 0.01789739
#
# Stress axis : x y z
#
# Youngs Moduli (GPa) = 71.20700 61.19853 86.73809
#
# Poissons Ratio (x) = 0.20773 0.41902
# Poissons Ratio (y) = 0.24170 0.32808
# Poissons Ratio (z) = 0.34399 0.23148
#
# Static dielectric constant tensor:
#      x y z
#    x 3.960390 0.000000 0.000000 
#    y 0.000000 3.799340 0.000000 
#    z 0.000000 0.000000 4.305170 
# 
# 
# High freq. dielectric constant tensor:
#      x y z
#    x 1.854690 0.000000 0.000000 
#    y 0.000000 1.832160 0.000000 
#    z 0.000000 0.000000 1.872260 
# 
# From -- ./inp_files/13072.got.cif
#   From: 2010.03.12/outbox.cif.g09.slc.cpg/sg23_7_cif.got.tgz:13072.got - 2010.04.14 02:50:06.
