data_PCOD8164818
_publ_section_title
;
Structure prediction by ZEFSAII (Michael W. Deem and Ramdas Pophale) SiO2 
 PCOD8164818
Probable space group: I 21 21 21
;
_chemical_formula_sum "Si O2"
_cell_formula_units_Z 40
_cell_length_a 13.280852
_cell_length_b 14.240932
_cell_length_c 9.756804
_cell_angle_alpha 90.000000
_cell_angle_beta 90.000000
_cell_angle_gamma 90.000000
_cell_volume 1845.321027
_symmetry_space_group_name_H-M "I 21 21 21"
_symmetry_group_IT_number 24
_symmetry_cell_setting 'orthorhombic'
loop_
_space_group_symop_operation_xyz
x,y,z
-x,1/2-y,z
x,-y,1/2-z
1/2-x,y,-z
1/2+x,1/2+y,1/2+z
1/2-x,-y,1/2+z
1/2+x,1/2-y,-z
-x,1/2+y,1/2-z
loop_
_atom_site_type_symbol
_atom_site_label
_atom_site_fract_x
_atom_site_fract_y
_atom_site_fract_z
Si Si1 0.500000 0.250000 0.756083
Si Si2 0.838285 0.000000 0.250000
Si Si3 0.286823 0.309284 0.649215
Si Si4 0.835504 0.239053 0.895985
Si Si5 0.022638 0.402870 0.035050
Si Si6 0.342077 0.041785 0.097855
O O1 0.403281 0.277542 0.665165
O O2 0.534081 0.336170 0.853552
O O3 0.769810 0.082185 0.311571
O O4 0.898826 0.036366 0.119447
O O5 0.250000 0.284274 0.500000
O O6 0.209323 0.254637 0.744441
O O7 0.865031 0.346914 0.916987
O O8 0.750000 0.205120 0.000000
O O9 0.926137 0.165002 0.919253
O O10 0.950081 0.484801 0.968641
O O11 0.325807 0.000000 0.250000
O O12 0.250000 0.009780 0.000000
#
# Coordination Sequence:
#
# PCOD8164818 Si02
#       6
#     4   4   8   8   8   8
#     4  10  18  44  68  90 128 180 216 252 340 416
#     4  10  24  38  70  98 128 168 216 286 336 388
#     4  11  25  41  66 100 135 170 217 282 338 392
#     4  11  20  44  74  92 125 182 220 266 334 407
#     4  11  21  43  71  95 127 175 228 271 334 400
#     4  11  25  43  66  97 131 178 226 273 323 400
#
# _framework density 21.676445000000001
#
# number of rings (size 3 to 8) (size 9 to 14) (size 15 to 20)
#    0.000    1.200    6.000    1.200    4.200    2.400 
#   10.800    0.000    0.000    0.000    0.000    0.000 
#    0.000    0.000    0.000    0.000    0.000    0.000 
#
# Total GULP energy -247780.975298 kJ/mol
# GULP energy per Si atom -12389.048765 kJ/mol
# Density = 2.162711 g / cm^3
# Si number density = 21.676445 Si / 1000 Ang^3
#
#
#
# Elastic Constant Matrix: (Units=GPa)
#
#
# Indices 1 2 3 4 5 6 
#
# 1 92.4919 10.6977 60.4705 0.0000 0.0000 0.0000
# 2 10.6977 33.6692 10.7819 0.0000 0.0000 0.0000
# 3 60.4705 10.7819 168.5962 0.0000 0.0000 0.0000
# 4 0.0000 0.0000 0.0000 2.4869 0.0000 0.0000
# 5 0.0000 0.0000 0.0000 0.0000 23.5246 0.0000
# 6 0.0000 0.0000 0.0000 0.0000 0.0000 6.5391
#
#
#
# Elastic Compliance Matrix: (Units=1/GPa)
#
#
# Indices 1 2 3 4 5 6 
#
# 1 0.014412 -0.002985 -0.004978 0.000000 0.000000 0.000000
# 2 -0.002985 0.030940 -0.000908 0.000000 0.000000 0.000000
# 3 -0.004978 -0.000908 0.007775 0.000000 0.000000 0.000000
# 4 0.000000 0.000000 0.000000 0.402105 0.000000 0.000000
# 5 0.000000 0.000000 0.000000 0.000000 0.042509 0.000000
# 6 0.000000 0.000000 0.000000 0.000000 0.000000 0.152926
#
#
# Mechanical properties :
#
#
# Convention : Reuss Voigt Hill
#
# Bulk Modulus (GPa) = 28.26108 50.96193 39.61151
# Shear Modulus (GPa) = 7.35074 20.69727 14.02400
#
# Velocity S-wave (km/s) = 1.84350 3.09338 2.54632
# Velocity P-wave (km/s) = 4.19491 6.02661 5.19217
#
# Compressibility (1/GPa) = 0.03538435
#
# Stress axis : x y z
#
# Youngs Moduli (GPa) = 69.38823 32.32070 128.61872
#
# Poissons Ratio (x) = 0.09647 0.64028
# Poissons Ratio (y) = 0.20712 0.11679
# Poissons Ratio (z) = 0.34543 0.02935
#
# Static dielectric constant tensor:
#      x y z
#    x 4.361940 0.000000 0.000000 
#    y 0.000000 4.045020 0.000000 
#    z 0.000000 0.000000 4.086160 
# 
# 
# High freq. dielectric constant tensor:
#      x y z
#    x 1.856480 0.000000 0.000000 
#    y 0.000000 1.840320 0.000000 
#    z 0.000000 0.000000 1.848200 
# 
# From -- ./inp_files/12350.got.cif
#   From: 2010.03.12/outbox.cif.g09.slc.cpg/sg24_7_cif.got.tgz:12350.got - 2010.04.14 03:06:53.
