data_PCOD8164760
_publ_section_title
;
Structure prediction by ZEFSAII (Michael W. Deem and Ramdas Pophale) SiO2 
 PCOD8164760
Probable space group: I 21 21 21
;
_chemical_formula_sum "Si O2"
_cell_formula_units_Z 48
_cell_length_a 11.076648
_cell_length_b 8.203577
_cell_length_c 24.474206
_cell_angle_alpha 90.000000
_cell_angle_beta 90.000000
_cell_angle_gamma 90.000000
_cell_volume 2223.925449
_symmetry_space_group_name_H-M "I 21 21 21"
_symmetry_group_IT_number 24
_symmetry_cell_setting 'orthorhombic'
loop_
_space_group_symop_operation_xyz
x,y,z
-x,1/2-y,z
x,-y,1/2-z
1/2-x,y,-z
1/2+x,1/2+y,1/2+z
1/2-x,-y,1/2+z
1/2+x,1/2-y,-z
-x,1/2+y,1/2-z
loop_
_atom_site_type_symbol
_atom_site_label
_atom_site_fract_x
_atom_site_fract_y
_atom_site_fract_z
Si Si1 0.273303 0.340523 0.717103
Si Si2 0.250000 0.313170 0.500000
Si Si3 0.500000 0.250000 0.643054
Si Si4 0.029656 0.570234 0.841965
Si Si5 0.659390 0.500000 0.250000
Si Si6 0.598458 0.054768 0.048483
Si Si7 0.750000 0.322955 0.000000
Si Si8 0.923100 0.555978 0.044993
O O1 0.321454 0.500000 0.750000
O O2 0.382231 0.287286 0.678337
O O3 0.158563 0.418217 0.686891
O O4 0.236230 0.171389 0.749717
O O5 0.208986 0.425745 0.551070
O O6 0.368400 0.221040 0.520242
O O7 0.473728 0.091092 0.605370
O O8 0.029705 0.449333 0.893992
O O9 0.000000 0.750000 0.863876
O O10 0.926929 0.497616 0.802781
O O11 0.651378 0.231876 0.036634
O O12 0.521639 0.013249 0.995468
O O13 0.813312 0.428664 0.047430
#
# Coordination Sequence:
#
# PCOD8164760 Si02
#       8
#     8   4   4   8   4   8   4   8
#     4  11  26  50  74 107 144 188 246 318 368 442
#     4  10  18  34  70  90 134 184 226 284 320 426
#     4  12  26  46  78 100 142 206 242 292 384 434
#     4  10  21  42  74 106 134 188 239 304 375 427
#     4  10  24  50  76 108 140 180 254 320 374 438
#     4  11  21  40  65 101 143 182 228 286 353 422
#     4  10  26  40  60  98 154 184 228 290 344 430
#     4  11  22  44  62 101 138 184 236 279 341 445
#
# _framework density 21.583459000000001
#
# number of rings (size 3 to 8) (size 9 to 14) (size 15 to 20)
#    0.000    1.333    2.500    2.500    3.500    4.000 
#    9.000    0.000    0.000    0.000    0.000    0.000 
#    0.000    0.000    0.000    0.000    0.000    0.000 
#
# Total GULP energy -297364.566633 kJ/mol
# GULP energy per Si atom -12390.190276 kJ/mol
# Density = 2.153433 g / cm^3
# Si number density = 21.583459 Si / 1000 Ang^3
#
#
#
# Elastic Constant Matrix: (Units=GPa)
#
#
# Indices 1 2 3 4 5 6 
#
# 1 106.3283 55.2821 56.2208 0.0000 0.0000 0.0000
# 2 55.2821 145.3466 67.3392 0.0000 0.0000 0.0003
# 3 56.2208 67.3392 131.6252 0.0000 0.0000 0.0002
# 4 0.0000 0.0000 0.0000 18.4216 0.0000 0.0002
# 5 0.0000 0.0000 0.0000 0.0000 35.1843 0.0001
# 6 0.0000 0.0003 0.0002 0.0002 0.0001 7548.3889
#
#
#
# Elastic Compliance Matrix: (Units=1/GPa)
#
#
# Indices 1 2 3 4 5 6 
#
# 1 0.013163 -0.003148 -0.004012 0.000000 0.000000 0.000000
# 2 -0.003148 0.009770 -0.003654 0.000000 0.000000 0.000000
# 3 -0.004012 -0.003654 0.011180 0.000000 0.000000 0.000000
# 4 0.000000 0.000000 0.000000 0.054284 0.000000 0.000000
# 5 0.000000 0.000000 0.000000 0.000000 0.028422 0.000000
# 6 0.000000 0.000000 0.000000 0.000000 0.000000 0.000132
#
#
# Mechanical properties :
#
#
# Convention : Reuss Voigt Hill
#
# Bulk Modulus (GPa) = 80.08838 82.33159 81.20998
# Shear Modulus (GPa) = 35.02867 1534.02948 784.52908
#
# Velocity S-wave (km/s) = 4.03294 26.68869 19.08600
# Velocity P-wave (km/s) = 7.67288 31.43157 22.87812
#
# Compressibility (1/GPa) = 0.01248621
#
# Stress axis : x y z
#
# Youngs Moduli (GPa) = 75.97287 102.35209 89.44364
#
# Poissons Ratio (x) = 0.32217 0.35883
# Poissons Ratio (y) = 0.23914 0.32682
# Poissons Ratio (z) = 0.30479 0.37399
#
# Static dielectric constant tensor:
#      x y z
#    x 4.232610 0.000000 0.000000 
#    y 0.000000 4.308470 0.000000 
#    z 0.000000 0.000000 2.320100 
# 
# 
# High freq. dielectric constant tensor:
#      x y z
#    x 1.867730 0.000000 0.000000 
#    y 0.000000 1.861490 0.000000 
#    z 0.000000 0.000000 1.823120 
# 
# From -- ./inp_files/35580.got.cif
#   From: 2010.03.12/outbox.cif.g09.slc.cpg/sg24_18_cif.got.tgz:35580.got - 2010.04.14 03:06:53.
