data_PCOD8164808
_publ_section_title
;
Structure prediction by ZEFSAII (Michael W. Deem and Ramdas Pophale) SiO2 
 PCOD8164808
Probable space group: I 21 21 21
;
_chemical_formula_sum "Si O2"
_cell_formula_units_Z 48
_cell_length_a 33.062083
_cell_length_b 8.659822
_cell_length_c 8.496120
_cell_angle_alpha 90.000000
_cell_angle_beta 90.000000
_cell_angle_gamma 90.000000
_cell_volume 2432.539017
_symmetry_space_group_name_H-M "I 21 21 21"
_symmetry_group_IT_number 24
_symmetry_cell_setting 'orthorhombic'
loop_
_space_group_symop_operation_xyz
x,y,z
-x,1/2-y,z
x,-y,1/2-z
1/2-x,y,-z
1/2+x,1/2+y,1/2+z
1/2-x,-y,1/2+z
1/2+x,1/2-y,-z
-x,1/2+y,1/2-z
loop_
_atom_site_type_symbol
_atom_site_label
_atom_site_fract_x
_atom_site_fract_y
_atom_site_fract_z
Si Si1 0.151474 0.825512 0.228831
Si Si2 0.480567 0.500000 0.750000
Si Si3 0.417947 0.317647 0.565700
Si Si4 0.291311 0.413318 0.586338
Si Si5 0.568782 0.170915 0.222729
Si Si6 0.362044 0.601854 0.490597
Si Si7 0.000000 0.250000 0.012674
O O1 0.108236 0.818762 0.141564
O O2 0.185959 0.746018 0.123220
O O3 0.145671 0.745313 0.396318
O O4 0.165371 0.000000 0.250000
O O5 0.456335 0.357865 0.671572
O O6 0.505150 0.407872 0.885127
O O7 0.431132 0.251211 0.394702
O O8 0.392642 0.477540 0.565883
O O9 0.283191 0.500000 0.750000
O O10 0.250000 0.373185 0.500000
O O11 0.318797 0.517402 0.467430
O O12 0.551298 0.000000 0.250000
O O13 0.616110 0.164849 0.166794
O O14 0.540145 0.253286 0.096099
#
# Coordination Sequence:
#
# PCOD8164808 Si02
#       7
#     8   4   8   8   8   8   4
#     4  10  19  35  60  89 121 162 204 245 305 374
#     4  12  22  42  60  88 118 166 216 258 320 394
#     4  10  18  39  64  80 112 159 210 261 293 369
#     4   9  19  34  60  90 120 155 204 248 297 369
#     4  10  20  39  61  85 115 152 205 272 309 354
#     4   9  17  37  62  84 114 154 208 249 297 362
#     4  12  24  40  62  86 122 164 212 258 344 372
#
# _framework density 19.732468999999998
#
# number of rings (size 3 to 8) (size 9 to 14) (size 15 to 20)
#    0.000    2.000    5.000    1.000    0.000    4.000 
#    6.000    4.167    0.000    0.000    0.000    0.000 
#    0.000    0.000    0.000    0.000    0.000    0.000 
#
# Total GULP energy -297435.101294 kJ/mol
# GULP energy per Si atom -12393.129221 kJ/mol
# Density = 1.968756 g / cm^3
# Si number density = 19.732469 Si / 1000 Ang^3
#
#
#
# Elastic Constant Matrix: (Units=GPa)
#
#
# Indices 1 2 3 4 5 6 
#
# 1 107.6269 44.0672 60.2351 0.0000 0.0000 0.0000
# 2 44.0672 89.8554 43.2455 0.0000 0.0000 0.0000
# 3 60.2351 43.2455 109.7409 0.0000 0.0000 0.0000
# 4 0.0000 0.0000 0.0000 26.6721 0.0000 0.0000
# 5 0.0000 0.0000 0.0000 0.0000 38.7197 0.0000
# 6 0.0000 0.0000 0.0000 0.0000 0.0000 13.7550
#
#
#
# Elastic Compliance Matrix: (Units=1/GPa)
#
#
# Indices 1 2 3 4 5 6 
#
# 1 0.014516 -0.004053 -0.006371 0.000000 0.000000 0.000000
# 2 -0.004053 0.014865 -0.003633 0.000000 0.000000 0.000000
# 3 -0.006371 -0.003633 0.014041 0.000000 0.000000 0.000000
# 4 0.000000 0.000000 0.000000 0.037492 0.000000 0.000000
# 5 0.000000 0.000000 0.000000 0.000000 0.025827 0.000000
# 6 0.000000 0.000000 0.000000 0.000000 0.000000 0.072701
#
#
# Mechanical properties :
#
#
# Convention : Reuss Voigt Hill
#
# Bulk Modulus (GPa) = 65.32292 66.92432 66.12362
# Shear Modulus (GPa) = 23.51180 26.47439 24.99309
#
# Velocity S-wave (km/s) = 3.45560 3.66685 3.56279
# Velocity P-wave (km/s) = 7.00697 7.20536 7.10686
#
# Compressibility (1/GPa) = 0.01530856
#
# Stress axis : x y z
#
# Youngs Moduli (GPa) = 68.88838 67.27046 71.22087
#
# Poissons Ratio (x) = 0.27265 0.45371
# Poissons Ratio (y) = 0.27921 0.25877
# Poissons Ratio (z) = 0.43886 0.24441
#
# Static dielectric constant tensor:
#      x y z
#    x 3.560450 0.000000 0.000000 
#    y 0.000000 3.238580 0.000000 
#    z 0.000000 0.000000 3.790320 
# 
# 
# High freq. dielectric constant tensor:
#      x y z
#    x 1.756540 0.000000 0.000000 
#    y 0.000000 1.736520 0.000000 
#    z 0.000000 0.000000 1.777320 
# 
# From -- ./inp_files/9795.got.cif
#   From: 2010.03.12/outbox.cif.g09.slc.cpg/sg24_5_cif.got.tgz:9795.got - 2010.04.14 03:06:53.
