data_PCOD8164885
_publ_section_title
;
Structure prediction by ZEFSAII (Michael W. Deem and Ramdas Pophale) SiO2 
 PCOD8164885
Probable space group: I 21 21 21
;
_chemical_formula_sum "Si O2"
_cell_formula_units_Z 64
_cell_length_a 11.021463
_cell_length_b 24.518045
_cell_length_c 12.088922
_cell_angle_alpha 90.000000
_cell_angle_beta 90.000000
_cell_angle_gamma 90.000000
_cell_volume 3266.725633
_symmetry_space_group_name_H-M "I 21 21 21"
_symmetry_group_IT_number 24
_symmetry_cell_setting 'orthorhombic'
loop_
_space_group_symop_operation_xyz
x,y,z
-x,1/2-y,z
x,-y,1/2-z
1/2-x,y,-z
1/2+x,1/2+y,1/2+z
1/2-x,-y,1/2+z
1/2+x,1/2-y,-z
-x,1/2+y,1/2-z
loop_
_atom_site_type_symbol
_atom_site_label
_atom_site_fract_x
_atom_site_fract_y
_atom_site_fract_z
Si Si1 0.054562 0.805183 0.299529
Si Si2 0.890698 0.937230 0.996020
Si Si3 0.940572 0.303155 0.792253
Si Si4 0.888476 0.060111 0.973070
Si Si5 0.264097 0.237001 0.626341
Si Si6 0.621365 0.370538 0.998767
Si Si7 0.108253 0.600179 0.764719
Si Si8 0.144194 0.643287 0.171001
O O1 0.125596 0.794349 0.185093
O O2 0.137191 0.830073 0.395179
O O3 0.000000 0.750000 0.349401
O O4 0.943984 0.845007 0.272397
O O5 0.938507 0.892481 0.084105
O O6 0.750000 0.922188 0.000000
O O7 0.947058 0.928339 0.874162
O O8 0.910050 0.000554 0.026405
O O9 0.855567 0.280193 0.694150
O O10 0.874923 0.337036 0.887354
O O11 0.000000 0.250000 0.848566
O O12 0.046202 0.340977 0.742948
O O13 0.910939 0.061099 0.840981
O O14 0.997165 0.096586 0.022483
O O15 0.750000 0.080680 0.000000
O O16 0.250000 0.216664 0.500000
O O17 0.295025 0.301563 0.622298
O O18 0.750000 0.404701 0.000000
O O19 0.252055 0.605878 0.776654
#
# Coordination Sequence:
#
# PCOD8164885 Si02
#       8
#     8   8   8   8   8   8   8   8
#     4  10  22  38  58  83 118 158 191 237 290 363
#     4   9  19  35  57  86 117 148 195 253 311 349
#     4  11  22  35  58  87 120 158 196 239 291 365
#     4  10  21  37  61  88 112 152 207 261 299 349
#     4  11  22  35  55  86 122 159 194 233 294 363
#     4  11  22  41  61  84 122 161 201 243 300 356
#     4  10  19  33  57  85 116 152 194 248 299 358
#     4  10  20  36  57  87 118 151 194 247 302 356
#
# _framework density 19.591483
#
# number of rings (size 3 to 8) (size 9 to 14) (size 15 to 20)
#    0.000    1.750    2.500    2.625    1.750    0.500 
#    0.000    2.500    2.750    1.500    0.000    0.000 
#    0.000    0.000    0.000    0.000    0.000    0.000 
#
# Total GULP energy -396423.377618 kJ/mol
# GULP energy per Si atom -12388.230551 kJ/mol
# Density = 1.954689 g / cm^3
# Si number density = 19.591483 Si / 1000 Ang^3
#
#
#
# Elastic Constant Matrix: (Units=GPa)
#
#
# Indices 1 2 3 4 5 6 
#
# 1 95.1347 33.8935 21.3119 0.0000 0.0000 0.0000
# 2 33.8935 91.5616 33.9086 -0.0003 0.0001 -0.0001
# 3 21.3119 33.9086 98.8177 -0.0009 -0.0001 -0.0005
# 4 0.0000 -0.0003 -0.0009 16.9412 0.0000 -0.0001
# 5 0.0000 0.0001 -0.0001 0.0000 16.9238 0.0000
# 6 0.0000 -0.0001 -0.0005 -0.0001 0.0000 19.5465
#
#
#
# Elastic Compliance Matrix: (Units=1/GPa)
#
#
# Indices 1 2 3 4 5 6 
#
# 1 0.012240 -0.004071 -0.001243 0.000000 0.000000 0.000000
# 2 -0.004071 0.013865 -0.003880 0.000000 0.000000 0.000000
# 3 -0.001243 -0.003880 0.011719 0.000001 0.000000 0.000000
# 4 0.000000 0.000000 0.000001 0.059028 0.000000 0.000000
# 5 0.000000 0.000000 0.000000 0.000000 0.059088 0.000000
# 6 0.000000 0.000000 0.000000 0.000000 0.000000 0.051160
#
#
# Mechanical properties :
#
#
# Convention : Reuss Voigt Hill
#
# Bulk Modulus (GPa) = 51.44696 51.52687 51.48692
# Shear Modulus (GPa) = 21.55483 23.77563 22.66523
#
# Velocity S-wave (km/s) = 3.32055 3.48741 3.40500
# Velocity P-wave (km/s) = 6.40455 6.52486 6.46498
#
# Compressibility (1/GPa) = 0.01943749
#
# Stress axis : x y z
#
# Youngs Moduli (GPa) = 81.69865 72.12248 85.33091
#
# Poissons Ratio (x) = 0.29358 0.10607
# Poissons Ratio (y) = 0.33256 0.33107
# Poissons Ratio (z) = 0.10155 0.27983
#
# Static dielectric constant tensor:
#      x y z
#    x 3.533970 0.000000 0.000000 
#    y 0.000000 3.469740 0.000000 
#    z 0.000000 0.000000 3.641440 
# 
# 
# High freq. dielectric constant tensor:
#      x y z
#    x 1.751750 0.000000 0.000000 
#    y 0.000000 1.748440 0.000000 
#    z 0.000000 0.000000 1.768550 
# 
# From -- ./inp_files/20129.got.cif
#   From: 2010.03.12/outbox.cif.g09.slc.cpg/sg24_11_cif.got.tgz:20129.got - 2010.04.14 03:06:53.
