data_PCOD8164319
_publ_section_title
;
Structure prediction by ZEFSAII (Michael W. Deem and Ramdas Pophale) SiO2 
 PCOD8164319
Probable space group: I 2 2 2
;
_chemical_formula_sum "Si O2"
_cell_formula_units_Z 36
_cell_length_a 9.991934
_cell_length_b 11.048213
_cell_length_c 15.211733
_cell_angle_alpha 90.000000
_cell_angle_beta 90.000000
_cell_angle_gamma 90.000000
_cell_volume 1679.269071
_symmetry_space_group_name_H-M "I 2 2 2"
_symmetry_group_IT_number 23
_symmetry_cell_setting 'orthorhombic'
loop_
_space_group_symop_operation_xyz
x,y,z
-x,-y,z
x,-y,-z
-x,y,-z
1/2+x,1/2+y,1/2+z
1/2-x,1/2-y,1/2+z
1/2+x,1/2-y,1/2-z
1/2-x,1/2+y,1/2-z
loop_
_atom_site_type_symbol
_atom_site_label
_atom_site_fract_x
_atom_site_fract_y
_atom_site_fract_z
Si Si1 0.372171 0.082023 0.311967
Si Si2 0.164573 0.000000 0.000000
Si Si3 0.765845 0.673179 0.635184
Si Si4 0.955347 0.837886 0.848610
Si Si5 0.126089 0.072119 0.660801
O O1 0.350925 0.104203 0.208750
O O2 0.384252 0.209424 0.362613
O O3 0.500000 0.000000 0.326200
O O4 0.249249 0.015416 0.356667
O O5 0.070213 0.077705 0.933097
O O6 0.264947 0.908497 0.951721
O O7 0.612356 0.689715 0.667133
O O8 0.840358 0.800107 0.614210
O O9 0.894979 0.907194 0.764945
O O10 0.000000 0.000000 0.619524
#
# Coordination Sequence:
#
# PCOD8164319 Si02
#       5
#     8   4   8   8   8
#     4  11  22  39  64  95 129 167 222 264 312 384
#     4  12  23  42  65 102 135 168 215 268 333 398
#     4  11  22  37  67  97 129 168 214 272 322 375
#     4  11  21  36  67  99 129 169 212 273 319 380
#     4  11  21  40  66  96 129 171 219 264 316 381
#
# _framework density 21.437898000000001
#
# number of rings (size 3 to 8) (size 9 to 14) (size 15 to 20)
#    0.000    0.889    6.667    2.000    0.000    0.000 
#    0.000    1.667    0.000    1.333    0.000    0.000 
#    0.000    0.000    0.000    0.000    0.000    0.000 
#
# Total GULP energy -223176.050221 kJ/mol
# GULP energy per Si atom -12398.669457 kJ/mol
# Density = 2.138910 g / cm^3
# Si number density = 21.437898 Si / 1000 Ang^3
#
#
#
# Elastic Constant Matrix: (Units=GPa)
#
#
# Indices 1 2 3 4 5 6 
#
# 1 140.1698 82.6379 22.4691 0.0000 0.0000 0.0000
# 2 82.6379 184.5286 47.0444 0.0000 0.0000 0.0000
# 3 22.4691 47.0444 67.9865 0.0000 0.0000 0.0000
# 4 0.0000 0.0000 0.0000 33.5602 0.0000 0.0000
# 5 0.0000 0.0000 0.0000 0.0000 28.0477 0.0000
# 6 0.0000 0.0000 0.0000 0.0000 0.0000 55.1436
#
#
#
# Elastic Compliance Matrix: (Units=1/GPa)
#
#
# Indices 1 2 3 4 5 6 
#
# 1 0.009697 -0.004281 -0.000243 0.000000 0.000000 0.000000
# 2 -0.004281 0.008470 -0.004446 0.000000 0.000000 0.000000
# 3 -0.000243 -0.004446 0.017866 0.000000 0.000000 0.000000
# 4 0.000000 0.000000 0.000000 0.029797 0.000000 0.000000
# 5 0.000000 0.000000 0.000000 0.000000 0.035654 0.000000
# 6 0.000000 0.000000 0.000000 0.000000 0.000000 0.018134
#
#
# Mechanical properties :
#
#
# Convention : Reuss Voigt Hill
#
# Bulk Modulus (GPa) = 55.26902 77.44308 66.35605
# Shear Modulus (GPa) = 34.82207 39.38586 37.10397
#
# Velocity S-wave (km/s) = 4.03466 4.29092 4.16476
# Velocity P-wave (km/s) = 6.89504 7.79436 7.35845
#
# Compressibility (1/GPa) = 0.01809332
#
# Stress axis : x y z
#
# Youngs Moduli (GPa) = 103.12681 118.06754 55.97380
#
# Poissons Ratio (x) = 0.50541 0.01358
# Poissons Ratio (y) = 0.44145 0.24886
# Poissons Ratio (z) = 0.02502 0.52493
#
# Static dielectric constant tensor:
#      x y z
#    x 3.978350 0.000000 0.000000 
#    y 0.000000 4.318370 0.000000 
#    z 0.000000 0.000000 3.497810 
# 
# 
# High freq. dielectric constant tensor:
#      x y z
#    x 1.842840 0.000000 0.000000 
#    y 0.000000 1.873200 0.000000 
#    z 0.000000 0.000000 1.802640 
# 
# From -- ./inp_files/26054.got.cif
#   From: 2010.03.12/outbox.cif.g09.slc.cpg/sg23_14_cif.got.tgz:26054.got - 2010.04.14 02:50:06.
