data_PCOD8164504
_publ_section_title
;
Structure prediction by ZEFSAII (Michael W. Deem and Ramdas Pophale) SiO2 
 PCOD8164504
Probable space group: I 2 2 2
;
_chemical_formula_sum "Si O2"
_cell_formula_units_Z 26
_cell_length_a 13.134983
_cell_length_b 5.034057
_cell_length_c 18.546083
_cell_angle_alpha 90.000000
_cell_angle_beta 90.000000
_cell_angle_gamma 90.000000
_cell_volume 1226.308794
_symmetry_space_group_name_H-M "I 2 2 2"
_symmetry_group_IT_number 23
_symmetry_cell_setting 'orthorhombic'
loop_
_space_group_symop_operation_xyz
x,y,z
-x,-y,z
x,-y,-z
-x,y,-z
1/2+x,1/2+y,1/2+z
1/2-x,1/2-y,1/2+z
1/2+x,1/2-y,1/2-z
1/2-x,1/2+y,1/2-z
loop_
_atom_site_type_symbol
_atom_site_label
_atom_site_fract_x
_atom_site_fract_y
_atom_site_fract_z
Si Si1 0.000000 0.500000 0.836606
Si Si2 0.663193 0.127726 0.571367
Si Si3 0.500000 0.500000 0.500000
Si Si4 0.000000 0.000000 0.255337
Si Si5 0.785700 0.180051 0.707079
O O1 0.097579 0.594247 0.884793
O O2 0.039513 0.248058 0.791466
O O3 0.575520 0.336609 0.551439
O O4 0.749125 0.240913 0.625065
O O5 0.714681 0.000000 0.500000
O O6 0.903810 0.903283 0.302055
O O7 0.778929 0.446645 0.754535
#
# Coordination Sequence:
#
# PCOD8164504 Si02
#       5
#     4   8   2   4   8
#     4  12  21  40  70  94 133 170 212 270 343 380
#     4  12  25  39  65 106 134 177 213 283 338 400
#     4  12  24  40  68  94 152 158 226 278 350 388
#     4  12  23  44  66  98 135 170 222 276 319 394
#     4  12  26  42  68  98 135 177 224 270 329 400
#
# _framework density 21.201837999999999
#
# number of rings (size 3 to 8) (size 9 to 14) (size 15 to 20)
#    0.000    0.000    9.231    0.923    4.308    0.000 
#    0.000    0.769    0.000    0.000    0.000    0.000 
#    0.000    0.000    0.000    0.000    0.000    0.000 
#
# Total GULP energy -161104.670701 kJ/mol
# GULP energy per Si atom -12392.666977 kJ/mol
# Density = 2.115358 g / cm^3
# Si number density = 21.201838 Si / 1000 Ang^3
#
#
#
# Elastic Constant Matrix: (Units=GPa)
#
#
# Indices 1 2 3 4 5 6 
#
# 1 113.6292 16.3538 60.3335 0.0000 0.0000 0.0000
# 2 16.3538 99.5471 39.1254 0.0000 0.0000 0.0000
# 3 60.3335 39.1254 148.5938 0.0000 0.0000 0.0000
# 4 0.0000 0.0000 0.0000 15.7299 0.0000 0.0000
# 5 0.0000 0.0000 0.0000 0.0000 47.8503 0.0000
# 6 0.0000 0.0000 0.0000 0.0000 0.0000 26.4105
#
#
#
# Elastic Compliance Matrix: (Units=1/GPa)
#
#
# Indices 1 2 3 4 5 6 
#
# 1 0.011220 -0.000059 -0.004540 0.000000 0.000000 0.000000
# 2 -0.000059 0.011205 -0.002927 0.000000 0.000000 0.000000
# 3 -0.004540 -0.002927 0.009344 0.000000 0.000000 0.000000
# 4 0.000000 0.000000 0.000000 0.063573 0.000000 0.000000
# 5 0.000000 0.000000 0.000000 0.000000 0.020899 0.000000
# 6 0.000000 0.000000 0.000000 0.000000 0.000000 0.037864
#
#
# Mechanical properties :
#
#
# Convention : Reuss Voigt Hill
#
# Bulk Modulus (GPa) = 59.81584 65.93283 62.87433
# Shear Modulus (GPa) = 28.61594 34.39528 31.50561
#
# Velocity S-wave (km/s) = 3.67780 4.03212 3.85903
# Velocity P-wave (km/s) = 6.80506 7.26929 7.04100
#
# Compressibility (1/GPa) = 0.01671798
#
# Stress axis : x y z
#
# Youngs Moduli (GPa) = 89.12962 89.24271 107.02381
#
# Poissons Ratio (x) = 0.00525 0.48589
# Poissons Ratio (y) = 0.00524 0.31321
# Poissons Ratio (z) = 0.40465 0.26117
#
# Static dielectric constant tensor:
#      x y z
#    x 3.734040 0.000000 0.000000 
#    y 0.000000 3.911270 0.000000 
#    z 0.000000 0.000000 4.086250 
# 
# 
# High freq. dielectric constant tensor:
#      x y z
#    x 1.820400 0.000000 0.000000 
#    y 0.000000 1.832870 0.000000 
#    z 0.000000 0.000000 1.822010 
# 
# From -- ./inp_files/2032.got.cif
#   From: 2010.03.12/outbox.cif.g09.slc.cpg/sg23_2_cif.got.tgz:2032.got - 2010.04.14 02:50:06.
