data_PCOD8164698
_publ_section_title
;
Structure prediction by ZEFSAII (Michael W. Deem and Ramdas Pophale) SiO2 
 PCOD8164698
Probable space group: I 21 21 21
;
_chemical_formula_sum "Si O2"
_cell_formula_units_Z 64
_cell_length_a 16.578106
_cell_length_b 22.631505
_cell_length_c 8.984112
_cell_angle_alpha 90.000000
_cell_angle_beta 90.000000
_cell_angle_gamma 90.000000
_cell_volume 3370.726421
_symmetry_space_group_name_H-M "I 21 21 21"
_symmetry_group_IT_number 24
_symmetry_cell_setting 'orthorhombic'
loop_
_space_group_symop_operation_xyz
x,y,z
-x,1/2-y,z
x,-y,1/2-z
1/2-x,y,-z
1/2+x,1/2+y,1/2+z
1/2-x,-y,1/2+z
1/2+x,1/2-y,-z
-x,1/2+y,1/2-z
loop_
_atom_site_type_symbol
_atom_site_label
_atom_site_fract_x
_atom_site_fract_y
_atom_site_fract_z
Si Si1 0.963872 0.884925 0.431183
Si Si2 0.461957 0.383400 0.584167
Si Si3 0.825903 0.533472 0.903998
Si Si4 0.385648 0.841398 0.075245
Si Si5 0.403393 0.737141 0.874240
Si Si6 0.993563 0.004967 0.574894
Si Si7 0.163213 0.286013 0.053240
Si Si8 0.434600 0.801030 0.394076
O O1 0.965729 0.897747 0.257605
O O2 0.890802 0.843046 0.479578
O O3 0.045364 0.853912 0.491402
O O4 0.953323 0.947299 0.508625
O O5 0.551758 0.366793 0.540911
O O6 0.400701 0.328787 0.553476
O O7 0.438707 0.440918 0.487173
O O8 0.814281 0.500000 0.750000
O O9 0.821529 0.605945 0.891985
O O10 0.912266 0.513363 0.972749
O O11 0.750000 0.511943 0.000000
O O12 0.428799 0.826003 0.228997
O O13 0.357479 0.781167 0.990354
O O14 0.500000 0.750000 0.842477
O O15 0.351576 0.736379 0.722512
O O16 0.986499 0.000000 0.750000
O O17 0.250000 0.307536 0.000000
O O18 0.147561 0.229501 0.947143
O O19 0.500000 0.750000 0.402015
#
# Coordination Sequence:
#
# PCOD8164698 Si02
#       8
#     8   8   8   8   8   8   8   8
#     4  10  19  34  56  79 106 139 183 225 267 328
#     4   9  17  30  52  80 104 133 173 223 271 310
#     4  10  22  37  50  72 109 146 177 216 264 317
#     4  10  19  32  53  80 107 138 182 227 269 311
#     4   9  17  34  56  80 109 140 180 223 265 324
#     4  10  20  35  56  81 104 135 184 229 270 321
#     4  10  21  35  52  77 110 144 176 221 278 330
#     4  10  18  31  53  79 105 139 180 224 270 317
#
# _framework density 18.987003999999999
#
# number of rings (size 3 to 8) (size 9 to 14) (size 15 to 20)
#    0.000    2.250    0.000    6.375    0.000    4.000 
#    0.000    3.750    0.000    3.000    0.000    0.000 
#    0.000    0.000    0.000    0.000    0.000    0.000 
#
# Total GULP energy -396433.419444 kJ/mol
# GULP energy per Si atom -12388.544358 kJ/mol
# Density = 1.894379 g / cm^3
# Si number density = 18.987004 Si / 1000 Ang^3
#
#
#
# Elastic Constant Matrix: (Units=GPa)
#
#
# Indices 1 2 3 4 5 6 
#
# 1 41.0757 38.6392 36.5106 0.0000 0.0000 0.0000
# 2 38.6392 145.0525 66.4456 0.0000 0.0000 0.0000
# 3 36.5106 66.4456 97.1327 0.0000 0.0000 0.0000
# 4 0.0000 0.0000 0.0000 35.8716 0.0000 0.0000
# 5 0.0000 0.0000 0.0000 0.0000 14.7708 0.0000
# 6 0.0000 0.0000 0.0000 0.0000 0.0000 2.6051
#
#
#
# Elastic Compliance Matrix: (Units=1/GPa)
#
#
# Indices 1 2 3 4 5 6 
#
# 1 0.039250 -0.005384 -0.011070 0.000000 0.000000 0.000000
# 2 -0.005384 0.010779 -0.005350 0.000000 0.000000 0.000000
# 3 -0.011070 -0.005350 0.018116 0.000000 0.000000 0.000000
# 4 0.000000 0.000000 0.000000 0.027877 0.000000 0.000000
# 5 0.000000 0.000000 0.000000 0.000000 0.067701 0.000000
# 6 0.000000 0.000000 0.000000 0.000000 0.000000 0.383860
#
#
# Mechanical properties :
#
#
# Convention : Reuss Voigt Hill
#
# Bulk Modulus (GPa) = 40.75571 62.93907 51.84739
# Shear Modulus (GPa) = 8.34209 20.09388 14.21799
#
# Velocity S-wave (km/s) = 2.09836 3.25668 2.73944
# Velocity P-wave (km/s) = 5.23283 6.88199 6.11327
#
# Compressibility (1/GPa) = 0.02453644
#
# Stress axis : x y z
#
# Youngs Moduli (GPa) = 25.47759 92.77376 55.20050
#
# Poissons Ratio (x) = 0.49954 0.61108
# Poissons Ratio (y) = 0.13718 0.29530
# Poissons Ratio (z) = 0.28204 0.49630
#
# Static dielectric constant tensor:
#      x y z
#    x 3.098820 0.000000 0.000000 
#    y 0.000000 4.130060 0.000000 
#    z 0.000000 0.000000 3.651000 
# 
# 
# High freq. dielectric constant tensor:
#      x y z
#    x 1.684620 0.000000 0.000000 
#    y 0.000000 1.758200 0.000000 
#    z 0.000000 0.000000 1.745400 
# 
# From -- ./inp_files/13380.got.cif
#   From: 2010.03.12/outbox.cif.g09.slc.cpg/sg24_7_cif.got.tgz:13380.got - 2010.04.14 03:06:53.
