data_PCOD8164773
_publ_section_title
;
Structure prediction by ZEFSAII (Michael W. Deem and Ramdas Pophale) SiO2 
 PCOD8164773
Probable space group: I 21 21 21
;
_chemical_formula_sum "Si O2"
_cell_formula_units_Z 60
_cell_length_a 27.578287
_cell_length_b 5.052486
_cell_length_c 21.539171
_cell_angle_alpha 90.000000
_cell_angle_beta 90.000000
_cell_angle_gamma 90.000000
_cell_volume 3001.244587
_symmetry_space_group_name_H-M "I 21 21 21"
_symmetry_group_IT_number 24
_symmetry_cell_setting 'orthorhombic'
loop_
_space_group_symop_operation_xyz
x,y,z
-x,1/2-y,z
x,-y,1/2-z
1/2-x,y,-z
1/2+x,1/2+y,1/2+z
1/2-x,-y,1/2+z
1/2+x,1/2-y,-z
-x,1/2+y,1/2-z
loop_
_atom_site_type_symbol
_atom_site_label
_atom_site_fract_x
_atom_site_fract_y
_atom_site_fract_z
Si Si1 0.831955 0.494519 0.621220
Si Si2 0.967118 0.003933 0.975992
Si Si3 0.832752 0.490900 0.021548
Si Si4 0.395420 0.502654 0.136757
Si Si5 0.613499 0.007696 0.563320
Si Si6 0.033555 0.500000 0.750000
Si Si7 0.776087 0.558132 0.139174
Si Si8 0.331413 0.439724 0.818960
O O1 0.821115 0.438385 0.549032
O O2 0.854944 0.778106 0.633661
O O3 0.780260 0.481207 0.655463
O O4 0.868146 0.277560 0.649856
O O5 0.923349 0.976915 0.927936
O O6 0.000000 0.250000 0.957982
O O7 0.000000 0.750000 0.973472
O O8 0.942610 0.038597 0.043975
O O9 0.873723 0.690059 0.046985
O O10 0.785322 0.517279 0.065240
O O11 0.852177 0.191453 0.024803
O O12 0.433319 0.439279 0.190816
O O13 0.621242 0.955825 0.636648
O O14 0.000000 0.750000 0.764825
O O15 0.807824 0.350538 0.178580
O O16 0.790770 0.853347 0.158640
O O17 0.349749 0.500000 0.750000
#
# Coordination Sequence:
#
# PCOD8164773 Si02
#       8
#     8   8   8   8   8   4   8   8
#     4  12  21  39  58  90 125 152 194 240 295 350
#     4  12  22  37  61  90 115 142 185 243 300 352
#     4  10  18  36  58  84 124 151 194 230 288 349
#     4  12  25  41  63  87 115 158 193 244 305 343
#     4  10  20  36  59  87 117 153 188 245 290 344
#     4  12  26  50  66  82 112 156 214 254 296 368
#     4  10  22  35  59  89 117 165 193 238 280 337
#     4  10  21  40  59  84 118 159 209 231 277 340
#
# _framework density 19.991707000000002
#
# number of rings (size 3 to 8) (size 9 to 14) (size 15 to 20)
#    0.000    1.067    2.667    4.800    0.000    0.000 
#    7.200    5.333    0.000    0.800    0.000    0.000 
#    0.000    0.000    0.000    0.000    0.000    0.000 
#
# Total GULP energy -372123.249488 kJ/mol
# GULP energy per Si atom -12404.108316 kJ/mol
# Density = 1.994620 g / cm^3
# Si number density = 19.991707 Si / 1000 Ang^3
#
#
#
# Elastic Constant Matrix: (Units=GPa)
#
#
# Indices 1 2 3 4 5 6 
#
# 1 76.4736 24.4575 16.5039 0.0000 0.0000 0.0000
# 2 24.4575 89.6040 3.9215 0.0000 0.0000 0.0000
# 3 16.5039 3.9215 75.3773 0.0000 0.0000 0.0000
# 4 0.0000 0.0000 0.0000 23.1439 0.0000 0.0000
# 5 0.0000 0.0000 0.0000 0.0000 13.8677 0.0000
# 6 0.0000 0.0000 0.0000 0.0000 0.0000 49.3858
#
#
#
# Elastic Compliance Matrix: (Units=1/GPa)
#
#
# Indices 1 2 3 4 5 6 
#
# 1 0.015008 -0.003962 -0.003080 0.000000 0.000000 0.000000
# 2 -0.003962 0.012231 0.000231 0.000000 0.000000 0.000000
# 3 -0.003080 0.000231 0.013929 0.000000 0.000000 0.000000
# 4 0.000000 0.000000 0.000000 0.043208 0.000000 0.000000
# 5 0.000000 0.000000 0.000000 0.000000 0.072110 0.000000
# 6 0.000000 0.000000 0.000000 0.000000 0.000000 0.020249
#
#
# Mechanical properties :
#
#
# Convention : Reuss Voigt Hill
#
# Bulk Modulus (GPa) = 36.30106 36.80230 36.55168
# Shear Modulus (GPa) = 25.05778 30.38427 27.72103
#
# Velocity S-wave (km/s) = 3.54419 3.90275 3.72778
# Velocity P-wave (km/s) = 5.91150 6.22554 6.07055
#
# Compressibility (1/GPa) = 0.02754740
#
# Stress axis : x y z
#
# Youngs Moduli (GPa) = 66.63062 81.75640 71.79300
#
# Poissons Ratio (x) = 0.32389 0.22112
# Poissons Ratio (y) = 0.26397 -0.01659
# Poissons Ratio (z) = 0.20522 -0.01889
#
# Static dielectric constant tensor:
#      x y z
#    x 3.525880 0.000000 0.000000 
#    y 0.000000 3.750440 0.000000 
#    z 0.000000 0.000000 3.638240 
# 
# 
# High freq. dielectric constant tensor:
#      x y z
#    x 1.765200 0.000000 0.000000 
#    y 0.000000 1.800520 0.000000 
#    z 0.000000 0.000000 1.769820 
# 
# From -- ./inp_files/5835.got.cif
#   From: 2010.03.12/outbox.cif.g09.slc.cpg/sg24_3_cif.got.tgz:5835.got - 2010.04.14 03:06:53.
