data_PCOD8164341
_publ_section_title
;
Structure prediction by ZEFSAII (Michael W. Deem and Ramdas Pophale) SiO2 
 PCOD8164341
Probable space group: I 2 2 2
;
_chemical_formula_sum "Si O2"
_cell_formula_units_Z 40
_cell_length_a 12.092148
_cell_length_b 8.403857
_cell_length_c 18.289149
_cell_angle_alpha 90.000000
_cell_angle_beta 90.000000
_cell_angle_gamma 90.000000
_cell_volume 1858.555806
_symmetry_space_group_name_H-M "I 2 2 2"
_symmetry_group_IT_number 23
_symmetry_cell_setting 'orthorhombic'
loop_
_space_group_symop_operation_xyz
x,y,z
-x,-y,z
x,-y,-z
-x,y,-z
1/2+x,1/2+y,1/2+z
1/2-x,1/2-y,1/2+z
1/2+x,1/2-y,1/2-z
1/2-x,1/2+y,1/2-z
loop_
_atom_site_type_symbol
_atom_site_label
_atom_site_fract_x
_atom_site_fract_y
_atom_site_fract_z
Si Si1 0.382360 0.556961 0.920305
Si Si2 0.374990 0.183747 0.481215
Si Si3 0.631163 0.028208 0.201693
Si Si4 0.236484 0.338624 0.829715
Si Si5 0.304463 0.881103 0.939194
O O1 0.500000 0.500000 0.896408
O O2 0.301536 0.491838 0.858904
O O3 0.394746 0.746236 0.922894
O O4 0.342877 0.500000 0.000000
O O5 0.500000 0.229139 0.500000
O O6 0.338973 0.226288 0.397576
O O7 0.308112 0.296423 0.536273
O O8 0.352767 0.000000 0.500000
O O9 0.676530 0.211694 0.206966
O O10 0.500000 0.000000 0.185297
O O11 0.654755 0.914582 0.270315
O O12 0.710366 0.974261 0.135745
O O13 0.351772 0.000000 0.000000
#
# Coordination Sequence:
#
# PCOD8164341 Si02
#       5
#     8   8   8   8   8
#     4  11  21  39  69 100 136 184 233 294 356 422
#     4  11  24  44  75 102 137 192 244 298 359 429
#     4  12  29  45  71 104 146 193 234 303 371 439
#     4  12  24  48  66 104 145 186 243 294 365 438
#     4  12  22  45  67 105 140 180 246 302 352 430
#
# _framework density 21.522086999999999
#
# number of rings (size 3 to 8) (size 9 to 14) (size 15 to 20)
#    0.000    0.400    6.000    2.400    2.800    2.400 
#    0.000    2.000    0.000    0.000    0.000    0.000 
#    0.000    0.000    0.000    0.000    0.000    0.000 
#
# Total GULP energy -247788.721018 kJ/mol
# GULP energy per Si atom -12389.436051 kJ/mol
# Density = 2.147310 g / cm^3
# Si number density = 21.522087 Si / 1000 Ang^3
#
#
#
# Elastic Constant Matrix: (Units=GPa)
#
#
# Indices 1 2 3 4 5 6 
#
# 1 129.6782 43.1128 50.3661 0.0000 0.0000 0.0000
# 2 43.1128 121.1452 28.3323 0.0000 0.0000 0.0000
# 3 50.3661 28.3323 119.3219 0.0000 0.0000 0.0000
# 4 0.0000 0.0000 0.0000 35.9346 0.0000 0.0000
# 5 0.0000 0.0000 0.0000 0.0000 25.4840 0.0000
# 6 0.0000 0.0000 0.0000 0.0000 0.0000 32.3576
#
#
#
# Elastic Compliance Matrix: (Units=1/GPa)
#
#
# Indices 1 2 3 4 5 6 
#
# 1 0.010006 -0.002725 -0.003577 0.000000 0.000000 0.000000
# 2 -0.002725 0.009482 -0.001101 0.000000 0.000000 0.000000
# 3 -0.003577 -0.001101 0.010152 0.000000 0.000000 0.000000
# 4 0.000000 0.000000 0.000000 0.027828 0.000000 0.000000
# 5 0.000000 0.000000 0.000000 0.000000 0.039240 0.000000
# 6 0.000000 0.000000 0.000000 0.000000 0.000000 0.030905
#
#
# Mechanical properties :
#
#
# Convention : Reuss Voigt Hill
#
# Bulk Modulus (GPa) = 67.40938 68.19641 67.80290
# Shear Modulus (GPa) = 33.92965 35.31083 34.62024
#
# Velocity S-wave (km/s) = 3.97483 4.05492 4.01508
# Velocity P-wave (km/s) = 7.24256 7.32658 7.28469
#
# Compressibility (1/GPa) = 0.01483473
#
# Stress axis : x y z
#
# Youngs Moduli (GPa) = 99.93596 105.46599 98.50290
#
# Poissons Ratio (x) = 0.28735 0.35233
# Poissons Ratio (y) = 0.27228 0.10849
# Poissons Ratio (z) = 0.35745 0.11615
#
# Static dielectric constant tensor:
#      x y z
#    x 3.935570 0.000000 0.000000 
#    y 0.000000 4.446360 0.000000 
#    z 0.000000 0.000000 3.882730 
# 
# 
# High freq. dielectric constant tensor:
#      x y z
#    x 1.843730 0.000000 0.000000 
#    y 0.000000 1.858390 0.000000 
#    z 0.000000 0.000000 1.843030 
# 
# From -- ./inp_files/19892.got.cif
#   From: 2010.03.12/outbox.cif.g09.slc.cpg/sg23_10_cif.got.tgz:19892.got - 2010.04.14 02:50:06.
