data_PCOD8165298
_publ_section_title
;
Structure prediction by ZEFSAII (Michael W. Deem and Ramdas Pophale) SiO2 
 PCOD8165298
Probable space group: I 21 21 21
;
_chemical_formula_sum "Si O2"
_cell_formula_units_Z 28
_cell_length_a 17.802502
_cell_length_b 16.157463
_cell_length_c 5.109169
_cell_angle_alpha 90.000000
_cell_angle_beta 90.000000
_cell_angle_gamma 90.000000
_cell_volume 1469.618065
_symmetry_space_group_name_H-M "I 21 21 21"
_symmetry_group_IT_number 24
_symmetry_cell_setting 'orthorhombic'
loop_
_space_group_symop_operation_xyz
x,y,z
-x,1/2-y,z
x,-y,1/2-z
1/2-x,y,-z
1/2+x,1/2+y,1/2+z
1/2-x,-y,1/2+z
1/2+x,1/2-y,-z
-x,1/2+y,1/2-z
loop_
_atom_site_type_symbol
_atom_site_label
_atom_site_fract_x
_atom_site_fract_y
_atom_site_fract_z
Si Si1 0.855745 0.800286 0.090155
Si Si2 0.500000 0.750000 0.150676
Si Si3 0.250000 0.945236 0.500000
Si Si4 0.750000 0.053766 0.500000
Si Si5 0.356943 0.199843 0.110084
O O1 0.817583 0.744045 0.860887
O O2 0.945729 0.806501 0.031703
O O3 0.821510 0.891539 0.084286
O O4 0.839836 0.758327 0.366074
O O5 0.446797 0.808114 0.334010
O O6 0.322952 0.890371 0.435077
O O7 0.229216 0.000000 0.250000
O O8 0.726058 0.000000 0.250000
#
# Coordination Sequence:
#
# PCOD8165298 Si02
#       5
#     8   4   4   4   8
#     4  10  20  39  65  88 113 157 208 241 285 348
#     4   8  22  36  72  84 110 154 216 248 270 348
#     4  12  24  38  60  94 126 154 190 248 308 352
#     4  12  24  38  60  94 126 154 190 248 308 352
#     4  10  20  39  65  88 113 157 208 241 285 348
#
# _framework density 19.052568000000001
#
# number of rings (size 3 to 8) (size 9 to 14) (size 15 to 20)
#    1.714    0.000    0.000    6.000    0.000    0.000 
#    0.000    1.429    0.000    0.000    0.000    0.000 
#    0.000    0.000    0.000    0.000    0.000    0.000 
#
# Total GULP energy -173492.674731 kJ/mol
# GULP energy per Si atom -12392.333909 kJ/mol
# Density = 1.900920 g / cm^3
# Si number density = 19.052568 Si / 1000 Ang^3
#
#
#
# Elastic Constant Matrix: (Units=GPa)
#
#
# Indices 1 2 3 4 5 6 
#
# 1 82.1978 31.5474 6.1798 0.0000 0.0000 0.0000
# 2 31.5474 100.9726 39.2951 0.0000 0.0000 0.0000
# 3 6.1798 39.2951 131.9107 0.0000 0.0000 0.0000
# 4 0.0000 0.0000 0.0000 29.0278 0.0000 0.0000
# 5 0.0000 0.0000 0.0000 0.0000 24.1042 0.0000
# 6 0.0000 0.0000 0.0000 0.0000 0.0000 9.0057
#
#
#
# Elastic Compliance Matrix: (Units=1/GPa)
#
#
# Indices 1 2 3 4 5 6 
#
# 1 0.013885 -0.004621 0.000726 0.000000 0.000000 0.000000
# 2 -0.004621 0.012740 -0.003579 0.000000 0.000000 0.000000
# 3 0.000726 -0.003579 0.008613 0.000000 0.000000 0.000000
# 4 0.000000 0.000000 0.000000 0.034450 0.000000 0.000000
# 5 0.000000 0.000000 0.000000 0.000000 0.041487 0.000000
# 6 0.000000 0.000000 0.000000 0.000000 0.000000 0.111041
#
#
# Mechanical properties :
#
#
# Convention : Reuss Voigt Hill
#
# Bulk Modulus (GPa) = 49.28301 52.12506 50.70403
# Shear Modulus (GPa) = 20.49810 28.29812 24.39811
#
# Velocity S-wave (km/s) = 3.28361 3.85809 3.58238
# Velocity P-wave (km/s) = 6.34816 6.87492 6.61678
#
# Compressibility (1/GPa) = 0.02029097
#
# Stress axis : x y z
#
# Youngs Moduli (GPa) = 72.02247 78.49295 116.10440
#
# Poissons Ratio (x) = 0.36268 -0.08429
# Poissons Ratio (y) = 0.33278 0.41550
# Poissons Ratio (z) = -0.05229 0.28090
#
# Static dielectric constant tensor:
#      x y z
#    x 3.514740 0.000000 0.000000 
#    y 0.000000 3.203250 0.000000 
#    z 0.000000 0.000000 3.628040 
# 
# 
# High freq. dielectric constant tensor:
#      x y z
#    x 1.742480 0.000000 0.000000 
#    y 0.000000 1.708720 0.000000 
#    z 0.000000 0.000000 1.764150 
# 
# From -- ./inp_files/5329.got.cif
#   From: 2010.03.12/outbox.cif.g09.slc.cpg/sg24_3_cif.got.tgz:5329.got - 2010.04.14 03:06:53.
