data_PCOD8165747
_publ_section_title
;
Structure prediction by ZEFSAII (Michael W. Deem and Ramdas Pophale) SiO2 
 PCOD8165747
Probable space group: I 21 21 21
;
_chemical_formula_sum "Si O2"
_cell_formula_units_Z 64
_cell_length_a 18.735382
_cell_length_b 9.518873
_cell_length_c 17.863350
_cell_angle_alpha 90.000000
_cell_angle_beta 90.000000
_cell_angle_gamma 90.000000
_cell_volume 3185.744871
_symmetry_space_group_name_H-M "I 21 21 21"
_symmetry_group_IT_number 24
_symmetry_cell_setting 'orthorhombic'
loop_
_space_group_symop_operation_xyz
x,y,z
-x,1/2-y,z
x,-y,1/2-z
1/2-x,y,-z
1/2+x,1/2+y,1/2+z
1/2-x,-y,1/2+z
1/2+x,1/2-y,-z
-x,1/2+y,1/2-z
loop_
_atom_site_type_symbol
_atom_site_label
_atom_site_fract_x
_atom_site_fract_y
_atom_site_fract_z
Si Si1 0.923163 0.529004 0.946699
Si Si2 0.830018 0.982474 0.489006
Si Si3 0.326920 0.025691 0.837386
Si Si4 0.676536 0.291734 0.543435
Si Si5 0.924979 0.937662 0.878065
Si Si6 0.326035 0.083959 0.176096
Si Si7 0.580762 0.715978 0.563245
Si Si8 0.924906 0.811961 0.732860
O O1 0.879320 0.511062 0.871298
O O2 0.005101 0.564606 0.929872
O O3 0.890531 0.659578 0.992530
O O4 0.916051 0.380923 0.989826
O O5 0.750000 0.924361 0.500000
O O6 0.877807 0.861576 0.452190
O O7 0.830423 0.125146 0.438909
O O8 0.857449 0.030751 0.570544
O O9 0.252338 0.102289 0.859964
O O10 0.387352 0.131358 0.866842
O O11 0.340752 0.000000 0.750000
O O12 0.327682 0.874448 0.878397
O O13 0.750000 0.325837 0.500000
O O14 0.916186 0.799802 0.824731
O O15 0.927701 0.040305 0.807887
O O16 0.359288 0.233746 0.193828
O O17 0.309482 0.000000 0.250000
O O18 0.500000 0.750000 0.584818
O O19 0.000000 0.750000 0.708756
#
# Coordination Sequence:
#
# PCOD8165747 Si02
#       8
#     8   8   8   8   8   8   8   8
#     4  11  21  38  64  91 132 174 224 261 315 387
#     4  11  26  40  65  94 133 172 218 274 337 380
#     4  10  24  45  73  94 124 167 226 273 333 390
#     4  10  22  42  64  97 133 167 219 279 327 386
#     4  11  24  39  57  92 135 181 213 267 315 397
#     4  11  22  35  62  93 126 174 218 256 316 384
#     4  11  24  45  67  97 124 166 225 273 326 391
#     4  11  23  36  56  93 139 176 218 252 318 393
#
# _framework density 20.089493999999998
#
# number of rings (size 3 to 8) (size 9 to 14) (size 15 to 20)
#    0.000    1.250    3.750    1.500    7.000    1.000 
#    0.000    1.875    0.000    0.000    0.000    0.000 
#    0.000    0.000    0.000    0.000    0.000    0.000 
#
# Total GULP energy -396665.770863 kJ/mol
# GULP energy per Si atom -12395.805339 kJ/mol
# Density = 2.004377 g / cm^3
# Si number density = 20.089494 Si / 1000 Ang^3
#
#
#
# Elastic Constant Matrix: (Units=GPa)
#
#
# Indices 1 2 3 4 5 6 
#
# 1 143.6417 42.3862 35.3480 0.0000 0.0000 0.0000
# 2 42.3862 105.2736 31.1293 0.0000 0.0000 0.0000
# 3 35.3480 31.1293 88.5619 0.0000 0.0000 0.0000
# 4 0.0000 0.0000 0.0000 19.6346 0.0000 0.0000
# 5 0.0000 0.0000 0.0000 0.0000 32.7794 0.0000
# 6 0.0000 0.0000 0.0000 0.0000 0.0000 28.8742
#
#
#
# Elastic Compliance Matrix: (Units=1/GPa)
#
#
# Indices 1 2 3 4 5 6 
#
# 1 0.008332 -0.002646 -0.002395 0.000000 0.000000 0.000000
# 2 -0.002646 0.011441 -0.002965 0.000000 0.000000 0.000000
# 3 -0.002395 -0.002965 0.013290 0.000000 0.000000 0.000000
# 4 0.000000 0.000000 0.000000 0.050931 0.000000 0.000000
# 5 0.000000 0.000000 0.000000 0.000000 0.030507 0.000000
# 6 0.000000 0.000000 0.000000 0.000000 0.000000 0.034633
#
#
# Mechanical properties :
#
#
# Convention : Reuss Voigt Hill
#
# Bulk Modulus (GPa) = 58.65411 61.68936 60.17173
# Shear Modulus (GPa) = 29.26860 31.49854 30.38357
#
# Velocity S-wave (km/s) = 3.82109 3.96398 3.89319
# Velocity P-wave (km/s) = 6.98050 7.19200 7.08704
#
# Compressibility (1/GPa) = 0.01704910
#
# Stress axis : x y z
#
# Youngs Moduli (GPa) = 120.01677 87.40152 75.24481
#
# Poissons Ratio (x) = 0.23130 0.18024
# Poissons Ratio (y) = 0.31762 0.22313
# Poissons Ratio (z) = 0.28749 0.25918
#
# Static dielectric constant tensor:
#      x y z
#    x 3.767340 0.000000 0.000000 
#    y 0.000000 3.879250 0.000000 
#    z 0.000000 0.000000 3.451770 
# 
# 
# High freq. dielectric constant tensor:
#      x y z
#    x 1.789440 0.000000 0.000000 
#    y 0.000000 1.793350 0.000000 
#    z 0.000000 0.000000 1.775500 
# 
# From -- ./inp_files/31425.got.cif
#   From: 2010.03.12/outbox.cif.g09.slc.cpg/sg24_16_cif.got.tgz:31425.got - 2010.04.14 03:06:53.
