data_PCOD8165485
_publ_section_title
;
Structure prediction by ZEFSAII (Michael W. Deem and Ramdas Pophale) SiO2 
 PCOD8165485
Probable space group: I 21 21 21
;
_chemical_formula_sum "Si O2"
_cell_formula_units_Z 60
_cell_length_a 17.503047
_cell_length_b 5.465432
_cell_length_c 27.212051
_cell_angle_alpha 90.000000
_cell_angle_beta 90.000000
_cell_angle_gamma 90.000000
_cell_volume 2603.151418
_symmetry_space_group_name_H-M "I 21 21 21"
_symmetry_group_IT_number 24
_symmetry_cell_setting 'orthorhombic'
loop_
_space_group_symop_operation_xyz
x,y,z
-x,1/2-y,z
x,-y,1/2-z
1/2-x,y,-z
1/2+x,1/2+y,1/2+z
1/2-x,-y,1/2+z
1/2+x,1/2-y,-z
-x,1/2+y,1/2-z
loop_
_atom_site_type_symbol
_atom_site_label
_atom_site_fract_x
_atom_site_fract_y
_atom_site_fract_z
Si Si1 0.545509 0.500241 0.807495
Si Si2 0.672802 0.130684 0.126868
Si Si3 0.737114 0.749042 0.055161
Si Si4 0.180039 0.104163 0.121779
Si Si5 0.898251 0.609973 0.544279
Si Si6 0.000000 0.750000 0.001728
Si Si7 0.542469 0.000243 0.307851
Si Si8 0.582031 0.128147 0.949181
O O1 0.500000 0.250000 0.821274
O O2 0.564950 0.500000 0.750000
O O3 0.626176 0.508496 0.836103
O O4 0.500000 0.750000 0.821651
O O5 0.736902 0.326062 0.145676
O O6 0.602300 0.234559 0.094197
O O7 0.726088 0.969263 0.092385
O O8 0.629476 0.996116 0.171300
O O9 0.806464 0.586875 0.077138
O O10 0.659476 0.604659 0.053911
O O11 0.750000 0.847782 0.000000
O O12 0.136378 0.338992 0.097724
O O13 0.980330 0.482984 0.532975
O O14 0.874291 0.763796 0.496663
O O15 0.068484 0.659904 0.037892
O O16 0.500000 0.250000 0.325670
O O17 0.500000 0.750000 0.324547
O O18 0.551137 0.000000 0.250000
O O19 0.500000 0.250000 0.938122
#
# Coordination Sequence:
#
# PCOD8165485 Si02
#       8
#     8   8   8   8   8   4   8   8
#     4  10  24  51  81 110 146 190 246 313 381 445
#     4  11  27  41  70 106 139 188 244 304 364 449
#     4  11  24  42  65  90 142 197 232 288 358 427
#     4  11  25  44  67 106 141 195 242 303 363 443
#     4  10  22  41  57  93 133 182 238 290 347 422
#     4  10  22  38  64  92 134 196 236 314 344 416
#     4  10  25  53  82 107 143 185 237 313 389 458
#     4  10  21  39  59  93 137 184 246 291 349 423
#
# _framework density 23.048987
#
# number of rings (size 3 to 8) (size 9 to 14) (size 15 to 20)
#    0.000    1.600    1.333    1.200    9.333    2.667 
#    9.600    0.000    0.000    0.000    0.000    0.000 
#    0.000    0.000    0.000    0.000    0.000    0.000 
#
# Total GULP energy -371697.211782 kJ/mol
# GULP energy per Si atom -12389.907059 kJ/mol
# Density = 2.299653 g / cm^3
# Si number density = 23.048987 Si / 1000 Ang^3
#
#
#
# Elastic Constant Matrix: (Units=GPa)
#
#
# Indices 1 2 3 4 5 6 
#
# 1 124.9488 43.5623 61.7913 0.0000 0.0000 0.0000
# 2 43.5623 121.1198 31.2036 0.0000 0.0000 0.0000
# 3 61.7913 31.2036 76.7301 0.0000 0.0000 0.0000
# 4 0.0000 0.0000 0.0000 10.2474 0.0000 0.0000
# 5 0.0000 0.0000 0.0000 0.0000 27.1687 0.0000
# 6 0.0000 0.0000 0.0000 0.0000 0.0000 28.4583
#
#
#
# Elastic Compliance Matrix: (Units=1/GPa)
#
#
# Indices 1 2 3 4 5 6 
#
# 1 0.013878 -0.002359 -0.010217 0.000000 0.000000 0.000000
# 2 -0.002359 0.009624 -0.002014 0.000000 0.000000 0.000000
# 3 -0.010217 -0.002014 0.022079 0.000000 0.000000 0.000000
# 4 0.000000 0.000000 0.000000 0.097586 0.000000 0.000000
# 5 0.000000 0.000000 0.000000 0.000000 0.036807 0.000000
# 6 0.000000 0.000000 0.000000 0.000000 0.000000 0.035139
#
#
# Mechanical properties :
#
#
# Convention : Reuss Voigt Hill
#
# Bulk Modulus (GPa) = 60.96967 66.21255 63.59111
# Shear Modulus (GPa) = 20.01921 25.59100 22.80511
#
# Velocity S-wave (km/s) = 2.95032 3.33571 3.14892
# Velocity P-wave (km/s) = 6.17377 6.60494 6.39299
#
# Compressibility (1/GPa) = 0.01640160
#
# Stress axis : x y z
#
# Youngs Moduli (GPa) = 72.05403 103.91091 45.29128
#
# Poissons Ratio (x) = 0.24517 0.46274
# Poissons Ratio (y) = 0.17001 0.09120
# Poissons Ratio (z) = 0.73617 0.20923
#
# Static dielectric constant tensor:
#      x y z
#    x 4.208730 0.000000 0.000000 
#    y 0.000000 4.524680 0.000000 
#    z 0.000000 0.000000 4.129000 
# 
# 
# High freq. dielectric constant tensor:
#      x y z
#    x 1.916830 0.000000 0.000000 
#    y 0.000000 1.919630 0.000000 
#    z 0.000000 0.000000 1.889270 
# 
# From -- ./inp_files/37545.got.cif
#   From: 2010.03.12/outbox.cif.g09.slc.cpg/sg24_19_cif.got.tgz:37545.got - 2010.04.14 03:06:53.
