data_PCOD8165679
_publ_section_title
;
Structure prediction by ZEFSAII (Michael W. Deem and Ramdas Pophale) SiO2 
 PCOD8165679
Probable space group: I 21 21 21
;
_chemical_formula_sum "Si O2"
_cell_formula_units_Z 40
_cell_length_a 5.160877
_cell_length_b 16.909840
_cell_length_c 22.930533
_cell_angle_alpha 90.000000
_cell_angle_beta 90.000000
_cell_angle_gamma 90.000000
_cell_volume 2001.138542
_symmetry_space_group_name_H-M "I 21 21 21"
_symmetry_group_IT_number 24
_symmetry_cell_setting 'orthorhombic'
loop_
_space_group_symop_operation_xyz
x,y,z
-x,1/2-y,z
x,-y,1/2-z
1/2-x,y,-z
1/2+x,1/2+y,1/2+z
1/2-x,-y,1/2+z
1/2+x,1/2-y,-z
-x,1/2+y,1/2-z
loop_
_atom_site_type_symbol
_atom_site_label
_atom_site_fract_x
_atom_site_fract_y
_atom_site_fract_z
Si Si1 0.830229 0.001540 0.875724
Si Si2 0.250000 0.491932 0.500000
Si Si3 0.250000 0.112044 0.500000
Si Si4 0.752791 0.696816 0.237307
Si Si5 0.425139 0.160289 0.380500
Si Si6 0.824377 0.548039 0.307647
O O1 0.776657 0.041348 0.939558
O O2 0.844054 0.905249 0.884050
O O3 0.611398 0.026550 0.830197
O O4 0.113446 0.030159 0.856951
O O5 0.501502 0.440142 0.508867
O O6 0.266104 0.163724 0.440956
O O7 0.500000 0.750000 0.250247
O O8 0.732962 0.640914 0.178998
O O9 0.805998 0.640830 0.292780
O O10 0.000000 0.750000 0.227172
O O11 0.500000 0.250000 0.368034
O O12 0.757326 0.500000 0.250000
#
# Coordination Sequence:
#
# PCOD8165679 Si02
#       6
#     8   4   4   8   8   8
#     4  11  23  40  60  90 119 163 202 253 302 356
#     4  10  22  39  62  84 122 153 208 250 296 357
#     4  10  22  39  52  82 118 171 212 242 278 335
#     4  11  25  41  60  89 122 162 204 252 306 363
#     4  10  23  37  57  83 125 167 210 250 287 347
#     4  12  24  39  64  89 123 157 205 249 308 362
#
# _framework density 19.988623
#
# number of rings (size 3 to 8) (size 9 to 14) (size 15 to 20)
#    0.000    1.200    2.000    4.200    5.600    7.200 
#    0.000    0.000    0.000    0.000    0.000   14.000 
#    0.000    0.000    0.000    0.000    0.000    0.000 
#
# Total GULP energy -247848.409655 kJ/mol
# GULP energy per Si atom -12392.420483 kJ/mol
# Density = 1.994313 g / cm^3
# Si number density = 19.988623 Si / 1000 Ang^3
#
#
#
# Elastic Constant Matrix: (Units=GPa)
#
#
# Indices 1 2 3 4 5 6 
#
# 1 117.7781 27.1617 28.1359 0.0000 0.0000 0.0000
# 2 27.1617 61.7298 45.8989 0.0000 0.0000 0.0000
# 3 28.1359 45.8989 123.7182 0.0000 0.0000 0.0000
# 4 0.0000 0.0000 0.0000 31.0173 0.0000 0.0000
# 5 0.0000 0.0000 0.0000 0.0000 38.2421 0.0000
# 6 0.0000 0.0000 0.0000 0.0000 0.0000 24.9004
#
#
#
# Elastic Compliance Matrix: (Units=1/GPa)
#
#
# Indices 1 2 3 4 5 6 
#
# 1 0.009513 -0.003559 -0.000843 0.000000 0.000000 0.000000
# 2 -0.003559 0.023702 -0.007984 0.000000 0.000000 0.000000
# 3 -0.000843 -0.007984 0.011237 0.000000 0.000000 0.000000
# 4 0.000000 0.000000 0.000000 0.032240 0.000000 0.000000
# 5 0.000000 0.000000 0.000000 0.000000 0.026149 0.000000
# 6 0.000000 0.000000 0.000000 0.000000 0.000000 0.040160
#
#
# Mechanical properties :
#
#
# Convention : Reuss Voigt Hill
#
# Bulk Modulus (GPa) = 50.81411 56.17991 53.49701
# Shear Modulus (GPa) = 28.68090 32.30060 30.49075
#
# Velocity S-wave (km/s) = 3.79207 4.02425 3.90988
# Velocity P-wave (km/s) = 6.68204 7.05406 6.87057
#
# Compressibility (1/GPa) = 0.01967957
#
# Stress axis : x y z
#
# Youngs Moduli (GPa) = 105.12303 42.19057 88.99464
#
# Poissons Ratio (x) = 0.15015 0.07503
# Poissons Ratio (y) = 0.37411 0.71053
# Poissons Ratio (z) = 0.08863 0.33685
#
# Static dielectric constant tensor:
#      x y z
#    x 3.415960 0.000000 0.000000 
#    y 0.000000 3.405340 0.000000 
#    z 0.000000 0.000000 4.344170 
# 
# 
# High freq. dielectric constant tensor:
#      x y z
#    x 1.788780 0.000000 0.000000 
#    y 0.000000 1.742030 0.000000 
#    z 0.000000 0.000000 1.800100 
# 
# From -- ./inp_files/4703.got.cif
#   From: 2010.03.12/outbox.cif.g09.slc.cpg/sg24_3_cif.got.tgz:4703.got - 2010.04.14 03:06:53.
