data_PCOD8165523
_publ_section_title
;
Structure prediction by ZEFSAII (Michael W. Deem and Ramdas Pophale) SiO2 
 PCOD8165523
Probable space group: I 21 21 21
;
_chemical_formula_sum "Si O2"
_cell_formula_units_Z 48
_cell_length_a 14.414138
_cell_length_b 8.630811
_cell_length_c 19.466455
_cell_angle_alpha 90.000000
_cell_angle_beta 90.000000
_cell_angle_gamma 90.000000
_cell_volume 2421.737976
_symmetry_space_group_name_H-M "I 21 21 21"
_symmetry_group_IT_number 24
_symmetry_cell_setting 'orthorhombic'
loop_
_space_group_symop_operation_xyz
x,y,z
-x,1/2-y,z
x,-y,1/2-z
1/2-x,y,-z
1/2+x,1/2+y,1/2+z
1/2-x,-y,1/2+z
1/2+x,1/2-y,-z
-x,1/2+y,1/2-z
loop_
_atom_site_type_symbol
_atom_site_label
_atom_site_fract_x
_atom_site_fract_y
_atom_site_fract_z
Si Si1 0.065868 0.376254 0.865771
Si Si2 0.252844 0.920589 0.919275
Si Si3 0.118902 0.925381 0.681867
Si Si4 0.903115 0.439640 0.175452
Si Si5 0.883481 0.077048 0.178129
Si Si6 0.233311 0.438490 0.578646
O O1 0.132136 0.488976 0.907290
O O2 0.000000 0.250000 0.909369
O O3 0.989881 0.478373 0.824017
O O4 0.126694 0.263751 0.815099
O O5 0.172177 0.019898 0.885413
O O6 0.232049 0.741910 0.904056
O O7 0.350562 0.969834 0.885471
O O8 0.250000 0.957461 0.000000
O O9 0.163538 0.000000 0.750000
O O10 0.873388 0.500000 0.250000
O O11 0.875003 0.261004 0.178004
O O12 0.011201 0.471425 0.160916
O O13 0.853033 0.000000 0.250000
O O14 0.815846 0.016557 0.119836
O O15 0.250000 0.472583 0.500000
#
# Coordination Sequence:
#
# PCOD8165523 Si02
#       6
#     8   8   8   8   8   8
#     4   8  22  40  59  89 115 155 200 252 303 358
#     4  11  24  38  59  89 125 166 200 250 304 364
#     4   9  20  39  60  87 116 154 202 249 303 360
#     4  10  21  40  63  91 123 156 204 251 305 361
#     4  10  22  39  64  92 118 161 202 252 304 360
#     4  11  24  41  59  87 124 161 205 248 307 362
#
# _framework density 19.820475999999999
#
# number of rings (size 3 to 8) (size 9 to 14) (size 15 to 20)
#    1.000    1.000    0.000    2.500    0.000   11.333 
#    3.000    3.333    0.000    0.000    0.000    0.000 
#    0.000    0.000    0.000    0.000    0.000    0.000 
#
# Total GULP energy -297331.296912 kJ/mol
# GULP energy per Si atom -12388.804038 kJ/mol
# Density = 1.977536 g / cm^3
# Si number density = 19.820476 Si / 1000 Ang^3
#
#
#
# Elastic Constant Matrix: (Units=GPa)
#
#
# Indices 1 2 3 4 5 6 
#
# 1 103.7461 45.4379 54.1799 0.0000 0.0000 0.0000
# 2 45.4379 74.7816 42.1515 0.0000 0.0000 0.0000
# 3 54.1799 42.1515 96.0022 0.0000 0.0000 0.0000
# 4 0.0000 0.0000 0.0000 29.9610 0.0000 0.0000
# 5 0.0000 0.0000 0.0000 0.0000 36.2848 0.0000
# 6 0.0000 0.0000 0.0000 0.0000 0.0000 28.1143
#
#
#
# Elastic Compliance Matrix: (Units=1/GPa)
#
#
# Indices 1 2 3 4 5 6 
#
# 1 0.015422 -0.005933 -0.006099 0.000000 0.000000 0.000000
# 2 -0.005933 0.020053 -0.005456 0.000000 0.000000 0.000000
# 3 -0.006099 -0.005456 0.016254 0.000000 0.000000 0.000000
# 4 0.000000 0.000000 0.000000 0.033377 0.000000 0.000000
# 5 0.000000 0.000000 0.000000 0.000000 0.027560 0.000000
# 6 0.000000 0.000000 0.000000 0.000000 0.000000 0.035569
#
#
# Mechanical properties :
#
#
# Convention : Reuss Voigt Hill
#
# Bulk Modulus (GPa) = 59.69050 62.00762 60.84906
# Shear Modulus (GPa) = 26.48376 27.72272 27.10324
#
# Velocity S-wave (km/s) = 3.65935 3.74397 3.70190
# Velocity P-wave (km/s) = 6.93076 7.07405 7.00277
#
# Compressibility (1/GPa) = 0.01675308
#
# Stress axis : x y z
#
# Youngs Moduli (GPa) = 64.84043 49.86871 61.52369
#
# Poissons Ratio (x) = 0.29588 0.37522
# Poissons Ratio (y) = 0.38471 0.33567
# Poissons Ratio (z) = 0.39545 0.27209
#
# Static dielectric constant tensor:
#      x y z
#    x 3.706320 0.000000 0.000000 
#    y 0.000000 3.292180 0.000000 
#    z 0.000000 0.000000 3.434440 
# 
# 
# High freq. dielectric constant tensor:
#      x y z
#    x 1.787420 0.000000 0.000000 
#    y 0.000000 1.781610 0.000000 
#    z 0.000000 0.000000 1.753590 
# 
# From -- ./inp_files/33657.got.cif
#   From: 2010.03.12/outbox.cif.g09.slc.cpg/sg24_17_cif.got.tgz:33657.got - 2010.04.14 03:06:53.
