data_PCOD8165848
_publ_section_title
;
Structure prediction by ZEFSAII (Michael W. Deem and Ramdas Pophale) SiO2 
 PCOD8165848
Probable space group: I 21 21 21
;
_chemical_formula_sum "Si O2"
_cell_formula_units_Z 40
_cell_length_a 24.260558
_cell_length_b 9.041129
_cell_length_c 8.160786
_cell_angle_alpha 90.000000
_cell_angle_beta 90.000000
_cell_angle_gamma 90.000000
_cell_volume 1790.009933
_symmetry_space_group_name_H-M "I 21 21 21"
_symmetry_group_IT_number 24
_symmetry_cell_setting 'orthorhombic'
loop_
_space_group_symop_operation_xyz
x,y,z
-x,1/2-y,z
x,-y,1/2-z
1/2-x,y,-z
1/2+x,1/2+y,1/2+z
1/2-x,-y,1/2+z
1/2+x,1/2-y,-z
-x,1/2+y,1/2-z
loop_
_atom_site_type_symbol
_atom_site_label
_atom_site_fract_x
_atom_site_fract_y
_atom_site_fract_z
Si Si1 0.885446 0.586657 0.084544
Si Si2 0.291737 0.123510 0.360964
Si Si3 0.705696 0.886265 0.370591
Si Si4 0.001803 0.078381 0.579097
Si Si5 0.614327 0.061610 0.572143
O O1 0.869976 0.500000 0.250000
O O2 0.875656 0.763439 0.090274
O O3 0.843069 0.536513 0.943667
O O4 0.947390 0.540479 0.039808
O O5 0.250000 0.185621 0.500000
O O6 0.315053 0.252399 0.243387
O O7 0.260922 0.000000 0.250000
O O8 0.750000 0.825737 0.500000
O O9 0.737450 0.000000 0.250000
O O10 0.654843 0.976118 0.448535
O O11 0.000000 0.250000 0.618382
O O12 0.946928 0.023571 0.489103
O O13 0.010377 0.000000 0.750000
O O14 0.623960 0.000000 0.750000
#
# Coordination Sequence:
#
# PCOD8165848 Si02
#       5
#     8   8   8   8   8
#     4  11  25  44  68  99 142 184 233 285 347 420
#     4  12  27  46  70 103 141 187 236 287 355 424
#     4  12  25  44  72 102 141 181 235 293 351 417
#     4  10  23  43  69 100 137 180 232 284 349 415
#     4  11  25  42  70 103 137 184 231 288 352 414
#
# _framework density 22.346245
#
# number of rings (size 3 to 8) (size 9 to 14) (size 15 to 20)
#    0.000    0.800    2.000    4.200    8.400    1.600 
#    0.000    0.000    0.000    0.000    0.000    0.000 
#    0.000    0.000    0.000    0.000    0.000    0.000 
#
# Total GULP energy -247965.779911 kJ/mol
# GULP energy per Si atom -12398.288996 kJ/mol
# Density = 2.229538 g / cm^3
# Si number density = 22.346245 Si / 1000 Ang^3
#
#
#
# Elastic Constant Matrix: (Units=GPa)
#
#
# Indices 1 2 3 4 5 6 
#
# 1 131.3448 35.8481 56.9106 0.0000 0.0000 0.0000
# 2 35.8481 89.1380 71.2542 0.0000 0.0000 0.0000
# 3 56.9106 71.2542 161.2121 0.0000 0.0000 0.0000
# 4 0.0000 0.0000 0.0000 49.8223 0.0000 0.0000
# 5 0.0000 0.0000 0.0000 0.0000 1.4565 0.0000
# 6 0.0000 0.0000 0.0000 0.0000 0.0000 20.2279
#
#
#
# Elastic Compliance Matrix: (Units=1/GPa)
#
#
# Indices 1 2 3 4 5 6 
#
# 1 0.009152 -0.001698 -0.002480 0.000000 0.000000 0.000000
# 2 -0.001698 0.017663 -0.007207 0.000000 0.000000 0.000000
# 3 -0.002480 -0.007207 0.010264 0.000000 0.000000 0.000000
# 4 0.000000 0.000000 0.000000 0.020071 0.000000 0.000000
# 5 0.000000 0.000000 0.000000 0.000000 0.686567 0.000000
# 6 0.000000 0.000000 0.000000 0.000000 0.000000 0.049437
#
#
# Mechanical properties :
#
#
# Convention : Reuss Voigt Hill
#
# Bulk Modulus (GPa) = 69.89297 78.85785 74.37541
# Shear Modulus (GPa) = 6.09240 28.81348 17.45294
#
# Velocity S-wave (km/s) = 1.65296 3.59473 2.79771
# Velocity P-wave (km/s) = 5.91508 7.25225 6.61753
#
# Compressibility (1/GPa) = 0.01430759
#
# Stress axis : x y z
#
# Youngs Moduli (GPa) = 109.27046 56.61635 97.42611
#
# Poissons Ratio (x) = 0.09612 0.24164
# Poissons Ratio (y) = 0.18552 0.70219
# Poissons Ratio (z) = 0.27102 0.40806
#
# Static dielectric constant tensor:
#      x y z
#    x 4.110090 0.000000 0.000000 
#    y 0.000000 11.423960 0.000000 
#    z 0.000000 0.000000 4.253170 
# 
# 
# High freq. dielectric constant tensor:
#      x y z
#    x 1.884050 0.000000 0.000000 
#    y 0.000000 1.880970 0.000000 
#    z 0.000000 0.000000 1.902050 
# 
# From -- ./inp_files/15644.got.cif
#   From: 2010.03.12/outbox.cif.g09.slc.cpg/sg24_8_cif.got.tgz:15644.got - 2010.04.14 03:06:53.
