data_PCOD8165648
_publ_section_title
;
Structure prediction by ZEFSAII (Michael W. Deem and Ramdas Pophale) SiO2 
 PCOD8165648
Probable space group: I 21 21 21
;
_chemical_formula_sum "Si O2"
_cell_formula_units_Z 36
_cell_length_a 9.801130
_cell_length_b 8.638968
_cell_length_c 19.436688
_cell_angle_alpha 90.000000
_cell_angle_beta 90.000000
_cell_angle_gamma 90.000000
_cell_volume 1645.736413
_symmetry_space_group_name_H-M "I 21 21 21"
_symmetry_group_IT_number 24
_symmetry_cell_setting 'orthorhombic'
loop_
_space_group_symop_operation_xyz
x,y,z
-x,1/2-y,z
x,-y,1/2-z
1/2-x,y,-z
1/2+x,1/2+y,1/2+z
1/2-x,-y,1/2+z
1/2+x,1/2-y,-z
-x,1/2+y,1/2-z
loop_
_atom_site_type_symbol
_atom_site_label
_atom_site_fract_x
_atom_site_fract_y
_atom_site_fract_z
Si Si1 0.874528 0.582609 0.421651
Si Si2 0.563692 0.922097 0.321097
Si Si3 0.395585 0.067300 0.437222
Si Si4 0.250000 0.340611 0.500000
Si Si5 0.661994 0.079080 0.888731
O O1 0.749661 0.472393 0.400451
O O2 0.925738 0.545108 0.498854
O O3 0.820193 0.756932 0.425983
O O4 0.001050 0.563066 0.367429
O O5 0.500000 0.750000 0.327642
O O6 0.512992 0.037900 0.381450
O O7 0.729206 0.921265 0.326032
O O8 0.518979 0.000000 0.250000
O O9 0.624794 0.257775 0.466075
O O10 0.185132 0.440788 0.440753
#
# Coordination Sequence:
#
# PCOD8165648 Si02
#       5
#     8   8   8   4   8
#     4   9  20  38  66 100 125 168 217 281 353 402
#     4  12  28  46  67  91 135 192 237 274 324 412
#     4  10  22  39  65 101 140 166 214 283 349 402
#     4  10  22  36  66 104 140 162 210 286 350 404
#     4  11  21  37  67  94 132 170 222 273 340 405
#
# _framework density 21.874706
#
# number of rings (size 3 to 8) (size 9 to 14) (size 15 to 20)
#    0.000    1.778    2.222    2.667    6.222    7.111 
#    0.000    1.111    0.000    0.000    0.000    0.000 
#    0.000    0.000    0.000    0.000    0.000    0.000 
#
# Total GULP energy -223019.551752 kJ/mol
# GULP energy per Si atom -12389.975097 kJ/mol
# Density = 2.182492 g / cm^3
# Si number density = 21.874706 Si / 1000 Ang^3
#
#
#
# Elastic Constant Matrix: (Units=GPa)
#
#
# Indices 1 2 3 4 5 6 
#
# 1 136.2714 9.4073 19.6766 0.0000 0.0000 0.0000
# 2 9.4073 119.4754 31.8885 0.0000 0.0000 0.0000
# 3 19.6766 31.8885 63.7348 0.0000 0.0000 0.0000
# 4 0.0000 0.0000 0.0000 25.1342 0.0000 0.0000
# 5 0.0000 0.0000 0.0000 0.0000 21.5319 0.0000
# 6 0.0000 0.0000 0.0000 0.0000 0.0000 8.7669
#
#
#
# Elastic Compliance Matrix: (Units=1/GPa)
#
#
# Indices 1 2 3 4 5 6 
#
# 1 0.007681 0.000032 -0.002388 0.000000 0.000000 0.000000
# 2 0.000032 0.009660 -0.004843 0.000000 0.000000 0.000000
# 3 -0.002388 -0.004843 0.018850 0.000000 0.000000 0.000000
# 4 0.000000 0.000000 0.000000 0.039786 0.000000 0.000000
# 5 0.000000 0.000000 0.000000 0.000000 0.046443 0.000000
# 6 0.000000 0.000000 0.000000 0.000000 0.000000 0.114065
#
#
# Mechanical properties :
#
#
# Convention : Reuss Voigt Hill
#
# Bulk Modulus (GPa) = 45.88293 49.04737 47.46515
# Shear Modulus (GPa) = 19.36883 28.32057 23.84470
#
# Velocity S-wave (km/s) = 2.97887 3.60206 3.30518
# Velocity P-wave (km/s) = 5.73170 6.30638 6.02589
#
# Compressibility (1/GPa) = 0.02179460
#
# Stress axis : x y z
#
# Youngs Moduli (GPa) = 130.19482 103.51919 53.04951
#
# Poissons Ratio (x) = -0.00336 0.12666
# Poissons Ratio (y) = -0.00423 0.25693
# Poissons Ratio (z) = 0.31084 0.50137
#
# Static dielectric constant tensor:
#      x y z
#    x 4.500260 0.000000 0.000000 
#    y 0.000000 4.189730 0.000000 
#    z 0.000000 0.000000 3.367590 
# 
# 
# High freq. dielectric constant tensor:
#      x y z
#    x 1.890330 0.000000 0.000000 
#    y 0.000000 1.878740 0.000000 
#    z 0.000000 0.000000 1.793400 
# 
# From -- ./inp_files/32597.got.cif
#   From: 2010.03.12/outbox.cif.g09.slc.cpg/sg24_17_cif.got.tgz:32597.got - 2010.04.14 03:06:53.
