data_PCOD8165958
_publ_section_title
;
Structure prediction by ZEFSAII (Michael W. Deem and Ramdas Pophale) SiO2 
 PCOD8165958
Probable space group: I 21 21 21
;
_chemical_formula_sum "Si O2"
_cell_formula_units_Z 60
_cell_length_a 8.285327
_cell_length_b 28.771316
_cell_length_c 12.481733
_cell_angle_alpha 90.000000
_cell_angle_beta 90.000000
_cell_angle_gamma 90.000000
_cell_volume 2975.392533
_symmetry_space_group_name_H-M "I 21 21 21"
_symmetry_group_IT_number 24
_symmetry_cell_setting 'orthorhombic'
loop_
_space_group_symop_operation_xyz
x,y,z
-x,1/2-y,z
x,-y,1/2-z
1/2-x,y,-z
1/2+x,1/2+y,1/2+z
1/2-x,-y,1/2+z
1/2+x,1/2-y,-z
-x,1/2+y,1/2-z
loop_
_atom_site_type_symbol
_atom_site_label
_atom_site_fract_x
_atom_site_fract_y
_atom_site_fract_z
Si Si1 0.371920 0.113172 0.594579
Si Si2 0.250000 0.876281 0.500000
Si Si3 0.313145 0.659914 0.887482
Si Si4 0.435405 0.542120 0.021919
Si Si5 0.707740 0.657430 0.270517
Si Si6 0.583228 0.100245 0.272729
Si Si7 0.812805 0.738011 0.114808
Si Si8 0.928397 0.064446 0.955528
O O1 0.250000 0.125407 0.500000
O O2 0.491970 0.158166 0.603326
O O3 0.463206 0.064800 0.575341
O O4 0.288062 0.112619 0.710703
O O5 0.241692 0.843043 0.395428
O O6 0.418450 0.905420 0.497363
O O7 0.257776 0.622180 0.799235
O O8 0.237115 0.710598 0.864611
O O9 0.250000 0.640122 0.000000
O O10 0.487143 0.568528 0.130787
O O11 0.477841 0.488130 0.019187
O O12 0.250000 0.549727 0.000000
O O13 0.519534 0.646563 0.254795
O O14 0.756158 0.705557 0.213224
O O15 0.592846 0.066893 0.171536
O O16 0.000000 0.750000 0.114026
O O17 0.750000 0.718679 0.000000
O O18 0.750000 0.078907 0.000000
#
# Coordination Sequence:
#
# PCOD8165958 Si02
#       8
#     8   4   8   8   8   8   8   8
#     4  12  20  34  64  95 128 165 201 254 326 395
#     4  10  26  48  66  84 130 170 224 272 308 376
#     4  11  21  36  60  91 126 159 198 253 320 385
#     4  11  21  37  58  93 131 159 207 264 320 386
#     4  11  24  41  64  89 125 172 209 262 320 381
#     4  11  21  40  61  86 127 169 207 260 321 382
#     4  11  25  36  62 100 132 157 199 265 322 390
#     4  10  25  41  63  90 122 172 223 267 309 377
#
# _framework density 20.165406000000001
#
# number of rings (size 3 to 8) (size 9 to 14) (size 15 to 20)
#    0.000    1.067    5.333    0.800    6.533    0.000 
#    0.000    0.667    7.333    0.000    0.000    0.000 
#    0.000    0.000    0.000    0.000    0.000    0.000 
#
# Total GULP energy -371711.704252 kJ/mol
# GULP energy per Si atom -12390.390142 kJ/mol
# Density = 2.011951 g / cm^3
# Si number density = 20.165406 Si / 1000 Ang^3
#
#
#
# Elastic Constant Matrix: (Units=GPa)
#
#
# Indices 1 2 3 4 5 6 
#
# 1 92.4817 30.8144 32.7926 0.0008 -0.0003 -0.0002
# 2 30.8144 109.3305 44.6969 0.0011 0.0000 0.0000
# 3 32.7926 44.6969 125.9007 0.0088 0.0008 -0.0001
# 4 0.0008 0.0011 0.0088 13.1379 0.0008 0.0000
# 5 -0.0003 0.0000 0.0008 0.0008 29.1892 0.0007
# 6 -0.0002 0.0000 -0.0001 0.0000 0.0007 11.0468
#
#
#
# Elastic Compliance Matrix: (Units=1/GPa)
#
#
# Indices 1 2 3 4 5 6 
#
# 1 0.012499 -0.002564 -0.002345 0.000001 0.000000 0.000000
# 2 -0.002564 0.011225 -0.003317 0.000001 0.000000 0.000000
# 3 -0.002345 -0.003317 0.009731 -0.000006 0.000000 0.000000
# 4 0.000001 0.000001 -0.000006 0.076116 -0.000002 0.000000
# 5 0.000000 0.000000 0.000000 -0.000002 0.034259 -0.000002
# 6 0.000000 0.000000 0.000000 0.000000 -0.000002 0.090524
#
#
# Mechanical properties :
#
#
# Convention : Reuss Voigt Hill
#
# Bulk Modulus (GPa) = 58.81517 60.48009 59.64763
# Shear Modulus (GPa) = 19.49507 25.30204 22.39856
#
# Velocity S-wave (km/s) = 3.11265 3.54605 3.33639
# Velocity P-wave (km/s) = 6.49213 6.84274 6.66974
#
# Compressibility (1/GPa) = 0.01700242
#
# Stress axis : x y z
#
# Youngs Moduli (GPa) = 80.00748 89.08331 102.76053
#
# Poissons Ratio (x) = 0.22841 0.24100
# Poissons Ratio (y) = 0.20514 0.34090
# Poissons Ratio (z) = 0.18764 0.29553
#
# Static dielectric constant tensor:
#      x y z
#    x 3.947800 0.000000 0.000000 
#    y 0.000000 3.783830 0.000000 
#    z 0.000000 0.000000 3.567670 
# 
# 
# High freq. dielectric constant tensor:
#      x y z
#    x 1.802940 0.000000 0.000000 
#    y 0.000000 1.785270 0.000000 
#    z 0.000000 0.000000 1.767760 
# 
# From -- ./inp_files/18880.got.cif
#   From: 2010.03.12/outbox.cif.g09.slc.cpg/sg24_10_cif.got.tgz:18880.got - 2010.04.14 03:06:53.
