data_PCOD8165748
_publ_section_title
;
Structure prediction by ZEFSAII (Michael W. Deem and Ramdas Pophale) SiO2 
 PCOD8165748
Probable space group: I 21 21 21
;
_chemical_formula_sum "Si O2"
_cell_formula_units_Z 28
_cell_length_a 18.016293
_cell_length_b 14.597132
_cell_length_c 5.056889
_cell_angle_alpha 90.000000
_cell_angle_beta 90.000000
_cell_angle_gamma 90.000000
_cell_volume 1329.892058
_symmetry_space_group_name_H-M "I 21 21 21"
_symmetry_group_IT_number 24
_symmetry_cell_setting 'orthorhombic'
loop_
_space_group_symop_operation_xyz
x,y,z
-x,1/2-y,z
x,-y,1/2-z
1/2-x,y,-z
1/2+x,1/2+y,1/2+z
1/2-x,-y,1/2+z
1/2+x,1/2-y,-z
-x,1/2+y,1/2-z
loop_
_atom_site_type_symbol
_atom_site_label
_atom_site_fract_x
_atom_site_fract_y
_atom_site_fract_z
Si Si1 0.563484 0.500000 0.250000
Si Si2 0.078390 0.557000 0.511524
Si Si3 0.165363 0.859466 0.020825
Si Si4 0.165258 0.741023 0.522317
O O1 0.509631 0.567612 0.419832
O O2 0.613282 0.445391 0.459658
O O3 0.117993 0.500000 0.750000
O O4 0.111477 0.656801 0.469502
O O5 0.091768 0.500000 0.250000
O O6 0.149798 0.778094 0.814695
O O7 0.250000 0.894032 0.000000
O O8 0.148327 0.822013 0.313557
O O9 0.250000 0.707145 0.500000
#
# Coordination Sequence:
#
# PCOD8165748 Si02
#       4
#     4   8   8   8
#     4  10  26  42  62  94 130 160 216 258 320 390
#     4  10  23  41  60  96 127 167 207 257 326 375
#     4  10  23  41  66  90 123 165 211 266 316 372
#     4  10  22  42  65  94 123 164 215 258 313 380
#
# _framework density 21.054341999999998
#
# number of rings (size 3 to 8) (size 9 to 14) (size 15 to 20)
#    0.857    1.143    0.000    1.714    4.000    5.714 
#    0.000    0.000    0.000    0.000    0.000    0.000 
#    0.000    0.000    0.000    0.000    0.000    0.000 
#
# Total GULP energy -173594.546040 kJ/mol
# GULP energy per Si atom -12399.610431 kJ/mol
# Density = 2.100642 g / cm^3
# Si number density = 21.054342 Si / 1000 Ang^3
#
#
#
# Elastic Constant Matrix: (Units=GPa)
#
#
# Indices 1 2 3 4 5 6 
#
# 1 121.9918 75.2109 29.1240 0.0000 0.0000 0.0000
# 2 75.2109 86.7543 11.8006 0.0000 0.0000 0.0000
# 3 29.1240 11.8006 102.8674 0.0000 0.0000 0.0000
# 4 0.0000 0.0000 0.0000 33.4951 0.0000 0.0000
# 5 0.0000 0.0000 0.0000 0.0000 2.8051 0.0000
# 6 0.0000 0.0000 0.0000 0.0000 0.0000 63.8032
#
#
#
# Elastic Compliance Matrix: (Units=1/GPa)
#
#
# Indices 1 2 3 4 5 6 
#
# 1 0.018775 -0.015800 -0.003503 0.000000 0.000000 0.000000
# 2 -0.015800 0.025006 0.001605 0.000000 0.000000 0.000000
# 3 -0.003503 0.001605 0.010529 0.000000 0.000000 0.000000
# 4 0.000000 0.000000 0.000000 0.029855 0.000000 0.000000
# 5 0.000000 0.000000 0.000000 0.000000 0.356490 0.000000
# 6 0.000000 0.000000 0.000000 0.000000 0.000000 0.015673
#
#
# Mechanical properties :
#
#
# Convention : Reuss Voigt Hill
#
# Bulk Modulus (GPa) = 52.87316 60.43161 56.65238
# Shear Modulus (GPa) = 10.03957 33.05254 21.54606
#
# Velocity S-wave (km/s) = 2.18604 3.96645 3.20246
# Velocity P-wave (km/s) = 5.61595 7.05280 6.37499
#
# Compressibility (1/GPa) = 0.01891319
#
# Stress axis : x y z
#
# Youngs Moduli (GPa) = 53.26313 39.98993 94.97636
#
# Poissons Ratio (x) = 0.63184 0.33270
# Poissons Ratio (y) = 0.84156 -0.15241
# Poissons Ratio (z) = 0.18658 -0.06417
#
# Static dielectric constant tensor:
#      x y z
#    x 3.780280 0.000000 0.000000 
#    y 0.000000 3.643630 0.000000 
#    z 0.000000 0.000000 3.932480 
# 
# 
# High freq. dielectric constant tensor:
#      x y z
#    x 1.819940 0.000000 0.000000 
#    y 0.000000 1.809790 0.000000 
#    z 0.000000 0.000000 1.844110 
# 
# From -- ./inp_files/2983.got.cif
#   From: 2010.03.12/outbox.cif.g09.slc.cpg/sg24_2_cif.got.tgz:2983.got - 2010.04.14 03:06:53.
