data_PCOD8165746
_publ_section_title
;
Structure prediction by ZEFSAII (Michael W. Deem and Ramdas Pophale) SiO2 
 PCOD8165746
Probable space group: I 21 21 21
;
_chemical_formula_sum "Si O2"
_cell_formula_units_Z 44
_cell_length_a 16.795019
_cell_length_b 13.957732
_cell_length_c 8.379668
_cell_angle_alpha 90.000000
_cell_angle_beta 90.000000
_cell_angle_gamma 90.000000
_cell_volume 1964.364908
_symmetry_space_group_name_H-M "I 21 21 21"
_symmetry_group_IT_number 24
_symmetry_cell_setting 'orthorhombic'
loop_
_space_group_symop_operation_xyz
x,y,z
-x,1/2-y,z
x,-y,1/2-z
1/2-x,y,-z
1/2+x,1/2+y,1/2+z
1/2-x,-y,1/2+z
1/2+x,1/2-y,-z
-x,1/2+y,1/2-z
loop_
_atom_site_type_symbol
_atom_site_label
_atom_site_fract_x
_atom_site_fract_y
_atom_site_fract_z
Si Si1 0.659987 0.253284 0.239969
Si Si2 0.500000 0.250000 0.043545
Si Si3 0.177029 0.946140 0.592811
Si Si4 0.447317 0.091735 0.832755
Si Si5 0.594302 0.260130 0.585330
Si Si6 0.214559 0.397717 0.328022
O O1 0.576274 0.236890 0.153280
O O2 0.703192 0.339651 0.148277
O O3 0.641862 0.282511 0.423047
O O4 0.718126 0.161552 0.229151
O O5 0.508700 0.160731 0.922215
O O6 0.250000 0.995184 0.500000
O O7 0.105084 0.951507 0.472586
O O8 0.149007 0.000000 0.750000
O O9 0.393337 0.151173 0.706330
O O10 0.489789 0.000000 0.750000
O O11 0.500000 0.250000 0.553040
O O12 0.632362 0.163485 0.661596
O O13 0.195582 0.500000 0.250000
O O14 0.250000 0.419709 0.500000
#
# Coordination Sequence:
#
# PCOD8165746 Si02
#       6
#     8   4   8   8   8   8
#     4  10  22  44  67  97 136 185 230 292 353 424
#     4  10  22  42  64  96 138 184 234 286 356 422
#     4  11  23  39  65  96 131 174 225 287 352 422
#     4  11  23  41  63  97 132 177 229 288 349 416
#     4  11  22  43  71  97 136 183 233 293 351 424
#     4  10  24  44  67 100 135 181 228 282 349 413
#
# _framework density 22.399097999999999
#
# number of rings (size 3 to 8) (size 9 to 14) (size 15 to 20)
#    0.000    1.455    1.818    2.727    0.000    6.545 
#    6.545    0.909    0.000    0.000    0.000    0.000 
#    0.000    0.000    0.000    0.000    0.000    0.000 
#
# Total GULP energy -272665.865021 kJ/mol
# GULP energy per Si atom -12393.902955 kJ/mol
# Density = 2.234812 g / cm^3
# Si number density = 22.399098 Si / 1000 Ang^3
#
#
#
# Elastic Constant Matrix: (Units=GPa)
#
#
# Indices 1 2 3 4 5 6 
#
# 1 80.7924 25.7099 18.0374 0.0000 0.0000 0.0000
# 2 25.7099 110.4621 43.4429 0.0000 0.0000 0.0000
# 3 18.0374 43.4429 116.4073 0.0000 0.0000 0.0000
# 4 0.0000 0.0000 0.0000 53.7539 0.0000 0.0000
# 5 0.0000 0.0000 0.0000 0.0000 27.5183 0.0000
# 6 0.0000 0.0000 0.0000 0.0000 0.0000 44.1410
#
#
#
# Elastic Compliance Matrix: (Units=1/GPa)
#
#
# Indices 1 2 3 4 5 6 
#
# 1 0.013481 -0.002715 -0.001076 0.000000 0.000000 0.000000
# 2 -0.002715 0.011157 -0.003743 0.000000 0.000000 0.000000
# 3 -0.001076 -0.003743 0.010154 0.000000 0.000000 0.000000
# 4 0.000000 0.000000 0.000000 0.018603 0.000000 0.000000
# 5 0.000000 0.000000 0.000000 0.000000 0.036339 0.000000
# 6 0.000000 0.000000 0.000000 0.000000 0.000000 0.022655
#
#
# Mechanical properties :
#
#
# Convention : Reuss Voigt Hill
#
# Bulk Modulus (GPa) = 50.69651 53.56026 52.12838
# Shear Modulus (GPa) = 37.30452 39.78074 38.54263
#
# Velocity S-wave (km/s) = 4.08542 4.21883 4.15266
# Velocity P-wave (km/s) = 6.70348 6.90616 6.80557
#
# Compressibility (1/GPa) = 0.01972523
#
# Stress axis : x y z
#
# Youngs Moduli (GPa) = 74.17593 89.63151 98.48218
#
# Poissons Ratio (x) = 0.24332 0.10595
# Poissons Ratio (y) = 0.20136 0.36862
# Poissons Ratio (z) = 0.07980 0.33549
#
# Static dielectric constant tensor:
#      x y z
#    x 3.678110 0.000000 0.000000 
#    y 0.000000 4.142900 0.000000 
#    z 0.000000 0.000000 4.374580 
# 
# 
# High freq. dielectric constant tensor:
#      x y z
#    x 1.870250 0.000000 0.000000 
#    y 0.000000 1.881130 0.000000 
#    z 0.000000 0.000000 1.907480 
# 
# From -- ./inp_files/14099.got.cif
#   From: 2010.03.12/outbox.cif.g09.slc.cpg/sg24_8_cif.got.tgz:14099.got - 2010.04.14 03:06:53.
