data_PCOD8165621
_publ_section_title
;
Structure prediction by ZEFSAII (Michael W. Deem and Ramdas Pophale) SiO2 
 PCOD8165621
Probable space group: I 21 21 21
;
_chemical_formula_sum "Si O2"
_cell_formula_units_Z 36
_cell_length_a 8.515328
_cell_length_b 21.242935
_cell_length_c 7.525787
_cell_angle_alpha 90.000000
_cell_angle_beta 90.000000
_cell_angle_gamma 90.000000
_cell_volume 1361.343819
_symmetry_space_group_name_H-M "I 21 21 21"
_symmetry_group_IT_number 24
_symmetry_cell_setting 'orthorhombic'
loop_
_space_group_symop_operation_xyz
x,y,z
-x,1/2-y,z
x,-y,1/2-z
1/2-x,y,-z
1/2+x,1/2+y,1/2+z
1/2-x,-y,1/2+z
1/2+x,1/2-y,-z
-x,1/2+y,1/2-z
loop_
_atom_site_type_symbol
_atom_site_label
_atom_site_fract_x
_atom_site_fract_y
_atom_site_fract_z
Si Si1 0.327564 0.759445 0.675035
Si Si2 0.250000 0.155139 0.500000
Si Si3 0.818691 0.119377 0.249882
Si Si4 0.415803 0.956824 0.576634
Si Si5 0.526868 0.926235 0.104515
O O1 0.500000 0.750000 0.607288
O O2 0.250000 0.790231 0.500000
O O3 0.259689 0.690596 0.720914
O O4 0.332673 0.802677 0.850537
O O5 0.363586 0.111830 0.378375
O O6 0.653092 0.080526 0.233934
O O7 0.891956 0.108385 0.440367
O O8 0.955217 0.097719 0.111432
O O9 0.250000 0.929760 0.500000
O O10 0.387181 0.000000 0.750000
O O11 0.489707 0.000269 0.422369
#
# Coordination Sequence:
#
# PCOD8165621 Si02
#       5
#     8   4   8   8   8
#     4  12  29  48  73 116 154 202 264 321 399 474
#     4  12  24  48  88 106 156 218 252 342 392 474
#     4  10  23  46  72 108 156 195 254 322 392 474
#     4  10  22  46  73 108 148 199 253 319 390 471
#     4  10  21  45  79 111 140 201 268 309 398 476
#
# _framework density 26.444459999999999
#
# number of rings (size 3 to 8) (size 9 to 14) (size 15 to 20)
#    0.000    1.333    3.333    1.333    3.111    0.889 
#   16.000    0.000    0.000    0.000    0.000    0.000 
#    0.000    0.000    0.000    0.000    0.000    0.000 
#
# Total GULP energy -222987.518270 kJ/mol
# GULP energy per Si atom -12388.195459 kJ/mol
# Density = 2.638427 g / cm^3
# Si number density = 26.444460 Si / 1000 Ang^3
#
#
#
# Elastic Constant Matrix: (Units=GPa)
#
#
# Indices 1 2 3 4 5 6 
#
# 1 179.2336 29.4348 22.5656 0.0009 0.0000 -0.0002
# 2 29.4348 94.3024 -17.2606 0.0010 -0.0010 -0.0005
# 3 22.5656 -17.2606 74.8306 0.0013 0.0058 0.0002
# 4 0.0009 0.0010 0.0013 6.7266 0.0012 0.0000
# 5 0.0000 -0.0010 0.0058 0.0012 55.0594 0.0005
# 6 -0.0002 -0.0005 0.0002 0.0000 0.0005 42.4693
#
#
#
# Elastic Compliance Matrix: (Units=1/GPa)
#
#
# Indices 1 2 3 4 5 6 
#
# 1 0.006284 -0.002410 -0.002451 0.000000 0.000000 0.000000
# 2 -0.002410 0.011996 0.003494 -0.000002 0.000000 0.000000
# 3 -0.002451 0.003494 0.014908 -0.000003 -0.000002 0.000000
# 4 0.000000 -0.000002 -0.000003 0.148663 -0.000003 0.000000
# 5 0.000000 0.000000 -0.000002 -0.000003 0.018162 0.000000
# 6 0.000000 0.000000 0.000000 0.000000 0.000000 0.023546
#
#
# Mechanical properties :
#
#
# Convention : Reuss Voigt Hill
#
# Bulk Modulus (GPa) = 32.83631 46.42733 39.63182
# Shear Modulus (GPa) = 21.14657 41.75950 31.45304
#
# Velocity S-wave (km/s) = 2.83089 3.97815 3.45251
# Velocity P-wave (km/s) = 4.80929 6.22058 5.55990
#
# Compressibility (1/GPa) = 0.03045409
#
# Stress axis : x y z
#
# Youngs Moduli (GPa) = 159.14375 83.36208 67.07616
#
# Poissons Ratio (x) = 0.20089 0.16439
# Poissons Ratio (y) = 0.38352 -0.23434
# Poissons Ratio (z) = 0.39002 -0.29124
#
# Static dielectric constant tensor:
#      x y z
#    x 5.345010 -0.000010 0.000010 
#    y -0.000010 5.000510 0.000000 
#    z 0.000010 0.000000 4.948580 
# 
# 
# High freq. dielectric constant tensor:
#      x y z
#    x 2.079150 0.000000 0.000000 
#    y 0.000000 2.055200 0.000000 
#    z 0.000000 0.000000 2.066560 
# 
# From -- ./inp_files/9088.got.cif
#   From: 2010.03.12/outbox.cif.g09.slc.cpg/sg24_5_cif.got.tgz:9088.got - 2010.04.14 03:06:53.
