data_PCOD8165826
_publ_section_title
;
Structure prediction by ZEFSAII (Michael W. Deem and Ramdas Pophale) SiO2 
 PCOD8165826
Probable space group: I 21 21 21
;
_chemical_formula_sum "Si O2"
_cell_formula_units_Z 28
_cell_length_a 9.635390
_cell_length_b 7.465332
_cell_length_c 20.025319
_cell_angle_alpha 90.000000
_cell_angle_beta 90.000000
_cell_angle_gamma 90.000000
_cell_volume 1440.448937
_symmetry_space_group_name_H-M "I 21 21 21"
_symmetry_group_IT_number 24
_symmetry_cell_setting 'orthorhombic'
loop_
_space_group_symop_operation_xyz
x,y,z
-x,1/2-y,z
x,-y,1/2-z
1/2-x,y,-z
1/2+x,1/2+y,1/2+z
1/2-x,-y,1/2+z
1/2+x,1/2-y,-z
-x,1/2+y,1/2-z
loop_
_atom_site_type_symbol
_atom_site_label
_atom_site_fract_x
_atom_site_fract_y
_atom_site_fract_z
Si Si1 0.655284 0.250755 0.377341
Si Si2 0.662757 0.049992 0.826238
Si Si3 0.750000 0.433074 0.500000
Si Si4 0.853291 0.448613 0.132165
O O1 0.500000 0.250000 0.347717
O O2 0.649620 0.305482 0.455756
O O3 0.749755 0.399034 0.338298
O O4 0.724784 0.056507 0.369982
O O5 0.689979 0.259639 0.836881
O O6 0.508581 0.995829 0.848622
O O7 0.686436 0.000000 0.750000
O O8 0.840751 0.556277 0.449193
#
# Coordination Sequence:
#
# PCOD8165826 Si02
#       4
#     8   8   4   8
#     4  10  23  41  61  95 128 171 199 268 318 366
#     4  11  24  42  67  93 122 176 214 258 306 376
#     4   8  22  40  60  98 128 162 210 260 316 378
#     4   9  23  39  64  97 118 166 216 261 305 369
#
# _framework density 19.438383999999999
#
# number of rings (size 3 to 8) (size 9 to 14) (size 15 to 20)
#    1.714    0.571    0.000    0.857   12.000    2.286 
#   10.286    0.000    0.000    0.000    0.000    0.000 
#    0.000    0.000    0.000    0.000    0.000    0.000 
#
# Total GULP energy -173482.751077 kJ/mol
# GULP energy per Si atom -12391.625077 kJ/mol
# Density = 1.939414 g / cm^3
# Si number density = 19.438384 Si / 1000 Ang^3
#
#
#
# Elastic Constant Matrix: (Units=GPa)
#
#
# Indices 1 2 3 4 5 6 
#
# 1 128.5920 64.7521 1.1394 0.0000 0.0000 0.0000
# 2 64.7521 99.0493 29.1403 0.0000 0.0000 0.0000
# 3 1.1394 29.1403 91.2174 0.0000 0.0000 0.0000
# 4 0.0000 0.0000 0.0000 28.5288 0.0000 0.0000
# 5 0.0000 0.0000 0.0000 0.0000 20.8263 0.0000
# 6 0.0000 0.0000 0.0000 0.0000 0.0000 30.8359
#
#
#
# Elastic Compliance Matrix: (Units=1/GPa)
#
#
# Indices 1 2 3 4 5 6 
#
# 1 0.012139 -0.008710 0.002631 0.000000 0.000000 0.000000
# 2 -0.008710 0.017392 -0.005447 0.000000 0.000000 0.000000
# 3 0.002631 -0.005447 0.012670 0.000000 0.000000 0.000000
# 4 0.000000 0.000000 0.000000 0.035052 0.000000 0.000000
# 5 0.000000 0.000000 0.000000 0.000000 0.048016 0.000000
# 6 0.000000 0.000000 0.000000 0.000000 0.000000 0.032430
#
#
# Mechanical properties :
#
#
# Convention : Reuss Voigt Hill
#
# Bulk Modulus (GPa) = 52.22207 56.54692 54.38449
# Shear Modulus (GPa) = 26.71865 30.95999 28.83932
#
# Velocity S-wave (km/s) = 3.71149 3.99522 3.85597
# Velocity P-wave (km/s) = 6.72983 7.10182 6.91833
#
# Compressibility (1/GPa) = 0.01914899
#
# Stress axis : x y z
#
# Youngs Moduli (GPa) = 82.37969 57.49651 78.92553
#
# Poissons Ratio (x) = 0.50077 -0.20763
# Poissons Ratio (y) = 0.71749 0.42994
# Poissons Ratio (z) = -0.21672 0.31320
#
# Static dielectric constant tensor:
#      x y z
#    x 3.366230 0.000000 0.000000 
#    y 0.000000 3.471260 0.000000 
#    z 0.000000 0.000000 3.350490 
# 
# 
# High freq. dielectric constant tensor:
#      x y z
#    x 1.748110 0.000000 0.000000 
#    y 0.000000 1.758820 0.000000 
#    z 0.000000 0.000000 1.745100 
# 
# From -- ./inp_files/8798.got.cif
#   From: 2010.03.12/outbox.cif.g09.slc.cpg/sg24_5_cif.got.tgz:8798.got - 2010.04.14 03:06:53.
