data_PCOD8165622
_publ_section_title
;
Structure prediction by ZEFSAII (Michael W. Deem and Ramdas Pophale) SiO2 
 PCOD8165622
Probable space group: I 21 21 21
;
_chemical_formula_sum "Si O2"
_cell_formula_units_Z 36
_cell_length_a 7.996118
_cell_length_b 22.146066
_cell_length_c 7.810620
_cell_angle_alpha 90.000000
_cell_angle_beta 90.000000
_cell_angle_gamma 90.000000
_cell_volume 1383.124561
_symmetry_space_group_name_H-M "I 21 21 21"
_symmetry_group_IT_number 24
_symmetry_cell_setting 'orthorhombic'
loop_
_space_group_symop_operation_xyz
x,y,z
-x,1/2-y,z
x,-y,1/2-z
1/2-x,y,-z
1/2+x,1/2+y,1/2+z
1/2-x,-y,1/2+z
1/2+x,1/2-y,-z
-x,1/2+y,1/2-z
loop_
_atom_site_type_symbol
_atom_site_label
_atom_site_fract_x
_atom_site_fract_y
_atom_site_fract_z
Si Si1 0.201414 0.752166 0.682062
Si Si2 0.250000 0.173446 0.500000
Si Si3 0.818077 0.119420 0.230778
Si Si4 0.420570 0.964743 0.574236
Si Si5 0.520706 0.915656 0.081406
O O1 0.250000 0.783578 0.500000
O O2 0.301553 0.783920 0.840118
O O3 0.286737 0.686756 0.669496
O O4 0.000000 0.750000 0.715928
O O5 0.366292 0.128389 0.390975
O O6 0.638306 0.086599 0.251254
O O7 0.900788 0.115874 0.415250
O O8 0.935052 0.085665 0.092261
O O9 0.250000 0.934792 0.500000
O O10 0.384666 0.000000 0.750000
O O11 0.477882 0.014470 0.438017
#
# Coordination Sequence:
#
# PCOD8165622 Si02
#       5
#     8   4   8   8   8
#     4  12  29  50  75 120 165 214 283 344 424 506
#     4  12  24  48  90 108 160 226 268 352 414 506
#     4  10  23  47  74 111 159 210 267 347 418 495
#     4  10  22  47  75 114 158 210 270 342 415 507
#     4  10  21  45  81 115 147 210 285 324 428 503
#
# _framework density 26.028023999999998
#
# number of rings (size 3 to 8) (size 9 to 14) (size 15 to 20)
#    0.000    1.333    3.333    1.333    3.111    0.000 
#   24.000    0.000    0.000    0.000    0.000    0.000 
#    0.000    0.000    0.000    0.000    0.000    0.000 
#
# Total GULP energy -222997.050835 kJ/mol
# GULP energy per Si atom -12388.725046 kJ/mol
# Density = 2.596878 g / cm^3
# Si number density = 26.028024 Si / 1000 Ang^3
#
#
#
# Elastic Constant Matrix: (Units=GPa)
#
#
# Indices 1 2 3 4 5 6 
#
# 1 152.8722 72.4124 33.1700 -0.0025 0.0017 -0.0013
# 2 72.4124 157.6056 41.2277 -0.0025 -0.0016 -0.0001
# 3 33.1700 41.2277 127.2306 -0.0422 -0.0289 -0.0138
# 4 -0.0025 -0.0025 -0.0422 8.3458 -0.0104 -0.0047
# 5 0.0017 -0.0016 -0.0289 -0.0104 48.7385 -0.0068
# 6 -0.0013 -0.0001 -0.0138 -0.0047 -0.0068 46.8376
#
#
#
# Elastic Compliance Matrix: (Units=1/GPa)
#
#
# Indices 1 2 3 4 5 6 
#
# 1 0.008484 -0.003627 -0.001037 -0.000004 -0.000001 0.000000
# 2 -0.003627 0.008483 -0.001803 -0.000008 -0.000001 -0.000001
# 3 -0.001037 -0.001803 0.008714 0.000043 0.000005 0.000003
# 4 -0.000004 -0.000008 0.000043 0.119821 0.000026 0.000012
# 5 -0.000001 -0.000001 0.000005 0.000026 0.020518 0.000003
# 6 0.000000 -0.000001 0.000003 0.000012 0.000003 0.021350
#
#
# Mechanical properties :
#
#
# Convention : Reuss Voigt Hill
#
# Bulk Modulus (GPa) = 78.44380 81.25874 79.85127
# Shear Modulus (GPa) = 24.44343 40.17760 32.31051
#
# Velocity S-wave (km/s) = 3.06783 3.93317 3.52714
# Velocity P-wave (km/s) = 6.53853 7.20513 6.87991
#
# Compressibility (1/GPa) = 0.01274798
#
# Stress axis : x y z
#
# Youngs Moduli (GPa) = 117.86368 117.88138 114.75314
#
# Poissons Ratio (x) = 0.42756 0.11896
# Poissons Ratio (y) = 0.42749 0.20693
# Poissons Ratio (z) = 0.12218 0.21257
#
# Static dielectric constant tensor:
#      x y z
#    x 5.187700 -0.000070 0.000100 
#    y -0.000070 4.545670 -0.000060 
#    z 0.000100 -0.000060 4.754180 
# 
# 
# High freq. dielectric constant tensor:
#      x y z
#    x 2.040990 0.000000 0.000000 
#    y 0.000000 2.038000 0.000000 
#    z 0.000000 0.000000 2.056440 
# 
# From -- ./inp_files/9089.got.cif
#   From: 2010.03.12/outbox.cif.g09.slc.cpg/sg24_5_cif.got.tgz:9089.got - 2010.04.14 03:06:53.
