data_PCOD8165683
_publ_section_title
;
Structure prediction by ZEFSAII (Michael W. Deem and Ramdas Pophale) SiO2 
 PCOD8165683
Probable space group: I 21 21 21
;
_chemical_formula_sum "Si O2"
_cell_formula_units_Z 48
_cell_length_a 12.940292
_cell_length_b 14.054820
_cell_length_c 13.390544
_cell_angle_alpha 90.000000
_cell_angle_beta 90.000000
_cell_angle_gamma 90.000000
_cell_volume 2435.384767
_symmetry_space_group_name_H-M "I 21 21 21"
_symmetry_group_IT_number 24
_symmetry_cell_setting 'orthorhombic'
loop_
_space_group_symop_operation_xyz
x,y,z
-x,1/2-y,z
x,-y,1/2-z
1/2-x,y,-z
1/2+x,1/2+y,1/2+z
1/2-x,-y,1/2+z
1/2+x,1/2-y,-z
-x,1/2+y,1/2-z
loop_
_atom_site_type_symbol
_atom_site_label
_atom_site_fract_x
_atom_site_fract_y
_atom_site_fract_z
Si Si1 0.899171 0.357620 0.846968
Si Si2 0.565991 0.335406 0.375887
Si Si3 0.250000 0.596594 0.500000
Si Si4 0.117865 0.236350 0.052873
Si Si5 0.582036 0.012807 0.137330
Si Si6 0.805103 0.452986 0.150779
Si Si7 0.750000 0.404708 0.500000
O O1 0.905124 0.308418 0.738716
O O2 0.819618 0.445873 0.837597
O O3 0.013807 0.392149 0.875316
O O4 0.861885 0.287893 0.935661
O O5 0.500000 0.250000 0.422854
O O6 0.494285 0.427177 0.390427
O O7 0.675655 0.340497 0.432427
O O8 0.179654 0.665061 0.428890
O O9 0.180348 0.524997 0.565728
O O10 0.153275 0.151929 0.126657
O O11 0.000000 0.250000 0.080007
O O12 0.622892 0.000000 0.250000
O O13 0.854223 0.500000 0.250000
O O14 0.827445 0.527645 0.063089
#
# Coordination Sequence:
#
# PCOD8165683 Si02
#       7
#     8   8   4   8   8   8   4
#     4  11  18  39  67  97 118 148 218 276 306 352
#     4  11  24  38  65  93 124 167 213 261 311 377
#     4  12  23  37  64  94 132 160 204 273 323 380
#     4  12  23  37  65  98 126 160 213 263 319 373
#     4  10  22  39  61  93 126 162 207 263 326 367
#     4  12  21  38  65  94 125 160 208 265 314 375
#     4  12  21  39  62  90 124 162 208 257 317 372
#
# _framework density 19.709412
#
# number of rings (size 3 to 8) (size 9 to 14) (size 15 to 20)
#    0.000    0.667    8.333    1.000    2.333    0.667 
#    0.000    1.667    0.000    0.000    0.000    0.000 
#    0.000    0.000    0.000    0.000    0.000    0.000 
#
# Total GULP energy -297522.459575 kJ/mol
# GULP energy per Si atom -12396.769149 kJ/mol
# Density = 1.966455 g / cm^3
# Si number density = 19.709412 Si / 1000 Ang^3
#
#
#
# Elastic Constant Matrix: (Units=GPa)
#
#
# Indices 1 2 3 4 5 6 
#
# 1 101.2727 29.5926 42.0094 0.0000 0.0000 0.0000
# 2 29.5926 63.8933 42.9969 0.0000 0.0000 0.0000
# 3 42.0094 42.9969 106.5101 0.0000 0.0000 0.0000
# 4 0.0000 0.0000 0.0000 25.3079 0.0000 0.0000
# 5 0.0000 0.0000 0.0000 0.0000 34.7052 0.0000
# 6 0.0000 0.0000 0.0000 0.0000 0.0000 28.4578
#
#
#
# Elastic Compliance Matrix: (Units=1/GPa)
#
#
# Indices 1 2 3 4 5 6 
#
# 1 0.012304 -0.003340 -0.003504 0.000000 0.000000 0.000000
# 2 -0.003340 0.022396 -0.007723 0.000000 0.000000 0.000000
# 3 -0.003504 -0.007723 0.013889 0.000000 0.000000 0.000000
# 4 0.000000 0.000000 0.000000 0.039513 0.000000 0.000000
# 5 0.000000 0.000000 0.000000 0.000000 0.028814 0.000000
# 6 0.000000 0.000000 0.000000 0.000000 0.000000 0.035140
#
#
# Mechanical properties :
#
#
# Convention : Reuss Voigt Hill
#
# Bulk Modulus (GPa) = 51.40824 55.65267 53.53045
# Shear Modulus (GPa) = 26.64162 28.16600 27.40381
#
# Velocity S-wave (km/s) = 3.68056 3.78440 3.73284
# Velocity P-wave (km/s) = 6.64844 6.88429 6.76739
#
# Compressibility (1/GPa) = 0.01945213
#
# Stress axis : x y z
#
# Youngs Moduli (GPa) = 81.27351 44.65159 72.00031
#
# Poissons Ratio (x) = 0.14915 0.25232
# Poissons Ratio (y) = 0.27149 0.55608
# Poissons Ratio (z) = 0.28482 0.34486
#
# Static dielectric constant tensor:
#      x y z
#    x 3.616430 0.000000 0.000000 
#    y 0.000000 3.463490 0.000000 
#    z 0.000000 0.000000 3.492690 
# 
# 
# High freq. dielectric constant tensor:
#      x y z
#    x 1.765580 0.000000 0.000000 
#    y 0.000000 1.760840 0.000000 
#    z 0.000000 0.000000 1.752170 
# 
# From -- ./inp_files/20791.got.cif
#   From: 2010.03.12/outbox.cif.g09.slc.cpg/sg24_11_cif.got.tgz:20791.got - 2010.04.14 03:06:53.
