data_PCOD8165938
_publ_section_title
;
Structure prediction by ZEFSAII (Michael W. Deem and Ramdas Pophale) SiO2 
 PCOD8165938
Probable space group: I 21 21 21
;
_chemical_formula_sum "Si O2"
_cell_formula_units_Z 60
_cell_length_a 13.048398
_cell_length_b 22.586027
_cell_length_c 9.076029
_cell_angle_alpha 90.000000
_cell_angle_beta 90.000000
_cell_angle_gamma 90.000000
_cell_volume 2674.809844
_symmetry_space_group_name_H-M "I 21 21 21"
_symmetry_group_IT_number 24
_symmetry_cell_setting 'orthorhombic'
loop_
_space_group_symop_operation_xyz
x,y,z
-x,1/2-y,z
x,-y,1/2-z
1/2-x,y,-z
1/2+x,1/2+y,1/2+z
1/2-x,-y,1/2+z
1/2+x,1/2-y,-z
-x,1/2+y,1/2-z
loop_
_atom_site_type_symbol
_atom_site_label
_atom_site_fract_x
_atom_site_fract_y
_atom_site_fract_z
Si Si1 0.682494 0.094713 0.753555
Si Si2 0.958168 0.025440 0.014859
Si Si3 0.563175 0.634508 0.479876
Si Si4 0.877858 0.161625 0.788581
Si Si5 0.033281 0.385825 0.483777
Si Si6 0.826782 0.000000 0.750000
Si Si7 0.419592 0.803545 0.790643
Si Si8 0.711483 0.279087 0.159926
O O1 0.762721 0.139463 0.830080
O O2 0.620242 0.132493 0.634267
O O3 0.755002 0.047604 0.666376
O O4 0.608373 0.055981 0.857199
O O5 0.064683 0.062500 0.994604
O O6 0.894453 0.035519 0.865884
O O7 0.985925 0.956477 0.035954
O O8 0.449653 0.650643 0.426818
O O9 0.565679 0.661750 0.639983
O O10 0.652354 0.658184 0.370799
O O11 0.929792 0.131302 0.645647
O O12 0.869183 0.232745 0.770652
O O13 0.934437 0.347636 0.431639
O O14 0.500000 0.750000 0.803557
O O15 0.300808 0.783965 0.782747
O O16 0.750000 0.256214 0.000000
#
# Coordination Sequence:
#
# PCOD8165938 Si02
#       8
#     8   8   8   8   8   4   8   8
#     4  12  23  35  61  96 140 182 213 268 342 419
#     4  12  23  39  64 102 142 181 223 277 346 418
#     4  11  23  42  70  95 131 177 228 283 341 408
#     4  12  25  40  66  98 140 174 223 279 349 402
#     4  12  25  41  63 101 141 176 223 279 346 424
#     4  12  22  36  58  96 144 178 214 268 332 410
#     4  11  24  45  68  98 129 176 234 284 343 410
#     4  10  24  45  71  99 131 179 244 291 335 418
#
# _framework density 22.431501000000001
#
# number of rings (size 3 to 8) (size 9 to 14) (size 15 to 20)
#    0.000    0.533    5.333    3.600    1.867    1.067 
#    0.000    2.000    0.000   14.400    0.000    0.000 
#    0.000    0.000    0.000    0.000    0.000    0.000 
#
# Total GULP energy -371696.576100 kJ/mol
# GULP energy per Si atom -12389.885870 kJ/mol
# Density = 2.238045 g / cm^3
# Si number density = 22.431501 Si / 1000 Ang^3
#
#
#
# Elastic Constant Matrix: (Units=GPa)
#
#
# Indices 1 2 3 4 5 6 
#
# 1 66.2784 45.3912 2.5960 0.0008 0.0004 0.0000
# 2 45.3912 119.4984 16.6904 -0.0007 -0.0001 0.0001
# 3 2.5960 16.6904 44.4992 -0.0018 0.0002 0.0003
# 4 0.0008 -0.0007 -0.0018 25.3934 0.0000 0.0003
# 5 0.0004 -0.0001 0.0002 0.0000 18.8616 0.0000
# 6 0.0000 0.0001 0.0003 0.0003 0.0000 39.9417
#
#
#
# Elastic Compliance Matrix: (Units=1/GPa)
#
#
# Indices 1 2 3 4 5 6 
#
# 1 0.020532 -0.008054 0.001823 -0.000001 -0.000001 0.000000
# 2 -0.008054 0.011990 -0.004027 0.000000 0.000000 0.000000
# 3 0.001823 -0.004027 0.023876 0.000002 0.000000 0.000000
# 4 -0.000001 0.000000 0.000002 0.039380 0.000000 0.000000
# 5 -0.000001 0.000000 0.000000 0.000000 0.053018 0.000000
# 6 0.000000 0.000000 0.000000 0.000000 0.000000 0.025036
#
#
# Mechanical properties :
#
#
# Convention : Reuss Voigt Hill
#
# Bulk Modulus (GPa) = 27.86874 39.95899 33.91386
# Shear Modulus (GPa) = 24.23535 27.87921 26.05728
#
# Velocity S-wave (km/s) = 3.29053 3.52925 3.41198
# Velocity P-wave (km/s) = 5.18534 5.87026 5.53839
#
# Compressibility (1/GPa) = 0.03588250
#
# Stress axis : x y z
#
# Youngs Moduli (GPa) = 48.70426 83.40306 41.88219
#
# Poissons Ratio (x) = 0.67170 -0.07635
# Poissons Ratio (y) = 0.39225 0.16867
# Poissons Ratio (z) = -0.08878 0.33589
#
# Static dielectric constant tensor:
#      x y z
#    x 4.199710 0.000000 0.000000 
#    y 0.000000 4.589280 0.000000 
#    z 0.000000 0.000000 3.933640 
# 
# 
# High freq. dielectric constant tensor:
#      x y z
#    x 1.857470 0.000000 0.000000 
#    y 0.000000 1.900590 0.000000 
#    z 0.000000 0.000000 1.874280 
# 
# From -- ./inp_files/13317.got.cif
#   From: 2010.03.12/outbox.cif.g09.slc.cpg/sg24_7_cif.got.tgz:13317.got - 2010.04.14 03:06:53.
