data_PCOD8165510
_publ_section_title
;
Structure prediction by ZEFSAII (Michael W. Deem and Ramdas Pophale) SiO2 
 PCOD8165510
Probable space group: I 21 21 21
;
_chemical_formula_sum "Si O2"
_cell_formula_units_Z 36
_cell_length_a 14.535040
_cell_length_b 16.447027
_cell_length_c 7.311549
_cell_angle_alpha 90.000000
_cell_angle_beta 90.000000
_cell_angle_gamma 90.000000
_cell_volume 1747.885709
_symmetry_space_group_name_H-M "I 21 21 21"
_symmetry_group_IT_number 24
_symmetry_cell_setting 'orthorhombic'
loop_
_space_group_symop_operation_xyz
x,y,z
-x,1/2-y,z
x,-y,1/2-z
1/2-x,y,-z
1/2+x,1/2+y,1/2+z
1/2-x,-y,1/2+z
1/2+x,1/2-y,-z
-x,1/2+y,1/2-z
loop_
_atom_site_type_symbol
_atom_site_label
_atom_site_fract_x
_atom_site_fract_y
_atom_site_fract_z
Si Si1 0.445039 0.500000 0.750000
Si Si2 0.356572 0.795336 0.005587
Si Si3 0.632021 0.835625 0.291631
Si Si4 0.347010 0.662599 0.709265
Si Si5 0.479729 0.943488 0.099738
O O1 0.387729 0.580766 0.790859
O O2 0.500886 0.508090 0.562153
O O3 0.386778 0.749334 0.190241
O O4 0.415314 0.876856 0.005333
O O5 0.250000 0.819673 0.000000
O O6 0.379861 0.739101 0.830644
O O7 0.614024 0.822293 0.506276
O O8 0.739304 0.855357 0.269780
O O9 0.570361 0.906194 0.200177
O O10 0.428109 0.000000 0.250000
#
# Coordination Sequence:
#
# PCOD8165510 Si02
#       5
#     4   8   8   8   8
#     4  12  24  36  60 100 136 168 206 274 326 382
#     4  10  23  46  67  89 129 177 224 269 322 385
#     4  10  21  39  67  96 127 168 213 265 328 399
#     4  10  22  38  65  98 129 169 210 265 333 393
#     4  12  25  42  62  99 133 172 221 271 325 385
#
# _framework density 20.596312999999999
#
# number of rings (size 3 to 8) (size 9 to 14) (size 15 to 20)
#    0.000    1.333    4.444    0.667    1.556    1.778 
#    6.000    0.000    0.000    0.000    0.000    0.000 
#    0.000    0.000    0.000    0.000    0.000    0.000 
#
# Total GULP energy -223104.953684 kJ/mol
# GULP energy per Si atom -12394.719649 kJ/mol
# Density = 2.054943 g / cm^3
# Si number density = 20.596313 Si / 1000 Ang^3
#
#
#
# Elastic Constant Matrix: (Units=GPa)
#
#
# Indices 1 2 3 4 5 6 
#
# 1 55.7264 45.4337 42.2529 0.0000 0.0000 0.0000
# 2 45.4337 116.8782 58.6613 0.0000 0.0000 0.0000
# 3 42.2529 58.6613 162.0335 0.0000 0.0000 0.0000
# 4 0.0000 0.0000 0.0000 39.9926 0.0000 0.0000
# 5 0.0000 0.0000 0.0000 0.0000 17.1776 0.0000
# 6 0.0000 0.0000 0.0000 0.0000 0.0000 28.9890
#
#
#
# Elastic Compliance Matrix: (Units=1/GPa)
#
#
# Indices 1 2 3 4 5 6 
#
# 1 0.028399 -0.008949 -0.004166 0.000000 0.000000 0.000000
# 2 -0.008949 0.013276 -0.002473 0.000000 0.000000 0.000000
# 3 -0.004166 -0.002473 0.008153 0.000000 0.000000 0.000000
# 4 0.000000 0.000000 0.000000 0.025005 0.000000 0.000000
# 5 0.000000 0.000000 0.000000 0.000000 0.058215 0.000000
# 6 0.000000 0.000000 0.000000 0.000000 0.000000 0.034496
#
#
# Mechanical properties :
#
#
# Convention : Reuss Voigt Hill
#
# Bulk Modulus (GPa) = 53.60934 69.70377 61.65656
# Shear Modulus (GPa) = 24.39784 29.78451 27.09118
#
# Velocity S-wave (km/s) = 3.44550 3.80690 3.63070
# Velocity P-wave (km/s) = 6.47408 7.29655 6.89758
#
# Compressibility (1/GPa) = 0.01865347
#
# Stress axis : x y z
#
# Youngs Moduli (GPa) = 35.21207 75.32637 122.65339
#
# Poissons Ratio (x) = 0.67408 0.51096
# Poissons Ratio (y) = 0.31510 0.30328
# Poissons Ratio (z) = 0.14669 0.18626
#
# Static dielectric constant tensor:
#      x y z
#    x 3.555700 0.000000 0.000000 
#    y 0.000000 3.541350 0.000000 
#    z 0.000000 0.000000 4.065750 
# 
# 
# High freq. dielectric constant tensor:
#      x y z
#    x 1.785770 0.000000 0.000000 
#    y 0.000000 1.797770 0.000000 
#    z 0.000000 0.000000 1.831130 
# 
# From -- ./inp_files/12201.got.cif
#   From: 2010.03.12/outbox.cif.g09.slc.cpg/sg24_7_cif.got.tgz:12201.got - 2010.04.14 03:06:53.
