data_PCOD8165062
_publ_section_title
;
Structure prediction by ZEFSAII (Michael W. Deem and Ramdas Pophale) SiO2 
 PCOD8165062
Probable space group: I 21 21 21
;
_chemical_formula_sum "Si O2"
_cell_formula_units_Z 44
_cell_length_a 5.081975
_cell_length_b 31.133645
_cell_length_c 14.974496
_cell_angle_alpha 90.000000
_cell_angle_beta 90.000000
_cell_angle_gamma 90.000000
_cell_volume 2369.270830
_symmetry_space_group_name_H-M "I 21 21 21"
_symmetry_group_IT_number 24
_symmetry_cell_setting 'orthorhombic'
loop_
_space_group_symop_operation_xyz
x,y,z
-x,1/2-y,z
x,-y,1/2-z
1/2-x,y,-z
1/2+x,1/2+y,1/2+z
1/2-x,-y,1/2+z
1/2+x,1/2-y,-z
-x,1/2+y,1/2-z
loop_
_atom_site_type_symbol
_atom_site_label
_atom_site_fract_x
_atom_site_fract_y
_atom_site_fract_z
Si Si1 0.997168 0.701074 0.560627
Si Si2 0.250000 0.420346 0.000000
Si Si3 0.490723 0.378460 0.167735
Si Si4 0.904529 0.452595 0.139528
Si Si5 0.794417 0.456425 0.604545
Si Si6 0.303435 0.572661 0.799648
O O1 0.750000 0.690650 0.500000
O O2 0.000000 0.750000 0.595061
O O3 0.250000 0.690976 0.500000
O O4 0.956784 0.671913 0.650142
O O5 0.325158 0.390344 0.080889
O O6 0.011498 0.449726 0.037232
O O7 0.741578 0.410383 0.170527
O O8 0.318290 0.382986 0.258895
O O9 0.740748 0.496045 0.144717
O O10 0.147770 0.456401 0.210101
O O11 0.750000 0.453529 0.500000
O O12 0.582733 0.423485 0.649068
O O13 0.092901 0.445818 0.630511
#
# Coordination Sequence:
#
# PCOD8165062 Si02
#       6
#     8   4   8   8   8   8
#     4  10  21  36  57  85 119 157 192 228 274 337
#     4  10  20  32  54  82 108 152 192 232 272 334
#     4  11  21  37  55  83 116 153 196 231 281 332
#     4  11  24  36  57  80 113 148 198 237 285 331
#     4  12  26  42  56  78 110 150 200 239 295 335
#     4  11  26  39  57  79 109 150 190 247 284 335
#
# _framework density 18.571117000000001
#
# number of rings (size 3 to 8) (size 9 to 14) (size 15 to 20)
#    0.000    1.091    2.727    3.818   12.727    0.000 
#    0.000    0.000    0.000    0.000    0.000    0.000 
#    0.000    2.909    0.364    0.000    0.000    0.000 
#
# Total GULP energy -272552.559787 kJ/mol
# GULP energy per Si atom -12388.752718 kJ/mol
# Density = 1.852885 g / cm^3
# Si number density = 18.571117 Si / 1000 Ang^3
#
#
#
# Elastic Constant Matrix: (Units=GPa)
#
#
# Indices 1 2 3 4 5 6 
#
# 1 96.9697 23.7655 21.1745 0.0000 0.0000 0.0000
# 2 23.7655 88.1402 35.9298 0.0000 0.0000 0.0000
# 3 21.1745 35.9298 84.1127 0.0000 0.0000 0.0000
# 4 0.0000 0.0000 0.0000 22.1850 0.0000 0.0000
# 5 0.0000 0.0000 0.0000 0.0000 37.8743 0.0000
# 6 0.0000 0.0000 0.0000 0.0000 0.0000 23.4921
#
#
#
# Elastic Compliance Matrix: (Units=1/GPa)
#
#
# Indices 1 2 3 4 5 6 
#
# 1 0.011279 -0.002281 -0.001865 0.000000 0.000000 0.000000
# 2 -0.002281 0.014199 -0.005491 0.000000 0.000000 0.000000
# 3 -0.001865 -0.005491 0.014704 0.000000 0.000000 0.000000
# 4 0.000000 0.000000 0.000000 0.045076 0.000000 0.000000
# 5 0.000000 0.000000 0.000000 0.000000 0.026403 0.000000
# 6 0.000000 0.000000 0.000000 0.000000 0.000000 0.042568
#
#
# Mechanical properties :
#
#
# Convention : Reuss Voigt Hill
#
# Bulk Modulus (GPa) = 47.82930 47.88470 47.85700
# Shear Modulus (GPa) = 27.70528 29.26712 28.48620
#
# Velocity S-wave (km/s) = 3.86663 3.97413 3.92075
# Velocity P-wave (km/s) = 6.76351 6.84827 6.80602
#
# Compressibility (1/GPa) = 0.02090769
#
# Stress axis : x y z
#
# Youngs Moduli (GPa) = 88.66235 70.42760 68.00919
#
# Poissons Ratio (x) = 0.16064 0.12684
# Poissons Ratio (y) = 0.20223 0.37344
# Poissons Ratio (z) = 0.16536 0.38672
#
# Static dielectric constant tensor:
#      x y z
#    x 3.694020 0.000000 0.000000 
#    y 0.000000 3.397720 0.000000 
#    z 0.000000 0.000000 3.592430 
# 
# 
# High freq. dielectric constant tensor:
#      x y z
#    x 1.745930 0.000000 0.000000 
#    y 0.000000 1.671910 0.000000 
#    z 0.000000 0.000000 1.709900 
# 
# From -- ./inp_files/24009.got.cif
#   From: 2010.03.12/outbox.cif.g09.slc.cpg/sg24_13_cif.got.tgz:24009.got - 2010.04.14 03:06:53.
