data_PCOD8165714
_publ_section_title
;
Structure prediction by ZEFSAII (Michael W. Deem and Ramdas Pophale) SiO2 
 PCOD8165714
Probable space group: I 21 21 21
;
_chemical_formula_sum "Si O2"
_cell_formula_units_Z 56
_cell_length_a 9.401402
_cell_length_b 19.843587
_cell_length_c 14.234761
_cell_angle_alpha 90.000000
_cell_angle_beta 90.000000
_cell_angle_gamma 90.000000
_cell_volume 2655.601973
_symmetry_space_group_name_H-M "I 21 21 21"
_symmetry_group_IT_number 24
_symmetry_cell_setting 'orthorhombic'
loop_
_space_group_symop_operation_xyz
x,y,z
-x,1/2-y,z
x,-y,1/2-z
1/2-x,y,-z
1/2+x,1/2+y,1/2+z
1/2-x,-y,1/2+z
1/2+x,1/2-y,-z
-x,1/2+y,1/2-z
loop_
_atom_site_type_symbol
_atom_site_label
_atom_site_fract_x
_atom_site_fract_y
_atom_site_fract_z
Si Si1 0.000000 0.750000 0.154568
Si Si2 0.364863 0.125900 0.922231
Si Si3 0.500000 0.750000 0.152671
Si Si4 0.274653 0.472721 0.146976
Si Si5 0.081232 0.151277 0.499350
Si Si6 0.524478 0.996571 0.981285
Si Si7 0.744366 0.278433 0.785207
Si Si8 0.176112 0.336927 0.093007
O O1 0.868082 0.760357 0.221594
O O2 0.983574 0.682023 0.095077
O O3 0.293412 0.145114 0.820040
O O4 0.507573 0.171389 0.925790
O O5 0.408932 0.047985 0.935906
O O6 0.250000 0.147258 0.000000
O O7 0.489841 0.684923 0.084466
O O8 0.382155 0.774594 0.223798
O O9 0.312542 0.500000 0.250000
O O10 0.150799 0.515367 0.093973
O O11 0.214654 0.397215 0.165208
O O12 0.415851 0.475442 0.081008
O O13 0.250000 0.168889 0.500000
O O14 0.058782 0.071999 0.501133
O O15 0.750538 0.232894 0.878881
O O16 0.250000 0.364497 0.000000
#
# Coordination Sequence:
#
# PCOD8165714 Si02
#       8
#     4   8   4   8   8   8   8   8
#     4  11  24  44  67  94 136 170 231 278 338 425
#     4  11  23  43  65  97 137 178 224 278 351 420
#     4  11  28  44  67 106 134 174 243 288 338 431
#     4  10  22  40  65 104 134 179 237 278 347 421
#     4  11  24  46  68  95 139 182 225 289 359 407
#     4  10  23  43  69  98 139 182 228 289 354 429
#     4  12  25  41  69 100 132 178 228 284 344 411
#     4  11  22  42  66  96 138 179 220 286 346 414
#
# _framework density 21.087496000000002
#
# number of rings (size 3 to 8) (size 9 to 14) (size 15 to 20)
#    0.000    1.143    5.714    0.857    6.000    1.143 
#    0.000    0.000    0.000    0.000    0.000    0.000 
#    0.000    0.000    0.000    0.000    0.000    0.000 
#
# Total GULP energy -346897.755306 kJ/mol
# GULP energy per Si atom -12389.205547 kJ/mol
# Density = 2.103950 g / cm^3
# Si number density = 21.087496 Si / 1000 Ang^3
#
#
#
# Elastic Constant Matrix: (Units=GPa)
#
#
# Indices 1 2 3 4 5 6 
#
# 1 65.0796 31.5514 42.3619 0.0000 0.0000 0.0000
# 2 31.5514 127.2791 51.9677 0.0000 0.0000 0.0000
# 3 42.3619 51.9677 115.5526 0.0000 0.0000 0.0000
# 4 0.0000 0.0000 0.0000 23.0848 0.0000 0.0000
# 5 0.0000 0.0000 0.0000 0.0000 44.7904 0.0000
# 6 0.0000 0.0000 0.0000 0.0000 0.0000 25.2269
#
#
#
# Elastic Compliance Matrix: (Units=1/GPa)
#
#
# Indices 1 2 3 4 5 6 
#
# 1 0.020813 -0.002504 -0.006504 0.000000 0.000000 0.000000
# 2 -0.002504 0.009925 -0.003546 0.000000 0.000000 0.000000
# 3 -0.006504 -0.003546 0.012633 0.000000 0.000000 0.000000
# 4 0.000000 0.000000 0.000000 0.043319 0.000000 0.000000
# 5 0.000000 0.000000 0.000000 0.000000 0.022326 0.000000
# 6 0.000000 0.000000 0.000000 0.000000 0.000000 0.039640
#
#
# Mechanical properties :
#
#
# Convention : Reuss Voigt Hill
#
# Bulk Modulus (GPa) = 54.75197 62.18592 58.46894
# Shear Modulus (GPa) = 27.80058 30.75577 29.27817
#
# Velocity S-wave (km/s) = 3.63484 3.82315 3.73018
# Velocity P-wave (km/s) = 6.60580 7.00301 6.80730
#
# Compressibility (1/GPa) = 0.01826418
#
# Stress axis : x y z
#
# Youngs Moduli (GPa) = 48.04588 100.75429 79.15669
#
# Poissons Ratio (x) = 0.25227 0.51485
# Poissons Ratio (y) = 0.12030 0.28067
# Poissons Ratio (z) = 0.31250 0.35725
#
# Static dielectric constant tensor:
#      x y z
#    x 3.765490 0.000000 0.000000 
#    y 0.000000 3.617130 0.000000 
#    z 0.000000 0.000000 4.008680 
# 
# 
# High freq. dielectric constant tensor:
#      x y z
#    x 1.824840 0.000000 0.000000 
#    y 0.000000 1.820620 0.000000 
#    z 0.000000 0.000000 1.830100 
# 
# From -- ./inp_files/25112.got.cif
#   From: 2010.03.12/outbox.cif.g09.slc.cpg/sg24_13_cif.got.tgz:25112.got - 2010.04.14 03:06:53.
