data_PCOD8165018
_publ_section_title
;
Structure prediction by ZEFSAII (Michael W. Deem and Ramdas Pophale) SiO2 
 PCOD8165018
Probable space group: I 21 21 21
;
_chemical_formula_sum "Si O2"
_cell_formula_units_Z 32
_cell_length_a 10.423226
_cell_length_b 19.626578
_cell_length_c 7.420893
_cell_angle_alpha 90.000000
_cell_angle_beta 90.000000
_cell_angle_gamma 90.000000
_cell_volume 1518.108838
_symmetry_space_group_name_H-M "I 21 21 21"
_symmetry_group_IT_number 24
_symmetry_cell_setting 'orthorhombic'
loop_
_space_group_symop_operation_xyz
x,y,z
-x,1/2-y,z
x,-y,1/2-z
1/2-x,y,-z
1/2+x,1/2+y,1/2+z
1/2-x,-y,1/2+z
1/2+x,1/2-y,-z
-x,1/2+y,1/2-z
loop_
_atom_site_type_symbol
_atom_site_label
_atom_site_fract_x
_atom_site_fract_y
_atom_site_fract_z
Si Si1 0.504500 0.328104 0.162393
Si Si2 0.250000 0.109961 0.000000
Si Si3 0.647564 0.500000 0.750000
Si Si4 0.994657 0.451324 0.597586
Si Si5 0.237962 0.500000 0.750000
Si Si6 0.750000 0.887831 0.500000
O O1 0.500000 0.250000 0.221523
O O2 0.519565 0.372527 0.343969
O O3 0.624584 0.342992 0.030069
O O4 0.370228 0.343657 0.062942
O O5 0.267946 0.061807 0.826149
O O6 0.563014 0.465204 0.596109
O O7 0.928250 0.500000 0.750000
O O8 0.144489 0.472272 0.587191
O O9 0.309666 0.565016 0.663270
#
# Coordination Sequence:
#
# PCOD8165018 Si02
#       6
#     8   4   4   8   4   4
#     4  11  23  41  61  94 138 174 209 264 325 401
#     4  12  23  36  66 102 125 172 216 270 331 366
#     4  12  20  40  72 100 132 160 226 284 320 378
#     4   9  19  41  64  98 126 167 218 270 319 374
#     4   8  18  34  60  96 126 164 226 268 310 366
#     4  10  19  38  62  88 129 176 218 264 323 370
#
# _framework density 21.078855999999998
#
# number of rings (size 3 to 8) (size 9 to 14) (size 15 to 20)
#    0.750    1.000    2.500    2.250    0.000    4.000 
#    0.000    1.250    0.000   18.000    0.000    0.000 
#    0.000    0.000    0.000    0.000    0.000    0.000 
#
# Total GULP energy -198210.604749 kJ/mol
# GULP energy per Si atom -12388.162797 kJ/mol
# Density = 2.103088 g / cm^3
# Si number density = 21.078856 Si / 1000 Ang^3
#
#
#
# Elastic Constant Matrix: (Units=GPa)
#
#
# Indices 1 2 3 4 5 6 
#
# 1 105.5881 50.6411 42.5501 -0.0001 0.0000 0.0001
# 2 50.6411 179.7831 57.3463 -0.0004 0.0001 0.0000
# 3 42.5501 57.3463 112.5603 -0.0028 0.0005 0.0008
# 4 -0.0001 -0.0004 -0.0028 34.3229 0.0001 0.0000
# 5 0.0000 0.0001 0.0005 0.0001 11.1103 -0.0002
# 6 0.0001 0.0000 0.0008 0.0000 -0.0002 26.6585
#
#
#
# Elastic Compliance Matrix: (Units=1/GPa)
#
#
# Indices 1 2 3 4 5 6 
#
# 1 0.011914 -0.002292 -0.003336 0.000000 0.000000 0.000000
# 2 -0.002292 0.007082 -0.002742 0.000000 0.000000 0.000000
# 3 -0.003336 -0.002742 0.011542 0.000001 0.000000 0.000000
# 4 0.000000 0.000000 0.000001 0.029135 0.000000 0.000000
# 5 0.000000 0.000000 0.000000 0.000000 0.090007 0.000001
# 6 0.000000 0.000000 0.000000 0.000000 0.000001 0.037512
#
#
# Mechanical properties :
#
#
# Convention : Reuss Voigt Hill
#
# Bulk Modulus (GPa) = 72.46905 77.66739 75.06822
# Shear Modulus (GPa) = 23.97712 30.91126 27.44419
#
# Velocity S-wave (km/s) = 3.37634 3.83359 3.61221
# Velocity P-wave (km/s) = 7.04657 7.51807 7.28613
#
# Compressibility (1/GPa) = 0.01379900
#
# Stress axis : x y z
#
# Youngs Moduli (GPa) = 83.93203 141.19440 86.63830
#
# Poissons Ratio (x) = 0.32360 0.28905
# Poissons Ratio (y) = 0.19236 0.23756
# Poissons Ratio (z) = 0.28002 0.38715
#
# Static dielectric constant tensor:
#      x y z
#    x 3.918350 0.000000 0.000000 
#    y 0.000000 3.636650 0.000000 
#    z 0.000000 0.000000 3.654480 
# 
# 
# High freq. dielectric constant tensor:
#      x y z
#    x 1.844310 0.000000 0.000000 
#    y 0.000000 1.804010 0.000000 
#    z 0.000000 0.000000 1.817000 
# 
# From -- ./inp_files/10639.got.cif
#   From: 2010.03.12/outbox.cif.g09.slc.cpg/sg24_6_cif.got.tgz:10639.got - 2010.04.14 03:06:53.
