data_PCOD8165838
_publ_section_title
;
Structure prediction by ZEFSAII (Michael W. Deem and Ramdas Pophale) SiO2 
 PCOD8165838
Probable space group: I 21 21 21
;
_chemical_formula_sum "Si O2"
_cell_formula_units_Z 28
_cell_length_a 9.279883
_cell_length_b 19.492788
_cell_length_c 7.431304
_cell_angle_alpha 90.000000
_cell_angle_beta 90.000000
_cell_angle_gamma 90.000000
_cell_volume 1344.254466
_symmetry_space_group_name_H-M "I 21 21 21"
_symmetry_group_IT_number 24
_symmetry_cell_setting 'orthorhombic'
loop_
_space_group_symop_operation_xyz
x,y,z
-x,1/2-y,z
x,-y,1/2-z
1/2-x,y,-z
1/2+x,1/2+y,1/2+z
1/2-x,-y,1/2+z
1/2+x,1/2-y,-z
-x,1/2+y,1/2-z
loop_
_atom_site_type_symbol
_atom_site_label
_atom_site_fract_x
_atom_site_fract_y
_atom_site_fract_z
Si Si1 0.931802 0.678858 0.704601
Si Si2 0.390999 0.855084 0.691969
Si Si3 0.035335 0.000000 0.250000
Si Si4 0.583876 0.891791 0.990458
O O1 0.760458 0.679983 0.738436
O O2 0.961740 0.670363 0.492922
O O3 0.000000 0.750000 0.771487
O O4 0.008351 0.617425 0.815334
O O5 0.365627 0.937915 0.675704
O O6 0.504855 0.839126 0.850967
O O7 0.935934 0.030503 0.413241
O O8 0.750000 0.872120 0.000000
#
# Coordination Sequence:
#
# PCOD8165838 Si02
#       4
#     8   8   4   8
#     4  11  24  40  67 100 135 186 225 275 334 408
#     4   9  23  45  66 101 135 180 225 284 334 399
#     4   8  22  44  64 102 126 172 224 280 338 392
#     4  10  23  42  67 101 135 179 218 289 337 400
#
# _framework density 20.829388000000002
#
# number of rings (size 3 to 8) (size 9 to 14) (size 15 to 20)
#    1.714    0.571    0.000    0.857    0.000   17.143 
#    0.000    0.000    0.000    0.000    0.000    0.000 
#    0.000    0.000    0.000    0.000    0.000    0.000 
#
# Total GULP energy -173463.264526 kJ/mol
# GULP energy per Si atom -12390.233180 kJ/mol
# Density = 2.078198 g / cm^3
# Si number density = 20.829388 Si / 1000 Ang^3
#
#
#
# Elastic Constant Matrix: (Units=GPa)
#
#
# Indices 1 2 3 4 5 6 
#
# 1 155.5515 41.6963 83.0957 -0.0002 0.0001 0.0001
# 2 41.6963 91.9840 29.7436 0.0002 0.0001 0.0000
# 3 83.0957 29.7436 108.4236 0.0014 0.0006 -0.0005
# 4 -0.0002 0.0002 0.0014 33.5497 0.0002 -0.0001
# 5 0.0001 0.0001 0.0006 0.0002 32.8406 -0.0001
# 6 0.0001 0.0000 -0.0005 -0.0001 -0.0001 36.2252
#
#
#
# Elastic Compliance Matrix: (Units=1/GPa)
#
#
# Indices 1 2 3 4 5 6 
#
# 1 0.011415 -0.002574 -0.008042 0.000000 0.000000 0.000000
# 2 -0.002574 0.012510 -0.001459 0.000000 0.000000 0.000000
# 3 -0.008042 -0.001459 0.015787 -0.000001 0.000000 0.000000
# 4 0.000000 0.000000 -0.000001 0.029807 0.000000 0.000000
# 5 0.000000 0.000000 0.000000 0.000000 0.030450 0.000000
# 6 0.000000 0.000000 0.000000 0.000000 0.000000 0.027605
#
#
# Mechanical properties :
#
#
# Convention : Reuss Voigt Hill
#
# Bulk Modulus (GPa) = 64.26258 73.89227 69.07742
# Shear Modulus (GPa) = 31.86515 33.95135 32.90825
#
# Velocity S-wave (km/s) = 3.91553 4.04167 3.97910
# Velocity P-wave (km/s) = 7.16664 7.57180 7.37200
#
# Compressibility (1/GPa) = 0.01556115
#
# Stress axis : x y z
#
# Youngs Moduli (GPa) = 87.60533 79.93583 63.34344
#
# Poissons Ratio (x) = 0.20574 0.50942
# Poissons Ratio (y) = 0.22548 0.09243
# Poissons Ratio (z) = 0.70454 0.11665
#
# Static dielectric constant tensor:
#      x y z
#    x 3.448670 0.000000 0.000000 
#    y 0.000000 3.468910 0.000000 
#    z 0.000000 0.000000 3.804130 
# 
# 
# High freq. dielectric constant tensor:
#      x y z
#    x 1.804510 0.000000 0.000000 
#    y 0.000000 1.796580 0.000000 
#    z 0.000000 0.000000 1.823460 
# 
# From -- ./inp_files/8769.got.cif
#   From: 2010.03.12/outbox.cif.g09.slc.cpg/sg24_5_cif.got.tgz:8769.got - 2010.04.14 03:06:53.
