data_PCOD8165417
_publ_section_title
;
Structure prediction by ZEFSAII (Michael W. Deem and Ramdas Pophale) SiO2 
 PCOD8165417
Probable space group: I 21 21 21
;
_chemical_formula_sum "Si O2"
_cell_formula_units_Z 40
_cell_length_a 28.012658
_cell_length_b 4.958667
_cell_length_c 16.297613
_cell_angle_alpha 90.000000
_cell_angle_beta 90.000000
_cell_angle_gamma 90.000000
_cell_volume 2263.827150
_symmetry_space_group_name_H-M "I 21 21 21"
_symmetry_group_IT_number 24
_symmetry_cell_setting 'orthorhombic'
loop_
_space_group_symop_operation_xyz
x,y,z
-x,1/2-y,z
x,-y,1/2-z
1/2-x,y,-z
1/2+x,1/2+y,1/2+z
1/2-x,-y,1/2+z
1/2+x,1/2-y,-z
-x,1/2+y,1/2-z
loop_
_atom_site_type_symbol
_atom_site_label
_atom_site_fract_x
_atom_site_fract_y
_atom_site_fract_z
Si Si1 0.054017 0.748493 0.192268
Si Si2 0.297907 0.480938 0.447013
Si Si3 0.683666 0.661735 0.672893
Si Si4 0.709392 0.541378 0.338515
Si Si5 0.355805 0.679572 0.905522
O O1 0.063893 0.500000 0.250000
O O2 0.088150 0.731141 0.112200
O O3 0.000000 0.750000 0.158055
O O4 0.065287 0.000000 0.250000
O O5 0.250000 0.546996 0.500000
O O6 0.316317 0.738847 0.395614
O O7 0.344089 0.425908 0.503718
O O8 0.285766 0.238161 0.386154
O O9 0.660008 0.500000 0.750000
O O10 0.740097 0.680989 0.682543
O O11 0.671090 0.467950 0.596617
O O12 0.663869 0.964249 0.661920
O O13 0.683232 0.500000 0.250000
#
# Coordination Sequence:
#
# PCOD8165417 Si02
#       5
#     8   8   8   8   8
#     4  10  21  37  53  73 104 138 173 212 254 302
#     4  12  21  35  49  73 103 131 173 222 255 291
#     4  11  20  30  46  70  98 132 174 207 241 296
#     4  11  22  36  49  67 100 142 173 206 252 302
#     4  12  21  31  51  72  98 132 172 215 253 295
#
# _framework density 17.669194000000001
#
# number of rings (size 3 to 8) (size 9 to 14) (size 15 to 20)
#    0.000    0.800    4.000    6.000    0.000    3.200 
#    0.000    0.000    0.000    0.000    0.000    0.000 
#    0.000    3.200    0.000    0.200    0.000    0.000 
#
# Total GULP energy -247921.995105 kJ/mol
# GULP energy per Si atom -12396.099755 kJ/mol
# Density = 1.762898 g / cm^3
# Si number density = 17.669194 Si / 1000 Ang^3
#
#
#
# Elastic Constant Matrix: (Units=GPa)
#
#
# Indices 1 2 3 4 5 6 
#
# 1 74.3877 9.8783 35.7507 0.0000 0.0000 0.0000
# 2 9.8783 84.9816 16.5779 0.0000 0.0000 0.0000
# 3 35.7507 16.5779 100.7039 0.0000 0.0000 0.0000
# 4 0.0000 0.0000 0.0000 40.3025 0.0000 0.0000
# 5 0.0000 0.0000 0.0000 0.0000 22.8367 0.0000
# 6 0.0000 0.0000 0.0000 0.0000 0.0000 16.4778
#
#
#
# Elastic Compliance Matrix: (Units=1/GPa)
#
#
# Indices 1 2 3 4 5 6 
#
# 1 0.016260 -0.000789 -0.005642 0.000000 0.000000 0.000000
# 2 -0.000789 0.012196 -0.001727 0.000000 0.000000 0.000000
# 3 -0.005642 -0.001727 0.012218 0.000000 0.000000 0.000000
# 4 0.000000 0.000000 0.000000 0.024812 0.000000 0.000000
# 5 0.000000 0.000000 0.000000 0.000000 0.043789 0.000000
# 6 0.000000 0.000000 0.000000 0.000000 0.000000 0.060688
#
#
# Mechanical properties :
#
#
# Convention : Reuss Voigt Hill
#
# Bulk Modulus (GPa) = 41.05962 42.72077 41.89020
# Shear Modulus (GPa) = 25.72028 29.11447 27.41738
#
# Velocity S-wave (km/s) = 3.81945 4.06366 3.94344
# Velocity P-wave (km/s) = 6.53753 6.80061 6.67037
#
# Compressibility (1/GPa) = 0.02435483
#
# Stress axis : x y z
#
# Youngs Moduli (GPa) = 61.50211 81.99409 81.84942
#
# Poissons Ratio (x) = 0.06472 0.46182
# Poissons Ratio (y) = 0.04855 0.14139
# Poissons Ratio (z) = 0.34702 0.14164
#
# Static dielectric constant tensor:
#      x y z
#    x 2.865550 0.000000 0.000000 
#    y 0.000000 3.556210 0.000000 
#    z 0.000000 0.000000 3.447150 
# 
# 
# High freq. dielectric constant tensor:
#      x y z
#    x 1.627710 0.000000 0.000000 
#    y 0.000000 1.715850 0.000000 
#    z 0.000000 0.000000 1.668870 
# 
# From -- ./inp_files/3634.got.cif
#   From: 2010.03.12/outbox.cif.g09.slc.cpg/sg24_2_cif.got.tgz:3634.got - 2010.04.14 03:06:53.
