data_PCOD8165051
_publ_section_title
;
Structure prediction by ZEFSAII (Michael W. Deem and Ramdas Pophale) SiO2 
 PCOD8165051
Probable space group: I 21 21 21
;
_chemical_formula_sum "Si O2"
_cell_formula_units_Z 48
_cell_length_a 9.771183
_cell_length_b 23.795407
_cell_length_c 10.304547
_cell_angle_alpha 90.000000
_cell_angle_beta 90.000000
_cell_angle_gamma 90.000000
_cell_volume 2395.902766
_symmetry_space_group_name_H-M "I 21 21 21"
_symmetry_group_IT_number 24
_symmetry_cell_setting 'orthorhombic'
loop_
_space_group_symop_operation_xyz
x,y,z
-x,1/2-y,z
x,-y,1/2-z
1/2-x,y,-z
1/2+x,1/2+y,1/2+z
1/2-x,-y,1/2+z
1/2+x,1/2-y,-z
-x,1/2+y,1/2-z
loop_
_atom_site_type_symbol
_atom_site_label
_atom_site_fract_x
_atom_site_fract_y
_atom_site_fract_z
Si Si1 0.543319 0.812003 0.566642
Si Si2 0.398750 0.085223 0.043725
Si Si3 0.194951 0.310596 0.798732
Si Si4 0.638441 0.277054 0.400711
Si Si5 0.882360 0.992756 0.905807
Si Si6 0.977696 0.386526 0.676940
O O1 0.500000 0.750000 0.611921
O O2 0.426356 0.859348 0.546198
O O3 0.619214 0.804717 0.432723
O O4 0.649691 0.831562 0.678612
O O5 0.391005 0.097346 0.196323
O O6 0.527264 0.042595 0.030778
O O7 0.250000 0.060923 0.000000
O O8 0.182471 0.248196 0.738342
O O9 0.121628 0.356635 0.710089
O O10 0.500000 0.250000 0.451975
O O11 0.750000 0.257264 0.500000
O O12 0.622591 0.344261 0.398314
O O13 0.981437 0.938555 0.914381
O O14 0.845143 0.000000 0.750000
O O15 0.750000 0.986671 0.000000
#
# Coordination Sequence:
#
# PCOD8165051 Si02
#       6
#     8   8   8   8   8   8
#     4  10  20  31  59  91 121 153 192 243 304 370
#     4  10  22  38  60  90 127 157 196 257 322 372
#     4   9  19  35  57  85 119 158 199 240 299 365
#     4  10  21  38  56  81 122 164 203 249 302 369
#     4  10  23  43  69  89 120 165 218 267 315 372
#     4   9  20  39  62  82 120 163 204 254 314 361
#
# _framework density 20.034202000000001
#
# number of rings (size 3 to 8) (size 9 to 14) (size 15 to 20)
#    0.000    2.333    0.000    2.500   11.667    4.000 
#    0.000    4.167    0.000    0.000    0.000    0.000 
#    0.000    0.000    0.000    0.000    0.000    0.000 
#
# Total GULP energy -297329.296008 kJ/mol
# GULP energy per Si atom -12388.720667 kJ/mol
# Density = 1.998860 g / cm^3
# Si number density = 20.034202 Si / 1000 Ang^3
#
#
#
# Elastic Constant Matrix: (Units=GPa)
#
#
# Indices 1 2 3 4 5 6 
#
# 1 104.5483 24.6262 46.4833 -0.0014 -0.0020 -0.0007
# 2 24.6262 95.0802 32.1284 0.0002 0.0002 0.0010
# 3 46.4833 32.1284 46.0488 -0.0118 -0.0076 -0.0059
# 4 -0.0014 0.0002 -0.0118 4.5095 0.0000 -0.0003
# 5 -0.0020 0.0002 -0.0076 0.0000 21.6956 -0.0021
# 6 -0.0007 0.0010 -0.0059 -0.0003 -0.0021 13.4701
#
#
#
# Elastic Compliance Matrix: (Units=1/GPa)
#
#
# Indices 1 2 3 4 5 6 
#
# 1 0.017609 0.001892 -0.019095 -0.000045 -0.000005 -0.000008
# 2 0.001892 0.013965 -0.011653 -0.000031 -0.000004 -0.000006
# 3 -0.019095 -0.011653 0.049122 0.000123 0.000016 0.000021
# 4 -0.000045 -0.000031 0.000123 0.221757 0.000000 0.000004
# 5 -0.000005 -0.000004 0.000016 0.000000 0.046092 0.000007
# 6 -0.000008 -0.000006 0.000021 0.000004 0.000007 0.074239
#
#
# Mechanical properties :
#
#
# Convention : Reuss Voigt Hill
#
# Bulk Modulus (GPa) = 43.51034 50.23924 46.87479
# Shear Modulus (GPa) = 10.24258 17.43100 13.83679
#
# Velocity S-wave (km/s) = 2.26355 2.95288 2.63089
# Velocity P-wave (km/s) = 5.34759 6.06277 5.71638
#
# Compressibility (1/GPa) = 0.02298304
#
# Stress axis : x y z
#
# Youngs Moduli (GPa) = 56.78807 71.60680 20.35757
#
# Poissons Ratio (x) = -0.13545 0.38873
# Poissons Ratio (y) = -0.10742 0.23723
# Poissons Ratio (z) = 1.08438 0.83443
#
# Static dielectric constant tensor:
#      x y z
#    x 3.727060 0.000000 0.000010 
#    y 0.000000 3.850290 0.000000 
#    z 0.000010 0.000000 3.670660 
# 
# 
# High freq. dielectric constant tensor:
#      x y z
#    x 1.778320 0.000000 0.000000 
#    y 0.000000 1.784150 0.000000 
#    z 0.000000 0.000000 1.756790 
# 
# From -- ./inp_files/18578.got.cif
#   From: 2010.03.12/outbox.cif.g09.slc.cpg/sg24_10_cif.got.tgz:18578.got - 2010.04.14 03:06:53.
