data_PCOD8165551
_publ_section_title
;
Structure prediction by ZEFSAII (Michael W. Deem and Ramdas Pophale) SiO2 
 PCOD8165551
Probable space group: I 21 21 21
;
_chemical_formula_sum "Si O2"
_cell_formula_units_Z 44
_cell_length_a 15.472283
_cell_length_b 8.646912
_cell_length_c 15.624800
_cell_angle_alpha 90.000000
_cell_angle_beta 90.000000
_cell_angle_gamma 90.000000
_cell_volume 2090.402454
_symmetry_space_group_name_H-M "I 21 21 21"
_symmetry_group_IT_number 24
_symmetry_cell_setting 'orthorhombic'
loop_
_space_group_symop_operation_xyz
x,y,z
-x,1/2-y,z
x,-y,1/2-z
1/2-x,y,-z
1/2+x,1/2+y,1/2+z
1/2-x,-y,1/2+z
1/2+x,1/2-y,-z
-x,1/2+y,1/2-z
loop_
_atom_site_type_symbol
_atom_site_label
_atom_site_fract_x
_atom_site_fract_y
_atom_site_fract_z
Si Si1 0.090542 0.681168 0.090510
Si Si2 0.750000 0.341543 0.000000
Si Si3 0.123343 0.910293 0.944223
Si Si4 0.038612 0.408963 0.979918
Si Si5 0.697407 0.126565 0.133725
Si Si6 0.266049 0.708122 0.173596
O O1 0.161593 0.719285 0.164351
O O2 0.000000 0.750000 0.124906
O O3 0.122902 0.763664 0.005044
O O4 0.079461 0.501344 0.061662
O O5 0.666474 0.446964 0.007587
O O6 0.765831 0.231154 0.081896
O O7 0.179452 0.855919 0.861617
O O8 0.026405 0.973508 0.928256
O O9 0.103921 0.346768 0.907715
O O10 0.000000 0.250000 0.018206
O O11 0.702171 0.185743 0.230278
O O12 0.714638 0.946201 0.120338
#
# Coordination Sequence:
#
# PCOD8165551 Si02
#       6
#     8   4   8   8   8   8
#     4  10  21  40  72  94 130 178 226 273 327 402
#     4  12  22  40  66  98 124 182 222 272 328 398
#     4  11  22  39  67  97 134 176 224 269 333 403
#     4  11  22  41  62 106 132 173 225 277 333 392
#     4  11  25  41  67  95 135 175 223 277 333 398
#     4  11  23  44  65  98 132 185 221 273 340 400
#
# _framework density 21.048577999999999
#
# number of rings (size 3 to 8) (size 9 to 14) (size 15 to 20)
#    0.000    1.091    5.455    1.091    0.000    0.727 
#    6.545    0.000   20.000    0.000    0.000    0.000 
#    0.000    0.000    0.000    0.000    0.000    0.000 
#
# Total GULP energy -272601.205102 kJ/mol
# GULP energy per Si atom -12390.963868 kJ/mol
# Density = 2.100067 g / cm^3
# Si number density = 21.048578 Si / 1000 Ang^3
#
#
#
# Elastic Constant Matrix: (Units=GPa)
#
#
# Indices 1 2 3 4 5 6 
#
# 1 73.7072 14.7539 30.9436 0.0000 0.0000 0.0000
# 2 14.7539 117.6315 33.9148 0.0000 0.0000 0.0000
# 3 30.9436 33.9148 53.1305 0.0000 0.0000 0.0000
# 4 0.0000 0.0000 0.0000 26.4627 0.0000 0.0000
# 5 0.0000 0.0000 0.0000 0.0000 26.2046 0.0000
# 6 0.0000 0.0000 0.0000 0.0000 0.0000 40.3617
#
#
#
# Elastic Compliance Matrix: (Units=1/GPa)
#
#
# Indices 1 2 3 4 5 6 
#
# 1 0.018042 0.000940 -0.011108 0.000000 0.000000 0.000000
# 2 0.000940 0.010467 -0.007229 0.000000 0.000000 0.000000
# 3 -0.011108 -0.007229 0.029905 0.000000 0.000000 0.000000
# 4 0.000000 0.000000 0.000000 0.037789 0.000000 0.000000
# 5 0.000000 0.000000 0.000000 0.000000 0.038161 0.000000
# 6 0.000000 0.000000 0.000000 0.000000 0.000000 0.024776
#
#
# Mechanical properties :
#
#
# Convention : Reuss Voigt Hill
#
# Bulk Modulus (GPa) = 42.33544 44.85487 43.59515
# Shear Modulus (GPa) = 24.77588 29.59626 27.18607
#
# Velocity S-wave (km/s) = 3.43458 3.75386 3.59776
# Velocity P-wave (km/s) = 5.99044 6.33601 6.16565
#
# Compressibility (1/GPa) = 0.02362087
#
# Stress axis : x y z
#
# Youngs Moduli (GPa) = 55.42514 95.53406 33.43894
#
# Poissons Ratio (x) = -0.08976 0.37143
# Poissons Ratio (y) = -0.05208 0.24173
# Poissons Ratio (z) = 0.61565 0.69061
#
# Static dielectric constant tensor:
#      x y z
#    x 4.098690 0.000000 0.000000 
#    y 0.000000 4.153640 0.000000 
#    z 0.000000 0.000000 3.325950 
# 
# 
# High freq. dielectric constant tensor:
#      x y z
#    x 1.836820 0.000000 0.000000 
#    y 0.000000 1.850580 0.000000 
#    z 0.000000 0.000000 1.777020 
# 
# From -- ./inp_files/14060.got.cif
#   From: 2010.03.12/outbox.cif.g09.slc.cpg/sg24_8_cif.got.tgz:14060.got - 2010.04.14 03:06:53.
