data_PCOD8165301
_publ_section_title
;
Structure prediction by ZEFSAII (Michael W. Deem and Ramdas Pophale) SiO2 
 PCOD8165301
Probable space group: I 21 21 21
;
_chemical_formula_sum "Si O2"
_cell_formula_units_Z 52
_cell_length_a 8.559678
_cell_length_b 21.480342
_cell_length_c 13.329765
_cell_angle_alpha 90.000000
_cell_angle_beta 90.000000
_cell_angle_gamma 90.000000
_cell_volume 2450.874720
_symmetry_space_group_name_H-M "I 21 21 21"
_symmetry_group_IT_number 24
_symmetry_cell_setting 'orthorhombic'
loop_
_space_group_symop_operation_xyz
x,y,z
-x,1/2-y,z
x,-y,1/2-z
1/2-x,y,-z
1/2+x,1/2+y,1/2+z
1/2-x,-y,1/2+z
1/2+x,1/2-y,-z
-x,1/2+y,1/2-z
loop_
_atom_site_type_symbol
_atom_site_label
_atom_site_fract_x
_atom_site_fract_y
_atom_site_fract_z
Si Si1 0.250000 0.690869 0.500000
Si Si2 0.500000 0.250000 0.146389
Si Si3 0.847354 0.674316 0.823235
Si Si4 0.658671 0.977417 0.900781
Si Si5 0.324390 0.391709 0.833562
Si Si6 0.993723 0.142974 0.360137
Si Si7 0.444520 0.433211 0.273916
Si Si8 0.500000 0.250000 0.491159
O O1 0.360425 0.728824 0.425434
O O2 0.362301 0.648311 0.568356
O O3 0.412883 0.200743 0.218744
O O4 0.666788 0.657828 0.822453
O O5 0.869054 0.720511 0.917810
O O6 0.938266 0.608982 0.837753
O O7 0.520600 0.925791 0.912744
O O8 0.784799 0.942843 0.833544
O O9 0.594228 0.040107 0.847433
O O10 0.750000 0.997661 0.000000
O O11 0.390968 0.353198 0.739776
O O12 0.132605 0.399847 0.824601
O O13 0.931368 0.194979 0.438589
O O14 0.525785 0.500000 0.250000
#
# Coordination Sequence:
#
# PCOD8165301 Si02
#       8
#     4   4   8   8   8   8   8   4
#     4  12  24  46  70  96 132 188 228 286 330 410
#     4  11  28  41  70  94 138 175 238 275 342 408
#     4  11  24  45  62  99 137 173 223 289 345 403
#     4  10  20  39  65  97 126 172 229 272 331 409
#     4  10  22  41  67  95 131 175 230 279 335 401
#     4  11  25  39  67  96 133 171 226 280 341 408
#     4   9  19  37  63  90 125 172 216 272 332 401
#     4  11  26  41  62  90 134 183 218 267 352 418
#
# _framework density 21.216913999999999
#
# number of rings (size 3 to 8) (size 9 to 14) (size 15 to 20)
#    0.000    1.538    2.308    2.769    4.308    6.154 
#    0.000    0.000    0.000    0.000    0.000    0.000 
#    0.000    0.000    0.000    0.000    0.000    0.000 
#
# Total GULP energy -322104.342088 kJ/mol
# GULP energy per Si atom -12388.628542 kJ/mol
# Density = 2.116862 g / cm^3
# Si number density = 21.216914 Si / 1000 Ang^3
#
#
#
# Elastic Constant Matrix: (Units=GPa)
#
#
# Indices 1 2 3 4 5 6 
#
# 1 87.1851 61.5294 39.2202 -0.0001 0.0000 0.0000
# 2 61.5294 135.6655 67.0926 -0.0003 0.0000 0.0000
# 3 39.2202 67.0926 137.5872 -0.0002 0.0000 -0.0001
# 4 -0.0001 -0.0003 -0.0002 134.5042 0.0001 -0.0001
# 5 0.0000 0.0000 0.0000 0.0001 29.7062 0.0000
# 6 0.0000 0.0000 -0.0001 -0.0001 0.0000 30.3586
#
#
#
# Elastic Compliance Matrix: (Units=1/GPa)
#
#
# Indices 1 2 3 4 5 6 
#
# 1 0.017083 -0.007036 -0.001438 0.000000 0.000000 0.000000
# 2 -0.007036 0.012612 -0.004144 0.000000 0.000000 0.000000
# 3 -0.001438 -0.004144 0.009699 0.000000 0.000000 0.000000
# 4 0.000000 0.000000 0.000000 0.007435 0.000000 0.000000
# 5 0.000000 0.000000 0.000000 0.000000 0.033663 0.000000
# 6 0.000000 0.000000 0.000000 0.000000 0.000000 0.032940
#
#
# Mechanical properties :
#
#
# Convention : Reuss Voigt Hill
#
# Bulk Modulus (GPa) = 70.64309 77.34693 73.99501
# Shear Modulus (GPa) = 34.87065 51.75352 43.31209
#
# Velocity S-wave (km/s) = 4.05845 4.94424 4.52308
# Velocity P-wave (km/s) = 7.43836 8.31435 7.88853
#
# Compressibility (1/GPa) = 0.01415567
#
# Stress axis : x y z
#
# Youngs Moduli (GPa) = 58.53897 79.29093 103.10326
#
# Poissons Ratio (x) = 0.55791 0.14830
# Poissons Ratio (y) = 0.41190 0.42728
# Poissons Ratio (z) = 0.08420 0.32860
#
# Static dielectric constant tensor:
#      x y z
#    x 3.283810 0.000000 0.000000 
#    y 0.000000 4.189340 0.000000 
#    z 0.000000 0.000000 5.742350 
# 
# 
# High freq. dielectric constant tensor:
#      x y z
#    x 1.791260 0.000000 0.000000 
#    y 0.000000 1.847890 0.000000 
#    z 0.000000 0.000000 1.847270 
# 
# From -- ./inp_files/25042.got.cif
#   From: 2010.03.12/outbox.cif.g09.slc.cpg/sg24_13_cif.got.tgz:25042.got - 2010.04.14 03:06:53.
