data_PCOD8165900
_publ_section_title
;
Structure prediction by ZEFSAII (Michael W. Deem and Ramdas Pophale) SiO2 
 PCOD8165900
Probable space group: I 21 21 21
;
_chemical_formula_sum "Si O2"
_cell_formula_units_Z 56
_cell_length_a 14.091264
_cell_length_b 18.888532
_cell_length_c 9.219765
_cell_angle_alpha 90.000000
_cell_angle_beta 90.000000
_cell_angle_gamma 90.000000
_cell_volume 2453.962995
_symmetry_space_group_name_H-M "I 21 21 21"
_symmetry_group_IT_number 24
_symmetry_cell_setting 'orthorhombic'
loop_
_space_group_symop_operation_xyz
x,y,z
-x,1/2-y,z
x,-y,1/2-z
1/2-x,y,-z
1/2+x,1/2+y,1/2+z
1/2-x,-y,1/2+z
1/2+x,1/2-y,-z
-x,1/2+y,1/2-z
loop_
_atom_site_type_symbol
_atom_site_label
_atom_site_fract_x
_atom_site_fract_y
_atom_site_fract_z
Si Si1 0.627217 0.181719 0.745610
Si Si2 0.081758 0.576959 0.819536
Si Si3 0.404968 0.727669 0.309773
Si Si4 0.761200 0.573779 0.327857
Si Si5 0.084745 0.158495 0.296504
Si Si6 0.250000 0.302836 0.000000
Si Si7 0.250000 0.378122 0.500000
Si Si8 0.388440 0.145462 0.379984
O O1 0.528725 0.142496 0.703632
O O2 0.605651 0.264064 0.763892
O O3 0.706527 0.172188 0.622786
O O4 0.675363 0.153242 0.897261
O O5 0.080876 0.500000 0.750000
O O6 0.103620 0.642794 0.711742
O O7 0.977939 0.592304 0.881944
O O8 0.164860 0.573246 0.939671
O O9 0.500000 0.750000 0.400230
O O10 0.311697 0.749629 0.398931
O O11 0.414341 0.773160 0.161121
O O12 0.749581 0.500000 0.250000
O O13 0.750000 0.566288 0.500000
O O14 0.867898 0.602550 0.310985
O O15 0.687196 0.623252 0.241425
O O16 0.139106 0.148047 0.451279
#
# Coordination Sequence:
#
# PCOD8165900 Si02
#       8
#     8   8   8   8   8   4   4   8
#     4  11  26  42  74 109 147 184 246 302 366 432
#     4  11  24  43  71 102 142 191 243 301 359 433
#     4  10  24  40  69 101 138 184 242 294 365 428
#     4  12  28  48  75 110 149 194 239 302 382 456
#     4  11  25  44  73 111 145 190 241 308 363 439
#     4  12  24  41  64 102 151 188 230 304 366 423
#     4  12  22  49  70 102 141 192 250 290 364 443
#     4  11  23  45  76 107 143 191 250 306 367 446
#
# _framework density 22.820232000000001
#
# number of rings (size 3 to 8) (size 9 to 14) (size 15 to 20)
#    0.000    0.857    2.857    3.429   12.000    1.714 
#    0.000    0.714    0.000    0.000    0.000    0.000 
#    0.000    0.000    0.000    0.000    0.000    0.000 
#
# Total GULP energy -346900.842045 kJ/mol
# GULP energy per Si atom -12389.315787 kJ/mol
# Density = 2.276829 g / cm^3
# Si number density = 22.820232 Si / 1000 Ang^3
#
#
#
# Elastic Constant Matrix: (Units=GPa)
#
#
# Indices 1 2 3 4 5 6 
#
# 1 123.0538 27.1976 57.6425 0.0000 0.0000 0.0000
# 2 27.1976 114.0082 44.1823 0.0000 0.0000 0.0000
# 3 57.6425 44.1823 152.6474 0.0000 0.0000 0.0000
# 4 0.0000 0.0000 0.0000 16.4498 0.0000 0.0000
# 5 0.0000 0.0000 0.0000 0.0000 48.0543 0.0000
# 6 0.0000 0.0000 0.0000 0.0000 0.0000 21.1898
#
#
#
# Elastic Compliance Matrix: (Units=1/GPa)
#
#
# Indices 1 2 3 4 5 6 
#
# 1 0.009981 -0.001037 -0.003469 0.000000 0.000000 0.000000
# 2 -0.001037 0.009987 -0.002499 0.000000 0.000000 0.000000
# 3 -0.003469 -0.002499 0.008584 0.000000 0.000000 0.000000
# 4 0.000000 0.000000 0.000000 0.060791 0.000000 0.000000
# 5 0.000000 0.000000 0.000000 0.000000 0.020810 0.000000
# 6 0.000000 0.000000 0.000000 0.000000 0.000000 0.047193
#
#
# Mechanical properties :
#
#
# Convention : Reuss Voigt Hill
#
# Bulk Modulus (GPa) = 68.76326 71.97269 70.36797
# Shear Modulus (GPa) = 28.37645 34.51791 31.44718
#
# Velocity S-wave (km/s) = 3.53012 3.89344 3.71622
# Velocity P-wave (km/s) = 6.84205 7.19856 7.02257
#
# Compressibility (1/GPa) = 0.01454265
#
# Stress axis : x y z
#
# Youngs Moduli (GPa) = 100.19493 100.12876 116.49171
#
# Poissons Ratio (x) = 0.10380 0.40409
# Poissons Ratio (y) = 0.10387 0.29114
# Poissons Ratio (z) = 0.34756 0.25024
#
# Static dielectric constant tensor:
#      x y z
#    x 4.848190 0.000000 0.000000 
#    y 0.000000 3.733500 0.000000 
#    z 0.000000 0.000000 4.159690 
# 
# 
# High freq. dielectric constant tensor:
#      x y z
#    x 1.932190 0.000000 0.000000 
#    y 0.000000 1.864980 0.000000 
#    z 0.000000 0.000000 1.901370 
# 
# From -- ./inp_files/13219.got.cif
#   From: 2010.03.12/outbox.cif.g09.slc.cpg/sg24_7_cif.got.tgz:13219.got - 2010.04.14 03:06:53.
