data_PCOD8165736
_publ_section_title
;
Structure prediction by ZEFSAII (Michael W. Deem and Ramdas Pophale) SiO2 
 PCOD8165736
Probable space group: I 21 21 21
;
_chemical_formula_sum "Si O2"
_cell_formula_units_Z 56
_cell_length_a 8.822032
_cell_length_b 13.829330
_cell_length_c 20.837051
_cell_angle_alpha 90.000000
_cell_angle_beta 90.000000
_cell_angle_gamma 90.000000
_cell_volume 2542.178395
_symmetry_space_group_name_H-M "I 21 21 21"
_symmetry_group_IT_number 24
_symmetry_cell_setting 'orthorhombic'
loop_
_space_group_symop_operation_xyz
x,y,z
-x,1/2-y,z
x,-y,1/2-z
1/2-x,y,-z
1/2+x,1/2+y,1/2+z
1/2-x,-y,1/2+z
1/2+x,1/2-y,-z
-x,1/2+y,1/2-z
loop_
_atom_site_type_symbol
_atom_site_label
_atom_site_fract_x
_atom_site_fract_y
_atom_site_fract_z
Si Si1 0.725763 0.902085 0.931519
Si Si2 0.972463 0.465795 0.110939
Si Si3 0.720893 0.557595 0.187456
Si Si4 0.175769 0.268812 0.312513
Si Si5 0.027209 0.457177 0.889633
Si Si6 0.774575 0.325424 0.931422
Si Si7 0.270547 0.338819 0.828328
O O1 0.745236 0.829464 0.871793
O O2 0.561697 0.953738 0.930023
O O3 0.853167 0.985692 0.932864
O O4 0.750000 0.847195 0.000000
O O5 0.887133 0.521913 0.167692
O O6 0.850727 0.410436 0.067386
O O7 0.083099 0.389575 0.143191
O O8 0.669835 0.500000 0.250000
O O9 0.725964 0.672227 0.196176
O O10 0.594148 0.534099 0.135135
O O11 0.196894 0.324883 0.246321
O O12 0.000000 0.250000 0.326814
O O13 0.121253 0.405103 0.832620
O O14 0.942481 0.372399 0.929341
O O15 0.752233 0.259306 0.868979
O O16 0.750000 0.270258 0.000000
#
# Coordination Sequence:
#
# PCOD8165736 Si02
#       7
#     8   8   8   8   8   8   8
#     4  11  25  46  69  97 135 180 231 286 346 407
#     4  10  22  41  66  96 133 179 224 275 334 411
#     4  11  23  42  67  98 134 175 222 274 345 409
#     4  12  24  45  72 100 130 173 236 288 334 412
#     4  10  25  43  63 100 138 179 217 283 347 412
#     4  11  22  40  67 101 139 182 225 276 338 410
#     4  11  24  41  67 100 138 174 228 282 340 403
#
# _framework density 22.028352000000002
#
# number of rings (size 3 to 8) (size 9 to 14) (size 15 to 20)
#    0.000    1.143    1.429    5.143    2.000    6.286 
#    2.571    0.714    0.000    0.000    0.000    0.000 
#    0.000    0.000    0.000    0.000    0.000    0.000 
#
# Total GULP energy -347178.651455 kJ/mol
# GULP energy per Si atom -12399.237552 kJ/mol
# Density = 2.197821 g / cm^3
# Si number density = 22.028352 Si / 1000 Ang^3
#
#
#
# Elastic Constant Matrix: (Units=GPa)
#
#
# Indices 1 2 3 4 5 6 
#
# 1 101.9362 15.1517 12.0876 0.0000 0.0000 0.0000
# 2 15.1517 79.0083 23.4892 0.0000 0.0000 0.0000
# 3 12.0876 23.4892 136.7857 0.0000 0.0000 0.0000
# 4 0.0000 0.0000 0.0000 29.5049 0.0000 0.0000
# 5 0.0000 0.0000 0.0000 0.0000 18.9282 0.0000
# 6 0.0000 0.0000 0.0000 0.0000 0.0000 28.1828
#
#
#
# Elastic Compliance Matrix: (Units=1/GPa)
#
#
# Indices 1 2 3 4 5 6 
#
# 1 0.010143 -0.001769 -0.000593 0.000000 0.000000 0.000000
# 2 -0.001769 0.013646 -0.002187 0.000000 0.000000 0.000000
# 3 -0.000593 -0.002187 0.007739 0.000000 0.000000 0.000000
# 4 0.000000 0.000000 0.000000 0.033893 0.000000 0.000000
# 5 0.000000 0.000000 0.000000 0.000000 0.052831 0.000000
# 6 0.000000 0.000000 0.000000 0.000000 0.000000 0.035483
#
#
# Mechanical properties :
#
#
# Convention : Reuss Voigt Hill
#
# Bulk Modulus (GPa) = 44.58128 46.57635 45.57882
# Shear Modulus (GPa) = 29.35835 33.12328 31.24081
#
# Velocity S-wave (km/s) = 3.65465 3.88192 3.77000
# Velocity P-wave (km/s) = 6.17177 6.42512 6.29971
#
# Compressibility (1/GPa) = 0.02243094
#
# Stress axis : x y z
#
# Youngs Moduli (GPa) = 98.58748 73.27959 129.22167
#
# Poissons Ratio (x) = 0.12963 0.07657
# Poissons Ratio (y) = 0.17441 0.28262
# Poissons Ratio (z) = 0.05842 0.16027
#
# Static dielectric constant tensor:
#      x y z
#    x 4.206770 0.000000 0.000000 
#    y 0.000000 3.961280 0.000000 
#    z 0.000000 0.000000 3.802450 
# 
# 
# High freq. dielectric constant tensor:
#      x y z
#    x 1.883360 0.000000 0.000000 
#    y 0.000000 1.860270 0.000000 
#    z 0.000000 0.000000 1.861040 
# 
# From -- ./inp_files/32822.got.cif
#   From: 2010.03.12/outbox.cif.g09.slc.cpg/sg24_17_cif.got.tgz:32822.got - 2010.04.14 03:06:53.
