data_PCOD8165858
_publ_section_title
;
Structure prediction by ZEFSAII (Michael W. Deem and Ramdas Pophale) SiO2 
 PCOD8165858
Probable space group: I 21 21 21
;
_chemical_formula_sum "Si O2"
_cell_formula_units_Z 56
_cell_length_a 15.090006
_cell_length_b 26.907683
_cell_length_c 6.636386
_cell_angle_alpha 90.000000
_cell_angle_beta 90.000000
_cell_angle_gamma 90.000000
_cell_volume 2694.618912
_symmetry_space_group_name_H-M "I 21 21 21"
_symmetry_group_IT_number 24
_symmetry_cell_setting 'orthorhombic'
loop_
_space_group_symop_operation_xyz
x,y,z
-x,1/2-y,z
x,-y,1/2-z
1/2-x,y,-z
1/2+x,1/2+y,1/2+z
1/2-x,-y,1/2+z
1/2+x,1/2-y,-z
-x,1/2+y,1/2-z
loop_
_atom_site_type_symbol
_atom_site_label
_atom_site_fract_x
_atom_site_fract_y
_atom_site_fract_z
Si Si1 0.970877 0.000000 0.750000
Si Si2 0.500000 0.250000 0.226240
Si Si3 0.913925 0.864820 0.211088
Si Si4 0.536902 0.403639 0.398837
Si Si5 0.153311 0.540360 0.416732
Si Si6 0.071082 0.157051 0.992875
Si Si7 0.663063 0.659544 0.865290
Si Si8 0.645017 0.232511 0.534687
O O1 0.913389 0.964704 0.604157
O O2 0.032424 0.963181 0.880057
O O3 0.577389 0.221021 0.350409
O O4 0.446075 0.211858 0.089075
O O5 0.849814 0.904910 0.317557
O O6 0.999781 0.858719 0.344388
O O7 0.865353 0.811641 0.197085
O O8 0.942592 0.883855 0.987168
O O9 0.611997 0.388753 0.556410
O O10 0.568202 0.381486 0.187199
O O11 0.127067 0.500000 0.250000
O O12 0.250000 0.529602 0.500000
O O13 0.165502 0.154928 0.119017
O O14 0.750000 0.662412 0.000000
O O15 0.612356 0.712625 0.895561
O O16 0.750000 0.234409 0.500000
#
# Coordination Sequence:
#
# PCOD8165858 Si02
#       8
#     4   4   8   8   8   8   8   8
#     4  12  24  42  66  96 126 170 234 278 338 418
#     4  12  20  40  66  92 138 178 236 276 340 426
#     4  11  23  40  62  95 134 169 221 286 332 406
#     4  11  22  40  69  92 123 173 223 271 340 408
#     4  12  25  40  64  92 131 179 221 282 340 399
#     4  11  21  37  68  94 121 182 215 271 343 399
#     4  10  23  44  64  97 138 171 218 282 344 414
#     4  11  23  40  64  97 138 177 224 287 341 410
#
# _framework density 20.782160000000001
#
# number of rings (size 3 to 8) (size 9 to 14) (size 15 to 20)
#    0.000    0.857    6.429    1.714    0.000    3.429 
#    0.000    1.429    3.143    0.000    0.000    0.000 
#    0.000    0.000    0.000    0.000    0.000    0.000 
#
# Total GULP energy -346892.145145 kJ/mol
# GULP energy per Si atom -12389.005184 kJ/mol
# Density = 2.073486 g / cm^3
# Si number density = 20.782160 Si / 1000 Ang^3
#
#
#
# Elastic Constant Matrix: (Units=GPa)
#
#
# Indices 1 2 3 4 5 6 
#
# 1 66.1939 21.8005 34.4284 0.0013 -0.0156 0.0200
# 2 21.8005 116.2306 25.8248 0.0019 -0.0184 0.0213
# 3 34.4284 25.8248 112.0874 0.1620 -0.0451 -0.1100
# 4 0.0013 0.0019 0.1620 40.5167 -0.0262 -0.0268
# 5 -0.0156 -0.0184 -0.0451 -0.0262 32.6010 -0.0100
# 6 0.0200 0.0213 -0.1100 -0.0268 -0.0100 22.8314
#
#
#
# Elastic Compliance Matrix: (Units=1/GPa)
#
#
# Indices 1 2 3 4 5 6 
#
# 1 0.018562 -0.002334 -0.005164 0.000020 0.000000 -0.000039
# 2 -0.002334 0.009361 -0.001440 0.000005 0.000002 -0.000014
# 3 -0.005164 -0.001440 0.010840 -0.000043 0.000012 0.000058
# 4 0.000020 0.000005 -0.000043 0.024681 0.000020 0.000029
# 5 0.000000 0.000002 0.000012 0.000020 0.030674 0.000013
# 6 -0.000039 -0.000014 0.000058 0.000029 0.000013 0.043800
#
#
# Mechanical properties :
#
#
# Convention : Reuss Voigt Hill
#
# Bulk Modulus (GPa) = 47.87647 50.95767 49.41707
# Shear Modulus (GPa) = 30.72104 33.35372 32.03738
#
# Velocity S-wave (km/s) = 3.84896 4.01049 3.93056
# Velocity P-wave (km/s) = 6.54522 6.78370 6.66553
#
# Compressibility (1/GPa) = 0.02088709
#
# Stress axis : x y z
#
# Youngs Moduli (GPa) = 53.87485 106.82262 92.25516
#
# Poissons Ratio (x) = 0.24934 0.47637
# Poissons Ratio (y) = 0.12575 0.13284
# Poissons Ratio (z) = 0.27819 0.15381
#
# Static dielectric constant tensor:
#      x y z
#    x 3.548570 -0.000050 -0.001500 
#    y -0.000050 3.904810 0.000960 
#    z -0.001500 0.000960 6.088310 
# 
# 
# High freq. dielectric constant tensor:
#      x y z
#    x 1.789600 0.000000 0.000000 
#    y 0.000000 1.816150 -0.000010 
#    z 0.000000 -0.000010 1.825930 
# 
# From -- ./inp_files/4020.got.cif
#   From: 2010.03.12/outbox.cif.g09.slc.cpg/sg24_3_cif.got.tgz:4020.got - 2010.04.14 03:06:53.
