data_PCOD8166599
_publ_section_title
;
Structure prediction by ZEFSAII (Michael W. Deem and Ramdas Pophale) SiO2 
 PCOD8166599
Probable space group: P M M 2
;
_chemical_formula_sum "Si O2"
_cell_formula_units_Z 32
_cell_length_a 8.913473
_cell_length_b 14.168463
_cell_length_c 15.556390
_cell_angle_alpha 90.000000
_cell_angle_beta 90.000000
_cell_angle_gamma 90.000000
_cell_volume 1964.619797
_symmetry_space_group_name_H-M "P M M 2"
_symmetry_group_IT_number 25
_symmetry_cell_setting 'orthorhombic'
loop_
_space_group_symop_operation_xyz
x,y,z
-x,-y,z
-x,y,z
x,-y,z
loop_
_atom_site_type_symbol
_atom_site_label
_atom_site_fract_x
_atom_site_fract_y
_atom_site_fract_z
Si Si1 0.175025 0.389804 0.923280
Si Si2 0.325681 0.701657 0.085725
Si Si3 0.333308 0.388009 0.415146
Si Si4 0.678557 0.605068 0.602267
Si Si5 0.174251 0.893192 0.828555
Si Si6 0.677709 0.717542 0.765641
Si Si7 0.328782 0.104952 0.006415
Si Si8 0.174023 0.610296 0.244747
O O1 0.207805 0.500000 0.913694
O O2 0.259788 0.336395 0.847891
O O3 0.000000 0.366494 0.917480
O O4 0.234668 0.356002 0.014919
O O5 0.500000 0.676447 0.075830
O O6 0.269633 0.671588 0.178922
O O7 0.297884 0.814587 0.077281
O O8 0.500000 0.347348 0.395896
O O9 0.343021 0.500000 0.420518
O O10 0.272967 0.353218 0.508710
O O11 0.220372 0.355985 0.340280
O O12 0.500000 0.600471 0.604949
O O13 0.744874 0.500000 0.616663
O O14 0.740801 0.670984 0.678268
O O15 0.266579 0.825355 0.765444
O O16 0.220932 0.874701 0.926652
O O17 0.000000 0.869802 0.820350
O O18 0.211124 0.000000 0.801010
O O19 0.500000 0.713783 0.769780
O O20 0.500000 0.111817 0.973015
O O21 0.297421 0.000000 0.045177
O O22 0.210823 0.500000 0.231157
O O23 0.000000 0.631395 0.230890
#
# Coordination Sequence:
#
# PCOD8166599 Si02
#       8
#     4   4   4   4   4   4   4   4
#     4  11  23  35  45  62  95 134 165 195 231 274
#     4  11  21  32  49  71  92 123 161 197 236 281
#     4   8  14  28  49  69  90 119 156 197 236 276
#     4   8  15  28  47  71  97 124 156 194 234 277
#     4  10  20  33  49  68  92 124 160 199 243 287
#     4  11  20  31  49  72  96 126 161 198 238 283
#     4   9  18  33  51  70  91 116 152 199 245 284
#     4  10  20  32  46  67  97 129 158 193 235 279
#
# _framework density 16.288139000000001
#
# number of rings (size 3 to 8) (size 9 to 14) (size 15 to 20)
#    0.000    2.250    1.250    3.375    0.000    5.000 
#    0.000    1.250    0.000    3.000    0.000    0.875 
#    0.000    3.000    0.000    0.000    0.000    0.000 
#
# Total GULP energy -396741.828316 kJ/mol
# GULP energy per Si atom -12398.182135 kJ/mol
# Density = 1.625107 g / cm^3
# Si number density = 16.288139 Si / 1000 Ang^3
#
#
#
# Elastic Constant Matrix: (Units=GPa)
#
#
# Indices 1 2 3 4 5 6 
#
# 1 60.4448 39.1346 27.4269 0.0000 0.0000 0.0000
# 2 39.1346 89.5970 48.6606 0.0000 0.0000 0.0000
# 3 27.4269 48.6606 102.3913 0.0000 0.0000 0.0000
# 4 0.0000 0.0000 0.0000 11.1448 0.0000 0.0000
# 5 0.0000 0.0000 0.0000 0.0000 6.4701 0.0000
# 6 0.0000 0.0000 0.0000 0.0000 0.0000 21.9521
#
#
#
# Elastic Compliance Matrix: (Units=1/GPa)
#
#
# Indices 1 2 3 4 5 6 
#
# 1 0.023337 -0.009163 -0.001896 0.000000 0.000000 0.000000
# 2 -0.009163 0.018642 -0.006405 0.000000 0.000000 0.000000
# 3 -0.001896 -0.006405 0.013318 0.000000 0.000000 0.000000
# 4 0.000000 0.000000 0.000000 0.089728 0.000000 0.000000
# 5 0.000000 0.000000 0.000000 0.000000 0.154557 0.000000
# 6 0.000000 0.000000 0.000000 0.000000 0.000000 0.045554
#
#
# Mechanical properties :
#
#
# Convention : Reuss Voigt Hill
#
# Bulk Modulus (GPa) = 49.09611 53.65304 51.37458
# Shear Modulus (GPa) = 12.92471 17.06078 14.99275
#
# Velocity S-wave (km/s) = 2.81998 3.23992 3.03722
# Velocity P-wave (km/s) = 6.38833 6.85621 6.62640
#
# Compressibility (1/GPa) = 0.02036821
#
# Stress axis : x y z
#
# Youngs Moduli (GPa) = 42.84979 53.64200 75.08452
#
# Poissons Ratio (x) = 0.49155 0.14239
# Poissons Ratio (y) = 0.39265 0.48091
# Poissons Ratio (z) = 0.08126 0.34357
#
# Static dielectric constant tensor:
#      x y z
#    x 3.087470 0.000000 0.000000 
#    y 0.000000 3.178400 0.000000 
#    z 0.000000 0.000000 3.186610 
# 
# 
# High freq. dielectric constant tensor:
#      x y z
#    x 1.628190 0.000000 0.000000 
#    y 0.000000 1.610000 0.000000 
#    z 0.000000 0.000000 1.614540 
# 
# From -- ./inp_files/5686.got.cif
#   From: 2010.03.12/outbox.cif.g09.slc.cpg/sg25_3_cif.got.tgz:5686.got - 2010.04.14 03:30:10.
