data_PCOD8166842
_publ_section_title
;
Structure prediction by ZEFSAII (Michael W. Deem and Ramdas Pophale) SiO2 
 PCOD8166842
Probable space group: P M M 2
;
_chemical_formula_sum "Si O2"
_cell_formula_units_Z 32
_cell_length_a 8.842904
_cell_length_b 15.416472
_cell_length_c 11.976985
_cell_angle_alpha 90.000000
_cell_angle_beta 90.000000
_cell_angle_gamma 90.000000
_cell_volume 1632.779031
_symmetry_space_group_name_H-M "P M M 2"
_symmetry_group_IT_number 25
_symmetry_cell_setting 'orthorhombic'
loop_
_space_group_symop_operation_xyz
x,y,z
-x,-y,z
-x,y,z
x,-y,z
loop_
_atom_site_type_symbol
_atom_site_label
_atom_site_fract_x
_atom_site_fract_y
_atom_site_fract_z
Si Si1 0.320330 0.252436 0.539070
Si Si2 0.173642 0.901981 0.149145
Si Si3 0.827456 0.597385 0.159852
Si Si4 0.826562 0.662718 0.918592
Si Si5 0.678359 0.154604 0.928014
Si Si6 0.674160 0.597850 0.702128
Si Si7 0.320262 0.904072 0.686702
Si Si8 0.321535 0.751344 0.288190
O O1 0.500000 0.249277 0.536198
O O2 0.265710 0.337570 0.606077
O O3 0.254596 0.166698 0.600369
O O4 0.256024 0.255867 0.413721
O O5 0.256052 0.837505 0.233008
O O6 0.000000 0.873186 0.141301
O O7 0.190926 0.000000 0.194812
O O8 0.243367 0.898629 0.026129
O O9 0.782638 0.500000 0.196743
O O10 0.720314 0.664900 0.221781
O O11 0.000000 0.618366 0.192999
O O12 0.807158 0.602875 0.026846
O O13 0.720412 0.745147 0.935446
O O14 0.773736 0.607914 0.812455
O O15 0.000000 0.692094 0.902676
O O16 0.500000 0.143990 0.941011
O O17 0.738080 0.116585 0.811002
O O18 0.500000 0.619351 0.731808
O O19 0.691634 0.500000 0.656857
O O20 0.500000 0.899204 0.686558
O O21 0.264077 0.000000 0.651100
O O22 0.500000 0.760953 0.288165
#
# Coordination Sequence:
#
# PCOD8166842 Si02
#       8
#     4   4   4   4   4   4   4   4
#     4   9  19  36  55  82 115 147 190 241 293 337
#     4  11  24  41  60  84 120 161 194 232 290 354
#     4  10  22  40  60  82 115 157 193 233 291 353
#     4  11  21  35  58  86 118 154 189 230 289 353
#     4  11  20  34  60  90 118 148 189 238 288 344
#     4  10  20  36  59  85 115 151 190 235 287 343
#     4   9  17  31  55  85 115 144 176 225 286 339
#     4  11  23  38  61  88 114 150 199 252 294 338
#
# _framework density 19.598489000000001
#
# number of rings (size 3 to 8) (size 9 to 14) (size 15 to 20)
#    0.000    1.750    2.500    2.250    0.000    4.000 
#    0.000    3.750    0.000    0.000    0.000    0.000 
#    0.000    0.000    0.000    0.000    0.000    0.000 
#
# Total GULP energy -396861.187375 kJ/mol
# GULP energy per Si atom -12401.912105 kJ/mol
# Density = 1.955388 g / cm^3
# Si number density = 19.598489 Si / 1000 Ang^3
#
#
#
# Elastic Constant Matrix: (Units=GPa)
#
#
# Indices 1 2 3 4 5 6 
#
# 1 63.1956 34.5193 42.7075 0.0000 0.0000 0.0000
# 2 34.5193 141.6903 61.9051 0.0000 0.0000 0.0000
# 3 42.7075 61.9051 148.7063 0.0000 0.0000 0.0000
# 4 0.0000 0.0000 0.0000 10.1046 0.0000 0.0000
# 5 0.0000 0.0000 0.0000 0.0000 5.5558 0.0000
# 6 0.0000 0.0000 0.0000 0.0000 0.0000 19.2915
#
#
#
# Elastic Compliance Matrix: (Units=1/GPa)
#
#
# Indices 1 2 3 4 5 6 
#
# 1 0.020613 -0.002977 -0.004681 0.000000 0.000000 0.000000
# 2 -0.002977 0.009057 -0.002915 0.000000 0.000000 0.000000
# 3 -0.004681 -0.002915 0.009283 0.000000 0.000000 0.000000
# 4 0.000000 0.000000 0.000000 0.098965 0.000000 0.000000
# 5 0.000000 0.000000 0.000000 0.000000 0.179993 0.000000
# 6 0.000000 0.000000 0.000000 0.000000 0.000000 0.051836
#
#
# Mechanical properties :
#
#
# Convention : Reuss Voigt Hill
#
# Bulk Modulus (GPa) = 56.15890 70.20622 63.18256
# Shear Modulus (GPa) = 12.59994 21.28773 16.94384
#
# Velocity S-wave (km/s) = 2.53831 3.29932 2.94351
# Velocity P-wave (km/s) = 6.10799 7.10028 6.62275
#
# Compressibility (1/GPa) = 0.01780662
#
# Stress axis : x y z
#
# Youngs Moduli (GPa) = 48.51276 110.41724 107.72929
#
# Poissons Ratio (x) = 0.32869 0.50425
# Poissons Ratio (y) = 0.14441 0.31406
# Poissons Ratio (z) = 0.22707 0.32189
#
# Static dielectric constant tensor:
#      x y z
#    x 3.379580 0.000000 0.000000 
#    y 0.000000 3.712880 0.000000 
#    z 0.000000 0.000000 3.728770 
# 
# 
# High freq. dielectric constant tensor:
#      x y z
#    x 1.740570 0.000000 0.000000 
#    y 0.000000 1.778000 0.000000 
#    z 0.000000 0.000000 1.761270 
# 
# From -- ./inp_files/4213.got.cif
#   From: 2010.03.12/outbox.cif.g09.slc.cpg/sg25_3_cif.got.tgz:4213.got - 2010.04.14 03:30:10.
