data_PCOD8166942
_publ_section_title
;
Structure prediction by ZEFSAII (Michael W. Deem and Ramdas Pophale) SiO2 
 PCOD8166942
Probable space group: P M M 2
;
_chemical_formula_sum "Si O2"
_cell_formula_units_Z 32
_cell_length_a 8.824378
_cell_length_b 15.410077
_cell_length_c 12.006093
_cell_angle_alpha 90.000000
_cell_angle_beta 90.000000
_cell_angle_gamma 90.000000
_cell_volume 1632.640686
_symmetry_space_group_name_H-M "P M M 2"
_symmetry_group_IT_number 25
_symmetry_cell_setting 'orthorhombic'
loop_
_space_group_symop_operation_xyz
x,y,z
-x,-y,z
-x,y,z
x,-y,z
loop_
_atom_site_type_symbol
_atom_site_label
_atom_site_fract_x
_atom_site_fract_y
_atom_site_fract_z
Si Si1 0.319893 0.596143 0.304290
Si Si2 0.823261 0.836432 0.067537
Si Si3 0.320565 0.747644 0.702854
Si Si4 0.824164 0.901007 0.310948
Si Si5 0.173351 0.597643 0.842187
Si Si6 0.325411 0.096505 0.857828
Si Si7 0.679750 0.247048 0.452362
Si Si8 0.321156 0.347877 0.062669
O O1 0.500000 0.600889 0.304496
O O2 0.264455 0.500000 0.340864
O O3 0.253440 0.668397 0.388408
O O4 0.260443 0.615635 0.180088
O O5 0.782111 0.882291 0.183191
O O6 0.721322 0.752106 0.051799
O O7 0.000000 0.812536 0.060560
O O8 0.777383 0.900536 0.968123
O O9 0.500000 0.742345 0.701167
O O10 0.260924 0.660946 0.759833
O O11 0.265635 0.833391 0.768358
O O12 0.255591 0.752636 0.577615
O O13 0.728522 0.840634 0.391991
O O14 0.000000 0.882812 0.332466
O O15 0.781118 0.000000 0.338104
O O16 0.187836 0.500000 0.795065
O O17 0.000000 0.627996 0.848900
O O18 0.242782 0.598225 0.965351
O O19 0.500000 0.115632 0.889225
O O20 0.308209 0.000000 0.806151
O O21 0.500000 0.250394 0.452383
O O22 0.500000 0.358923 0.050832
#
# Coordination Sequence:
#
# PCOD8166942 Si02
#       8
#     4   4   4   4   4   4   4   4
#     4   9  18  33  55  84 116 147 182 230 285 339
#     4  11  21  35  58  86 117 151 190 237 290 350
#     4  10  22  39  60  85 115 154 196 241 290 337
#     4  10  22  39  58  83 118 156 191 232 286 347
#     4  11  24  40  59  86 120 155 192 236 286 344
#     4  10  21  37  57  83 115 150 191 239 290 346
#     4  10  21  38  60  86 114 148 196 245 285 331
#     4  11  20  34  59  87 117 151 189 235 291 349
#
# _framework density 19.600148999999998
#
# number of rings (size 3 to 8) (size 9 to 14) (size 15 to 20)
#    0.000    1.750    2.500    1.875    0.000    4.500 
#    0.000    2.500    0.000    1.125    0.000    0.000 
#    0.000    0.000    0.000    0.000    0.000    0.000 
#
# Total GULP energy -396871.837455 kJ/mol
# GULP energy per Si atom -12402.244920 kJ/mol
# Density = 1.955554 g / cm^3
# Si number density = 19.600149 Si / 1000 Ang^3
#
#
#
# Elastic Constant Matrix: (Units=GPa)
#
#
# Indices 1 2 3 4 5 6 
#
# 1 10.7605 8.0297 19.9694 0.0000 0.0000 0.0000
# 2 8.0297 130.6859 59.7912 0.0000 0.0000 0.0000
# 3 19.9694 59.7912 154.5853 0.0000 0.0000 0.0000
# 4 0.0000 0.0000 0.0000 15.0479 0.0000 0.0000
# 5 0.0000 0.0000 0.0000 0.0000 18.4780 0.0000
# 6 0.0000 0.0000 0.0000 0.0000 0.0000 21.2001
#
#
#
# Elastic Compliance Matrix: (Units=1/GPa)
#
#
# Indices 1 2 3 4 5 6 
#
# 1 0.122250 -0.000348 -0.015658 0.000000 0.000000 0.000000
# 2 -0.000348 0.009298 -0.003551 0.000000 0.000000 0.000000
# 3 -0.015658 -0.003551 0.009865 0.000000 0.000000 0.000000
# 4 0.000000 0.000000 0.000000 0.066455 0.000000 0.000000
# 5 0.000000 0.000000 0.000000 0.000000 0.054118 0.000000
# 6 0.000000 0.000000 0.000000 0.000000 0.000000 0.047170
#
#
# Mechanical properties :
#
#
# Convention : Reuss Voigt Hill
#
# Bulk Modulus (GPa) = 9.77518 52.40134 31.08826
# Shear Modulus (GPa) = 13.07632 24.82795 18.95213
#
# Velocity S-wave (km/s) = 2.58573 3.56297 3.11294
# Velocity P-wave (km/s) = 3.72999 6.61207 5.36807
#
# Compressibility (1/GPa) = 0.10229988
#
# Stress axis : x y z
#
# Youngs Moduli (GPa) = 8.17993 107.54818 101.36557
#
# Poissons Ratio (x) = 0.03738 1.58718
# Poissons Ratio (y) = 0.00284 0.36000
# Poissons Ratio (z) = 0.12808 0.38196
#
# Static dielectric constant tensor:
#      x y z
#    x 3.365140 0.000000 0.000000 
#    y 0.000000 3.617000 0.000000 
#    z 0.000000 0.000000 3.733630 
# 
# 
# High freq. dielectric constant tensor:
#      x y z
#    x 1.744410 0.000000 0.000000 
#    y 0.000000 1.777820 0.000000 
#    z 0.000000 0.000000 1.761770 
# 
# From -- ./inp_files/4217.got.cif
#   From: 2010.03.12/outbox.cif.g09.slc.cpg/sg25_3_cif.got.tgz:4217.got - 2010.04.14 03:30:10.
