data_PCOD8166120
_publ_section_title
;
Structure prediction by ZEFSAII (Michael W. Deem and Ramdas Pophale) SiO2 
 PCOD8166120
Probable space group: I 21 21 21
;
_chemical_formula_sum "Si O2"
_cell_formula_units_Z 32
_cell_length_a 4.812790
_cell_length_b 24.663551
_cell_length_c 12.170842
_cell_angle_alpha 90.000000
_cell_angle_beta 90.000000
_cell_angle_gamma 90.000000
_cell_volume 1444.684929
_symmetry_space_group_name_H-M "I 21 21 21"
_symmetry_group_IT_number 24
_symmetry_cell_setting 'orthorhombic'
loop_
_space_group_symop_operation_xyz
x,y,z
-x,1/2-y,z
x,-y,1/2-z
1/2-x,y,-z
1/2+x,1/2+y,1/2+z
1/2-x,-y,1/2+z
1/2+x,1/2-y,-z
-x,1/2+y,1/2-z
loop_
_atom_site_type_symbol
_atom_site_label
_atom_site_fract_x
_atom_site_fract_y
_atom_site_fract_z
Si Si1 0.259100 0.713038 0.759119
Si Si2 0.259610 0.062832 0.748489
Si Si3 0.506080 0.362154 0.927618
Si Si4 0.251460 0.606839 0.126841
O O1 0.500000 0.750000 0.810696
O O2 0.379215 0.682811 0.652394
O O3 0.168928 0.669695 0.851909
O O4 0.000000 0.750000 0.724259
O O5 0.333759 0.088307 0.866960
O O6 0.436209 0.095628 0.659566
O O7 0.943066 0.070257 0.707283
O O8 0.335212 0.000000 0.750000
O O9 0.250000 0.385462 0.000000
O O10 0.750000 0.334334 0.000000
O O11 0.250000 0.591172 0.000000
#
# Coordination Sequence:
#
# PCOD8166120 Si02
#       4
#     8   8   8   8
#     4  11  23  41  63  90 124 162 206 256 309 368
#     4  11  24  43  65  93 128 164 207 260 313 372
#     4  11  23  41  63  92 128 164 207 257 310 374
#     4  11  24  43  65  93 126 162 210 261 311 372
#
# _framework density 22.150158000000001
#
# number of rings (size 3 to 8) (size 9 to 14) (size 15 to 20)
#    0.000    1.000    0.000    9.000    0.000    6.000 
#    0.000    2.500    0.000    0.000    0.000    0.000 
#    0.000    0.000    0.000    0.000    0.000    0.000 
#
# Total GULP energy -198379.378321 kJ/mol
# GULP energy per Si atom -12398.711145 kJ/mol
# Density = 2.209974 g / cm^3
# Si number density = 22.150158 Si / 1000 Ang^3
#
#
#
# Elastic Constant Matrix: (Units=GPa)
#
#
# Indices 1 2 3 4 5 6 
#
# 1 105.5651 22.3114 21.4683 0.0000 0.0000 0.0000
# 2 22.3114 115.6051 11.1239 0.0000 0.0000 0.0000
# 3 21.4683 11.1239 87.2807 -0.0002 0.0000 0.0001
# 4 0.0000 0.0000 -0.0002 9.9010 0.0000 0.0000
# 5 0.0000 0.0000 0.0000 0.0000 35.4698 0.0000
# 6 0.0000 0.0000 0.0001 0.0000 0.0000 35.9145
#
#
#
# Elastic Compliance Matrix: (Units=1/GPa)
#
#
# Indices 1 2 3 4 5 6 
#
# 1 0.010317 -0.001769 -0.002312 0.000000 0.000000 0.000000
# 2 -0.001769 0.009061 -0.000720 0.000000 0.000000 0.000000
# 3 -0.002312 -0.000720 0.012118 0.000000 0.000000 0.000000
# 4 0.000000 0.000000 0.000000 0.100999 0.000000 0.000000
# 5 0.000000 0.000000 0.000000 0.000000 0.028193 0.000000
# 6 0.000000 0.000000 0.000000 0.000000 0.000000 0.027844
#
#
# Mechanical properties :
#
#
# Convention : Reuss Voigt Hill
#
# Bulk Modulus (GPa) = 45.67430 46.47310 46.07370
# Shear Modulus (GPa) = 24.33908 33.16022 28.74965
#
# Velocity S-wave (km/s) = 3.31844 3.87339 3.60661
# Velocity P-wave (km/s) = 5.94540 6.40552 6.17975
#
# Compressibility (1/GPa) = 0.02189415
#
# Stress axis : x y z
#
# Youngs Moduli (GPa) = 96.92878 110.36629 82.52355
#
# Poissons Ratio (x) = 0.19520 0.19081
# Poissons Ratio (y) = 0.17143 0.05940
# Poissons Ratio (z) = 0.22412 0.07944
#
# Static dielectric constant tensor:
#      x y z
#    x 4.209690 0.000000 0.000000 
#    y 0.000000 3.859060 0.000000 
#    z 0.000000 0.000000 3.989820 
# 
# 
# High freq. dielectric constant tensor:
#      x y z
#    x 1.895750 0.000000 0.000000 
#    y 0.000000 1.862690 0.000000 
#    z 0.000000 0.000000 1.863730 
# 
# From -- ./inp_files/2163.got.cif
#   From: 2010.03.12/outbox.cif.g09.slc.cpg/sg24_2_cif.got.tgz:2163.got - 2010.04.14 03:06:53.
