data_PCOD8166292
_publ_section_title
;
Structure prediction by ZEFSAII (Michael W. Deem and Ramdas Pophale) SiO2 
 PCOD8166292
Probable space group: I 21 21 21
;
_chemical_formula_sum "Si O2"
_cell_formula_units_Z 24
_cell_length_a 13.818068
_cell_length_b 5.178864
_cell_length_c 13.096003
_cell_angle_alpha 90.000000
_cell_angle_beta 90.000000
_cell_angle_gamma 90.000000
_cell_volume 937.174790
_symmetry_space_group_name_H-M "I 21 21 21"
_symmetry_group_IT_number 24
_symmetry_cell_setting 'orthorhombic'
loop_
_space_group_symop_operation_xyz
x,y,z
-x,1/2-y,z
x,-y,1/2-z
1/2-x,y,-z
1/2+x,1/2+y,1/2+z
1/2-x,-y,1/2+z
1/2+x,1/2-y,-z
-x,1/2+y,1/2-z
loop_
_atom_site_type_symbol
_atom_site_label
_atom_site_fract_x
_atom_site_fract_y
_atom_site_fract_z
Si Si1 0.343573 0.453122 0.558279
Si Si2 0.609168 0.500000 0.250000
Si Si3 0.000000 0.750000 0.181250
Si Si4 0.000000 0.250000 0.924657
Si Si5 0.766209 0.000000 0.750000
O O1 0.250000 0.339642 0.500000
O O2 0.407824 0.220527 0.605287
O O3 0.411677 0.641404 0.492510
O O4 0.299904 0.602092 0.656534
O O5 0.543241 0.469330 0.149200
O O6 0.669625 0.246334 0.278921
O O7 0.007537 0.500000 0.250000
#
# Coordination Sequence:
#
# PCOD8166292 Si02
#       5
#     8   4   4   4   4
#     4  12  29  54  83 130 165 229 276 352 417 505
#     4  12  29  56  83 124 166 224 277 360 403 506
#     4  12  29  57  84 118 172 224 275 347 416 498
#     4  12  29  55  90 122 172 222 285 345 428 494
#     4  12  29  56  83 120 174 218 285 344 421 492
#
# _framework density 25.608884
#
# number of rings (size 3 to 8) (size 9 to 14) (size 15 to 20)
#    0.000    0.000    5.000    2.000    7.000    0.000 
#    0.000    0.000    0.000    0.000    0.000    0.000 
#    0.000    0.000    0.000    0.000    0.000    0.000 
#
# Total GULP energy -148721.951969 kJ/mol
# GULP energy per Si atom -12393.495997 kJ/mol
# Density = 2.555060 g / cm^3
# Si number density = 25.608884 Si / 1000 Ang^3
#
#
#
# Elastic Constant Matrix: (Units=GPa)
#
#
# Indices 1 2 3 4 5 6 
#
# 1 225.2844 74.3628 110.1979 0.0000 0.0000 0.0000
# 2 74.3628 134.4255 56.1202 0.0000 0.0000 0.0000
# 3 110.1979 56.1202 201.6904 0.0000 0.0000 0.0000
# 4 0.0000 0.0000 0.0000 25.4182 0.0000 0.0000
# 5 0.0000 0.0000 0.0000 0.0000 32.2944 0.0000
# 6 0.0000 0.0000 0.0000 0.0000 0.0000 26.8580
#
#
#
# Elastic Compliance Matrix: (Units=1/GPa)
#
#
# Indices 1 2 3 4 5 6 
#
# 1 0.006711 -0.002469 -0.002980 0.000000 0.000000 0.000000
# 2 -0.002469 0.009325 -0.001246 0.000000 0.000000 0.000000
# 3 -0.002980 -0.001246 0.006933 0.000000 0.000000 0.000000
# 4 0.000000 0.000000 0.000000 0.039342 0.000000 0.000000
# 5 0.000000 0.000000 0.000000 0.000000 0.030965 0.000000
# 6 0.000000 0.000000 0.000000 0.000000 0.000000 0.037233
#
#
# Mechanical properties :
#
#
# Convention : Reuss Voigt Hill
#
# Bulk Modulus (GPa) = 104.38189 115.86245 110.12217
# Shear Modulus (GPa) = 33.99253 38.29542 36.14397
#
# Velocity S-wave (km/s) = 3.64727 3.87123 3.76091
# Velocity P-wave (km/s) = 7.65410 8.08228 7.87110
#
# Compressibility (1/GPa) = 0.00958021
#
# Stress axis : x y z
#
# Youngs Moduli (GPa) = 149.00172 107.24131 144.23877
#
# Poissons Ratio (x) = 0.26473 0.42983
# Poissons Ratio (y) = 0.36782 0.17970
# Poissons Ratio (z) = 0.44403 0.13361
#
# Static dielectric constant tensor:
#      x y z
#    x 5.407910 0.000000 0.000000 
#    y 0.000000 3.913760 0.000000 
#    z 0.000000 0.000000 5.359100 
# 
# 
# High freq. dielectric constant tensor:
#      x y z
#    x 2.060420 0.000000 0.000000 
#    y 0.000000 1.983840 0.000000 
#    z 0.000000 0.000000 2.057280 
# 
# From -- ./inp_files/2891.got.cif
#   From: 2010.03.12/outbox.cif.g09.slc.cpg/sg24_2_cif.got.tgz:2891.got - 2010.04.14 03:06:53.
