data_PCOD8166699
_publ_section_title
;
Structure prediction by ZEFSAII (Michael W. Deem and Ramdas Pophale) SiO2 
 PCOD8166699
Probable space group: P M M 2
;
_chemical_formula_sum "Si O2"
_cell_formula_units_Z 24
_cell_length_a 9.307495
_cell_length_b 9.377508
_cell_length_c 15.477194
_cell_angle_alpha 90.000000
_cell_angle_beta 90.000000
_cell_angle_gamma 90.000000
_cell_volume 1350.866654
_symmetry_space_group_name_H-M "P M M 2"
_symmetry_group_IT_number 25
_symmetry_cell_setting 'orthorhombic'
loop_
_space_group_symop_operation_xyz
x,y,z
-x,-y,z
-x,y,z
x,-y,z
loop_
_atom_site_type_symbol
_atom_site_label
_atom_site_fract_x
_atom_site_fract_y
_atom_site_fract_z
Si Si1 0.658651 0.169313 0.539210
Si Si2 0.662569 0.330463 0.043817
Si Si3 0.167730 0.835630 0.377260
Si Si4 0.667392 0.166496 0.732070
Si Si5 0.833373 0.331970 0.876820
Si Si6 0.166568 0.666749 0.210301
O O1 0.500000 0.230703 0.521321
O O2 0.761884 0.228493 0.464233
O O3 0.709915 0.215135 0.634829
O O4 0.655033 0.000000 0.536820
O O5 0.500000 0.270719 0.041123
O O6 0.663115 0.500000 0.043926
O O7 0.741738 0.274729 0.129752
O O8 0.749311 0.274010 0.960846
O O9 0.223457 0.747969 0.294916
O O10 0.000000 0.814942 0.389504
O O11 0.210165 0.000000 0.362859
O O12 0.500000 0.199994 0.750059
O O13 0.768767 0.256598 0.793591
O O14 0.698488 0.000000 0.746390
O O15 0.811979 0.500000 0.865767
O O16 0.000000 0.291735 0.887112
O O17 0.191339 0.500000 0.225490
O O18 0.000000 0.700839 0.191613
#
# Coordination Sequence:
#
# PCOD8166699 Si02
#       6
#     4   4   4   4   4   4
#     4   8  15  29  48  68  91 121 155 189 227 274
#     4   9  17  30  49  70  91 120 158 195 231 277
#     4   9  17  29  46  68  92 119 152 188 226 271
#     4   9  18  33  52  73  97 126 161 200 241 285
#     4  10  20  33  50  73  99 127 160 197 238 286
#     4   9  17  30  47  66  90 120 152 188 231 276
#
# _framework density 17.766373000000002
#
# number of rings (size 3 to 8) (size 9 to 14) (size 15 to 20)
#    0.000    3.000    0.000    2.000    0.000    4.667 
#    0.000    3.333    0.000    6.000    0.000    0.000 
#    0.000    0.000    0.000    0.000    0.000    0.000 
#
# Total GULP energy -297547.669804 kJ/mol
# GULP energy per Si atom -12397.819575 kJ/mol
# Density = 1.772594 g / cm^3
# Si number density = 17.766373 Si / 1000 Ang^3
#
#
#
# Elastic Constant Matrix: (Units=GPa)
#
#
# Indices 1 2 3 4 5 6 
#
# 1 109.2251 34.9049 94.6445 0.0000 0.0000 0.0000
# 2 34.9049 29.6624 44.3254 0.0000 0.0000 0.0000
# 3 94.6445 44.3254 187.2475 0.0000 0.0000 0.0000
# 4 0.0000 0.0000 0.0000 33.2606 0.0000 0.0000
# 5 0.0000 0.0000 0.0000 0.0000 41.0189 0.0000
# 6 0.0000 0.0000 0.0000 0.0000 0.0000 20.1080
#
#
#
# Elastic Compliance Matrix: (Units=1/GPa)
#
#
# Indices 1 2 3 4 5 6 
#
# 1 0.018785 -0.012249 -0.006595 0.000000 0.000000 0.000000
# 2 -0.012249 0.060154 -0.008048 0.000000 0.000000 0.000000
# 3 -0.006595 -0.008048 0.010579 0.000000 0.000000 0.000000
# 4 0.000000 0.000000 0.000000 0.030066 0.000000 0.000000
# 5 0.000000 0.000000 0.000000 0.000000 0.024379 0.000000
# 6 0.000000 0.000000 0.000000 0.000000 0.000000 0.049731
#
#
# Mechanical properties :
#
#
# Convention : Reuss Voigt Hill
#
# Bulk Modulus (GPa) = 27.98595 74.87607 51.43101
# Shear Modulus (GPa) = 19.27606 29.02820 24.15213
#
# Velocity S-wave (km/s) = 3.29747 4.04652 3.69104
# Velocity P-wave (km/s) = 5.50310 8.00429 6.86851
#
# Compressibility (1/GPa) = 0.03573221
#
# Stress axis : x y z
#
# Youngs Moduli (GPa) = 53.23527 16.62410 94.52589
#
# Poissons Ratio (x) = 0.20364 0.62339
# Poissons Ratio (y) = 0.65210 0.76075
# Poissons Ratio (z) = 0.35108 0.13379
#
# Static dielectric constant tensor:
#      x y z
#    x 3.422780 0.000000 0.000000 
#    y 0.000000 2.759470 0.000000 
#    z 0.000000 0.000000 3.579190 
# 
# 
# High freq. dielectric constant tensor:
#      x y z
#    x 1.688540 0.000000 0.000000 
#    y 0.000000 1.644090 0.000000 
#    z 0.000000 0.000000 1.703000 
# 
# From -- ./inp_files/3906.got.cif
#   From: 2010.03.12/outbox.cif.g09.slc.cpg/sg25_2_cif.got.tgz:3906.got - 2010.04.14 03:30:10.
