data_PCOD8166371
_publ_section_title
;
Structure prediction by ZEFSAII (Michael W. Deem and Ramdas Pophale) SiO2 
 PCOD8166371
Probable space group: P M M 2
;
_chemical_formula_sum "Si O2"
_cell_formula_units_Z 28
_cell_length_a 14.179926
_cell_length_b 9.493571
_cell_length_c 12.818963
_cell_angle_alpha 90.000000
_cell_angle_beta 90.000000
_cell_angle_gamma 90.000000
_cell_volume 1725.664882
_symmetry_space_group_name_H-M "P M M 2"
_symmetry_group_IT_number 25
_symmetry_cell_setting 'orthorhombic'
loop_
_space_group_symop_operation_xyz
x,y,z
-x,-y,z
-x,y,z
x,-y,z
loop_
_atom_site_type_symbol
_atom_site_label
_atom_site_fract_x
_atom_site_fract_y
_atom_site_fract_z
Si Si1 0.609027 0.163131 0.629540
Si Si2 0.275227 0.334573 0.029459
Si Si3 0.701980 0.833321 0.415003
Si Si4 0.609416 0.337813 0.233174
Si Si5 0.608758 0.336421 0.827819
Si Si6 0.107086 0.162787 0.096346
Si Si7 0.898054 0.833177 0.332581
O O1 0.500000 0.196161 0.605608
O O2 0.668955 0.211347 0.529621
O O3 0.646138 0.250927 0.728010
O O4 0.625024 0.000000 0.654821
O O5 0.256041 0.500000 0.028875
O O6 0.333003 0.288362 0.131763
O O7 0.333646 0.287282 0.928493
O O8 0.175650 0.254527 0.024204
O O9 0.636831 0.757421 0.330915
O O10 0.810932 0.782306 0.403698
O O11 0.691237 0.000000 0.397023
O O12 0.500000 0.316063 0.207384
O O13 0.631402 0.500000 0.260485
O O14 0.500000 0.301042 0.850159
O O15 0.623633 0.500000 0.803681
O O16 0.000000 0.184199 0.057370
O O17 0.136733 0.000000 0.088289
O O18 0.118057 0.219215 0.214583
O O19 0.000000 0.775244 0.374100
O O20 0.902971 0.000000 0.330641
#
# Coordination Sequence:
#
# PCOD8166371 Si02
#       7
#     4   4   4   4   4   4   4
#     4   9  18  31  46  67  93 120 156 202 241 272
#     4  10  19  31  48  70  95 123 157 196 235 276
#     4  10  18  30  49  70  94 124 157 192 232 279
#     4  10  20  31  43  65  98 128 151 184 233 284
#     4   9  18  33  51  68  89 124 166 199 230 275
#     4   9  17  30  48  70  96 125 157 192 230 278
#     4   8  14  26  45  68  93 121 153 187 225 272
#
# _framework density 16.225629000000001
#
# number of rings (size 3 to 8) (size 9 to 14) (size 15 to 20)
#    0.000    2.714    1.429    1.714    0.000    4.000 
#    0.000    1.429    0.000    3.857    0.000    2.000 
#    0.000    0.000    0.000    0.000    0.000    0.000 
#
# Total GULP energy -347164.327128 kJ/mol
# GULP energy per Si atom -12398.725969 kJ/mol
# Density = 1.618870 g / cm^3
# Si number density = 16.225629 Si / 1000 Ang^3
#
#
#
# Elastic Constant Matrix: (Units=GPa)
#
#
# Indices 1 2 3 4 5 6 
#
# 1 101.8824 37.6667 59.9241 0.0000 0.0000 0.0000
# 2 37.6667 40.9957 47.3682 0.0000 0.0000 0.0000
# 3 59.9241 47.3682 118.1360 0.0000 0.0000 0.0000
# 4 0.0000 0.0000 0.0000 27.0210 0.0000 0.0000
# 5 0.0000 0.0000 0.0000 0.0000 21.5511 0.0000
# 6 0.0000 0.0000 0.0000 0.0000 0.0000 24.6513
#
#
#
# Elastic Compliance Matrix: (Units=1/GPa)
#
#
# Indices 1 2 3 4 5 6 
#
# 1 0.015865 -0.009835 -0.004104 0.000000 0.000000 0.000000
# 2 -0.009835 0.051545 -0.015679 0.000000 0.000000 0.000000
# 3 -0.004104 -0.015679 0.016833 0.000000 0.000000 0.000000
# 4 0.000000 0.000000 0.000000 0.037008 0.000000 0.000000
# 5 0.000000 0.000000 0.000000 0.000000 0.046401 0.000000
# 6 0.000000 0.000000 0.000000 0.000000 0.000000 0.040566
#
#
# Mechanical properties :
#
#
# Convention : Reuss Voigt Hill
#
# Bulk Modulus (GPa) = 39.98753 61.21468 50.60111
# Shear Modulus (GPa) = 18.12964 22.38169 20.25566
#
# Velocity S-wave (km/s) = 3.34630 3.71806 3.53707
# Velocity P-wave (km/s) = 6.29511 7.49940 6.92349
#
# Compressibility (1/GPa) = 0.02500779
#
# Stress axis : x y z
#
# Youngs Moduli (GPa) = 63.03114 19.40037 59.40565
#
# Poissons Ratio (x) = 0.19080 0.24381
# Poissons Ratio (y) = 0.61990 0.93143
# Poissons Ratio (z) = 0.25869 0.30418
#
# Static dielectric constant tensor:
#      x y z
#    x 3.301610 0.000000 0.000000 
#    y 0.000000 2.895350 0.000000 
#    z 0.000000 0.000000 2.996840 
# 
# 
# High freq. dielectric constant tensor:
#      x y z
#    x 1.627070 0.000000 0.000000 
#    y 0.000000 1.608520 0.000000 
#    z 0.000000 0.000000 1.607420 
# 
# From -- ./inp_files/4038.got.cif
#   From: 2010.03.12/outbox.cif.g09.slc.cpg/sg25_3_cif.got.tgz:4038.got - 2010.04.14 03:30:10.
