data_PCOD8166187
_publ_section_title
;
Structure prediction by ZEFSAII (Michael W. Deem and Ramdas Pophale) SiO2 
 PCOD8166187
Probable space group: I 21 21 21
;
_chemical_formula_sum "Si O2"
_cell_formula_units_Z 56
_cell_length_a 12.401352
_cell_length_b 15.004335
_cell_length_c 13.223813
_cell_angle_alpha 90.000000
_cell_angle_beta 90.000000
_cell_angle_gamma 90.000000
_cell_volume 2460.608307
_symmetry_space_group_name_H-M "I 21 21 21"
_symmetry_group_IT_number 24
_symmetry_cell_setting 'orthorhombic'
loop_
_space_group_symop_operation_xyz
x,y,z
-x,1/2-y,z
x,-y,1/2-z
1/2-x,y,-z
1/2+x,1/2+y,1/2+z
1/2-x,-y,1/2+z
1/2+x,1/2-y,-z
-x,1/2+y,1/2-z
loop_
_atom_site_type_symbol
_atom_site_label
_atom_site_fract_x
_atom_site_fract_y
_atom_site_fract_z
Si Si1 0.878588 0.231692 0.096454
Si Si2 0.106932 0.599909 0.879223
Si Si3 0.883882 0.784120 0.065572
Si Si4 0.595507 0.499285 0.129441
Si Si5 0.177962 0.597878 0.244146
Si Si6 0.500000 0.750000 0.228838
Si Si7 0.338254 0.196141 0.112311
Si Si8 0.250000 0.127044 0.500000
O O1 0.831761 0.139323 0.143228
O O2 0.791439 0.307700 0.129406
O O3 0.000000 0.250000 0.135959
O O4 0.873774 0.233120 0.974764
O O5 0.200713 0.584060 0.797814
O O6 0.032669 0.512373 0.897209
O O7 0.012481 0.662648 0.837001
O O8 0.156950 0.645822 0.979187
O O9 0.887878 0.835951 0.171485
O O10 0.000000 0.750000 0.034447
O O11 0.811881 0.695121 0.075248
O O12 0.618375 0.500000 0.250000
O O13 0.620279 0.401866 0.085173
O O14 0.671244 0.568513 0.069426
O O15 0.124101 0.500000 0.250000
O O16 0.389771 0.762960 0.288428
#
# Coordination Sequence:
#
# PCOD8166187 Si02
#       8
#     8   8   8   8   8   4   8   4
#     4  11  25  49  72 100 155 205 248 295 384 461
#     4  12  23  45  76 108 142 185 251 317 366 429
#     4  12  25  48  73 100 143 197 248 295 366 449
#     4  12  26  44  74 115 148 181 248 320 373 433
#     4  12  28  48  69 108 147 195 250 301 371 457
#     4  12  20  42  76 104 142 186 248 306 370 432
#     4  11  25  45  73 113 146 198 248 312 376 450
#     4  12  24  46  72 104 146 192 238 304 374 440
#
# _framework density 22.758600999999999
#
# number of rings (size 3 to 8) (size 9 to 14) (size 15 to 20)
#    0.000    0.286    7.143    1.714    2.000    1.143 
#    7.714    0.000    0.000    0.000    0.000    0.000 
#    0.000    0.000    0.000    0.000    0.000    0.000 
#
# Total GULP energy -347018.698304 kJ/mol
# GULP energy per Si atom -12393.524939 kJ/mol
# Density = 2.270680 g / cm^3
# Si number density = 22.758601 Si / 1000 Ang^3
#
#
#
# Elastic Constant Matrix: (Units=GPa)
#
#
# Indices 1 2 3 4 5 6 
#
# 1 137.2176 33.9537 17.2813 0.0000 0.0000 0.0000
# 2 33.9537 138.0742 45.9069 -0.0002 0.0000 0.0000
# 3 17.2813 45.9069 103.7320 -0.0004 -0.0001 0.0000
# 4 0.0000 -0.0002 -0.0004 29.2588 0.0000 0.0000
# 5 0.0000 0.0000 -0.0001 0.0000 34.9689 0.0000
# 6 0.0000 0.0000 0.0000 0.0000 0.0000 35.5743
#
#
#
# Elastic Compliance Matrix: (Units=1/GPa)
#
#
# Indices 1 2 3 4 5 6 
#
# 1 0.007784 -0.001739 -0.000527 0.000000 0.000000 0.000000
# 2 -0.001739 0.008880 -0.003640 0.000000 0.000000 0.000000
# 3 -0.000527 -0.003640 0.011339 0.000000 0.000000 0.000000
# 4 0.000000 0.000000 0.000000 0.034178 0.000000 0.000000
# 5 0.000000 0.000000 0.000000 0.000000 0.028597 0.000000
# 6 0.000000 0.000000 0.000000 0.000000 0.000000 0.028110
#
#
# Mechanical properties :
#
#
# Convention : Reuss Voigt Hill
#
# Bulk Modulus (GPa) = 61.76347 63.70084 62.73216
# Shear Modulus (GPa) = 36.73801 38.75253 37.74527
#
# Velocity S-wave (km/s) = 4.02213 4.13093 4.07689
# Velocity P-wave (km/s) = 6.98337 7.12765 7.05588
#
# Compressibility (1/GPa) = 0.01619080
#
# Stress axis : x y z
#
# Youngs Moduli (GPa) = 128.46218 112.60678 88.19023
#
# Poissons Ratio (x) = 0.19582 0.04650
# Poissons Ratio (y) = 0.22339 0.32105
# Poissons Ratio (z) = 0.06773 0.40993
#
# Static dielectric constant tensor:
#      x y z
#    x 4.263830 0.000000 0.000000 
#    y 0.000000 4.357100 0.000000 
#    z 0.000000 0.000000 4.059470 
# 
# 
# High freq. dielectric constant tensor:
#      x y z
#    x 1.908750 0.000000 0.000000 
#    y 0.000000 1.894290 0.000000 
#    z 0.000000 0.000000 1.894110 
# 
# From -- ./inp_files/25858.got.cif
#   From: 2010.03.12/outbox.cif.g09.slc.cpg/sg24_13_cif.got.tgz:25858.got - 2010.04.14 03:06:53.
