data_PCOD8166887
_publ_section_title
;
Structure prediction by ZEFSAII (Michael W. Deem and Ramdas Pophale) SiO2 
 PCOD8166887
Probable space group: P M M 2
;
_chemical_formula_sum "Si O2"
_cell_formula_units_Z 32
_cell_length_a 9.256843
_cell_length_b 14.861627
_cell_length_c 12.259356
_cell_angle_alpha 90.000000
_cell_angle_beta 90.000000
_cell_angle_gamma 90.000000
_cell_volume 1686.541033
_symmetry_space_group_name_H-M "P M M 2"
_symmetry_group_IT_number 25
_symmetry_cell_setting 'orthorhombic'
loop_
_space_group_symop_operation_xyz
x,y,z
-x,-y,z
-x,y,z
x,-y,z
loop_
_atom_site_type_symbol
_atom_site_label
_atom_site_fract_x
_atom_site_fract_y
_atom_site_fract_z
Si Si1 0.832160 0.894184 0.781820
Si Si2 0.330217 0.241614 0.633756
Si Si3 0.667347 0.397185 0.798090
Si Si4 0.327657 0.099877 0.230003
Si Si5 0.671004 0.748548 0.388562
Si Si6 0.331377 0.603251 0.219181
Si Si7 0.837145 0.606968 0.008680
Si Si8 0.660161 0.893211 0.990567
O O1 0.752128 0.842716 0.685024
O O2 0.768850 0.859367 0.897269
O O3 0.000000 0.870316 0.779746
O O4 0.804086 0.000000 0.765328
O O5 0.500000 0.219878 0.635949
O O6 0.295882 0.335000 0.694886
O O7 0.268917 0.252921 0.511250
O O8 0.500000 0.391683 0.830430
O O9 0.710514 0.500000 0.768601
O O10 0.757191 0.358573 0.900167
O O11 0.500000 0.096799 0.232324
O O12 0.265263 0.165940 0.322606
O O13 0.264788 0.000000 0.252190
O O14 0.281522 0.136682 0.109927
O O15 0.500000 0.755693 0.392334
O O16 0.717464 0.657628 0.326408
O O17 0.500000 0.616376 0.193759
O O18 0.292346 0.500000 0.242498
O O19 0.245949 0.642551 0.115294
O O20 0.833169 0.500000 0.009224
O O21 0.000000 0.644231 0.009251
O O22 0.500000 0.853261 0.966745
O O23 0.650349 0.000000 0.991162
#
# Coordination Sequence:
#
# PCOD8166887 Si02
#       8
#     4   4   4   4   4   4   4   4
#     4  10  21  36  53  74 103 136 166 203 254 306
#     4  10  21  35  52  75 100 131 175 218 251 293
#     4   9  18  33  52  74 102 134 167 208 258 305
#     4   8  14  26  46  72  99 123 150 194 247 288
#     4   9  18  31  47  71  99 127 165 205 240 286
#     4   9  17  30  49  73 103 135 162 196 246 299
#     4   9  17  30  50  76 103 130 164 205 249 302
#     4   8  14  27  49  75  99 124 159 201 245 296
#
# _framework density 18.973745999999998
#
# number of rings (size 3 to 8) (size 9 to 14) (size 15 to 20)
#    0.000    3.000    0.000    1.500    0.000    4.750 
#    0.000    6.875    0.000    0.750    0.000    5.250 
#    0.000    0.000    0.000    0.000    0.000    0.000 
#
# Total GULP energy -396722.824270 kJ/mol
# GULP energy per Si atom -12397.588258 kJ/mol
# Density = 1.893056 g / cm^3
# Si number density = 18.973746 Si / 1000 Ang^3
#
#
#
# Elastic Constant Matrix: (Units=GPa)
#
#
# Indices 1 2 3 4 5 6 
#
# 1 66.7979 36.4328 61.0777 0.0000 0.0000 0.0000
# 2 36.4328 83.1290 72.1045 0.0000 0.0000 0.0000
# 3 61.0777 72.1045 197.2594 0.0000 0.0000 0.0000
# 4 0.0000 0.0000 0.0000 32.5607 0.0000 0.0000
# 5 0.0000 0.0000 0.0000 0.0000 3.3302 0.0000
# 6 0.0000 0.0000 0.0000 0.0000 0.0000 16.0081
#
#
#
# Elastic Compliance Matrix: (Units=1/GPa)
#
#
# Indices 1 2 3 4 5 6 
#
# 1 0.022532 -0.005599 -0.004930 0.000000 0.000000 0.000000
# 2 -0.005599 0.019005 -0.005213 0.000000 0.000000 0.000000
# 3 -0.004930 -0.005213 0.008502 0.000000 0.000000 0.000000
# 4 0.000000 0.000000 0.000000 0.030712 0.000000 0.000000
# 5 0.000000 0.000000 0.000000 0.000000 0.300284 0.000000
# 6 0.000000 0.000000 0.000000 0.000000 0.000000 0.062468
#
#
# Mechanical properties :
#
#
# Convention : Reuss Voigt Hill
#
# Bulk Modulus (GPa) = 53.89577 76.26847 65.08212
# Shear Modulus (GPa) = 10.39126 22.21788 16.30457
#
# Velocity S-wave (km/s) = 2.34276 3.42567 2.93460
# Velocity P-wave (km/s) = 5.98207 7.47871 6.77186
#
# Compressibility (1/GPa) = 0.01855433
#
# Stress axis : x y z
#
# Youngs Moduli (GPa) = 44.38091 52.61668 117.62384
#
# Poissons Ratio (x) = 0.29459 0.57990
# Poissons Ratio (y) = 0.24848 0.61323
# Poissons Ratio (z) = 0.21880 0.27432
#
# Static dielectric constant tensor:
#      x y z
#    x 3.228050 0.000000 0.000000 
#    y 0.000000 3.439790 0.000000 
#    z 0.000000 0.000000 3.724200 
# 
# 
# High freq. dielectric constant tensor:
#      x y z
#    x 1.699850 0.000000 0.000000 
#    y 0.000000 1.734220 0.000000 
#    z 0.000000 0.000000 1.738580 
# 
# From -- ./inp_files/4284.got.cif
#   From: 2010.03.12/outbox.cif.g09.slc.cpg/sg25_3_cif.got.tgz:4284.got - 2010.04.14 03:30:10.
