data_PCOD8166829
_publ_section_title
;
Structure prediction by ZEFSAII (Michael W. Deem and Ramdas Pophale) SiO2 
 PCOD8166829
Probable space group: P M M 2
;
_chemical_formula_sum "Si O2"
_cell_formula_units_Z 32
_cell_length_a 13.930933
_cell_length_b 8.885035
_cell_length_c 13.024430
_cell_angle_alpha 90.000000
_cell_angle_beta 90.000000
_cell_angle_gamma 90.000000
_cell_volume 1612.122623
_symmetry_space_group_name_H-M "P M M 2"
_symmetry_group_IT_number 25
_symmetry_cell_setting 'orthorhombic'
loop_
_space_group_symop_operation_xyz
x,y,z
-x,-y,z
-x,y,z
x,-y,z
loop_
_atom_site_type_symbol
_atom_site_label
_atom_site_fract_x
_atom_site_fract_y
_atom_site_fract_z
Si Si1 0.390775 0.322160 0.107520
Si Si2 0.386117 0.169342 0.899610
Si Si3 0.222902 0.822154 0.592583
Si Si4 0.110782 0.824887 0.795372
Si Si5 0.891998 0.178942 0.394956
Si Si6 0.215032 0.178130 0.191481
Si Si7 0.113889 0.327670 0.001539
Si Si8 0.389724 0.323176 0.691655
O O1 0.500000 0.268653 0.128087
O O2 0.383282 0.500000 0.109594
O O3 0.321739 0.250316 0.193321
O O4 0.351238 0.264559 0.997569
O O5 0.500000 0.168513 0.898586
O O6 0.349318 0.245284 0.795175
O O7 0.344627 0.000000 0.906386
O O8 0.162966 0.772843 0.692100
O O9 0.167021 0.761523 0.492921
O O10 0.326448 0.740348 0.597615
O O11 0.238946 0.000000 0.586766
O O12 0.000000 0.784975 0.779040
O O13 0.126310 0.000000 0.817191
O O14 0.153527 0.735417 0.893063
O O15 0.839822 0.236570 0.292379
O O16 0.000000 0.245017 0.398134
O O17 0.896551 0.000000 0.397124
O O18 0.155851 0.229845 0.093163
O O19 0.225337 0.000000 0.191080
O O20 0.146732 0.500000 0.014229
O O21 0.000000 0.310132 0.004608
O O22 0.500000 0.279383 0.670102
O O23 0.377496 0.500000 0.703947
#
# Coordination Sequence:
#
# PCOD8166829 Si02
#       8
#     4   4   4   4   4   4   4   4
#     4  10  21  37  56  80 114 154 193 235 286 343
#     4   9  17  31  53  80 110 146 189 235 279 329
#     4  10  20  35  59  86 111 143 189 240 289 339
#     4   9  18  33  54  81 112 144 179 224 282 347
#     4   9  19  38  63  89 114 143 186 241 294 344
#     4  11  22  36  59  86 113 148 193 240 289 345
#     4  10  21  36  54  79 114 152 187 229 284 345
#     4  10  21  36  53  77 114 157 195 232 280 338
#
# _framework density 19.849606999999999
#
# number of rings (size 3 to 8) (size 9 to 14) (size 15 to 20)
#    0.000    2.250    0.000    2.625    1.750    6.250 
#    0.000    1.875    0.000    6.375    0.000    0.000 
#    0.000    0.000    0.000    0.000    0.000    0.000 
#
# Total GULP energy -396874.872881 kJ/mol
# GULP energy per Si atom -12402.339778 kJ/mol
# Density = 1.980443 g / cm^3
# Si number density = 19.849607 Si / 1000 Ang^3
#
#
#
# Elastic Constant Matrix: (Units=GPa)
#
#
# Indices 1 2 3 4 5 6 
#
# 1 102.9925 37.5614 78.5010 0.0000 0.0000 0.0000
# 2 37.5614 71.6306 41.3298 0.0000 0.0000 0.0000
# 3 78.5010 41.3298 141.3039 0.0000 0.0000 0.0000
# 4 0.0000 0.0000 0.0000 11.5427 0.0000 0.0000
# 5 0.0000 0.0000 0.0000 0.0000 37.8792 0.0000
# 6 0.0000 0.0000 0.0000 0.0000 0.0000 29.1606
#
#
#
# Elastic Compliance Matrix: (Units=1/GPa)
#
#
# Indices 1 2 3 4 5 6 
#
# 1 0.017921 -0.004394 -0.008671 0.000000 0.000000 0.000000
# 2 -0.004394 0.017872 -0.002786 0.000000 0.000000 0.000000
# 3 -0.008671 -0.002786 0.012709 0.000000 0.000000 0.000000
# 4 0.000000 0.000000 0.000000 0.086635 0.000000 0.000000
# 5 0.000000 0.000000 0.000000 0.000000 0.026400 0.000000
# 6 0.000000 0.000000 0.000000 0.000000 0.000000 0.034293
#
#
# Mechanical properties :
#
#
# Convention : Reuss Voigt Hill
#
# Bulk Modulus (GPa) = 59.52489 70.07906 64.80197
# Shear Modulus (GPa) = 21.44710 26.28549 23.86629
#
# Velocity S-wave (km/s) = 3.29063 3.64295 3.47126
# Velocity P-wave (km/s) = 6.67014 7.28536 6.98452
#
# Compressibility (1/GPa) = 0.01679970
#
# Stress axis : x y z
#
# Youngs Moduli (GPa) = 55.80109 55.95202 78.68599
#
# Poissons Ratio (x) = 0.24588 0.68225
# Poissons Ratio (y) = 0.24522 0.21923
# Poissons Ratio (z) = 0.48382 0.15589
#
# Static dielectric constant tensor:
#      x y z
#    x 3.827890 0.000000 0.000000 
#    y 0.000000 3.460430 0.000000 
#    z 0.000000 0.000000 3.620700 
# 
# 
# High freq. dielectric constant tensor:
#      x y z
#    x 1.790400 0.000000 0.000000 
#    y 0.000000 1.761360 0.000000 
#    z 0.000000 0.000000 1.758230 
# 
# From -- ./inp_files/4222.got.cif
#   From: 2010.03.12/outbox.cif.g09.slc.cpg/sg25_3_cif.got.tgz:4222.got - 2010.04.14 03:30:10.
