data_PCOD8166320
_publ_section_title
;
Structure prediction by ZEFSAII (Michael W. Deem and Ramdas Pophale) SiO2 
 PCOD8166320
Probable space group: P M M 2
;
_chemical_formula_sum "Si O2"
_cell_formula_units_Z 32
_cell_length_a 18.500598
_cell_length_b 9.103846
_cell_length_c 12.866487
_cell_angle_alpha 90.000000
_cell_angle_beta 90.000000
_cell_angle_gamma 90.000000
_cell_volume 2167.058596
_symmetry_space_group_name_H-M "P M M 2"
_symmetry_group_IT_number 25
_symmetry_cell_setting 'orthorhombic'
loop_
_space_group_symop_operation_xyz
x,y,z
-x,-y,z
-x,y,z
x,-y,z
loop_
_atom_site_type_symbol
_atom_site_label
_atom_site_fract_x
_atom_site_fract_y
_atom_site_fract_z
Si Si1 0.161250 0.174757 0.274040
Si Si2 0.416850 0.672734 0.068354
Si Si3 0.079937 0.826032 0.474281
Si Si4 0.916195 0.670472 0.087496
Si Si5 0.830180 0.326904 0.882887
Si Si6 0.303412 0.163589 0.954734
Si Si7 0.914776 0.831559 0.706139
Si Si8 0.692838 0.162844 0.184728
O O1 0.134993 0.232691 0.386581
O O2 0.109520 0.240517 0.187094
O O3 0.245002 0.225965 0.260856
O O4 0.156946 0.000000 0.264540
O O5 0.500000 0.719530 0.073355
O O6 0.406534 0.500000 0.059482
O O7 0.377085 0.730120 0.174616
O O8 0.380071 0.749365 0.966990
O O9 0.107163 0.782390 0.589225
O O10 0.000000 0.759490 0.453346
O O11 0.074221 0.000000 0.468295
O O12 0.901518 0.500000 0.109399
O O13 0.000000 0.703645 0.067901
O O14 0.874137 0.722264 0.984680
O O15 0.818846 0.500000 0.878681
O O16 0.751524 0.250912 0.881151
O O17 0.873367 0.276657 0.782118
O O18 0.317125 0.000000 0.909172
O O19 0.269438 0.153137 0.070729
O O20 0.000000 0.812696 0.722042
O O21 0.891969 0.000000 0.727704
O O22 0.667032 0.000000 0.220135
#
# Coordination Sequence:
#
# PCOD8166320 Si02
#       8
#     4   4   4   4   4   4   4   4
#     4  10  17  28  45  63  82 107 141 176 211 255
#     4   9  16  26  41  61  87 119 149 172 198 241
#     4   8  15  28  45  63  81 105 141 185 227 261
#     4  10  20  29  36  53  81 109 136 168 211 257
#     4  11  20  30  44  59  82 113 143 178 218 259
#     4   9  17  28  41  60  86 113 140 170 205 247
#     4   9  18  32  47  61  79 107 145 187 228 267
#     4   8  16  26  39  60  86 113 139 169 204 246
#
# _framework density 14.766559000000001
#
# number of rings (size 3 to 8) (size 9 to 14) (size 15 to 20)
#    0.750    2.000    1.250    2.250    0.000    3.500 
#    0.000    0.625    0.000    0.750    0.000    0.000 
#    0.000    1.000    0.000    9.250    0.000    3.125 
#
# Total GULP energy -396507.199485 kJ/mol
# GULP energy per Si atom -12390.849984 kJ/mol
# Density = 1.473295 g / cm^3
# Si number density = 14.766559 Si / 1000 Ang^3
#
#
#
# Elastic Constant Matrix: (Units=GPa)
#
#
# Indices 1 2 3 4 5 6 
#
# 1 97.7688 44.6862 40.5581 0.0000 0.0000 0.0000
# 2 44.6862 59.7581 27.1525 0.0000 0.0000 0.0000
# 3 40.5581 27.1525 76.4035 0.0000 0.0000 0.0000
# 4 0.0000 0.0000 0.0000 13.4709 0.0000 0.0000
# 5 0.0000 0.0000 0.0000 0.0000 16.3899 0.0000
# 6 0.0000 0.0000 0.0000 0.0000 0.0000 23.9084
#
#
#
# Elastic Compliance Matrix: (Units=1/GPa)
#
#
# Indices 1 2 3 4 5 6 
#
# 1 0.017256 -0.010425 -0.005455 0.000000 0.000000 0.000000
# 2 -0.010425 0.026255 -0.003796 0.000000 0.000000 0.000000
# 3 -0.005455 -0.003796 0.017334 0.000000 0.000000 0.000000
# 4 0.000000 0.000000 0.000000 0.074234 0.000000 0.000000
# 5 0.000000 0.000000 0.000000 0.000000 0.061013 0.000000
# 6 0.000000 0.000000 0.000000 0.000000 0.000000 0.041826
#
#
# Mechanical properties :
#
#
# Convention : Reuss Voigt Hill
#
# Bulk Modulus (GPa) = 46.53175 50.96933 48.75054
# Shear Modulus (GPa) = 17.57865 18.85607 18.21736
#
# Velocity S-wave (km/s) = 3.45401 3.57731 3.51620
# Velocity P-wave (km/s) = 6.89108 7.18711 7.04065
#
# Compressibility (1/GPa) = 0.02149070
#
# Stress axis : x y z
#
# Youngs Moduli (GPa) = 57.95004 38.08812 57.69157
#
# Poissons Ratio (x) = 0.39708 0.31473
# Poissons Ratio (y) = 0.60414 0.21902
# Poissons Ratio (z) = 0.31614 0.14460
#
# Static dielectric constant tensor:
#      x y z
#    x 2.779500 0.000000 0.000000 
#    y 0.000000 2.770240 0.000000 
#    z 0.000000 0.000000 2.779200 
# 
# 
# High freq. dielectric constant tensor:
#      x y z
#    x 1.550580 0.000000 0.000000 
#    y 0.000000 1.562170 0.000000 
#    z 0.000000 0.000000 1.533680 
# 
# From -- ./inp_files/5092.got.cif
#   From: 2010.03.12/outbox.cif.g09.slc.cpg/sg25_3_cif.got.tgz:5092.got - 2010.04.14 03:30:10.
