data_PCOD8166498
_publ_section_title
;
Structure prediction by ZEFSAII (Michael W. Deem and Ramdas Pophale) SiO2 
 PCOD8166498
Probable space group: P M M 2
;
_chemical_formula_sum "Si O2"
_cell_formula_units_Z 32
_cell_length_a 14.044421
_cell_length_b 8.916553
_cell_length_c 13.086426
_cell_angle_alpha 90.000000
_cell_angle_beta 90.000000
_cell_angle_gamma 90.000000
_cell_volume 1638.784655
_symmetry_space_group_name_H-M "P M M 2"
_symmetry_group_IT_number 25
_symmetry_cell_setting 'orthorhombic'
loop_
_space_group_symop_operation_xyz
x,y,z
-x,-y,z
-x,y,z
x,-y,z
loop_
_atom_site_type_symbol
_atom_site_label
_atom_site_fract_x
_atom_site_fract_y
_atom_site_fract_z
Si Si1 0.887112 0.331854 0.554710
Si Si2 0.723939 0.678361 0.251472
Si Si3 0.393630 0.677325 0.666782
Si Si4 0.607889 0.678157 0.054710
Si Si5 0.890472 0.823546 0.762327
Si Si6 0.890472 0.823546 0.347093
Si Si7 0.723939 0.321639 0.857948
Si Si8 0.393630 0.322675 0.442638
O O1 0.843373 0.500000 0.554710
O O2 0.852507 0.247141 0.656197
O O3 0.852507 0.247141 0.453222
O O4 0.000000 0.337726 0.554710
O O5 0.735626 0.500000 0.250123
O O6 0.665069 0.735509 0.153688
O O7 0.828509 0.753956 0.254301
O O8 0.670300 0.741772 0.351711
O O9 0.500000 0.744008 0.676968
O O10 0.399409 0.500000 0.678643
O O11 0.329700 0.741772 0.757709
O O12 0.350939 0.720106 0.554710
O O13 0.500000 0.743233 0.054710
O O14 0.602368 0.500000 0.054710
O O15 0.665069 0.735509 0.955731
O O16 0.828509 0.753956 0.855119
O O17 0.000000 0.780479 0.783268
O O18 0.876660 0.000000 0.756000
O O19 0.000000 0.780479 0.326152
O O20 0.876660 0.000000 0.353420
O O21 0.735626 0.500000 0.859297
O O22 0.500000 0.255992 0.432452
O O23 0.399409 0.500000 0.430777
#
# Coordination Sequence:
#
# PCOD8166498 Si02
#       8
#     4   4   4   4   4   4   4   4
#     4   9  17  31  53  79 106 139 180 223 263 312
#     4  10  19  31  53  80 105 138 183 228 272 321
#     4   8  14  25  43  71 104 132 163 209 264 322
#     4   9  18  34  56  83 112 140 177 229 282 331
#     4  10  21  36  52  74 109 149 184 221 271 327
#     4  10  21  36  52  74 109 149 184 221 271 327
#     4  10  19  31  53  80 105 138 183 228 272 321
#     4   8  14  25  43  71 104 132 163 209 264 322
#
# _framework density 19.526667
#
# number of rings (size 3 to 8) (size 9 to 14) (size 15 to 20)
#    0.000    2.750    0.000    2.625    1.750    6.000 
#    0.000    1.250    0.000    7.500    0.000    1.750 
#    0.000    0.000    0.000    0.000    0.000    0.000 
#
# Total GULP energy -396698.849056 kJ/mol
# GULP energy per Si atom -12396.839033 kJ/mol
# Density = 1.948222 g / cm^3
# Si number density = 19.526667 Si / 1000 Ang^3
#
#
#
# Elastic Constant Matrix: (Units=GPa)
#
#
# Indices 1 2 3 4 5 6 
#
# 1 116.3749 37.3025 86.6742 0.0000 0.0000 0.0000
# 2 37.3025 48.7797 33.0026 0.0000 0.0000 0.0000
# 3 86.6742 33.0026 148.6177 0.0000 0.0000 0.0000
# 4 0.0000 0.0000 0.0000 14.8273 0.0000 0.0000
# 5 0.0000 0.0000 0.0000 0.0000 38.7242 0.0000
# 6 0.0000 0.0000 0.0000 0.0000 0.0000 14.4673
#
#
#
# Elastic Compliance Matrix: (Units=1/GPa)
#
#
# Indices 1 2 3 4 5 6 
#
# 1 0.017253 -0.007515 -0.008393 0.000000 0.000000 0.000000
# 2 -0.007515 0.027398 -0.001701 0.000000 0.000000 0.000000
# 3 -0.008393 -0.001701 0.012001 0.000000 0.000000 0.000000
# 4 0.000000 0.000000 0.000000 0.067443 0.000000 0.000000
# 5 0.000000 0.000000 0.000000 0.000000 0.025824 0.000000
# 6 0.000000 0.000000 0.000000 0.000000 0.000000 0.069121
#
#
# Mechanical properties :
#
#
# Convention : Reuss Voigt Hill
#
# Bulk Modulus (GPa) = 46.65597 69.74789 58.20193
# Shear Modulus (GPa) = 19.12747 24.05661 21.59204
#
# Velocity S-wave (km/s) = 3.13318 3.51378 3.32892
# Velocity P-wave (km/s) = 6.08559 7.22904 6.68182
#
# Compressibility (1/GPa) = 0.02143348
#
# Stress axis : x y z
#
# Youngs Moduli (GPa) = 57.96177 36.49867 83.32404
#
# Poissons Ratio (x) = 0.27429 0.69934
# Poissons Ratio (y) = 0.43558 0.14177
# Poissons Ratio (z) = 0.48648 0.06210
#
# Static dielectric constant tensor:
#      x y z
#    x 3.772720 0.000000 0.000000 
#    y 0.000000 3.058750 0.000000 
#    z 0.000000 0.000000 3.648100 
# 
# 
# High freq. dielectric constant tensor:
#      x y z
#    x 1.774020 0.000000 0.000000 
#    y 0.000000 1.710980 0.000000 
#    z 0.000000 0.000000 1.749030 
# 
# From -- ./inp_files/4201.got.cif
#   From: 2010.03.12/outbox.cif.g09.slc.cpg/sg25_3_cif.got.tgz:4201.got - 2010.04.14 03:30:10.
