data_PCOD8166068
_publ_section_title
;
Structure prediction by ZEFSAII (Michael W. Deem and Ramdas Pophale) SiO2 
 PCOD8166068
Probable space group: I 21 21 21
;
_chemical_formula_sum "Si O2"
_cell_formula_units_Z 48
_cell_length_a 9.060358
_cell_length_b 30.782133
_cell_length_c 9.641146
_cell_angle_alpha 90.000000
_cell_angle_beta 90.000000
_cell_angle_gamma 90.000000
_cell_volume 2688.888094
_symmetry_space_group_name_H-M "I 21 21 21"
_symmetry_group_IT_number 24
_symmetry_cell_setting 'orthorhombic'
loop_
_space_group_symop_operation_xyz
x,y,z
-x,1/2-y,z
x,-y,1/2-z
1/2-x,y,-z
1/2+x,1/2+y,1/2+z
1/2-x,-y,1/2+z
1/2+x,1/2-y,-z
-x,1/2+y,1/2-z
loop_
_atom_site_type_symbol
_atom_site_label
_atom_site_fract_x
_atom_site_fract_y
_atom_site_fract_z
Si Si1 0.083234 0.372731 0.795012
Si Si2 0.068436 0.636140 0.290518
Si Si3 0.575824 0.429374 0.986149
Si Si4 0.920312 0.204933 0.989404
Si Si5 0.422599 0.393808 0.508536
Si Si6 0.102221 0.509553 0.087899
O O1 0.259909 0.377810 0.807124
O O2 0.039754 0.325871 0.858687
O O3 0.016138 0.378130 0.640156
O O4 0.007378 0.411138 0.879465
O O5 0.031548 0.681202 0.367759
O O6 0.970752 0.597867 0.352450
O O7 0.023621 0.639713 0.128368
O O8 0.527995 0.478858 0.965893
O O9 0.750000 0.426621 0.000000
O O10 0.000000 0.250000 0.968876
O O11 0.750000 0.215826 0.000000
O O12 0.250000 0.390179 0.500000
O O13 0.462562 0.442542 0.556648
O O14 0.136569 0.500000 0.250000
O O15 0.250000 0.501000 0.000000
#
# Coordination Sequence:
#
# PCOD8166068 Si02
#       6
#     8   8   8   8   8   8
#     4   9  19  36  58  80 100 139 184 222 261 319
#     4   9  17  36  58  78 102 135 183 222 257 319
#     4  11  22  35  51  75 111 148 176 219 267 316
#     4   9  18  32  55  80 105 134 171 219 264 322
#     4   9  18  33  57  80 100 134 183 232 266 296
#     4  11  22  36  57  81 104 141 190 234 261 307
#
# _framework density 17.851244999999999
#
# number of rings (size 3 to 8) (size 9 to 14) (size 15 to 20)
#    0.000    2.333    1.667    2.500    4.667    2.667 
#    3.000    1.667    0.000    0.000    0.000    0.000 
#    0.000    0.000    0.000    0.000    0.000    0.000 
#
# Total GULP energy -297439.609733 kJ/mol
# GULP energy per Si atom -12393.317072 kJ/mol
# Density = 1.781061 g / cm^3
# Si number density = 17.851245 Si / 1000 Ang^3
#
#
#
# Elastic Constant Matrix: (Units=GPa)
#
#
# Indices 1 2 3 4 5 6 
#
# 1 58.1712 32.0025 34.6315 0.0019 0.0000 0.0001
# 2 32.0025 108.5297 81.3770 0.0045 -0.0002 -0.0005
# 3 34.6315 81.3770 171.5655 0.0161 -0.0006 -0.0004
# 4 0.0019 0.0045 0.0161 17.6512 -0.0017 0.0002
# 5 0.0000 -0.0002 -0.0006 -0.0017 5.2879 0.0022
# 6 0.0001 -0.0005 -0.0004 0.0002 0.0022 24.2441
#
#
#
# Elastic Compliance Matrix: (Units=1/GPa)
#
#
# Indices 1 2 3 4 5 6 
#
# 1 0.020959 -0.004668 -0.002016 0.000001 0.000000 0.000000
# 2 -0.004668 0.015340 -0.006334 0.000002 0.000000 0.000000
# 3 -0.002016 -0.006334 0.009240 -0.000007 0.000001 0.000000
# 4 0.000001 0.000002 -0.000007 0.056653 0.000018 -0.000001
# 5 0.000000 0.000000 0.000001 0.000018 0.189110 -0.000017
# 6 0.000000 0.000000 0.000000 -0.000001 -0.000017 0.041247
#
#
# Mechanical properties :
#
#
# Convention : Reuss Voigt Hill
#
# Bulk Modulus (GPa) = 51.27664 70.47646 60.87655
# Shear Modulus (GPa) = 13.69537 22.12034 17.90786
#
# Velocity S-wave (km/s) = 2.77283 3.52397 3.17072
# Velocity P-wave (km/s) = 6.24806 7.49156 6.89789
#
# Compressibility (1/GPa) = 0.01950206
#
# Stress axis : x y z
#
# Youngs Moduli (GPa) = 47.71128 65.19056 108.22690
#
# Poissons Ratio (x) = 0.30434 0.21823
# Poissons Ratio (y) = 0.22274 0.68546
# Poissons Ratio (z) = 0.09621 0.41289
#
# Static dielectric constant tensor:
#      x y z
#    x 3.010510 0.000000 0.000000 
#    y 0.000000 3.241070 -0.000010 
#    z 0.000000 -0.000010 4.241520 
# 
# 
# High freq. dielectric constant tensor:
#      x y z
#    x 1.660450 0.000000 0.000000 
#    y 0.000000 1.679550 0.000000 
#    z 0.000000 0.000000 1.705190 
# 
# From -- ./inp_files/9768.got.cif
#   From: 2010.03.12/outbox.cif.g09.slc.cpg/sg24_5_cif.got.tgz:9768.got - 2010.04.14 03:06:53.
