data_PCOD8166519
_publ_section_title
;
Structure prediction by ZEFSAII (Michael W. Deem and Ramdas Pophale) SiO2 
 PCOD8166519
Probable space group: P M M 2
;
_chemical_formula_sum "Si O2"
_cell_formula_units_Z 32
_cell_length_a 15.481624
_cell_length_b 9.084476
_cell_length_c 11.771973
_cell_angle_alpha 90.000000
_cell_angle_beta 90.000000
_cell_angle_gamma 90.000000
_cell_volume 1655.639026
_symmetry_space_group_name_H-M "P M M 2"
_symmetry_group_IT_number 25
_symmetry_cell_setting 'orthorhombic'
loop_
_space_group_symop_operation_xyz
x,y,z
-x,-y,z
-x,y,z
x,-y,z
loop_
_atom_site_type_symbol
_atom_site_label
_atom_site_fract_x
_atom_site_fract_y
_atom_site_fract_z
Si Si1 0.406953 0.664019 0.592950
Si Si2 0.172964 0.828769 0.531209
Si Si3 0.251734 0.675032 0.995769
Si Si4 0.248564 0.327270 0.733885
Si Si5 0.601820 0.174429 0.142650
Si Si6 0.097498 0.660767 0.345321
Si Si7 0.346663 0.169933 0.392724
Si Si8 0.898297 0.172417 0.126612
O O1 0.500000 0.667827 0.653061
O O2 0.378690 0.500000 0.558634
O O3 0.340680 0.726176 0.685133
O O4 0.414220 0.754447 0.476692
O O5 0.180013 0.763578 0.658228
O O6 0.097571 0.740502 0.467795
O O7 0.252958 0.795218 0.445956
O O8 0.151671 0.000000 0.541214
O O9 0.253794 0.500000 0.014881
O O10 0.248710 0.718967 0.863914
O O11 0.338491 0.744349 0.049775
O O12 0.161337 0.741154 0.038437
O O13 0.230479 0.500000 0.719094
O O14 0.500000 0.217628 0.129403
O O15 0.638888 0.228307 0.264799
O O16 0.613417 0.000000 0.127591
O O17 0.145102 0.500000 0.346937
O O18 0.134528 0.769949 0.249085
O O19 0.000000 0.630810 0.311639
O O20 0.368671 0.000000 0.394025
O O21 0.000000 0.202191 0.101667
O O22 0.877501 0.000000 0.121358
#
# Coordination Sequence:
#
# PCOD8166519 Si02
#       8
#     4   4   4   4   4   4   4   4
#     4   9  17  30  50  74  99 130 170 218 268 315
#     4  10  19  32  54  81 107 139 177 219 269 323
#     4  11  23  38  58  81 108 147 191 237 286 334
#     4   9  20  37  53  72 102 141 183 225 270 321
#     4  10  21  36  54  78 112 152 188 227 279 337
#     4  10  20  34  55  84 115 142 170 210 262 323
#     4   9  18  32  50  74 103 134 170 214 266 322
#     4  10  21  38  61  87 114 144 180 226 280 338
#
# _framework density 19.327884000000001
#
# number of rings (size 3 to 8) (size 9 to 14) (size 15 to 20)
#    0.000    2.250    0.000    2.625    0.000    6.000 
#    0.000    1.875    0.000    0.750    0.000    0.000 
#    0.000    0.000    0.000    0.000    0.000    0.000 
#
# Total GULP energy -396561.079238 kJ/mol
# GULP energy per Si atom -12392.533726 kJ/mol
# Density = 1.928389 g / cm^3
# Si number density = 19.327884 Si / 1000 Ang^3
#
#
#
# Elastic Constant Matrix: (Units=GPa)
#
#
# Indices 1 2 3 4 5 6 
#
# 1 58.8897 34.9165 43.6271 0.0000 0.0000 0.0000
# 2 34.9165 90.6831 65.9403 0.0000 0.0000 0.0000
# 3 43.6271 65.9403 159.9533 0.0000 0.0000 0.0000
# 4 0.0000 0.0000 0.0000 31.5662 0.0000 0.0000
# 5 0.0000 0.0000 0.0000 0.0000 21.4336 0.0000
# 6 0.0000 0.0000 0.0000 0.0000 0.0000 26.0200
#
#
#
# Elastic Compliance Matrix: (Units=1/GPa)
#
#
# Indices 1 2 3 4 5 6 
#
# 1 0.023543 -0.006277 -0.003833 0.000000 0.000000 0.000000
# 2 -0.006277 0.017422 -0.005470 0.000000 0.000000 0.000000
# 3 -0.003833 -0.005470 0.009552 0.000000 0.000000 0.000000
# 4 0.000000 0.000000 0.000000 0.031679 0.000000 0.000000
# 5 0.000000 0.000000 0.000000 0.000000 0.046656 0.000000
# 6 0.000000 0.000000 0.000000 0.000000 0.000000 0.038432
#
#
# Mechanical properties :
#
#
# Convention : Reuss Voigt Hill
#
# Bulk Modulus (GPa) = 51.66498 66.49932 59.08215
# Shear Modulus (GPa) = 24.40242 26.80677 25.60460
#
# Velocity S-wave (km/s) = 3.55709 3.72822 3.64366
# Velocity P-wave (km/s) = 6.60752 7.28103 6.95244
#
# Compressibility (1/GPa) = 0.01935547
#
# Stress axis : x y z
#
# Youngs Moduli (GPa) = 42.47587 57.39883 104.68592
#
# Poissons Ratio (x) = 0.36031 0.40131
# Poissons Ratio (y) = 0.26664 0.57263
# Poissons Ratio (z) = 0.16283 0.31397
#
# Static dielectric constant tensor:
#      x y z
#    x 3.495250 0.000000 0.000000 
#    y 0.000000 3.662810 0.000000 
#    z 0.000000 0.000000 3.517610 
# 
# 
# High freq. dielectric constant tensor:
#      x y z
#    x 1.746300 0.000000 0.000000 
#    y 0.000000 1.757160 0.000000 
#    z 0.000000 0.000000 1.744710 
# 
# From -- ./inp_files/5072.got.cif
#   From: 2010.03.12/outbox.cif.g09.slc.cpg/sg25_3_cif.got.tgz:5072.got - 2010.04.14 03:30:10.
