data_PCOD8166441
_publ_section_title
;
Structure prediction by ZEFSAII (Michael W. Deem and Ramdas Pophale) SiO2 
 PCOD8166441
Probable space group: P M M 2
;
_chemical_formula_sum "Si O2"
_cell_formula_units_Z 32
_cell_length_a 8.953135
_cell_length_b 15.405802
_cell_length_c 15.317824
_cell_angle_alpha 90.000000
_cell_angle_beta 90.000000
_cell_angle_gamma 90.000000
_cell_volume 2112.790912
_symmetry_space_group_name_H-M "P M M 2"
_symmetry_group_IT_number 25
_symmetry_cell_setting 'orthorhombic'
loop_
_space_group_symop_operation_xyz
x,y,z
-x,-y,z
-x,y,z
x,-y,z
loop_
_atom_site_type_symbol
_atom_site_label
_atom_site_fract_x
_atom_site_fract_y
_atom_site_fract_z
Si Si1 0.325875 0.595329 0.467470
Si Si2 0.168017 0.103214 0.776439
Si Si3 0.169711 0.591922 0.287826
Si Si4 0.325666 0.101510 0.600450
Si Si5 0.668178 0.103332 0.947369
Si Si6 0.177085 0.769023 0.470006
Si Si7 0.823550 0.099607 0.123179
Si Si8 0.827657 0.777314 0.270812
O O1 0.500000 0.615462 0.478373
O O2 0.287396 0.500000 0.509848
O O3 0.286250 0.589762 0.365940
O O4 0.234660 0.676286 0.508718
O O5 0.259812 0.134603 0.692287
O O6 0.245851 0.141349 0.863218
O O7 0.000000 0.139886 0.770580
O O8 0.166735 0.000000 0.781004
O O9 0.185676 0.500000 0.234676
O O10 0.199480 0.679334 0.231919
O O11 0.000000 0.599572 0.326084
O O12 0.500000 0.122315 0.599792
O O13 0.245352 0.151620 0.522825
O O14 0.293219 0.000000 0.586457
O O15 0.500000 0.139409 0.946490
O O16 0.669664 0.000000 0.943760
O O17 0.749514 0.135504 0.034894
O O18 0.234003 0.781715 0.369879
O O19 0.000000 0.771315 0.477693
O O20 0.753621 0.154162 0.204241
O O21 0.000000 0.112142 0.112900
O O22 0.780737 0.000000 0.140495
O O23 0.000000 0.802140 0.274265
#
# Coordination Sequence:
#
# PCOD8166441 Si02
#       8
#     4   4   4   4   4   4   4   4
#     4   9  16  26  41  60  81 105 134 171 216 260
#     4   9  16  27  44  63  80 101 132 168 206 248
#     4   8  13  23  39  56  74  98 130 169 211 250
#     4  10  20  32  44  60  85 115 144 175 210 247
#     4   9  16  26  40  58  79 101 127 163 206 246
#     4  10  19  30  44  61  83 113 148 182 212 246
#     4   9  16  26  39  54  75 105 138 168 197 234
#     4   8  15  26  39  56  77 104 139 174 204 235
#
# _framework density 15.145842999999999
#
# number of rings (size 3 to 8) (size 9 to 14) (size 15 to 20)
#    0.000    3.000    0.000    2.625    0.000    5.000 
#    0.000    4.375    0.000    1.500    0.000    0.000 
#    0.000    1.000    0.000    5.000    0.000    3.875 
#
# Total GULP energy -396445.199556 kJ/mol
# GULP energy per Si atom -12388.912486 kJ/mol
# Density = 1.511137 g / cm^3
# Si number density = 15.145843 Si / 1000 Ang^3
#
#
#
# Elastic Constant Matrix: (Units=GPa)
#
#
# Indices 1 2 3 4 5 6 
#
# 1 77.6076 36.9700 39.0610 0.0000 0.0000 0.0000
# 2 36.9700 76.8726 52.1039 0.0000 0.0000 0.0000
# 3 39.0610 52.1039 92.9655 0.0000 0.0000 0.0000
# 4 0.0000 0.0000 0.0000 1.5867 0.0000 0.0000
# 5 0.0000 0.0000 0.0000 0.0000 15.7119 0.0000
# 6 0.0000 0.0000 0.0000 0.0000 0.0000 17.9182
#
#
#
# Elastic Compliance Matrix: (Units=1/GPa)
#
#
# Indices 1 2 3 4 5 6 
#
# 1 0.017722 -0.005605 -0.004305 0.000000 0.000000 0.000000
# 2 -0.005605 0.022750 -0.010396 0.000000 0.000000 0.000000
# 3 -0.004305 -0.010396 0.018392 0.000000 0.000000 0.000000
# 4 0.000000 0.000000 0.000000 0.630244 0.000000 0.000000
# 5 0.000000 0.000000 0.000000 0.000000 0.063646 0.000000
# 6 0.000000 0.000000 0.000000 0.000000 0.000000 0.055809
#
#
# Mechanical properties :
#
#
# Convention : Reuss Voigt Hill
#
# Bulk Modulus (GPa) = 54.78541 55.96837 55.37689
# Shear Modulus (GPa) = 5.84618 14.99741 10.42180
#
# Velocity S-wave (km/s) = 1.96680 3.15016 2.62600
# Velocity P-wave (km/s) = 6.43492 7.08975 6.77025
#
# Compressibility (1/GPa) = 0.01825303
#
# Stress axis : x y z
#
# Youngs Moduli (GPa) = 56.42654 43.95527 54.37235
#
# Poissons Ratio (x) = 0.24639 0.23405
# Poissons Ratio (y) = 0.31629 0.56523
# Poissons Ratio (z) = 0.24290 0.45694
#
# Static dielectric constant tensor:
#      x y z
#    x 2.938090 0.000000 0.000000 
#    y 0.000000 3.034360 0.000000 
#    z 0.000000 0.000000 2.822220 
# 
# 
# High freq. dielectric constant tensor:
#      x y z
#    x 1.583610 0.000000 0.000000 
#    y 0.000000 1.559480 0.000000 
#    z 0.000000 0.000000 1.547440 
# 
# From -- ./inp_files/5071.got.cif
#   From: 2010.03.12/outbox.cif.g09.slc.cpg/sg25_3_cif.got.tgz:5071.got - 2010.04.14 03:30:10.
