data_PCOD8166758
_publ_section_title
;
Structure prediction by ZEFSAII (Michael W. Deem and Ramdas Pophale) SiO2 
 PCOD8166758
Probable space group: P M M 2
;
_chemical_formula_sum "Si O2"
_cell_formula_units_Z 32
_cell_length_a 8.993474
_cell_length_b 16.029455
_cell_length_c 11.565104
_cell_angle_alpha 90.000000
_cell_angle_beta 90.000000
_cell_angle_gamma 90.000000
_cell_volume 1667.231022
_symmetry_space_group_name_H-M "P M M 2"
_symmetry_group_IT_number 25
_symmetry_cell_setting 'orthorhombic'
loop_
_space_group_symop_operation_xyz
x,y,z
-x,-y,z
-x,y,z
x,-y,z
loop_
_atom_site_type_symbol
_atom_site_label
_atom_site_fract_x
_atom_site_fract_y
_atom_site_fract_z
Si Si1 0.675619 0.596942 0.344840
Si Si2 0.829069 0.844776 0.071244
Si Si3 0.326882 0.693580 0.950342
Si Si4 0.671562 0.769318 0.710746
Si Si5 0.162046 0.596064 0.116271
Si Si6 0.824057 0.747915 0.472022
Si Si7 0.823517 0.094109 0.319568
Si Si8 0.163961 0.907597 0.828525
O O1 0.500000 0.607535 0.349967
O O2 0.719426 0.500000 0.372938
O O3 0.732827 0.626841 0.219926
O O4 0.749495 0.661449 0.433131
O O5 0.767191 0.884736 0.189875
O O6 0.000000 0.818223 0.088852
O O7 0.734808 0.764322 0.036192
O O8 0.810962 0.910501 0.966788
O O9 0.500000 0.685532 0.971409
O O10 0.291722 0.705124 0.814765
O O11 0.242712 0.610988 0.993251
O O12 0.500000 0.764139 0.671690
O O13 0.781327 0.754000 0.605692
O O14 0.704942 0.859893 0.763442
O O15 0.134772 0.500000 0.129841
O O16 0.000000 0.640883 0.122899
O O17 0.766206 0.832006 0.405661
O O18 0.000000 0.739550 0.457754
O O19 0.000000 0.091931 0.323259
O O20 0.764859 0.000000 0.353386
O O21 0.000000 0.868063 0.802533
O O22 0.169609 0.000000 0.778837
#
# Coordination Sequence:
#
# PCOD8166758 Si02
#       8
#     4   4   4   4   4   4   4   4
#     4  10  21  38  61  87 115 147 181 220 270 329
#     4   9  16  29  52  78 104 135 171 216 271 329
#     4  10  20  34  53  76 104 139 176 218 271 328
#     4  10  22  38  53  72 102 142 186 228 273 329
#     4  10  20  34  55  84 114 139 167 209 261 320
#     4  11  22  36  57  82 109 146 190 237 282 322
#     4   9  18  32  51  78 110 142 178 220 268 323
#     4   9  17  30  51  78 104 133 174 224 276 330
#
# _framework density 19.193501000000001
#
# number of rings (size 3 to 8) (size 9 to 14) (size 15 to 20)
#    0.000    2.250    0.000    3.000    0.000    6.250 
#    0.000    2.500    0.000    4.500    0.000    0.000 
#    0.000    0.000    0.000    0.000    0.000    0.000 
#
# Total GULP energy -396554.553648 kJ/mol
# GULP energy per Si atom -12392.329801 kJ/mol
# Density = 1.914982 g / cm^3
# Si number density = 19.193501 Si / 1000 Ang^3
#
#
#
# Elastic Constant Matrix: (Units=GPa)
#
#
# Indices 1 2 3 4 5 6 
#
# 1 77.6505 33.9490 45.8194 0.0000 0.0000 0.0000
# 2 33.9490 69.8218 48.9259 0.0000 0.0000 0.0000
# 3 45.8194 48.9259 111.7577 0.0000 0.0000 0.0000
# 4 0.0000 0.0000 0.0000 14.4103 0.0000 0.0000
# 5 0.0000 0.0000 0.0000 0.0000 28.5748 0.0000
# 6 0.0000 0.0000 0.0000 0.0000 0.0000 22.9615
#
#
#
# Elastic Compliance Matrix: (Units=1/GPa)
#
#
# Indices 1 2 3 4 5 6 
#
# 1 0.018222 -0.005229 -0.005182 0.000000 0.000000 0.000000
# 2 -0.005229 0.022161 -0.007558 0.000000 0.000000 0.000000
# 3 -0.005182 -0.007558 0.014381 0.000000 0.000000 0.000000
# 4 0.000000 0.000000 0.000000 0.069395 0.000000 0.000000
# 5 0.000000 0.000000 0.000000 0.000000 0.034996 0.000000
# 6 0.000000 0.000000 0.000000 0.000000 0.000000 0.043551
#
#
# Mechanical properties :
#
#
# Convention : Reuss Voigt Hill
#
# Bulk Modulus (GPa) = 53.11595 57.40205 55.25900
# Shear Modulus (GPa) = 20.41503 21.89169 21.15336
#
# Velocity S-wave (km/s) = 3.26489 3.38091 3.32341
# Velocity P-wave (km/s) = 6.47663 6.72404 6.60149
#
# Compressibility (1/GPa) = 0.01882674
#
# Stress axis : x y z
#
# Youngs Moduli (GPa) = 54.87920 45.12521 69.53634
#
# Poissons Ratio (x) = 0.23596 0.36031
# Poissons Ratio (y) = 0.28697 0.52554
# Poissons Ratio (z) = 0.28436 0.34104
#
# Static dielectric constant tensor:
#      x y z
#    x 3.616170 0.000000 0.000000 
#    y 0.000000 3.607910 0.000000 
#    z 0.000000 0.000000 3.562570 
# 
# 
# High freq. dielectric constant tensor:
#      x y z
#    x 1.738070 0.000000 0.000000 
#    y 0.000000 1.742470 0.000000 
#    z 0.000000 0.000000 1.740670 
# 
# From -- ./inp_files/4459.got.cif
#   From: 2010.03.12/outbox.cif.g09.slc.cpg/sg25_3_cif.got.tgz:4459.got - 2010.04.14 03:30:10.
