data_PCOD8166042
_publ_section_title
;
Structure prediction by ZEFSAII (Michael W. Deem and Ramdas Pophale) SiO2 
 PCOD8166042
Probable space group: I 21 21 21
;
_chemical_formula_sum "Si O2"
_cell_formula_units_Z 56
_cell_length_a 20.614859
_cell_length_b 9.210402
_cell_length_c 13.726373
_cell_angle_alpha 90.000000
_cell_angle_beta 90.000000
_cell_angle_gamma 90.000000
_cell_volume 2606.242070
_symmetry_space_group_name_H-M "I 21 21 21"
_symmetry_group_IT_number 24
_symmetry_cell_setting 'orthorhombic'
loop_
_space_group_symop_operation_xyz
x,y,z
-x,1/2-y,z
x,-y,1/2-z
1/2-x,y,-z
1/2+x,1/2+y,1/2+z
1/2-x,-y,1/2+z
1/2+x,1/2-y,-z
-x,1/2+y,1/2-z
loop_
_atom_site_type_symbol
_atom_site_label
_atom_site_fract_x
_atom_site_fract_y
_atom_site_fract_z
Si Si1 0.360911 0.993893 0.646265
Si Si2 0.323412 0.736446 0.521513
Si Si3 0.596929 0.651981 0.151372
Si Si4 0.931827 0.319197 0.867007
Si Si5 0.256297 0.819099 0.114042
Si Si6 0.824845 0.052049 0.359444
Si Si7 0.928119 0.740892 0.049821
O O1 0.351871 0.830984 0.609751
O O2 0.398341 0.000000 0.750000
O O3 0.293381 0.075469 0.668145
O O4 0.402196 0.077735 0.565149
O O5 0.250000 0.790743 0.500000
O O6 0.371309 0.752290 0.428465
O O7 0.319090 0.573706 0.560927
O O8 0.566073 0.494157 0.129214
O O9 0.575832 0.723198 0.253324
O O10 0.674192 0.637385 0.153784
O O11 0.575411 0.765377 0.066990
O O12 0.000000 0.250000 0.905235
O O13 0.240043 0.650162 0.136222
O O14 0.250000 0.849649 0.000000
O O15 0.886706 0.145683 0.389795
O O16 0.835606 0.000000 0.250000
O O17 0.000000 0.750000 0.090533
#
# Coordination Sequence:
#
# PCOD8166042 Si02
#       7
#     8   8   8   8   8   8   8
#     4  11  23  40  69  98 131 174 230 288 351 416
#     4  12  25  42  67 108 140 177 233 300 352 407
#     4  11  23  45  72  99 137 189 233 273 356 437
#     4  11  26  45  70 107 141 182 235 297 351 419
#     4  11  20  43  70  98 133 183 230 276 353 427
#     4  11  26  44  65 102 145 176 229 298 359 409
#     4  11  24  45  70  92 130 191 234 278 342 436
#
# _framework density 21.486877
#
# number of rings (size 3 to 8) (size 9 to 14) (size 15 to 20)
#    0.000    0.857    4.286    3.857    8.000    0.571 
#    0.000    1.429    0.000    0.000    0.000    0.000 
#    0.000    0.000    0.000    0.000    0.000    0.000 
#
# Total GULP energy -347189.586357 kJ/mol
# GULP energy per Si atom -12399.628084 kJ/mol
# Density = 2.143797 g / cm^3
# Si number density = 21.486877 Si / 1000 Ang^3
#
#
#
# Elastic Constant Matrix: (Units=GPa)
#
#
# Indices 1 2 3 4 5 6 
#
# 1 136.2288 28.7198 21.2141 0.0000 0.0000 0.0000
# 2 28.7198 95.5749 22.4590 0.0000 0.0000 0.0000
# 3 21.2141 22.4590 126.6084 0.0000 0.0000 0.0000
# 4 0.0000 0.0000 0.0000 34.3881 0.0000 0.0000
# 5 0.0000 0.0000 0.0000 0.0000 25.1566 0.0000
# 6 0.0000 0.0000 0.0000 0.0000 0.0000 21.5818
#
#
#
# Elastic Compliance Matrix: (Units=1/GPa)
#
#
# Indices 1 2 3 4 5 6 
#
# 1 0.007944 -0.002165 -0.000947 0.000000 0.000000 0.000000
# 2 -0.002165 0.011508 -0.001679 0.000000 0.000000 0.000000
# 3 -0.000947 -0.001679 0.008355 0.000000 0.000000 0.000000
# 4 0.000000 0.000000 0.000000 0.029080 0.000000 0.000000
# 5 0.000000 0.000000 0.000000 0.000000 0.039751 0.000000
# 6 0.000000 0.000000 0.000000 0.000000 0.000000 0.046335
#
#
# Mechanical properties :
#
#
# Convention : Reuss Voigt Hill
#
# Bulk Modulus (GPa) = 54.86612 55.91090 55.38851
# Shear Modulus (GPa) = 31.51991 35.29324 33.40657
#
# Velocity S-wave (km/s) = 3.83422 4.05723 3.94730
# Velocity P-wave (km/s) = 6.72248 6.93005 6.82706
#
# Compressibility (1/GPa) = 0.01822618
#
# Stress axis : x y z
#
# Youngs Moduli (GPa) = 125.87405 86.89645 119.69091
#
# Poissons Ratio (x) = 0.18810 0.11337
# Poissons Ratio (y) = 0.27248 0.20092
# Poissons Ratio (z) = 0.11922 0.14587
#
# Static dielectric constant tensor:
#      x y z
#    x 4.006800 0.000000 0.000000 
#    y 0.000000 3.857510 0.000000 
#    z 0.000000 0.000000 4.027030 
# 
# 
# High freq. dielectric constant tensor:
#      x y z
#    x 1.837060 0.000000 0.000000 
#    y 0.000000 1.839560 0.000000 
#    z 0.000000 0.000000 1.858910 
# 
# From -- ./inp_files/27525.got.cif
#   From: 2010.03.12/outbox.cif.g09.slc.cpg/sg24_14_cif.got.tgz:27525.got - 2010.04.14 03:06:53.
