data_PCOD8166162
_publ_section_title
;
Structure prediction by ZEFSAII (Michael W. Deem and Ramdas Pophale) SiO2 
 PCOD8166162
Probable space group: I 21 21 21
;
_chemical_formula_sum "Si O2"
_cell_formula_units_Z 44
_cell_length_a 17.001058
_cell_length_b 8.189625
_cell_length_c 13.659248
_cell_angle_alpha 90.000000
_cell_angle_beta 90.000000
_cell_angle_gamma 90.000000
_cell_volume 1901.808374
_symmetry_space_group_name_H-M "I 21 21 21"
_symmetry_group_IT_number 24
_symmetry_cell_setting 'orthorhombic'
loop_
_space_group_symop_operation_xyz
x,y,z
-x,1/2-y,z
x,-y,1/2-z
1/2-x,y,-z
1/2+x,1/2+y,1/2+z
1/2-x,-y,1/2+z
1/2+x,1/2-y,-z
-x,1/2+y,1/2-z
loop_
_atom_site_type_symbol
_atom_site_label
_atom_site_fract_x
_atom_site_fract_y
_atom_site_fract_z
Si Si1 0.876199 0.845800 0.681139
Si Si2 0.558410 0.888088 0.534179
Si Si3 0.721293 0.322743 0.609347
Si Si4 0.546714 0.400156 0.652675
Si Si5 0.836299 0.500000 0.750000
Si Si6 0.778566 0.037600 0.108189
O O1 0.923559 0.874642 0.580940
O O2 0.891256 0.660449 0.722937
O O3 0.900632 0.000000 0.750000
O O4 0.782177 0.845342 0.663642
O O5 0.500000 0.750000 0.570695
O O6 0.509884 0.048538 0.561722
O O7 0.636092 0.878033 0.602772
O O8 0.750000 0.311388 0.500000
O O9 0.632241 0.381893 0.606135
O O10 0.779887 0.448757 0.661359
O O11 0.721643 0.141619 0.659876
O O12 0.500000 0.250000 0.696641
O O13 0.557625 0.500000 0.750000
O O14 0.750000 0.003169 0.000000
#
# Coordination Sequence:
#
# PCOD8166162 Si02
#       6
#     8   8   8   8   4   8
#     4  11  25  48  73 107 144 193 250 304 368 434
#     4  11  26  46  69 105 146 196 238 298 376 441
#     4  11  24  44  72 111 141 187 249 304 365 436
#     4  12  26  45  70 104 147 191 241 297 369 444
#     4  12  26  42  78 110 144 190 254 310 360 450
#     4   9  20  43  72  96 138 187 234 296 359 423
#
# _framework density 23.135876
#
# number of rings (size 3 to 8) (size 9 to 14) (size 15 to 20)
#    0.000    1.091    4.545    0.545    5.091    2.909 
#    1.636    0.000    0.000    0.000    0.000    0.000 
#    0.000    0.000    0.000    0.000    0.000    0.000 
#
# Total GULP energy -272555.472308 kJ/mol
# GULP energy per Si atom -12388.885105 kJ/mol
# Density = 2.308322 g / cm^3
# Si number density = 23.135876 Si / 1000 Ang^3
#
#
#
# Elastic Constant Matrix: (Units=GPa)
#
#
# Indices 1 2 3 4 5 6 
#
# 1 100.1177 33.5365 33.3044 0.0000 0.0000 0.0000
# 2 33.5365 133.6034 32.6174 0.0000 0.0000 0.0000
# 3 33.3044 32.6174 76.7333 0.0000 0.0000 0.0000
# 4 0.0000 0.0000 0.0000 33.2048 0.0000 0.0000
# 5 0.0000 0.0000 0.0000 0.0000 32.0764 0.0000
# 6 0.0000 0.0000 0.0000 0.0000 0.0000 33.5434
#
#
#
# Elastic Compliance Matrix: (Units=1/GPa)
#
#
# Indices 1 2 3 4 5 6 
#
# 1 0.012117 -0.001961 -0.004426 0.000000 0.000000 0.000000
# 2 -0.001961 0.008669 -0.002834 0.000000 0.000000 0.000000
# 3 -0.004426 -0.002834 0.016158 0.000000 0.000000 0.000000
# 4 0.000000 0.000000 0.000000 0.030116 0.000000 0.000000
# 5 0.000000 0.000000 0.000000 0.000000 0.031176 0.000000
# 6 0.000000 0.000000 0.000000 0.000000 0.000000 0.029812
#
#
# Mechanical properties :
#
#
# Convention : Reuss Voigt Hill
#
# Bulk Modulus (GPa) = 54.04601 56.59679 55.32140
# Shear Modulus (GPa) = 32.75329 33.83132 33.29230
#
# Velocity S-wave (km/s) = 3.76665 3.82814 3.79752
# Velocity P-wave (km/s) = 6.50599 6.63742 6.57203
#
# Compressibility (1/GPa) = 0.01850275
#
# Stress axis : x y z
#
# Youngs Moduli (GPa) = 82.52605 115.35429 61.89059
#
# Poissons Ratio (x) = 0.22623 0.27390
# Poissons Ratio (y) = 0.16185 0.17538
# Poissons Ratio (z) = 0.36523 0.32688
#
# Static dielectric constant tensor:
#      x y z
#    x 4.331290 0.000000 0.000000 
#    y 0.000000 4.507540 0.000000 
#    z 0.000000 0.000000 4.057440 
# 
# 
# High freq. dielectric constant tensor:
#      x y z
#    x 1.914840 0.000000 0.000000 
#    y 0.000000 1.920980 0.000000 
#    z 0.000000 0.000000 1.920890 
# 
# From -- ./inp_files/26958.got.cif
#   From: 2010.03.12/outbox.cif.g09.slc.cpg/sg24_14_cif.got.tgz:26958.got - 2010.04.14 03:06:53.
