data_PCOD8166454
_publ_section_title
;
Structure prediction by ZEFSAII (Michael W. Deem and Ramdas Pophale) SiO2 
 PCOD8166454
Probable space group: P M M 2
;
_chemical_formula_sum "Si O2"
_cell_formula_units_Z 32
_cell_length_a 9.453860
_cell_length_b 17.701760
_cell_length_c 11.284808
_cell_angle_alpha 90.000000
_cell_angle_beta 90.000000
_cell_angle_gamma 90.000000
_cell_volume 1888.512176
_symmetry_space_group_name_H-M "P M M 2"
_symmetry_group_IT_number 25
_symmetry_cell_setting 'orthorhombic'
loop_
_space_group_symop_operation_xyz
x,y,z
-x,-y,z
-x,y,z
x,-y,z
loop_
_atom_site_type_symbol
_atom_site_label
_atom_site_fract_x
_atom_site_fract_y
_atom_site_fract_z
Si Si1 0.658626 0.586143 0.622290
Si Si2 0.168424 0.087596 0.863692
Si Si3 0.845068 0.199018 0.676243
Si Si4 0.161297 0.581752 0.050478
Si Si5 0.660846 0.802245 0.019115
Si Si6 0.168268 0.301059 0.476926
Si Si7 0.252864 0.678709 0.841199
Si Si8 0.831980 0.283481 0.205748
O O1 0.500000 0.588097 0.571537
O O2 0.708639 0.500000 0.644580
O O3 0.760527 0.621973 0.522696
O O4 0.656351 0.631902 0.746110
O O5 0.224774 0.126215 0.740328
O O6 0.000000 0.102154 0.880589
O O7 0.205570 0.000000 0.858368
O O8 0.255392 0.125054 0.970026
O O9 0.770397 0.230954 0.557064
O O10 0.855967 0.267413 0.771492
O O11 0.000000 0.173643 0.637422
O O12 0.240371 0.500000 0.053592
O O13 0.221997 0.636810 0.151844
O O14 0.000000 0.567520 0.080655
O O15 0.170267 0.618702 0.920996
O O16 0.500000 0.825162 0.050018
O O17 0.744753 0.781506 0.139226
O O18 0.653503 0.732758 0.925856
O O19 0.209753 0.282924 0.342977
O O20 0.000000 0.310318 0.493006
O O21 0.000000 0.271179 0.185122
#
# Coordination Sequence:
#
# PCOD8166454 Si02
#       8
#     4   4   4   4   4   4   4   4
#     4  10  20  31  43  62  90 121 151 191 243 290
#     4   9  17  30  50  75 101 124 143 173 224 279
#     4   8  14  26  45  68  90 113 147 187 225 269
#     4   9  16  25  40  63  88 115 151 197 244 282
#     4  10  19  30  48  72  95 122 156 191 225 268
#     4   9  18  32  49  66  86 119 161 200 232 267
#     4   9  16  28  43  61  88 120 153 188 231 283
#     4   9  18  32  48  65  89 122 159 198 235 271
#
# _framework density 16.944555999999999
#
# number of rings (size 3 to 8) (size 9 to 14) (size 15 to 20)
#    0.000    2.875    0.000    1.500    0.000    5.000 
#    0.000    1.250    0.000    4.125    0.000    3.500 
#    0.000    0.000    0.000    0.000    0.000    0.000 
#
# Total GULP energy -396438.107284 kJ/mol
# GULP energy per Si atom -12388.690853 kJ/mol
# Density = 1.690599 g / cm^3
# Si number density = 16.944556 Si / 1000 Ang^3
#
#
#
# Elastic Constant Matrix: (Units=GPa)
#
#
# Indices 1 2 3 4 5 6 
#
# 1 55.2461 33.4785 32.0726 0.0000 0.0000 0.0000
# 2 33.4785 127.6822 62.1005 0.0000 0.0000 0.0000
# 3 32.0726 62.1005 130.7126 0.0000 0.0000 0.0000
# 4 0.0000 0.0000 0.0000 13.9969 0.0000 0.0000
# 5 0.0000 0.0000 0.0000 0.0000 15.3116 0.0000
# 6 0.0000 0.0000 0.0000 0.0000 0.0000 15.9816
#
#
#
# Elastic Compliance Matrix: (Units=1/GPa)
#
#
# Indices 1 2 3 4 5 6 
#
# 1 0.022734 -0.004224 -0.003571 0.000000 0.000000 0.000000
# 2 -0.004224 0.010970 -0.004176 0.000000 0.000000 0.000000
# 3 -0.003571 -0.004176 0.010510 0.000000 0.000000 0.000000
# 4 0.000000 0.000000 0.000000 0.071444 0.000000 0.000000
# 5 0.000000 0.000000 0.000000 0.000000 0.065310 0.000000
# 6 0.000000 0.000000 0.000000 0.000000 0.000000 0.062572
#
#
# Mechanical properties :
#
#
# Convention : Reuss Voigt Hill
#
# Bulk Modulus (GPa) = 49.32673 63.21602 56.27138
# Shear Modulus (GPa) = 18.23220 21.45729 19.84475
#
# Velocity S-wave (km/s) = 3.28379 3.56240 3.42593
# Velocity P-wave (km/s) = 6.59936 7.36950 6.99504
#
# Compressibility (1/GPa) = 0.02027298
#
# Stress axis : x y z
#
# Youngs Moduli (GPa) = 43.98742 91.15548 95.14352
#
# Poissons Ratio (x) = 0.38502 0.33980
# Poissons Ratio (y) = 0.18579 0.39727
# Poissons Ratio (z) = 0.15710 0.38062
#
# Static dielectric constant tensor:
#      x y z
#    x 2.880590 0.000000 0.000000 
#    y 0.000000 3.260070 0.000000 
#    z 0.000000 0.000000 3.170090 
# 
# 
# High freq. dielectric constant tensor:
#      x y z
#    x 1.627900 0.000000 0.000000 
#    y 0.000000 1.642280 0.000000 
#    z 0.000000 0.000000 1.645650 
# 
# From -- ./inp_files/4419.got.cif
#   From: 2010.03.12/outbox.cif.g09.slc.cpg/sg25_3_cif.got.tgz:4419.got - 2010.04.14 03:30:10.
