data_PCOD8166414
_publ_section_title
;
Structure prediction by ZEFSAII (Michael W. Deem and Ramdas Pophale) SiO2 
 PCOD8166414
Probable space group: P M M 2
;
_chemical_formula_sum "Si O2"
_cell_formula_units_Z 32
_cell_length_a 15.525642
_cell_length_b 9.009943
_cell_length_c 11.973208
_cell_angle_alpha 90.000000
_cell_angle_beta 90.000000
_cell_angle_gamma 90.000000
_cell_volume 1674.873991
_symmetry_space_group_name_H-M "P M M 2"
_symmetry_group_IT_number 25
_symmetry_cell_setting 'orthorhombic'
loop_
_space_group_symop_operation_xyz
x,y,z
-x,-y,z
-x,y,z
x,-y,z
loop_
_atom_site_type_symbol
_atom_site_label
_atom_site_fract_x
_atom_site_fract_y
_atom_site_fract_z
Si Si1 0.845899 0.324891 0.477310
Si Si2 0.253708 0.676327 0.860411
Si Si3 0.750225 0.823744 0.099434
Si Si4 0.401741 0.170707 0.725640
Si Si5 0.593834 0.175055 0.248922
Si Si6 0.903328 0.170207 0.257734
Si Si7 0.333844 0.828859 0.483843
Si Si8 0.905370 0.676066 0.715746
O O1 0.850150 0.500000 0.468066
O O2 0.894878 0.260029 0.371482
O O3 0.747857 0.276080 0.483544
O O4 0.892335 0.266812 0.589438
O O5 0.252782 0.500000 0.867801
O O6 0.339987 0.725245 0.797421
O O7 0.169821 0.739528 0.795145
O O8 0.251061 0.743764 0.982239
O O9 0.668667 0.761655 0.169403
O O10 0.836565 0.773666 0.164286
O O11 0.746816 0.000000 0.081986
O O12 0.500000 0.209831 0.756800
O O13 0.389470 0.199885 0.594234
O O14 0.380999 0.000000 0.755024
O O15 0.500000 0.239432 0.213541
O O16 0.609208 0.217497 0.377705
O O17 0.593603 0.000000 0.235483
O O18 0.000000 0.190974 0.210438
O O19 0.882705 0.000000 0.286389
O O20 0.303843 0.000000 0.474792
O O21 0.899748 0.500000 0.717145
O O22 0.000000 0.729740 0.757422
#
# Coordination Sequence:
#
# PCOD8166414 Si02
#       8
#     4   4   4   4   4   4   4   4
#     4  11  20  33  57  86 117 149 183 225 280 344
#     4  11  23  39  58  81 111 150 193 240 285 331
#     4  10  21  38  57  80 110 147 189 234 281 331
#     4  10  21  37  60  88 116 148 187 232 282 341
#     4   9  17  32  57  84 108 139 179 223 274 330
#     4  10  21  38  59  84 115 149 186 231 282 334
#     4  10  18  33  58  86 115 144 181 229 280 335
#     4   9  19  36  56  79 110 148 186 226 278 337
#
# _framework density 19.105915
#
# number of rings (size 3 to 8) (size 9 to 14) (size 15 to 20)
#    0.000    2.000    2.500    1.500    0.000    4.000 
#    0.000    1.250    0.000    5.250    0.000    0.000 
#    0.000    0.000    0.000    0.000    0.000    0.000 
#
# Total GULP energy -396788.695907 kJ/mol
# GULP energy per Si atom -12399.646747 kJ/mol
# Density = 1.906243 g / cm^3
# Si number density = 19.105915 Si / 1000 Ang^3
#
#
#
# Elastic Constant Matrix: (Units=GPa)
#
#
# Indices 1 2 3 4 5 6 
#
# 1 165.2765 30.9549 78.5259 0.0000 0.0000 0.0000
# 2 30.9549 40.4216 43.1947 0.0000 0.0000 0.0000
# 3 78.5259 43.1947 156.7682 0.0000 0.0000 0.0000
# 4 0.0000 0.0000 0.0000 27.0528 0.0000 0.0000
# 5 0.0000 0.0000 0.0000 0.0000 14.9332 0.0000
# 6 0.0000 0.0000 0.0000 0.0000 0.0000 12.7740
#
#
#
# Elastic Compliance Matrix: (Units=1/GPa)
#
#
# Indices 1 2 3 4 5 6 
#
# 1 0.008137 -0.002659 -0.003343 0.000000 0.000000 0.000000
# 2 -0.002659 0.035932 -0.008569 0.000000 0.000000 0.000000
# 3 -0.003343 -0.008569 0.010414 0.000000 0.000000 0.000000
# 4 0.000000 0.000000 0.000000 0.036965 0.000000 0.000000
# 5 0.000000 0.000000 0.000000 0.000000 0.066965 0.000000
# 6 0.000000 0.000000 0.000000 0.000000 0.000000 0.078284
#
#
# Mechanical properties :
#
#
# Convention : Reuss Voigt Hill
#
# Bulk Modulus (GPa) = 39.46023 74.20192 56.83107
# Shear Modulus (GPa) = 18.22921 24.93805 21.58363
#
# Velocity S-wave (km/s) = 3.09222 3.61675 3.36472
# Velocity P-wave (km/s) = 5.78337 7.50750 6.70112
#
# Compressibility (1/GPa) = 0.02534197
#
# Stress axis : x y z
#
# Youngs Moduli (GPa) = 122.89789 27.83064 96.02056
#
# Poissons Ratio (x) = 0.07399 0.32102
# Poissons Ratio (y) = 0.32673 0.82277
# Poissons Ratio (z) = 0.41088 0.23847
#
# Static dielectric constant tensor:
#      x y z
#    x 3.872520 0.000000 0.000000 
#    y 0.000000 3.208760 0.000000 
#    z 0.000000 0.000000 3.558260 
# 
# 
# High freq. dielectric constant tensor:
#      x y z
#    x 1.760110 0.000000 0.000000 
#    y 0.000000 1.711170 0.000000 
#    z 0.000000 0.000000 1.744180 
# 
# From -- ./inp_files/4169.got.cif
#   From: 2010.03.12/outbox.cif.g09.slc.cpg/sg25_3_cif.got.tgz:4169.got - 2010.04.14 03:30:10.
