data_PCOD8166580
_publ_section_title
;
Structure prediction by ZEFSAII (Michael W. Deem and Ramdas Pophale) SiO2 
 PCOD8166580
Probable space group: P M M 2
;
_chemical_formula_sum "Si O2"
_cell_formula_units_Z 32
_cell_length_a 9.295574
_cell_length_b 9.074897
_cell_length_c 20.858127
_cell_angle_alpha 90.000000
_cell_angle_beta 90.000000
_cell_angle_gamma 90.000000
_cell_volume 1759.516017
_symmetry_space_group_name_H-M "P M M 2"
_symmetry_group_IT_number 25
_symmetry_cell_setting 'orthorhombic'
loop_
_space_group_symop_operation_xyz
x,y,z
-x,-y,z
-x,y,z
x,-y,z
loop_
_atom_site_type_symbol
_atom_site_label
_atom_site_fract_x
_atom_site_fract_y
_atom_site_fract_z
Si Si1 0.329514 0.162721 0.340300
Si Si2 0.335319 0.324001 0.990670
Si Si3 0.664257 0.173405 0.482520
Si Si4 0.330301 0.669742 0.216145
Si Si5 0.670173 0.339139 0.851617
Si Si6 0.835996 0.325658 0.593576
Si Si7 0.338311 0.323634 0.714642
Si Si8 0.167778 0.827477 0.102858
O O1 0.500000 0.151845 0.341965
O O2 0.279097 0.213991 0.410975
O O3 0.278373 0.278160 0.286547
O O4 0.266832 0.000000 0.324180
O O5 0.500000 0.281095 0.007582
O O6 0.318566 0.500000 0.993112
O O7 0.227394 0.249805 0.039666
O O8 0.292010 0.260903 0.919477
O O9 0.500000 0.225577 0.492047
O O10 0.763378 0.259301 0.531320
O O11 0.677489 0.000000 0.494234
O O12 0.500000 0.694281 0.206985
O O13 0.288015 0.500000 0.207517
O O14 0.248145 0.766045 0.164564
O O15 0.500000 0.359266 0.848567
O O16 0.743602 0.500000 0.853395
O O17 0.716197 0.259736 0.784446
O O18 0.819261 0.500000 0.590246
O O19 0.762682 0.262979 0.658234
O O20 0.000000 0.274533 0.595095
O O21 0.500000 0.269224 0.699643
O O22 0.333955 0.500000 0.718491
O O23 0.000000 0.791336 0.109015
O O24 0.197980 0.000000 0.097920
#
# Coordination Sequence:
#
# PCOD8166580 Si02
#       8
#     4   4   4   4   4   4   4   4
#     4   8  15  30  52  76 100 125 156 197 243 290
#     4   9  17  31  53  79 102 124 156 201 250 297
#     4   9  18  33  53  75  97 125 164 205 243 288
#     4  10  20  34  55  82 105 125 155 197 244 293
#     4   7  11  22  43  71  98 121 151 196 246 293
#     4  10  20  31  44  68 102 135 167 204 244 288
#     4   8  13  24  44  68  94 126 162 200 244 290
#     4  11  24  38  50  68  98 136 173 204 236 280
#
# _framework density 18.186819
#
# number of rings (size 3 to 8) (size 9 to 14) (size 15 to 20)
#    0.000    3.000    0.000    3.750    0.000    5.000 
#    0.000    2.500    0.000    3.750    0.000    1.750 
#    0.000    0.000    0.000    0.000    0.000    0.000 
#
# Total GULP energy -396517.123513 kJ/mol
# GULP energy per Si atom -12391.160110 kJ/mol
# Density = 1.814543 g / cm^3
# Si number density = 18.186819 Si / 1000 Ang^3
#
#
#
# Elastic Constant Matrix: (Units=GPa)
#
#
# Indices 1 2 3 4 5 6 
#
# 1 72.4884 29.4395 58.6759 0.0000 0.0000 0.0000
# 2 29.4395 37.5589 35.4811 0.0000 0.0000 0.0000
# 3 58.6759 35.4811 162.2010 0.0000 0.0000 0.0000
# 4 0.0000 0.0000 0.0000 -19.7069 0.0000 0.0000
# 5 0.0000 0.0000 0.0000 0.0000 -2.7505 0.0000
# 6 0.0000 0.0000 0.0000 0.0000 0.0000 21.3079
#
#
#
# Elastic Compliance Matrix: (Units=1/GPa)
#
#
# Indices 1 2 3 4 5 6 
#
# 1 0.023804 -0.013264 -0.005709 0.000000 0.000000 0.000000
# 2 -0.013264 0.040951 -0.004160 0.000000 0.000000 0.000000
# 3 -0.005709 -0.004160 0.009140 0.000000 0.000000 0.000000
# 4 0.000000 0.000000 0.000000 -0.050744 0.000000 0.000000
# 5 0.000000 0.000000 0.000000 0.000000 -0.363569 0.000000
# 6 0.000000 0.000000 0.000000 0.000000 0.000000 0.046931
#
#
# Mechanical properties :
#
#
# Convention : Reuss Voigt Hill
#
# Bulk Modulus (GPa) = 36.19429 57.71570 46.95500
# Shear Modulus (GPa) = -21.00761 9.68021 -5.66370
#
# Velocity S-wave (km/s) = -3.40236 2.30959 -1.76662
# Velocity P-wave (km/s) = 2.12363 6.23827 4.65971
#
# Compressibility (1/GPa) = 0.02762867
#
# Stress axis : x y z
#
# Youngs Moduli (GPa) = 42.00995 24.41924 109.40339
#
# Poissons Ratio (x) = 0.32391 0.62463
# Poissons Ratio (y) = 0.55724 0.45508
# Poissons Ratio (z) = 0.23985 0.10158
#
# Static dielectric constant tensor:
#      x y z
#    x 3.124070 0.000000 0.000000 
#    y 0.000000 3.113220 0.000000 
#    z 0.000000 0.000000 3.891870 
# 
# 
# High freq. dielectric constant tensor:
#      x y z
#    x 1.672070 0.000000 0.000000 
#    y 0.000000 1.670070 0.000000 
#    z 0.000000 0.000000 1.731790 
# 
# From -- ./inp_files/6571.got.cif
#   From: 2010.03.12/outbox.cif.g09.slc.cpg/sg25_4_cif.got.tgz:6571.got - 2010.04.14 03:30:10.
