data_PCOD8166919
_publ_section_title
;
Structure prediction by ZEFSAII (Michael W. Deem and Ramdas Pophale) SiO2 
 PCOD8166919
Probable space group: P M M 2
;
_chemical_formula_sum "Si O2"
_cell_formula_units_Z 20
_cell_length_a 7.753165
_cell_length_b 9.199886
_cell_length_c 14.344106
_cell_angle_alpha 90.000000
_cell_angle_beta 90.000000
_cell_angle_gamma 90.000000
_cell_volume 1023.139751
_symmetry_space_group_name_H-M "P M M 2"
_symmetry_group_IT_number 25
_symmetry_cell_setting 'orthorhombic'
loop_
_space_group_symop_operation_xyz
x,y,z
-x,-y,z
-x,y,z
x,-y,z
loop_
_atom_site_type_symbol
_atom_site_label
_atom_site_fract_x
_atom_site_fract_y
_atom_site_fract_z
Si Si1 0.000000 0.671632 0.315800
Si Si2 0.000000 0.831020 0.121587
Si Si3 0.697221 0.168288 0.983092
Si Si4 0.804499 0.163719 0.618482
Si Si5 0.691615 0.666175 0.445528
Si Si6 0.701760 0.666186 0.796071
O O1 0.000000 0.742118 0.215600
O O2 0.829731 0.724940 0.370971
O O3 0.000000 0.500000 0.302337
O O4 0.826936 0.788543 0.065608
O O5 0.000000 0.000000 0.146475
O O6 0.500000 0.201044 0.014564
O O7 0.719660 0.000000 0.955478
O O8 0.750548 0.263406 0.894527
O O9 0.691761 0.242549 0.540389
O O10 0.798981 0.247635 0.715750
O O11 0.000000 0.162580 0.582658
O O12 0.734439 0.000000 0.632557
O O13 0.500000 0.679329 0.401633
O O14 0.735833 0.500000 0.471962
O O15 0.500000 0.678237 0.776487
O O16 0.764827 0.500000 0.796686
#
# Coordination Sequence:
#
# PCOD8166919 Si02
#       6
#     2   2   4   4   4   4
#     4  10  22  40  59  84 115 144 181 234 290 340
#     4  10  22  38  59  84 111 144 187 234 282 340
#     4   9  19  37  58  81 113 150 187 232 282 330
#     4  11  23  36  54  83 118 154 192 232 277 333
#     4  10  21  39  62  85 112 149 190 232 282 337
#     4  10  21  36  55  82 115 151 191 233 278 332
#
# _framework density 19.547671999999999
#
# number of rings (size 3 to 8) (size 9 to 14) (size 15 to 20)
#    0.000    2.000    1.000    1.800    1.400    7.600 
#    0.000    0.000    0.000    0.000    0.000    0.000 
#    0.000    0.000    0.000    0.000    0.000    0.000 
#
# Total GULP energy -248063.761990 kJ/mol
# GULP energy per Si atom -12403.188099 kJ/mol
# Density = 1.950318 g / cm^3
# Si number density = 19.547672 Si / 1000 Ang^3
#
#
#
# Elastic Constant Matrix: (Units=GPa)
#
#
# Indices 1 2 3 4 5 6 
#
# 1 112.0988 39.2792 63.7843 0.0000 0.0000 0.0000
# 2 39.2792 103.2372 67.4834 0.0000 0.0000 0.0000
# 3 63.7843 67.4834 140.2462 0.0000 0.0000 0.0000
# 4 0.0000 0.0000 0.0000 44.8568 0.0000 0.0000
# 5 0.0000 0.0000 0.0000 0.0000 25.4580 0.0000
# 6 0.0000 0.0000 0.0000 0.0000 0.0000 15.6693
#
#
#
# Elastic Compliance Matrix: (Units=1/GPa)
#
#
# Indices 1 2 3 4 5 6 
#
# 1 0.012188 -0.001479 -0.004831 0.000000 0.000000 0.000000
# 2 -0.001479 0.014311 -0.006213 0.000000 0.000000 0.000000
# 3 -0.004831 -0.006213 0.012317 0.000000 0.000000 0.000000
# 4 0.000000 0.000000 0.000000 0.022293 0.000000 0.000000
# 5 0.000000 0.000000 0.000000 0.000000 0.039280 0.000000
# 6 0.000000 0.000000 0.000000 0.000000 0.000000 0.063819
#
#
# Mechanical properties :
#
#
# Convention : Reuss Voigt Hill
#
# Bulk Modulus (GPa) = 72.62978 77.40844 75.01911
# Shear Modulus (GPa) = 25.79368 29.53250 27.66309
#
# Velocity S-wave (km/s) = 3.63647 3.89111 3.76594
# Velocity P-wave (km/s) = 7.40728 7.73779 7.57434
#
# Compressibility (1/GPa) = 0.01376846
#
# Stress axis : x y z
#
# Youngs Moduli (GPa) = 82.04747 69.87814 81.18616
#
# Poissons Ratio (x) = 0.10335 0.39225
# Poissons Ratio (y) = 0.12135 0.50443
# Poissons Ratio (z) = 0.39641 0.43417
#
# Static dielectric constant tensor:
#      x y z
#    x 3.720840 0.000000 0.000000 
#    y 0.000000 3.573530 0.000000 
#    z 0.000000 0.000000 3.324060 
# 
# 
# High freq. dielectric constant tensor:
#      x y z
#    x 1.773370 0.000000 0.000000 
#    y 0.000000 1.761670 0.000000 
#    z 0.000000 0.000000 1.748370 
# 
# From -- ./inp_files/5124.got.cif
#   From: 2010.03.12/outbox.cif.g09.slc.cpg/sg25_3_cif.got.tgz:5124.got - 2010.04.14 03:30:10.
