data_PCOD8166827
_publ_section_title
;
Structure prediction by ZEFSAII (Michael W. Deem and Ramdas Pophale) SiO2 
 PCOD8166827
Probable space group: P M M 2
;
_chemical_formula_sum "Si O2"
_cell_formula_units_Z 20
_cell_length_a 11.410059
_cell_length_b 9.062078
_cell_length_c 9.980631
_cell_angle_alpha 90.000000
_cell_angle_beta 90.000000
_cell_angle_gamma 90.000000
_cell_volume 1031.985714
_symmetry_space_group_name_H-M "P M M 2"
_symmetry_group_IT_number 25
_symmetry_cell_setting 'orthorhombic'
loop_
_space_group_symop_operation_xyz
x,y,z
-x,-y,z
-x,y,z
x,-y,z
loop_
_atom_site_type_symbol
_atom_site_label
_atom_site_fract_x
_atom_site_fract_y
_atom_site_fract_z
Si Si1 0.132518 0.326426 0.433460
Si Si2 0.500000 0.824792 0.799406
Si Si3 0.500000 0.824663 0.106201
Si Si4 0.259346 0.170628 0.671607
Si Si5 0.864276 0.832659 0.942021
Si Si6 0.268165 0.327348 0.167750
O O1 0.132047 0.500000 0.454980
O O2 0.218684 0.258112 0.542225
O O3 0.181569 0.283763 0.287986
O O4 0.000000 0.263463 0.445779
O O5 0.615051 0.767341 0.721821
O O6 0.500000 0.000000 0.806267
O O7 0.500000 0.766586 0.952392
O O8 0.611919 0.762145 0.184610
O O9 0.500000 0.000000 0.114479
O O10 0.163505 0.195856 0.786938
O O11 0.270133 0.000000 0.632194
O O12 0.000000 0.805500 0.966777
O O13 0.826715 0.000000 0.980665
O O14 0.792888 0.717326 0.029518
O O15 0.296259 0.500000 0.165506
#
# Coordination Sequence:
#
# PCOD8166827 Si02
#       6
#     4   2   2   4   4   4
#     4  10  23  42  59  81 120 163 198 240 295 351
#     4   9  18  36  61  86 118 150 185 237 298 349
#     4  11  21  40  65  88 120 156 193 247 302 355
#     4  10  20  37  61  88 116 152 197 246 296 348
#     4  10  20  35  58  88 118 152 200 253 301 350
#     4  11  23  39  60  87 120 158 199 245 297 355
#
# _framework density 19.380113000000001
#
# number of rings (size 3 to 8) (size 9 to 14) (size 15 to 20)
#    0.000    1.800    2.000    2.100    0.000    5.600 
#    0.000    2.500    0.000    0.000    0.000    0.000 
#    0.000    0.000    0.000    0.000    0.000    0.000 
#
# Total GULP energy -248072.271031 kJ/mol
# GULP energy per Si atom -12403.613552 kJ/mol
# Density = 1.933600 g / cm^3
# Si number density = 19.380113 Si / 1000 Ang^3
#
#
#
# Elastic Constant Matrix: (Units=GPa)
#
#
# Indices 1 2 3 4 5 6 
#
# 1 115.4714 41.2798 31.9632 0.0000 0.0000 0.0000
# 2 41.2798 53.2069 36.7342 0.0000 0.0000 0.0000
# 3 31.9632 36.7342 68.1051 0.0000 0.0000 0.0000
# 4 0.0000 0.0000 0.0000 35.1852 0.0000 0.0000
# 5 0.0000 0.0000 0.0000 0.0000 34.8089 0.0000
# 6 0.0000 0.0000 0.0000 0.0000 0.0000 32.2598
#
#
#
# Elastic Compliance Matrix: (Units=1/GPa)
#
#
# Indices 1 2 3 4 5 6 
#
# 1 0.012024 -0.008656 -0.000974 0.000000 0.000000 0.000000
# 2 -0.008656 0.036178 -0.015451 0.000000 0.000000 0.000000
# 3 -0.000974 -0.015451 0.023474 0.000000 0.000000 0.000000
# 4 0.000000 0.000000 0.000000 0.028421 0.000000 0.000000
# 5 0.000000 0.000000 0.000000 0.000000 0.028728 0.000000
# 6 0.000000 0.000000 0.000000 0.000000 0.000000 0.030998
#
#
# Mechanical properties :
#
#
# Convention : Reuss Voigt Hill
#
# Bulk Modulus (GPa) = 46.48237 50.74868 48.61552
# Shear Modulus (GPa) = 23.02473 28.90452 25.96462
#
# Velocity S-wave (km/s) = 3.45056 3.86612 3.66424
# Velocity P-wave (km/s) = 6.31758 6.79500 6.56063
#
# Compressibility (1/GPa) = 0.02151353
#
# Stress axis : x y z
#
# Youngs Moduli (GPa) = 83.16442 27.64139 42.59989
#
# Poissons Ratio (x) = 0.23927 0.04151
# Poissons Ratio (y) = 0.71989 0.65820
# Poissons Ratio (z) = 0.08103 0.42708
#
# Static dielectric constant tensor:
#      x y z
#    x 3.888410 0.000000 0.000000 
#    y 0.000000 3.375430 0.000000 
#    z 0.000000 0.000000 3.443420 
# 
# 
# High freq. dielectric constant tensor:
#      x y z
#    x 1.773330 0.000000 0.000000 
#    y 0.000000 1.737850 0.000000 
#    z 0.000000 0.000000 1.752220 
# 
# From -- ./inp_files/2544.got.cif
#   From: 2010.03.12/outbox.cif.g09.slc.cpg/sg25_2_cif.got.tgz:2544.got - 2010.04.14 03:30:10.
