data_PCOD8166104
_publ_section_title
;
Structure prediction by ZEFSAII (Michael W. Deem and Ramdas Pophale) SiO2 
 PCOD8166104
Probable space group: I 21 21 21
;
_chemical_formula_sum "Si O2"
_cell_formula_units_Z 56
_cell_length_a 15.171267
_cell_length_b 9.313720
_cell_length_c 18.382868
_cell_angle_alpha 90.000000
_cell_angle_beta 90.000000
_cell_angle_gamma 90.000000
_cell_volume 2597.516397
_symmetry_space_group_name_H-M "I 21 21 21"
_symmetry_group_IT_number 24
_symmetry_cell_setting 'orthorhombic'
loop_
_space_group_symop_operation_xyz
x,y,z
-x,1/2-y,z
x,-y,1/2-z
1/2-x,y,-z
1/2+x,1/2+y,1/2+z
1/2-x,-y,1/2+z
1/2+x,1/2-y,-z
-x,1/2+y,1/2-z
loop_
_atom_site_type_symbol
_atom_site_label
_atom_site_fract_x
_atom_site_fract_y
_atom_site_fract_z
Si Si1 0.981545 0.911633 0.084059
Si Si2 0.361409 0.536126 0.332933
Si Si3 0.710499 0.395780 0.355958
Si Si4 0.244043 0.193708 0.804153
Si Si5 0.518991 0.409690 0.414865
Si Si6 0.066475 0.128081 0.193856
Si Si7 0.780426 0.870818 0.079947
O O1 0.876736 0.934417 0.093859
O O2 0.000000 0.750000 0.114436
O O3 0.032625 0.044020 0.121879
O O4 0.009951 0.921079 0.000823
O O5 0.382392 0.500000 0.250000
O O6 0.319265 0.693211 0.344332
O O7 0.452140 0.522754 0.377634
O O8 0.288807 0.425241 0.360830
O O9 0.754864 0.548743 0.349935
O O10 0.703354 0.324706 0.276165
O O11 0.617372 0.437168 0.390376
O O12 0.772901 0.301742 0.409564
O O13 0.347332 0.232301 0.807650
O O14 0.500000 0.250000 0.386908
O O15 0.000000 0.250000 0.220649
O O16 0.081826 0.000000 0.250000
O O17 0.750000 0.916508 0.000000
#
# Coordination Sequence:
#
# PCOD8166104 Si02
#       7
#     8   8   8   8   8   8   8
#     4  11  24  42  72 100 136 184 231 289 353 419
#     4  12  24  42  73 102 135 181 230 288 348 410
#     4  11  23  43  67  96 144 176 230 284 342 421
#     4  11  25  45  65 105 137 180 231 294 349 416
#     4  11  22  45  68 107 137 179 235 281 341 419
#     4  12  26  45  71 101 139 179 241 299 352 424
#     4  12  22  43  70 100 136 182 233 287 346 425
#
# _framework density 21.559055000000001
#
# number of rings (size 3 to 8) (size 9 to 14) (size 15 to 20)
#    0.000    0.571    5.714    3.000    4.000    1.714 
#    2.571    0.714    0.000    0.000    0.000    0.000 
#    0.000    0.000    0.000    0.000    0.000    0.000 
#
# Total GULP energy -346993.708416 kJ/mol
# GULP energy per Si atom -12392.632443 kJ/mol
# Density = 2.150999 g / cm^3
# Si number density = 21.559055 Si / 1000 Ang^3
#
#
#
# Elastic Constant Matrix: (Units=GPa)
#
#
# Indices 1 2 3 4 5 6 
#
# 1 128.0206 12.0703 41.4355 0.0000 0.0000 0.0000
# 2 12.0703 78.0235 19.9938 0.0000 0.0000 0.0000
# 3 41.4355 19.9938 79.2251 0.0000 0.0000 0.0000
# 4 0.0000 0.0000 0.0000 140.6084 0.0000 0.0000
# 5 0.0000 0.0000 0.0000 0.0000 9.3118 0.0000
# 6 0.0000 0.0000 0.0000 0.0000 0.0000 44.9049
#
#
#
# Elastic Compliance Matrix: (Units=1/GPa)
#
#
# Indices 1 2 3 4 5 6 
#
# 1 0.009406 -0.000208 -0.004867 0.000000 0.000000 0.000000
# 2 -0.000208 0.013707 -0.003351 0.000000 0.000000 0.000000
# 3 -0.004867 -0.003351 0.016013 0.000000 0.000000 0.000000
# 4 0.000000 0.000000 0.000000 0.007112 0.000000 0.000000
# 5 0.000000 0.000000 0.000000 0.000000 0.107390 0.000000
# 6 0.000000 0.000000 0.000000 0.000000 0.000000 0.022269
#
#
# Mechanical properties :
#
#
# Convention : Reuss Voigt Hill
#
# Bulk Modulus (GPa) = 44.89166 48.02983 46.46075
# Shear Modulus (GPa) = 24.97820 53.08301 39.03061
#
# Velocity S-wave (km/s) = 3.40751 4.96745 4.25950
# Velocity P-wave (km/s) = 6.02904 7.43152 6.76671
#
# Compressibility (1/GPa) = 0.02227585
#
# Stress axis : x y z
#
# Youngs Moduli (GPa) = 106.31373 72.95328 62.44803
#
# Poissons Ratio (x) = 0.01517 0.30394
# Poissons Ratio (y) = 0.02211 0.20923
# Poissons Ratio (z) = 0.51743 0.24443
#
# Static dielectric constant tensor:
#      x y z
#    x -3.542660 0.000000 0.000000 
#    y 0.000000 3.985610 0.000000 
#    z 0.000000 0.000000 3.832410 
# 
# 
# High freq. dielectric constant tensor:
#      x y z
#    x 1.863640 0.000000 0.000000 
#    y 0.000000 1.843450 0.000000 
#    z 0.000000 0.000000 1.840320 
# 
# From -- ./inp_files/33746.got.cif
#   From: 2010.03.12/outbox.cif.g09.slc.cpg/sg24_17_cif.got.tgz:33746.got - 2010.04.14 03:06:53.
