data_PCOD8166510
_publ_section_title
;
Structure prediction by ZEFSAII (Michael W. Deem and Ramdas Pophale) SiO2 
 PCOD8166510
Probable space group: P M M 2
;
_chemical_formula_sum "Si O2"
_cell_formula_units_Z 28
_cell_length_a 14.145671
_cell_length_b 8.909016
_cell_length_c 12.816128
_cell_angle_alpha 90.000000
_cell_angle_beta 90.000000
_cell_angle_gamma 90.000000
_cell_volume 1615.139834
_symmetry_space_group_name_H-M "P M M 2"
_symmetry_group_IT_number 25
_symmetry_cell_setting 'orthorhombic'
loop_
_space_group_symop_operation_xyz
x,y,z
-x,-y,z
-x,y,z
x,-y,z
loop_
_atom_site_type_symbol
_atom_site_label
_atom_site_fract_x
_atom_site_fract_y
_atom_site_fract_z
Si Si1 0.889263 0.827194 0.516650
Si Si2 0.890091 0.824723 0.897252
Si Si3 0.891024 0.673396 0.304332
Si Si4 0.784652 0.323035 0.704912
Si Si5 0.395053 0.671263 0.993636
Si Si6 0.202850 0.326147 0.091693
Si Si7 0.607024 0.825024 0.777735
O O1 0.858876 0.773151 0.402027
O O2 0.835748 0.728798 0.600835
O O3 0.000000 0.801586 0.533975
O O4 0.860934 0.000000 0.530400
O O5 0.835585 0.738771 0.807040
O O6 0.000000 0.787109 0.886560
O O7 0.869876 0.000000 0.884217
O O8 0.854561 0.772005 0.009533
O O9 0.874168 0.500000 0.332960
O O10 0.827231 0.724854 0.207024
O O11 0.000000 0.703147 0.275177
O O12 0.785691 0.500000 0.710224
O O13 0.676811 0.264676 0.701518
O O14 0.500000 0.702982 0.040381
O O15 0.388063 0.500000 0.952994
O O16 0.373892 0.779296 0.897062
O O17 0.315780 0.701442 0.081374
O O18 0.176353 0.500000 0.073348
O O19 0.500000 0.785056 0.745011
O O20 0.628042 0.000000 0.767046
#
# Coordination Sequence:
#
# PCOD8166510 Si02
#       7
#     4   4   4   4   4   4   4
#     4  10  21  37  56  77 102 135 178 224 268 315
#     4  11  23  35  48  72 107 142 174 212 261 316
#     4   9  18  33  52  74 101 135 179 224 263 311
#     4  12  23  35  54  78 105 138 174 215 264 317
#     4   9  17  30  49  75 106 139 176 215 256 306
#     4  10  19  32  52  77 105 140 176 215 263 313
#     4  10  20  34  53  77 106 139 174 214 260 311
#
# _framework density 17.335961000000001
#
# number of rings (size 3 to 8) (size 9 to 14) (size 15 to 20)
#    0.000    1.857    1.429    3.429    0.000    5.714 
#    0.000    1.429    0.000    0.857    0.000    2.000 
#    0.000    0.000    0.000    0.000    0.000    0.000 
#
# Total GULP energy -347270.414198 kJ/mol
# GULP energy per Si atom -12402.514793 kJ/mol
# Density = 1.729650 g / cm^3
# Si number density = 17.335961 Si / 1000 Ang^3
#
#
#
# Elastic Constant Matrix: (Units=GPa)
#
#
# Indices 1 2 3 4 5 6 
#
# 1 95.1802 63.6924 58.1520 0.0000 0.0000 0.0000
# 2 63.6924 98.6340 50.9853 0.0000 0.0000 0.0000
# 3 58.1520 50.9853 98.0350 0.0000 0.0000 0.0000
# 4 0.0000 0.0000 0.0000 -15.9881 0.0000 0.0000
# 5 0.0000 0.0000 0.0000 0.0000 19.8391 0.0000
# 6 0.0000 0.0000 0.0000 0.0000 0.0000 25.9717
#
#
#
# Elastic Compliance Matrix: (Units=1/GPa)
#
#
# Indices 1 2 3 4 5 6 
#
# 1 0.022138 -0.010268 -0.007792 0.000000 0.000000 0.000000
# 2 -0.010268 0.018628 -0.003598 0.000000 0.000000 0.000000
# 3 -0.007792 -0.003598 0.016693 0.000000 0.000000 0.000000
# 4 0.000000 0.000000 0.000000 -0.062547 0.000000 0.000000
# 5 0.000000 0.000000 0.000000 0.000000 0.050406 0.000000
# 6 0.000000 0.000000 0.000000 0.000000 0.000000 0.038503
#
#
# Mechanical properties :
#
#
# Convention : Reuss Voigt Hill
#
# Bulk Modulus (GPa) = 70.69337 70.83428 70.76382
# Shear Modulus (GPa) = 37.92163 13.89918 25.91041
#
# Velocity S-wave (km/s) = 4.68210 2.83460 3.87021
# Velocity P-wave (km/s) = 8.37236 7.18761 7.80250
#
# Compressibility (1/GPa) = 0.01414560
#
# Stress axis : x y z
#
# Youngs Moduli (GPa) = 45.17173 53.68133 59.90458
#
# Poissons Ratio (x) = 0.55119 0.46675
# Poissons Ratio (y) = 0.46381 0.21551
# Poissons Ratio (z) = 0.35196 0.19312
#
# Static dielectric constant tensor:
#      x y z
#    x 3.488190 0.000000 0.000000 
#    y 0.000000 3.320650 0.000000 
#    z 0.000000 0.000000 3.115150 
# 
# 
# High freq. dielectric constant tensor:
#      x y z
#    x 1.674660 0.000000 0.000000 
#    y 0.000000 1.678770 0.000000 
#    z 0.000000 0.000000 1.648830 
# 
# From -- ./inp_files/4810.got.cif
#   From: 2010.03.12/outbox.cif.g09.slc.cpg/sg25_3_cif.got.tgz:4810.got - 2010.04.14 03:30:10.
