data_PCOD8166909
_publ_section_title
;
Structure prediction by ZEFSAII (Michael W. Deem and Ramdas Pophale) SiO2 
 PCOD8166909
Probable space group: P M M 2
;
_chemical_formula_sum "Si O2"
_cell_formula_units_Z 28
_cell_length_a 9.344870
_cell_length_b 9.344837
_cell_length_c 17.887383
_cell_angle_alpha 90.000000
_cell_angle_beta 90.000000
_cell_angle_gamma 90.000000
_cell_volume 1562.038740
_symmetry_space_group_name_H-M "P M M 2"
_symmetry_group_IT_number 25
_symmetry_cell_setting 'orthorhombic'
loop_
_space_group_symop_operation_xyz
x,y,z
-x,-y,z
-x,y,z
x,-y,z
loop_
_atom_site_type_symbol
_atom_site_label
_atom_site_fract_x
_atom_site_fract_y
_atom_site_fract_z
Si Si1 0.164085 0.666229 0.939290
Si Si2 0.334029 0.665892 0.505526
Si Si3 0.331779 0.334330 0.086790
Si Si4 0.333821 0.833821 0.649832
Si Si5 0.165892 0.165970 0.794138
Si Si6 0.166229 0.335915 0.360373
Si Si7 0.834329 0.831779 0.212873
O O1 0.179887 0.500000 0.920991
O O2 0.220215 0.751101 0.867198
O O3 0.000000 0.706736 0.958282
O O4 0.262359 0.711917 0.008459
O O5 0.500000 0.698186 0.491902
O O6 0.303601 0.500000 0.520322
O O7 0.275994 0.751032 0.577277
O O8 0.251102 0.720214 0.432465
O O9 0.500000 0.305921 0.082550
O O10 0.297120 0.500000 0.104612
O O11 0.264334 0.235666 0.149832
O O12 0.500000 0.802098 0.663008
O O13 0.251031 0.775995 0.722386
O O14 0.302099 0.000000 0.636655
O O15 0.000000 0.196397 0.779342
O O16 0.198187 0.000000 0.807762
O O17 0.206736 0.500000 0.341381
O O18 0.211917 0.237641 0.291205
O O19 0.000000 0.320113 0.378672
O O20 0.000000 0.797122 0.195051
O O21 0.805919 0.000000 0.217113
#
# Coordination Sequence:
#
# PCOD8166909 Si02
#       7
#     4   4   4   4   4   4   4
#     4   9  18  33  52  73  98 129 164 202 246 295
#     4   9  18  32  49  70  96 126 161 200 242 289
#     4  10  21  36  54  77 104 134 169 208 251 300
#     4   9  18  32  48  67  94 128 162 195 238 292
#     4   9  18  32  49  70  96 126 161 200 242 289
#     4   9  18  33  52  73  98 129 164 202 246 295
#     4  10  21  36  54  77 104 134 169 208 251 300
#
# _framework density 17.925291000000001
#
# number of rings (size 3 to 8) (size 9 to 14) (size 15 to 20)
#    0.000    2.714    0.000    0.857    0.000    5.143 
#    0.000    2.857    0.000    0.000    0.000    0.000 
#    0.000    0.000    0.000    0.000    0.000    0.000 
#
# Total GULP energy -347285.279403 kJ/mol
# GULP energy per Si atom -12403.045693 kJ/mol
# Density = 1.788449 g / cm^3
# Si number density = 17.925291 Si / 1000 Ang^3
#
#
#
# Elastic Constant Matrix: (Units=GPa)
#
#
# Indices 1 2 3 4 5 6 
#
# 1 71.2132 45.6914 82.6255 0.0000 0.0000 0.0000
# 2 45.6914 71.2134 82.6264 0.0000 0.0000 0.0000
# 3 82.6255 82.6264 191.1883 0.0000 0.0000 0.0000
# 4 0.0000 0.0000 0.0000 9.0114 0.0000 0.0000
# 5 0.0000 0.0000 0.0000 0.0000 9.0638 0.0000
# 6 0.0000 0.0000 0.0000 0.0000 0.0000 22.3838
#
#
#
# Elastic Compliance Matrix: (Units=1/GPa)
#
#
# Indices 1 2 3 4 5 6 
#
# 1 0.030583 -0.008599 -0.009501 0.000000 0.000000 0.000000
# 2 -0.008599 0.030583 -0.009501 0.000000 0.000000 0.000000
# 3 -0.009501 -0.009501 0.013442 0.000000 0.000000 0.000000
# 4 0.000000 0.000000 0.000000 0.110971 0.000000 0.000000
# 5 0.000000 0.000000 0.000000 0.000000 0.110329 0.000000
# 6 0.000000 0.000000 0.000000 0.000000 0.000000 0.044675
#
#
# Mechanical properties :
#
#
# Convention : Reuss Voigt Hill
#
# Bulk Modulus (GPa) = 51.52770 83.94463 67.73617
# Shear Modulus (GPa) = 12.42996 16.26990 14.34993
#
# Velocity S-wave (km/s) = 2.63616 3.01599 2.83245
# Velocity P-wave (km/s) = 6.17042 7.68506 6.96901
#
# Compressibility (1/GPa) = 0.01940704
#
# Stress axis : x y z
#
# Youngs Moduli (GPa) = 32.69816 32.69763 74.39150
#
# Poissons Ratio (x) = 0.28117 0.70677
# Poissons Ratio (y) = 0.28117 0.70680
# Poissons Ratio (z) = 0.31065 0.31066
#
# Static dielectric constant tensor:
#      x y z
#    x 3.274820 0.000000 0.000000 
#    y 0.000000 3.274770 0.000000 
#    z 0.000000 0.000000 3.467580 
# 
# 
# High freq. dielectric constant tensor:
#      x y z
#    x 1.687890 0.000000 0.000000 
#    y 0.000000 1.687890 0.000000 
#    z 0.000000 0.000000 1.702980 
# 
# From -- ./inp_files/6073.got.cif
#   From: 2010.03.12/outbox.cif.g09.slc.cpg/sg25_4_cif.got.tgz:6073.got - 2010.04.14 03:30:10.
