data_PCOD8166546
_publ_section_title
;
Structure prediction by ZEFSAII (Michael W. Deem and Ramdas Pophale) SiO2 
 PCOD8166546
Probable space group: P M M 2
;
_chemical_formula_sum "Si O2"
_cell_formula_units_Z 24
_cell_length_a 15.092980
_cell_length_b 9.015965
_cell_length_c 9.286871
_cell_angle_alpha 90.000000
_cell_angle_beta 90.000000
_cell_angle_gamma 90.000000
_cell_volume 1263.736783
_symmetry_space_group_name_H-M "P M M 2"
_symmetry_group_IT_number 25
_symmetry_cell_setting 'orthorhombic'
loop_
_space_group_symop_operation_xyz
x,y,z
-x,-y,z
-x,y,z
x,-y,z
loop_
_atom_site_type_symbol
_atom_site_label
_atom_site_fract_x
_atom_site_fract_y
_atom_site_fract_z
Si Si1 0.648710 0.662305 0.554270
Si Si2 0.312681 0.677280 0.040324
Si Si3 0.500000 0.832397 0.062438
Si Si4 0.099668 0.173890 0.535910
Si Si5 0.791913 0.661203 0.320349
Si Si6 0.500000 0.835323 0.400727
Si Si7 0.244002 0.824832 0.770091
O O1 0.612735 0.500000 0.604604
O O2 0.736217 0.637868 0.463826
O O3 0.583774 0.744790 0.449008
O O4 0.667171 0.767147 0.690631
O O5 0.322013 0.500000 0.032557
O O6 0.243432 0.738836 0.921776
O O7 0.410304 0.747288 0.015182
O O8 0.268148 0.728854 0.191643
O O9 0.500000 0.843334 0.231768
O O10 0.500000 0.000000 0.996968
O O11 0.128723 0.235468 0.378104
O O12 0.158608 0.221079 0.674511
O O13 0.000000 0.228019 0.568192
O O14 0.106245 0.000000 0.517667
O O15 0.828958 0.500000 0.270545
O O16 0.500000 0.000000 0.467951
O O17 0.249663 0.000000 0.796084
#
# Coordination Sequence:
#
# PCOD8166546 Si02
#       7
#     4   4   2   4   4   2   4
#     4  10  19  34  54  76 104 142 185 226 274 326
#     4  11  22  38  57  81 115 153 191 229 278 334
#     4  11  23  36  55  82 113 150 192 234 279 326
#     4   9  19  37  61  86 111 142 182 229 282 339
#     4   9  19  34  55  81 109 141 179 225 273 328
#     4  11  21  32  51  80 109 140 184 236 279 324
#     4  10  21  37  56  81 113 147 184 231 281 331
#
# _framework density 18.991295999999998
#
# number of rings (size 3 to 8) (size 9 to 14) (size 15 to 20)
#    0.000    2.000    1.667    2.000    0.000    4.333 
#    0.000    4.167    0.000    3.000    0.000    0.000 
#    0.000    0.000    0.000    0.000    0.000    0.000 
#
# Total GULP energy -297384.534894 kJ/mol
# GULP energy per Si atom -12391.022287 kJ/mol
# Density = 1.894807 g / cm^3
# Si number density = 18.991296 Si / 1000 Ang^3
#
#
#
# Elastic Constant Matrix: (Units=GPa)
#
#
# Indices 1 2 3 4 5 6 
#
# 1 99.4743 49.7242 40.0734 0.0000 0.0000 0.0000
# 2 49.7242 99.9614 37.4849 0.0000 0.0000 0.0000
# 3 40.0734 37.4849 94.4457 0.0000 0.0000 0.0000
# 4 0.0000 0.0000 0.0000 31.7365 0.0000 0.0000
# 5 0.0000 0.0000 0.0000 0.0000 26.6819 0.0000
# 6 0.0000 0.0000 0.0000 0.0000 0.0000 28.0511
#
#
#
# Elastic Compliance Matrix: (Units=1/GPa)
#
#
# Indices 1 2 3 4 5 6 
#
# 1 0.014487 -0.005758 -0.003861 0.000000 0.000000 0.000000
# 2 -0.005758 0.014042 -0.003130 0.000000 0.000000 0.000000
# 3 -0.003861 -0.003130 0.013469 0.000000 0.000000 0.000000
# 4 0.000000 0.000000 0.000000 0.031509 0.000000 0.000000
# 5 0.000000 0.000000 0.000000 0.000000 0.037479 0.000000
# 6 0.000000 0.000000 0.000000 0.000000 0.000000 0.035649
#
#
# Mechanical properties :
#
#
# Convention : Reuss Voigt Hill
#
# Bulk Modulus (GPa) = 60.61197 60.93850 60.77523
# Shear Modulus (GPa) = 28.14790 28.40048 28.27419
#
# Velocity S-wave (km/s) = 3.85404 3.87130 3.86268
# Velocity P-wave (km/s) = 7.19651 7.22079 7.20866
#
# Compressibility (1/GPa) = 0.01649839
#
# Stress axis : x y z
#
# Youngs Moduli (GPa) = 69.02851 71.21539 74.24610
#
# Poissons Ratio (x) = 0.41007 0.28669
# Poissons Ratio (y) = 0.39748 0.23238
# Poissons Ratio (z) = 0.26654 0.22290
#
# Static dielectric constant tensor:
#      x y z
#    x 3.400530 0.000000 0.000000 
#    y 0.000000 3.850620 0.000000 
#    z 0.000000 0.000000 3.436810 
# 
# 
# High freq. dielectric constant tensor:
#      x y z
#    x 1.717870 0.000000 0.000000 
#    y 0.000000 1.749190 0.000000 
#    z 0.000000 0.000000 1.732740 
# 
# From -- ./inp_files/3372.got.cif
#   From: 2010.03.12/outbox.cif.g09.slc.cpg/sg25_2_cif.got.tgz:3372.got - 2010.04.14 03:30:10.
