data_PCOD8166629
_publ_section_title
;
Structure prediction by ZEFSAII (Michael W. Deem and Ramdas Pophale) SiO2 
 PCOD8166629
Probable space group: P M M 2
;
_chemical_formula_sum "Si O2"
_cell_formula_units_Z 32
_cell_length_a 8.941216
_cell_length_b 9.564166
_cell_length_c 20.666933
_cell_angle_alpha 90.000000
_cell_angle_beta 90.000000
_cell_angle_gamma 90.000000
_cell_volume 1767.338440
_symmetry_space_group_name_H-M "P M M 2"
_symmetry_group_IT_number 25
_symmetry_cell_setting 'orthorhombic'
loop_
_space_group_symop_operation_xyz
x,y,z
-x,-y,z
-x,y,z
x,-y,z
loop_
_atom_site_type_symbol
_atom_site_label
_atom_site_fract_x
_atom_site_fract_y
_atom_site_fract_z
Si Si1 0.828137 0.835197 0.448330
Si Si2 0.177945 0.343679 0.706030
Si Si3 0.676523 0.661423 0.080479
Si Si4 0.822416 0.343080 0.848989
Si Si5 0.822492 0.845764 0.592740
Si Si6 0.822610 0.838589 0.967864
Si Si7 0.325169 0.339241 0.339822
Si Si8 0.832069 0.334140 0.210993
O O1 0.782559 0.789371 0.521197
O O2 0.720667 0.751318 0.401209
O O3 0.000000 0.795372 0.433918
O O4 0.803548 0.000000 0.439275
O O5 0.236063 0.500000 0.694211
O O6 0.230792 0.293232 0.777480
O O7 0.248737 0.249603 0.649157
O O8 0.000000 0.338753 0.702326
O O9 0.500000 0.678804 0.080233
O O10 0.723187 0.500000 0.067796
O O11 0.737814 0.715974 0.149189
O O12 0.747493 0.759767 0.026964
O O13 0.761686 0.500000 0.863834
O O14 0.762495 0.233792 0.902022
O O15 0.000000 0.347177 0.850571
O O16 0.000000 0.852233 0.599232
O O17 0.754751 0.000000 0.602234
O O18 0.000000 0.824009 0.974409
O O19 0.772642 0.000000 0.967103
O O20 0.500000 0.324783 0.327470
O O21 0.279454 0.500000 0.352452
O O22 0.243072 0.277176 0.276532
O O23 0.832231 0.500000 0.213384
O O24 0.000000 0.274174 0.205799
#
# Coordination Sequence:
#
# PCOD8166629 Si02
#       8
#     4   4   4   4   4   4   4   4
#     4   9  18  32  48  68  96 130 168 206 243 288
#     4   8  13  21  35  59  90 121 154 194 240 287
#     4  10  20  34  53  75  98 127 162 198 239 289
#     4   8  14  25  41  62  91 126 161 198 241 289
#     4   8  14  24  38  58  87 122 157 195 240 288
#     4  10  20  32  47  70  99 130 165 204 244 286
#     4  10  20  33  50  74 102 129 160 200 243 288
#     4   9  17  31  53  78 101 126 157 195 240 288
#
# _framework density 18.106323
#
# number of rings (size 3 to 8) (size 9 to 14) (size 15 to 20)
#    0.000    3.000    0.000    3.000    0.000    5.000 
#    0.000    4.375    0.000    3.750    0.000    0.875 
#    0.000    5.000    0.000    0.000    0.000    0.000 
#
# Total GULP energy -396661.259065 kJ/mol
# GULP energy per Si atom -12395.664346 kJ/mol
# Density = 1.806511 g / cm^3
# Si number density = 18.106323 Si / 1000 Ang^3
#
#
#
# Elastic Constant Matrix: (Units=GPa)
#
#
# Indices 1 2 3 4 5 6 
#
# 1 34.8445 27.7335 32.7066 0.0000 0.0000 0.0000
# 2 27.7335 83.8905 79.7764 0.0000 0.0000 0.0000
# 3 32.7066 79.7764 172.3192 0.0000 0.0000 0.0000
# 4 0.0000 0.0000 0.0000 7.9548 0.0000 0.0000
# 5 0.0000 0.0000 0.0000 0.0000 0.8270 0.0000
# 6 0.0000 0.0000 0.0000 0.0000 0.0000 17.5299
#
#
#
# Elastic Compliance Matrix: (Units=1/GPa)
#
#
# Indices 1 2 3 4 5 6 
#
# 1 0.039588 -0.010616 -0.002599 0.000000 0.000000 0.000000
# 2 -0.010616 0.024142 -0.009162 0.000000 0.000000 0.000000
# 3 -0.002599 -0.009162 0.010538 0.000000 0.000000 0.000000
# 4 0.000000 0.000000 0.000000 0.125710 0.000000 0.000000
# 5 0.000000 0.000000 0.000000 0.000000 1.209174 0.000000
# 6 0.000000 0.000000 0.000000 0.000000 0.000000 0.057045
#
#
# Mechanical properties :
#
#
# Convention : Reuss Voigt Hill
#
# Bulk Modulus (GPa) = 33.88146 63.49856 48.69001
# Shear Modulus (GPa) = 3.28777 15.31820 9.30298
#
# Velocity S-wave (km/s) = 1.34898 2.91179 2.26917
# Velocity P-wave (km/s) = 4.60212 6.81547 5.81507
#
# Compressibility (1/GPa) = 0.02951466
#
# Stress axis : x y z
#
# Youngs Moduli (GPa) = 25.26022 41.42086 94.89309
#
# Poissons Ratio (x) = 0.43971 0.24666
# Poissons Ratio (y) = 0.26815 0.86941
# Poissons Ratio (z) = 0.06566 0.37950
#
# Static dielectric constant tensor:
#      x y z
#    x 2.962570 0.000000 0.000000 
#    y 0.000000 3.347050 0.000000 
#    z 0.000000 0.000000 3.680340 
# 
# 
# High freq. dielectric constant tensor:
#      x y z
#    x 1.661120 0.000000 0.000000 
#    y 0.000000 1.682700 0.000000 
#    z 0.000000 0.000000 1.719320 
# 
# From -- ./inp_files/6497.got.cif
#   From: 2010.03.12/outbox.cif.g09.slc.cpg/sg25_4_cif.got.tgz:6497.got - 2010.04.14 03:30:10.
