data_PCOD8167293
_publ_section_title
;
Structure prediction by ZEFSAII (Michael W. Deem and Ramdas Pophale) SiO2 
 PCOD8167293
Probable space group: P M C 21
;
_chemical_formula_sum "Si O2"
_cell_formula_units_Z 18
_cell_length_a 23.424088
_cell_length_b 7.776866
_cell_length_c 5.018795
_cell_angle_alpha 90.000000
_cell_angle_beta 90.000000
_cell_angle_gamma 90.000000
_cell_volume 914.253778
_symmetry_space_group_name_H-M "P M C 21"
_symmetry_group_IT_number 26
_symmetry_cell_setting 'orthorhombic'
loop_
_space_group_symop_operation_xyz
x,y,z
-x,-y,1/2+z
-x,y,z
x,-y,1/2+z
loop_
_atom_site_type_symbol
_atom_site_label
_atom_site_fract_x
_atom_site_fract_y
_atom_site_fract_z
Si Si1 0.339229 0.386387 0.434610
Si Si2 0.433760 0.114357 0.477127
Si Si3 0.000000 0.115232 0.398018
Si Si4 0.240543 0.883040 0.937310
Si Si5 0.882314 0.888129 0.035161
O O1 0.336013 0.546985 0.633400
O O2 0.398975 0.290371 0.480770
O O3 0.287032 0.260563 0.493330
O O4 0.500000 0.166160 0.479728
O O5 0.416512 0.002324 0.224563
O O6 0.940667 0.219459 0.463221
O O7 0.000000 0.947424 0.593532
O O8 0.177783 0.793094 0.972945
O O9 0.247866 0.959311 0.642561
O O10 0.883625 0.057522 0.844025
#
# Coordination Sequence:
#
# PCOD8167293 Si02
#       5
#     4   4   2   4   4
#     4  12  24  36  53  79 108 136 167 209 255 293
#     4  10  21  39  61  81 103 135 171 205 246 300
#     4   8  12  20  34  60  92 114 144 198 254 288
#     4  10  19  34  53  72  98 135 174 207 246 300
#     4   8  14  23  40  64  90 120 155 200 248 290
#
# _framework density 19.688186999999999
#
# number of rings (size 3 to 8) (size 9 to 14) (size 15 to 20)
#    0.000    2.222    0.000    4.000    0.000    0.889 
#    0.000    0.000    0.000    0.000    0.000    1.556 
#    0.000    0.000    0.000    0.000    0.000    0.000 
#
# Total GULP energy -223068.802329 kJ/mol
# GULP energy per Si atom -12392.711240 kJ/mol
# Density = 1.964338 g / cm^3
# Si number density = 19.688187 Si / 1000 Ang^3
#
#
#
# Elastic Constant Matrix: (Units=GPa)
#
#
# Indices 1 2 3 4 5 6 
#
# 1 150.9886 46.9366 14.6645 0.0000 0.0000 0.0000
# 2 46.9366 47.8522 10.2654 0.0000 0.0000 0.0000
# 3 14.6645 10.2654 97.5702 0.0000 0.0000 0.0000
# 4 0.0000 0.0000 0.0000 142.4779 0.0000 0.0000
# 5 0.0000 0.0000 0.0000 0.0000 29.9046 0.0000
# 6 0.0000 0.0000 0.0000 0.0000 0.0000 1.4121
#
#
#
# Elastic Compliance Matrix: (Units=1/GPa)
#
#
# Indices 1 2 3 4 5 6 
#
# 1 0.009548 -0.009267 -0.000460 0.000000 0.000000 0.000000
# 2 -0.009267 0.030374 -0.001803 0.000000 0.000000 0.000000
# 3 -0.000460 -0.001803 0.010508 0.000000 0.000000 0.000000
# 4 0.000000 0.000000 0.000000 0.007019 0.000000 0.000000
# 5 0.000000 0.000000 0.000000 0.000000 0.033440 0.000000
# 6 0.000000 0.000000 0.000000 0.000000 0.000000 0.708151
#
#
# Mechanical properties :
#
#
# Convention : Reuss Voigt Hill
#
# Bulk Modulus (GPa) = 36.53579 48.90489 42.72034
# Shear Modulus (GPa) = 6.01523 49.72857 27.87190
#
# Velocity S-wave (km/s) = 1.74982 5.03119 3.76662
# Velocity P-wave (km/s) = 4.76235 7.65795 6.37668
#
# Compressibility (1/GPa) = 0.02737042
#
# Stress axis : x y z
#
# Youngs Moduli (GPa) = 104.72865 32.92268 95.16680
#
# Poissons Ratio (x) = 0.30510 0.04379
# Poissons Ratio (y) = 0.97053 0.17157
# Poissons Ratio (z) = 0.04819 0.05936
#
# Static dielectric constant tensor:
#      x y z
#    x 4.226780 0.000000 0.000000 
#    y 0.000000 2.788390 0.000000 
#    z 0.000000 0.000000 3.740830 
# 
# 
# High freq. dielectric constant tensor:
#      x y z
#    x 1.805430 0.000000 0.000000 
#    y 0.000000 1.681990 0.000000 
#    z 0.000000 0.000000 1.794290 
# 
# From -- ./inp_files/924.got.cif
#   From: 2010.03.12/outbox.cif.g09.slc.cpg/sg26_1_cif.got.tgz:924.got - 2010.04.14 03:33:09.
