data_PCOD8167922
_publ_section_title
;
Structure prediction by ZEFSAII (Michael W. Deem and Ramdas Pophale) SiO2 
 PCOD8167922
Probable space group: P C C 2
;
_chemical_formula_sum "Si O2"
_cell_formula_units_Z 18
_cell_length_a 5.355665
_cell_length_b 5.333019
_cell_length_c 24.246921
_cell_angle_alpha 90.000000
_cell_angle_beta 90.000000
_cell_angle_gamma 90.000000
_cell_volume 692.537241
_symmetry_space_group_name_H-M "P C C 2"
_symmetry_group_IT_number 27
_symmetry_cell_setting 'orthorhombic'
loop_
_space_group_symop_operation_xyz
x,y,z
-x,-y,z
-x,y,1/2+z
x,-y,1/2+z
loop_
_atom_site_type_symbol
_atom_site_label
_atom_site_fract_x
_atom_site_fract_y
_atom_site_fract_z
Si Si1 0.500000 0.000000 0.495360
Si Si2 0.248385 0.663326 0.414433
Si Si3 0.864800 0.254437 0.065097
Si Si4 0.647780 0.239988 0.177923
Si Si5 0.752956 0.343683 0.293232
O O1 0.275175 0.891811 0.457277
O O2 0.597449 0.771745 0.534433
O O3 0.500000 0.500000 0.418372
O O4 0.226997 0.789881 0.352979
O O5 0.000000 0.500000 0.427004
O O6 0.856384 0.282958 0.131435
O O7 0.000000 0.500000 0.040681
O O8 0.000000 0.000000 0.048343
O O9 0.500000 0.500000 0.182037
O O10 0.749513 0.163899 0.239070
O O11 0.500000 0.000000 0.155274
O O12 0.500000 0.500000 0.293592
O O13 0.000000 0.500000 0.283637
#
# Coordination Sequence:
#
# PCOD8167922 Si02
#       5
#     2   4   4   4   4
#     4  12  30  46  74 112 158 214 270 338 390 488
#     4  10  25  47  76 109 156 205 266 327 400 474
#     4  12  29  49  77 112 153 208 267 327 401 475
#     4  11  23  45  76 111 153 196 256 324 401 476
#     4   9  20  43  72 110 148 199 252 322 396 476
#
# _framework density 25.991378999999998
#
# number of rings (size 3 to 8) (size 9 to 14) (size 15 to 20)
#    0.000    1.333    1.111    2.000    7.778    1.778 
#    0.000    0.000    0.000    0.000    0.000    0.000 
#    0.000    0.000    0.000    0.000    0.000    0.000 
#
# Total GULP energy -223022.802532 kJ/mol
# GULP energy per Si atom -12390.155696 kJ/mol
# Density = 2.593222 g / cm^3
# Si number density = 25.991379 Si / 1000 Ang^3
#
#
#
# Elastic Constant Matrix: (Units=GPa)
#
#
# Indices 1 2 3 4 5 6 
#
# 1 143.6899 44.4260 38.6469 0.0000 0.0000 0.0000
# 2 44.4260 142.0284 45.0039 0.0000 0.0000 0.0000
# 3 38.6469 45.0039 200.9173 0.0000 0.0000 0.0000
# 4 0.0000 0.0000 0.0000 39.4018 0.0000 0.0000
# 5 0.0000 0.0000 0.0000 0.0000 16.7918 0.0000
# 6 0.0000 0.0000 0.0000 0.0000 0.0000 42.5778
#
#
#
# Elastic Compliance Matrix: (Units=1/GPa)
#
#
# Indices 1 2 3 4 5 6 
#
# 1 0.007901 -0.002142 -0.001040 0.000000 0.000000 0.000000
# 2 -0.002142 0.008159 -0.001416 0.000000 0.000000 0.000000
# 3 -0.001040 -0.001416 0.005494 0.000000 0.000000 0.000000
# 4 0.000000 0.000000 0.000000 0.025380 0.000000 0.000000
# 5 0.000000 0.000000 0.000000 0.000000 0.059553 0.000000
# 6 0.000000 0.000000 0.000000 0.000000 0.000000 0.023486
#
#
# Mechanical properties :
#
#
# Convention : Reuss Voigt Hill
#
# Bulk Modulus (GPa) = 80.90743 82.53214 81.71978
# Shear Modulus (GPa) = 34.89444 43.65820 39.27632
#
# Velocity S-wave (km/s) = 3.66804 4.10288 3.89154
# Velocity P-wave (km/s) = 7.00967 7.36665 7.19037
#
# Compressibility (1/GPa) = 0.01235980
#
# Stress axis : x y z
#
# Youngs Moduli (GPa) = 126.55946 122.55787 182.00604
#
# Poissons Ratio (x) = 0.26252 0.18930
# Poissons Ratio (y) = 0.27109 0.25765
# Poissons Ratio (z) = 0.13163 0.17350
#
# Static dielectric constant tensor:
#      x y z
#    x 4.703870 0.000000 0.000000 
#    y 0.000000 4.142750 0.000000 
#    z 0.000000 0.000000 5.651840 
# 
# 
# High freq. dielectric constant tensor:
#      x y z
#    x 2.039610 0.000000 0.000000 
#    y 0.000000 2.008580 0.000000 
#    z 0.000000 0.000000 2.082410 
# 
# From -- ./inp_files/4915.got.cif
#   From: 2010.03.12/outbox.cif.g09.slc.cpg/sg27_3_cif.got.tgz:4915.got - 2010.04.14 03:36:05.
