data_PCOD8167337
_publ_section_title
;
Structure prediction by ZEFSAII (Michael W. Deem and Ramdas Pophale) SiO2 
 PCOD8167337
Probable space group: P M C 21
;
_chemical_formula_sum "Si O2"
_cell_formula_units_Z 32
_cell_length_a 8.653699
_cell_length_b 12.594863
_cell_length_c 14.291642
_cell_angle_alpha 90.000000
_cell_angle_beta 90.000000
_cell_angle_gamma 90.000000
_cell_volume 1557.676836
_symmetry_space_group_name_H-M "P M C 21"
_symmetry_group_IT_number 26
_symmetry_cell_setting 'orthorhombic'
loop_
_space_group_symop_operation_xyz
x,y,z
-x,-y,1/2+z
-x,y,z
x,-y,1/2+z
loop_
_atom_site_type_symbol
_atom_site_label
_atom_site_fract_x
_atom_site_fract_y
_atom_site_fract_z
Si Si1 0.182047 0.678872 0.246370
Si Si2 0.326822 0.043410 0.509614
Si Si3 0.183538 0.383955 0.948039
Si Si4 0.180557 0.168483 0.042337
Si Si5 0.184218 0.406698 0.549215
Si Si6 0.328387 0.097406 0.726790
Si Si7 0.821905 0.773714 0.909563
Si Si8 0.679240 0.135774 0.237736
O O1 0.244054 0.619120 0.339976
O O2 0.251697 0.621989 0.152877
O O3 0.217756 0.804759 0.251729
O O4 0.000000 0.669116 0.242478
O O5 0.500000 0.062748 0.468858
O O6 0.322188 0.068893 0.618335
O O7 0.198155 0.115692 0.462366
O O8 0.278408 0.922333 0.490421
O O9 0.000000 0.391948 0.947231
O O10 0.240203 0.278597 0.999791
O O11 0.250373 0.482622 0.008305
O O12 0.211937 0.167449 0.152318
O O13 0.000000 0.150945 0.023568
O O14 0.242157 0.318490 0.476282
O O15 0.000000 0.407594 0.554518
O O16 0.500000 0.132702 0.756608
O O17 0.282484 0.984583 0.775932
O O18 0.718236 0.777419 0.816525
O O19 0.000000 0.755730 0.882804
O O20 0.500000 0.142192 0.207549
#
# Coordination Sequence:
#
# PCOD8167337 Si02
#       8
#     4   4   4   4   4   4   4   4
#     4  10  19  34  58  84 111 148 189 240 289 339
#     4  10  20  35  55  80 118 160 189 234 299 355
#     4   9  20  36  57  87 117 149 193 244 300 347
#     4  10  20  36  57  85 117 151 197 249 291 346
#     4   9  19  36  57  85 118 151 193 243 297 346
#     4   9  19  35  54  78 111 151 191 231 283 345
#     4  11  21  34  57  89 116 151 201 246 286 343
#     4  10  22  38  55  82 120 163 195 233 301 363
#
# _framework density 20.543415
#
# number of rings (size 3 to 8) (size 9 to 14) (size 15 to 20)
#    0.000    2.250    1.250    2.250    1.750    3.500 
#    0.000    4.375    0.000    8.250    0.000    0.000 
#    0.000    0.000    0.000    0.000    0.000    0.000 
#
# Total GULP energy -396664.589776 kJ/mol
# GULP energy per Si atom -12395.768431 kJ/mol
# Density = 2.049666 g / cm^3
# Si number density = 20.543415 Si / 1000 Ang^3
#
#
#
# Elastic Constant Matrix: (Units=GPa)
#
#
# Indices 1 2 3 4 5 6 
#
# 1 33.5476 12.2629 10.9177 0.0000 0.0000 0.0000
# 2 12.2629 132.4823 68.4668 0.0000 0.0000 0.0000
# 3 10.9177 68.4668 72.8283 0.0000 0.0000 0.0000
# 4 0.0000 0.0000 0.0000 33.6053 0.0000 0.0000
# 5 0.0000 0.0000 0.0000 0.0000 19.5072 0.0000
# 6 0.0000 0.0000 0.0000 0.0000 0.0000 14.2272
#
#
#
# Elastic Compliance Matrix: (Units=1/GPa)
#
#
# Indices 1 2 3 4 5 6 
#
# 1 0.031395 -0.000921 -0.003840 0.000000 0.000000 0.000000
# 2 -0.000921 0.014708 -0.013689 0.000000 0.000000 0.000000
# 3 -0.003840 -0.013689 0.027176 0.000000 0.000000 0.000000
# 4 0.000000 0.000000 0.000000 0.029757 0.000000 0.000000
# 5 0.000000 0.000000 0.000000 0.000000 0.051263 0.000000
# 6 0.000000 0.000000 0.000000 0.000000 0.000000 0.070288
#
#
# Mechanical properties :
#
#
# Convention : Reuss Voigt Hill
#
# Bulk Modulus (GPa) = 27.48952 46.90590 37.19771
# Shear Modulus (GPa) = 18.27393 23.28200 20.77796
#
# Velocity S-wave (km/s) = 2.98573 3.37011 3.18373
# Velocity P-wave (km/s) = 5.02955 6.16650 5.62681
#
# Compressibility (1/GPa) = 0.03637750
#
# Stress axis : x y z
#
# Youngs Moduli (GPa) = 31.85224 67.99046 36.79735
#
# Poissons Ratio (x) = 0.06264 0.14131
# Poissons Ratio (y) = 0.02935 0.50372
# Poissons Ratio (z) = 0.12232 0.93072
#
# Static dielectric constant tensor:
#      x y z
#    x 3.379010 0.000000 0.000000 
#    y 0.000000 3.870760 0.000000 
#    z 0.000000 0.000000 3.982510 
# 
# 
# High freq. dielectric constant tensor:
#      x y z
#    x 1.770370 0.000000 0.000000 
#    y 0.000000 1.797490 0.000000 
#    z 0.000000 0.000000 1.813730 
# 
# From -- ./inp_files/4264.got.cif
#   From: 2010.03.12/outbox.cif.g09.slc.cpg/sg26_3_cif.got.tgz:4264.got - 2010.04.14 03:33:09.
