data_PCOD8167791
_publ_section_title
;
Structure prediction by ZEFSAII (Michael W. Deem and Ramdas Pophale) SiO2 
 PCOD8167791
Probable space group: P C C 2
;
_chemical_formula_sum "Si O2"
_cell_formula_units_Z 20
_cell_length_a 22.278451
_cell_length_b 7.149389
_cell_length_c 5.336922
_cell_angle_alpha 90.000000
_cell_angle_beta 90.000000
_cell_angle_gamma 90.000000
_cell_volume 850.050593
_symmetry_space_group_name_H-M "P C C 2"
_symmetry_group_IT_number 27
_symmetry_cell_setting 'orthorhombic'
loop_
_space_group_symop_operation_xyz
x,y,z
-x,-y,z
-x,y,1/2+z
x,-y,1/2+z
loop_
_atom_site_type_symbol
_atom_site_label
_atom_site_fract_x
_atom_site_fract_y
_atom_site_fract_z
Si Si1 0.333560 0.207505 0.305100
Si Si2 0.716540 0.210261 0.305084
Si Si3 0.974851 0.289346 0.261999
Si Si4 0.839930 0.619016 0.754776
Si Si5 0.474991 0.207484 0.311648
O O1 0.315153 0.310194 0.564744
O O2 0.404364 0.198715 0.274186
O O3 0.304250 0.002932 0.329189
O O4 0.305744 0.312073 0.061943
O O5 0.788276 0.225037 0.281661
O O6 0.903313 0.277816 0.275599
O O7 0.000000 0.500000 0.250042
O O8 0.002028 0.187450 0.508370
O O9 0.833873 0.527315 0.481286
O O10 0.494067 0.310348 0.572118
O O11 0.500000 0.000000 0.349856
#
# Coordination Sequence:
#
# PCOD8167791 Si02
#       5
#     4   4   4   4   4
#     4  10  19  35  49  71 108 132 169 190 245 310
#     4  10  20  32  49  69 100 145 158 198 240 300
#     4  10  16  30  48  69  97 119 148 207 263 287
#     4  12  21  32  50  77 105 123 169 204 247 308
#     4  10  16  25  46  74  99 119 150 212 256 285
#
# _framework density 23.528013999999999
#
# number of rings (size 3 to 8) (size 9 to 14) (size 15 to 20)
#    0.000    1.600    4.000    7.200    0.000    0.000 
#    0.000    0.000    0.000    0.000    0.000   16.800 
#    0.000  195.200    0.000    0.000    0.000    0.000 
#
# Total GULP energy -247837.402831 kJ/mol
# GULP energy per Si atom -12391.870142 kJ/mol
# Density = 2.347446 g / cm^3
# Si number density = 23.528014 Si / 1000 Ang^3
#
#
#
# Elastic Constant Matrix: (Units=GPa)
#
#
# Indices 1 2 3 4 5 6 
#
# 1 183.6276 9.6533 20.7861 0.0000 0.0000 0.0000
# 2 9.6533 21.2971 -12.4497 0.0000 0.0000 0.0000
# 3 20.7861 -12.4497 231.9959 0.0000 0.0000 0.0000
# 4 0.0000 0.0000 0.0000 -10.8297 0.0000 0.0000
# 5 0.0000 0.0000 0.0000 0.0000 46.1520 0.0000
# 6 0.0000 0.0000 0.0000 0.0000 0.0000 24.9444
#
#
#
# Elastic Compliance Matrix: (Units=1/GPa)
#
#
# Indices 1 2 3 4 5 6 
#
# 1 0.005677 -0.002964 -0.000668 0.000000 0.000000 0.000000
# 2 -0.002964 0.050023 0.002950 0.000000 0.000000 0.000000
# 3 -0.000668 0.002950 0.004529 0.000000 0.000000 0.000000
# 4 0.000000 0.000000 0.000000 -0.092338 0.000000 0.000000
# 5 0.000000 0.000000 0.000000 0.000000 0.021668 0.000000
# 6 0.000000 0.000000 0.000000 0.000000 0.000000 0.040089
#
#
# Mechanical properties :
#
#
# Convention : Reuss Voigt Hill
#
# Bulk Modulus (GPa) = 16.98787 52.54444 34.76615
# Shear Modulus (GPa) = 98.75339 39.98206 69.36772
#
# Velocity S-wave (km/s) = 6.48566 4.12678 5.43572
# Velocity P-wave (km/s) = 7.95745 6.71478 7.36238
#
# Compressibility (1/GPa) = 0.05886553
#
# Stress axis : x y z
#
# Youngs Moduli (GPa) = 176.14369 19.99097 220.82141
#
# Poissons Ratio (x) = 0.05925 0.14744
# Poissons Ratio (y) = 0.52202 -0.65140
# Poissons Ratio (z) = 0.11761 -0.05897
#
# Static dielectric constant tensor:
#      x y z
#    x 4.261770 0.000000 0.000000 
#    y 0.000000 3.273030 0.000000 
#    z 0.000000 0.000000 7.689100 
# 
# 
# High freq. dielectric constant tensor:
#      x y z
#    x 1.939860 0.000000 0.000000 
#    y 0.000000 1.861530 0.000000 
#    z 0.000000 0.000000 1.984450 
# 
# From -- ./inp_files/138.got.cif
#   From: 2010.03.12/outbox.cif.g09.slc.cpg/sg27_1_cif.got.tgz:138.got - 2010.04.14 03:36:05.
