data_PCOD8167329
_publ_section_title
;
Structure prediction by ZEFSAII (Michael W. Deem and Ramdas Pophale) SiO2 
 PCOD8167329
Probable space group: P M C 21
;
_chemical_formula_sum "Si O2"
_cell_formula_units_Z 32
_cell_length_a 9.148599
_cell_length_b 14.292763
_cell_length_c 12.452753
_cell_angle_alpha 90.000000
_cell_angle_beta 90.000000
_cell_angle_gamma 90.000000
_cell_volume 1628.306507
_symmetry_space_group_name_H-M "P M C 21"
_symmetry_group_IT_number 26
_symmetry_cell_setting 'orthorhombic'
loop_
_space_group_symop_operation_xyz
x,y,z
-x,-y,1/2+z
-x,y,z
x,-y,1/2+z
loop_
_atom_site_type_symbol
_atom_site_label
_atom_site_fract_x
_atom_site_fract_y
_atom_site_fract_z
Si Si1 0.336148 0.864734 0.517030
Si Si2 0.160467 0.677845 0.817197
Si Si3 0.831692 0.643056 0.214431
Si Si4 0.828719 0.443207 0.128718
Si Si5 0.672313 0.338296 0.936366
Si Si6 0.839101 0.877735 0.723889
Si Si7 0.665060 0.937640 0.922811
Si Si8 0.173467 0.775203 0.024912
O O1 0.500000 0.851539 0.564275
O O2 0.287172 0.769693 0.458296
O O3 0.222542 0.893723 0.606787
O O4 0.330185 0.951298 0.436702
O O5 0.238046 0.601045 0.740212
O O6 0.150896 0.768051 0.742570
O O7 0.000000 0.638137 0.845958
O O8 0.237270 0.705816 0.930419
O O9 0.805784 0.554057 0.137351
O O10 0.731498 0.636912 0.318717
O O11 0.790372 0.733364 0.141754
O O12 0.000000 0.648149 0.251711
O O13 0.000000 0.416644 0.117368
O O14 0.744543 0.405742 0.024675
O O15 0.500000 0.356040 0.937932
O O16 0.731495 0.926315 0.806126
O O17 0.000000 0.923685 0.732197
O O18 0.500000 0.899881 0.925501
O O19 0.753545 0.877400 0.012286
O O20 0.000000 0.786905 0.005816
#
# Coordination Sequence:
#
# PCOD8167329 Si02
#       8
#     4   4   4   4   4   4   4   4
#     4  10  22  39  58  82 115 156 198 240 292 352
#     4   8  15  30  55  83 109 138 180 240 290 332
#     4  10  23  39  62  89 120 160 198 241 293 356
#     4  10  20  37  63  89 113 150 197 241 289 349
#     4  11  24  41  60  86 123 157 193 245 297 352
#     4  10  19  34  57  85 112 143 189 248 297 339
#     4  10  21  37  58  84 116 159 201 238 291 360
#     4   9  19  37  57  86 120 151 196 249 295 340
#
# _framework density 19.652318999999999
#
# number of rings (size 3 to 8) (size 9 to 14) (size 15 to 20)
#    0.000    2.250    1.250    1.875    1.750    3.500 
#    0.000    3.750    0.000    0.000    0.000    0.000 
#    0.000    0.000    0.000    0.000    0.000    0.000 
#
# Total GULP energy -396638.734119 kJ/mol
# GULP energy per Si atom -12394.960441 kJ/mol
# Density = 1.960759 g / cm^3
# Si number density = 19.652319 Si / 1000 Ang^3
#
#
#
# Elastic Constant Matrix: (Units=GPa)
#
#
# Indices 1 2 3 4 5 6 
#
# 1 86.1885 42.7983 48.0747 0.0000 0.0000 0.0000
# 2 42.7983 85.7178 39.8116 0.0000 0.0000 0.0000
# 3 48.0747 39.8116 101.3573 0.0000 0.0000 0.0000
# 4 0.0000 0.0000 0.0000 23.5841 0.0000 0.0000
# 5 0.0000 0.0000 0.0000 0.0000 30.8750 0.0000
# 6 0.0000 0.0000 0.0000 0.0000 0.0000 24.3782
#
#
#
# Elastic Compliance Matrix: (Units=1/GPa)
#
#
# Indices 1 2 3 4 5 6 
#
# 1 0.018108 -0.006179 -0.006162 0.000000 0.000000 0.000000
# 2 -0.006179 0.016378 -0.003502 0.000000 0.000000 0.000000
# 3 -0.006162 -0.003502 0.014164 0.000000 0.000000 0.000000
# 4 0.000000 0.000000 0.000000 0.042401 0.000000 0.000000
# 5 0.000000 0.000000 0.000000 0.000000 0.032389 0.000000
# 6 0.000000 0.000000 0.000000 0.000000 0.000000 0.041020
#
#
# Mechanical properties :
#
#
# Convention : Reuss Voigt Hill
#
# Bulk Modulus (GPa) = 58.94856 59.40364 59.17610
# Shear Modulus (GPa) = 24.77689 25.27272 25.02481
#
# Velocity S-wave (km/s) = 3.55457 3.58996 3.57231
# Velocity P-wave (km/s) = 6.84890 6.89033 6.86965
#
# Compressibility (1/GPa) = 0.01696394
#
# Stress axis : x y z
#
# Youngs Moduli (GPa) = 55.22501 61.05735 70.60084
#
# Poissons Ratio (x) = 0.37729 0.43501
# Poissons Ratio (y) = 0.34125 0.24725
# Poissons Ratio (z) = 0.34027 0.21383
#
# Static dielectric constant tensor:
#      x y z
#    x 3.573760 0.000000 0.000000 
#    y 0.000000 3.621700 0.000000 
#    z 0.000000 0.000000 3.470990 
# 
# 
# High freq. dielectric constant tensor:
#      x y z
#    x 1.749700 0.000000 0.000000 
#    y 0.000000 1.764080 0.000000 
#    z 0.000000 0.000000 1.764890 
# 
# From -- ./inp_files/2963.got.cif
#   From: 2010.03.12/outbox.cif.g09.slc.cpg/sg26_2_cif.got.tgz:2963.got - 2010.04.14 03:33:09.
