data_PCOD8167663
_publ_section_title
;
Structure prediction by ZEFSAII (Michael W. Deem and Ramdas Pophale) SiO2 
 PCOD8167663
Probable space group: P M C 21
;
_chemical_formula_sum "Si O2"
_cell_formula_units_Z 32
_cell_length_a 9.066449
_cell_length_b 14.508195
_cell_length_c 12.232497
_cell_angle_alpha 90.000000
_cell_angle_beta 90.000000
_cell_angle_gamma 90.000000
_cell_volume 1609.035867
_symmetry_space_group_name_H-M "P M C 21"
_symmetry_group_IT_number 26
_symmetry_cell_setting 'orthorhombic'
loop_
_space_group_symop_operation_xyz
x,y,z
-x,-y,1/2+z
-x,y,z
x,-y,1/2+z
loop_
_atom_site_type_symbol
_atom_site_label
_atom_site_fract_x
_atom_site_fract_y
_atom_site_fract_z
Si Si1 0.831763 0.553556 0.609620
Si Si2 0.670015 0.870340 0.868854
Si Si3 0.671061 0.374550 0.670241
Si Si4 0.834090 0.824973 0.495873
Si Si5 0.669985 0.271179 0.186664
Si Si6 0.160842 0.360711 0.877707
Si Si7 0.174618 0.951325 0.304402
Si Si8 0.325681 0.168483 0.616562
O O1 0.758811 0.453858 0.608848
O O2 0.752834 0.630726 0.684666
O O3 0.817147 0.580827 0.485123
O O4 0.000000 0.548925 0.649760
O O5 0.500000 0.901492 0.862911
O O6 0.691325 0.772818 0.806618
O O7 0.767776 0.944454 0.803946
O O8 0.721215 0.860594 0.994300
O O9 0.500000 0.389210 0.648294
O O10 0.706573 0.386655 0.798005
O O11 0.725389 0.274320 0.631020
O O12 0.728182 0.802037 0.596696
O O13 0.831244 0.746288 0.404788
O O14 0.781047 0.912850 0.425181
O O15 0.000000 0.837799 0.542571
O O16 0.500000 0.289959 0.159863
O O17 0.000000 0.382667 0.824870
O O18 0.246309 0.896313 0.204072
O O19 0.000000 0.948448 0.287239
O O20 0.500000 0.160006 0.635142
#
# Coordination Sequence:
#
# PCOD8167663 Si02
#       8
#     4   4   4   4   4   4   4   4
#     4  10  22  39  60  87 122 163 206 250 304 367
#     4  10  24  43  61  87 126 166 203 250 308 367
#     4  11  22  36  60  91 120 156 202 253 305 361
#     4   9  19  36  58  84 116 151 193 250 303 357
#     4  10  21  38  61  88 119 159 206 254 305 359
#     4   9  18  36  57  80 113 154 197 246 301 355
#     4  11  23  39  62  91 120 155 203 253 303 364
#     4  10  23  43  63  88 124 162 204 252 307 366
#
# _framework density 19.887685000000001
#
# number of rings (size 3 to 8) (size 9 to 14) (size 15 to 20)
#    0.000    2.000    1.250    2.250    1.750    6.500 
#    0.000    1.250    0.000    0.000    0.000    0.000 
#    0.000    0.000    0.000    0.000    0.000    0.000 
#
# Total GULP energy -396762.912463 kJ/mol
# GULP energy per Si atom -12398.841014 kJ/mol
# Density = 1.984242 g / cm^3
# Si number density = 19.887685 Si / 1000 Ang^3
#
#
#
# Elastic Constant Matrix: (Units=GPa)
#
#
# Indices 1 2 3 4 5 6 
#
# 1 93.9005 55.2924 42.8100 0.0000 0.0000 0.0000
# 2 55.2924 120.4496 39.0308 0.0000 0.0000 0.0000
# 3 42.8100 39.0308 66.3393 0.0000 0.0000 0.0000
# 4 0.0000 0.0000 0.0000 19.1869 0.0000 0.0000
# 5 0.0000 0.0000 0.0000 0.0000 17.4621 0.0000
# 6 0.0000 0.0000 0.0000 0.0000 0.0000 28.1495
#
#
#
# Elastic Compliance Matrix: (Units=1/GPa)
#
#
# Indices 1 2 3 4 5 6 
#
# 1 0.017551 -0.005420 -0.008137 0.000000 0.000000 0.000000
# 2 -0.005420 0.011932 -0.003522 0.000000 0.000000 0.000000
# 3 -0.008137 -0.003522 0.022397 0.000000 0.000000 0.000000
# 4 0.000000 0.000000 0.000000 0.052119 0.000000 0.000000
# 5 0.000000 0.000000 0.000000 0.000000 0.057267 0.000000
# 6 0.000000 0.000000 0.000000 0.000000 0.000000 0.035525
#
#
# Mechanical properties :
#
#
# Convention : Reuss Voigt Hill
#
# Bulk Modulus (GPa) = 56.42992 61.66175 59.04584
# Shear Modulus (GPa) = 21.10988 22.53012 21.82000
#
# Velocity S-wave (km/s) = 3.26153 3.36946 3.31594
# Velocity P-wave (km/s) = 6.52835 6.79779 6.66443
#
# Compressibility (1/GPa) = 0.01772109
#
# Stress axis : x y z
#
# Youngs Moduli (GPa) = 56.97757 83.81058 44.64810
#
# Poissons Ratio (x) = 0.45425 0.36330
# Poissons Ratio (y) = 0.30882 0.15727
# Poissons Ratio (z) = 0.46363 0.29522
#
# Static dielectric constant tensor:
#      x y z
#    x 3.668410 0.000000 0.000000 
#    y 0.000000 3.698260 0.000000 
#    z 0.000000 0.000000 3.523890 
# 
# 
# High freq. dielectric constant tensor:
#      x y z
#    x 1.777170 0.000000 0.000000 
#    y 0.000000 1.780060 0.000000 
#    z 0.000000 0.000000 1.772490 
# 
# From -- ./inp_files/3095.got.cif
#   From: 2010.03.12/outbox.cif.g09.slc.cpg/sg26_2_cif.got.tgz:3095.got - 2010.04.14 03:33:09.
