data_PCOD8167671
_publ_section_title
;
Structure prediction by ZEFSAII (Michael W. Deem and Ramdas Pophale) SiO2 
 PCOD8167671
Probable space group: P M C 21
;
_chemical_formula_sum "Si O2"
_cell_formula_units_Z 24
_cell_length_a 8.523739
_cell_length_b 15.176111
_cell_length_c 9.241445
_cell_angle_alpha 90.000000
_cell_angle_beta 90.000000
_cell_angle_gamma 90.000000
_cell_volume 1195.447534
_symmetry_space_group_name_H-M "P M C 21"
_symmetry_group_IT_number 26
_symmetry_cell_setting 'orthorhombic'
loop_
_space_group_symop_operation_xyz
x,y,z
-x,-y,1/2+z
-x,y,z
x,-y,1/2+z
loop_
_atom_site_type_symbol
_atom_site_label
_atom_site_fract_x
_atom_site_fract_y
_atom_site_fract_z
Si Si1 0.820222 0.075010 0.751040
Si Si2 0.819693 0.422960 0.251785
Si Si3 0.682511 0.574878 0.437893
Si Si4 0.316116 0.260707 0.744659
Si Si5 0.679307 0.929956 0.946617
Si Si6 0.679973 0.267165 0.413217
O O1 0.774752 0.173915 0.797282
O O2 0.794475 0.059670 0.581596
O O3 0.000000 0.057241 0.790692
O O4 0.710918 0.006325 0.833467
O O5 0.711161 0.488772 0.342253
O O6 0.788451 0.324199 0.307709
O O7 0.000000 0.448147 0.275952
O O8 0.782312 0.429821 0.082988
O O9 0.500000 0.580305 0.478023
O O10 0.736963 0.659769 0.346894
O O11 0.500000 0.240853 0.755215
O O12 0.271563 0.284832 0.579850
O O13 0.500000 0.934673 0.002049
O O14 0.708399 0.834976 0.872322
O O15 0.500000 0.294480 0.387328
#
# Coordination Sequence:
#
# PCOD8167671 Si02
#       6
#     4   4   4   4   4   4
#     4  11  22  36  58  88 120 151 189 242 297 342
#     4  12  25  39  59  89 122 151 186 239 296 342
#     4  11  23  41  64  86 114 155 199 236 277 342
#     4   9  20  39  62  85 111 150 197 239 283 341
#     4  10  21  39  61  83 114 157 200 237 280 343
#     4   9  19  38  62  85 111 150 197 239 283 340
#
# _framework density 20.076162
#
# number of rings (size 3 to 8) (size 9 to 14) (size 15 to 20)
#    0.000    1.667    0.000    6.000    0.000    7.333 
#    0.000    1.667    0.000    0.000    0.000    0.000 
#    0.000    0.000    0.000    0.000    0.000    0.000 
#
# Total GULP energy -297734.870978 kJ/mol
# GULP energy per Si atom -12405.619624 kJ/mol
# Density = 2.003047 g / cm^3
# Si number density = 20.076162 Si / 1000 Ang^3
#
#
#
# Elastic Constant Matrix: (Units=GPa)
#
#
# Indices 1 2 3 4 5 6 
#
# 1 61.4960 22.8945 13.6461 0.0000 0.0000 0.0000
# 2 22.8945 106.0118 41.6529 0.0000 0.0000 0.0000
# 3 13.6461 41.6529 76.6960 0.0000 0.0000 0.0000
# 4 0.0000 0.0000 0.0000 41.5649 0.0000 0.0000
# 5 0.0000 0.0000 0.0000 0.0000 29.4934 0.0000
# 6 0.0000 0.0000 0.0000 0.0000 0.0000 22.9585
#
#
#
# Elastic Compliance Matrix: (Units=1/GPa)
#
#
# Indices 1 2 3 4 5 6 
#
# 1 0.017796 -0.003304 -0.001372 0.000000 0.000000 0.000000
# 2 -0.003304 0.012605 -0.006258 0.000000 0.000000 0.000000
# 3 -0.001372 -0.006258 0.016681 0.000000 0.000000 0.000000
# 4 0.000000 0.000000 0.000000 0.024059 0.000000 0.000000
# 5 0.000000 0.000000 0.000000 0.000000 0.033906 0.000000
# 6 0.000000 0.000000 0.000000 0.000000 0.000000 0.043557
#
#
# Mechanical properties :
#
#
# Convention : Reuss Voigt Hill
#
# Bulk Modulus (GPa) = 39.65994 44.51008 42.08501
# Shear Modulus (GPa) = 27.95225 29.87070 28.91148
#
# Velocity S-wave (km/s) = 3.73542 3.86148 3.79897
# Velocity P-wave (km/s) = 6.19694 6.48846 6.34437
#
# Compressibility (1/GPa) = 0.02521436
#
# Stress axis : x y z
#
# Youngs Moduli (GPa) = 56.19319 79.33180 59.94780
#
# Poissons Ratio (x) = 0.26213 0.08224
# Poissons Ratio (y) = 0.18567 0.37515
# Poissons Ratio (z) = 0.07709 0.49645
#
# Static dielectric constant tensor:
#      x y z
#    x 3.483290 0.000000 0.000000 
#    y 0.000000 3.734340 0.000000 
#    z 0.000000 0.000000 3.615610 
# 
# 
# High freq. dielectric constant tensor:
#      x y z
#    x 1.782040 0.000000 0.000000 
#    y 0.000000 1.796060 0.000000 
#    z 0.000000 0.000000 1.776700 
# 
# From -- ./inp_files/1415.got.cif
#   From: 2010.03.12/outbox.cif.g09.slc.cpg/sg26_1_cif.got.tgz:1415.got - 2010.04.14 03:33:09.
