data_PCOD8167180
_publ_section_title
;
Structure prediction by ZEFSAII (Michael W. Deem and Ramdas Pophale) SiO2 
 PCOD8167180
Probable space group: P M C 21
;
_chemical_formula_sum "Si O2"
_cell_formula_units_Z 18
_cell_length_a 12.346582
_cell_length_b 17.698213
_cell_length_c 5.160249
_cell_angle_alpha 90.000000
_cell_angle_beta 90.000000
_cell_angle_gamma 90.000000
_cell_volume 1127.578590
_symmetry_space_group_name_H-M "P M C 21"
_symmetry_group_IT_number 26
_symmetry_cell_setting 'orthorhombic'
loop_
_space_group_symop_operation_xyz
x,y,z
-x,-y,1/2+z
-x,y,z
x,-y,1/2+z
loop_
_atom_site_type_symbol
_atom_site_label
_atom_site_fract_x
_atom_site_fract_y
_atom_site_fract_z
Si Si1 0.732501 0.449620 0.328800
Si Si2 0.871329 0.214003 0.861062
Si Si3 0.871365 0.696220 0.860504
Si Si4 0.870792 0.044026 0.865127
Si Si5 0.500000 0.453560 0.422601
O O1 0.746904 0.514284 0.545392
O O2 0.823435 0.387220 0.367597
O O3 0.612744 0.410419 0.357881
O O4 0.829646 0.257013 0.607199
O O5 0.824198 0.129100 0.863958
O O6 0.000000 0.210158 0.864196
O O7 0.828576 0.259195 0.109858
O O8 0.000000 0.687629 0.860181
O O9 0.000000 0.045702 0.864667
O O10 0.826550 0.999634 0.615849
O O11 0.500000 0.474113 0.727212
#
# Coordination Sequence:
#
# PCOD8167180 Si02
#       5
#     4   4   4   4   2
#     4  10  19  31  46  62  80 105 139 174 206 241
#     4   9  17  28  39  55  82 112 139 165 200 243
#     4  10  19  29  41  58  83 114 139 164 202 242
#     4   9  15  23  37  55  74 102 139 170 193 226
#     4   8  16  30  46  62  78  98 128 170 216 248
#
# _framework density 15.963411000000001
#
# number of rings (size 3 to 8) (size 9 to 14) (size 15 to 20)
#    0.000    2.667    0.000    2.667    0.000    6.222 
#    0.000    0.000    0.000    0.000    0.000    0.000 
#    0.000    0.000    0.000   20.000    0.000    8.889 
#
# Total GULP energy -223112.875122 kJ/mol
# GULP energy per Si atom -12395.159729 kJ/mol
# Density = 1.592708 g / cm^3
# Si number density = 15.963411 Si / 1000 Ang^3
#
#
#
# Elastic Constant Matrix: (Units=GPa)
#
#
# Indices 1 2 3 4 5 6 
#
# 1 30.1590 28.8719 19.1915 0.0000 0.0000 0.0000
# 2 28.8719 98.4132 44.5147 0.0000 0.0000 0.0000
# 3 19.1915 44.5147 130.7367 0.0000 0.0000 0.0000
# 4 0.0000 0.0000 0.0000 30.0540 0.0000 0.0000
# 5 0.0000 0.0000 0.0000 0.0000 9.7742 0.0000
# 6 0.0000 0.0000 0.0000 0.0000 0.0000 0.8839
#
#
#
# Elastic Compliance Matrix: (Units=1/GPa)
#
#
# Indices 1 2 3 4 5 6 
#
# 1 0.046841 -0.012567 -0.002597 0.000000 0.000000 0.000000
# 2 -0.012567 0.015383 -0.003393 0.000000 0.000000 0.000000
# 3 -0.002597 -0.003393 0.009185 0.000000 0.000000 0.000000
# 4 0.000000 0.000000 0.000000 0.033273 0.000000 0.000000
# 5 0.000000 0.000000 0.000000 0.000000 0.102310 0.000000
# 6 0.000000 0.000000 0.000000 0.000000 0.000000 1.131368
#
#
# Mechanical properties :
#
#
# Convention : Reuss Voigt Hill
#
# Bulk Modulus (GPa) = 29.15870 49.38500 39.27185
# Shear Modulus (GPa) = 3.60514 19.25781 11.43148
#
# Velocity S-wave (km/s) = 1.50442 3.47705 2.67892
# Velocity P-wave (km/s) = 4.61772 6.86465 5.85007
#
# Compressibility (1/GPa) = 0.03429508
#
# Stress axis : x y z
#
# Youngs Moduli (GPa) = 21.34871 65.00734 108.86792
#
# Poissons Ratio (x) = 0.81697 0.28273
# Poissons Ratio (y) = 0.26830 0.36938
# Poissons Ratio (z) = 0.05544 0.22056
#
# Static dielectric constant tensor:
#      x y z
#    x 2.677040 0.000000 0.000000 
#    y 0.000000 2.959180 0.000000 
#    z 0.000000 0.000000 3.357280 
# 
# 
# High freq. dielectric constant tensor:
#      x y z
#    x 1.551390 0.000000 0.000000 
#    y 0.000000 1.601620 0.000000 
#    z 0.000000 0.000000 1.641700 
# 
# From -- ./inp_files/317.got.cif
#   From: 2010.03.12/outbox.cif.g09.slc.cpg/sg26_1_cif.got.tgz:317.got - 2010.04.14 03:33:09.
