data_PCOD8167423
_publ_section_title
;
Structure prediction by ZEFSAII (Michael W. Deem and Ramdas Pophale) SiO2 
 PCOD8167423
Probable space group: P M C 21
;
_chemical_formula_sum "Si O2"
_cell_formula_units_Z 32
_cell_length_a 13.548268
_cell_length_b 14.528652
_cell_length_c 8.837096
_cell_angle_alpha 90.000000
_cell_angle_beta 90.000000
_cell_angle_gamma 90.000000
_cell_volume 1739.476930
_symmetry_space_group_name_H-M "P M C 21"
_symmetry_group_IT_number 26
_symmetry_cell_setting 'orthorhombic'
loop_
_space_group_symop_operation_xyz
x,y,z
-x,-y,1/2+z
-x,y,z
x,-y,1/2+z
loop_
_atom_site_type_symbol
_atom_site_label
_atom_site_fract_x
_atom_site_fract_y
_atom_site_fract_z
Si Si1 0.111718 0.904060 0.950690
Si Si2 0.888288 0.903843 0.307999
Si Si3 0.114033 0.586659 0.795719
Si Si4 0.770683 0.271663 0.451956
Si Si5 0.611874 0.402636 0.950440
Si Si6 0.229311 0.271880 0.806173
Si Si7 0.611871 0.597545 0.807864
Si Si8 0.885966 0.586434 0.462367
O O1 0.197674 0.831600 0.902876
O O2 0.000000 0.877136 0.894862
O O3 0.144970 0.000160 0.879528
O O4 0.110128 0.913886 0.129360
O O5 0.802360 0.831313 0.355604
O O6 0.000000 0.876841 0.363727
O O7 0.131650 0.672615 0.904603
O O8 0.164418 0.500168 0.879198
O O9 0.163267 0.599388 0.629018
O O10 0.000000 0.569149 0.773679
O O11 0.749343 0.278334 0.629055
O O12 0.677957 0.316104 0.364085
O O13 0.500000 0.380428 0.900595
O O14 0.677961 0.316351 0.893981
O O15 0.645950 0.500127 0.879283
O O16 0.621345 0.411250 0.129163
O O17 0.131664 0.327739 0.853198
O O18 0.500000 0.619808 0.857642
O O19 0.000000 0.568937 0.484411
#
# Coordination Sequence:
#
# PCOD8167423 Si02
#       8
#     4   4   4   4   4   4   4   4
#     4   9  19  35  54  77 105 137 172 211 256 305
#     4   9  19  35  54  77 105 137 172 211 256 305
#     4  10  20  32  46  67  98 135 171 206 246 296
#     4  11  21  33  52  76 103 134 169 211 258 309
#     4  10  21  37  56  78 105 137 174 216 260 308
#     4  11  21  33  52  76 103 134 169 211 258 309
#     4  10  21  37  56  78 105 137 174 216 260 308
#     4  10  20  32  46  67  98 135 171 206 246 296
#
# _framework density 18.396332999999998
#
# number of rings (size 3 to 8) (size 9 to 14) (size 15 to 20)
#    0.000    2.000    0.000    3.750    0.000    6.000 
#    0.000    2.500    0.000    0.750    0.000    0.000 
#    0.000    0.000    0.000    0.000    0.000    0.000 
#
# Total GULP energy -396468.299778 kJ/mol
# GULP energy per Si atom -12389.634368 kJ/mol
# Density = 1.835446 g / cm^3
# Si number density = 18.396333 Si / 1000 Ang^3
#
#
#
# Elastic Constant Matrix: (Units=GPa)
#
#
# Indices 1 2 3 4 5 6 
#
# 1 101.9253 60.9681 31.9422 0.0000 0.0000 0.0000
# 2 60.9681 144.2483 47.6645 0.0000 0.0000 0.0000
# 3 31.9422 47.6645 58.1400 0.0000 0.0000 0.0000
# 4 0.0000 0.0000 0.0000 32.7924 0.0000 0.0000
# 5 0.0000 0.0000 0.0000 0.0000 24.7951 0.0000
# 6 0.0000 0.0000 0.0000 0.0000 0.0000 27.2483
#
#
#
# Elastic Compliance Matrix: (Units=1/GPa)
#
#
# Indices 1 2 3 4 5 6 
#
# 1 0.013722 -0.004538 -0.003819 0.000000 0.000000 0.000000
# 2 -0.004538 0.011009 -0.006532 0.000000 0.000000 0.000000
# 3 -0.003819 -0.006532 0.024653 0.000000 0.000000 0.000000
# 4 0.000000 0.000000 0.000000 0.030495 0.000000 0.000000
# 5 0.000000 0.000000 0.000000 0.000000 0.040331 0.000000
# 6 0.000000 0.000000 0.000000 0.000000 0.000000 0.036700
#
#
# Mechanical properties :
#
#
# Convention : Reuss Voigt Hill
#
# Bulk Modulus (GPa) = 51.00339 65.05149 58.02744
# Shear Modulus (GPa) = 25.87684 27.88306 26.87995
#
# Velocity S-wave (km/s) = 3.75458 3.89740 3.82666
# Velocity P-wave (km/s) = 6.82501 7.46263 7.15093
#
# Compressibility (1/GPa) = 0.01960654
#
# Stress axis : x y z
#
# Youngs Moduli (GPa) = 72.87381 90.83458 40.56290
#
# Poissons Ratio (x) = 0.41222 0.15490
# Poissons Ratio (y) = 0.33071 0.26497
# Poissons Ratio (z) = 0.27828 0.59335
#
# Static dielectric constant tensor:
#      x y z
#    x 3.395840 0.000000 0.000000 
#    y 0.000000 3.574270 0.000000 
#    z 0.000000 0.000000 3.618130 
# 
# 
# High freq. dielectric constant tensor:
#      x y z
#    x 1.705920 0.000000 0.000000 
#    y 0.000000 1.698630 0.000000 
#    z 0.000000 0.000000 1.725580 
# 
# From -- ./inp_files/2247.got.cif
#   From: 2010.03.12/outbox.cif.g09.slc.cpg/sg26_2_cif.got.tgz:2247.got - 2010.04.14 03:33:09.
