data_PCOD8167600
_publ_section_title
;
Structure prediction by ZEFSAII (Michael W. Deem and Ramdas Pophale) SiO2 
 PCOD8167600
Probable space group: P M C 21
;
_chemical_formula_sum "Si O2"
_cell_formula_units_Z 32
_cell_length_a 12.115882
_cell_length_b 5.208991
_cell_length_c 22.731219
_cell_angle_alpha 90.000000
_cell_angle_beta 90.000000
_cell_angle_gamma 90.000000
_cell_volume 1434.601789
_symmetry_space_group_name_H-M "P M C 21"
_symmetry_group_IT_number 26
_symmetry_cell_setting 'orthorhombic'
loop_
_space_group_symop_operation_xyz
x,y,z
-x,-y,1/2+z
-x,y,z
x,-y,1/2+z
loop_
_atom_site_type_symbol
_atom_site_label
_atom_site_fract_x
_atom_site_fract_y
_atom_site_fract_z
Si Si1 0.178269 0.938600 0.590740
Si Si2 0.876605 0.309892 0.208864
Si Si3 0.288608 0.693133 0.167095
Si Si4 0.373472 0.477392 0.831745
Si Si5 0.738780 0.427730 0.450761
Si Si6 0.293182 0.986151 0.770154
Si Si7 0.878094 0.932569 0.463254
Si Si8 0.375943 0.408422 0.064927
O O1 0.119526 0.765303 0.639932
O O2 0.103448 0.961832 0.533438
O O3 0.299421 0.839629 0.571066
O O4 0.197791 0.215310 0.619443
O O5 0.781523 0.525811 0.214301
O O6 0.000000 0.396223 0.227805
O O7 0.834945 0.085124 0.253622
O O8 0.344462 0.919076 0.206587
O O9 0.380557 0.548734 0.128647
O O10 0.500000 0.394539 0.824256
O O11 0.349642 0.543957 0.899102
O O12 0.300435 0.226971 0.814674
O O13 0.354965 0.733221 0.792956
O O14 0.825156 0.660032 0.447924
O O15 0.673452 0.414280 0.512527
O O16 0.803243 0.163012 0.438946
O O17 0.000000 0.946600 0.434539
O O18 0.500000 0.323591 0.048582
#
# Coordination Sequence:
#
# PCOD8167600 Si02
#       8
#     4   4   4   4   4   4   4   4
#     4   9  20  37  58  98 136 176 221 260 310 416
#     4  10  21  40  68  96 134 178 218 270 337 394
#     4  10  20  41  63  99 142 171 219 278 324 404
#     4  12  26  48  73  93 127 182 228 280 334 389
#     4  11  24  45  67  98 134 166 234 274 318 412
#     4  11  24  46  67 100 133 164 235 281 323 400
#     4  11  22  41  68  98 137 174 210 269 334 387
#     4  10  21  38  62  96 137 177 213 274 344 390
#
# _framework density 22.305841999999998
#
# number of rings (size 3 to 8) (size 9 to 14) (size 15 to 20)
#    0.000    1.500    2.500    2.250    0.000    4.000 
#    0.000    6.875    0.000    0.000    0.000    0.000 
#    0.000    0.000    0.000    0.000    0.000    0.000 
#
# Total GULP energy -396517.979379 kJ/mol
# GULP energy per Si atom -12391.186856 kJ/mol
# Density = 2.225507 g / cm^3
# Si number density = 22.305842 Si / 1000 Ang^3
#
#
#
# Elastic Constant Matrix: (Units=GPa)
#
#
# Indices 1 2 3 4 5 6 
#
# 1 117.6560 24.9189 31.0707 0.0000 0.0000 0.0000
# 2 24.9189 103.7458 24.8366 0.0000 0.0000 0.0000
# 3 31.0707 24.8366 87.9377 0.0000 0.0000 0.0000
# 4 0.0000 0.0000 0.0000 33.4651 0.0000 0.0000
# 5 0.0000 0.0000 0.0000 0.0000 17.7651 0.0000
# 6 0.0000 0.0000 0.0000 0.0000 0.0000 17.0652
#
#
#
# Elastic Compliance Matrix: (Units=1/GPa)
#
#
# Indices 1 2 3 4 5 6 
#
# 1 0.009617 -0.001605 -0.002945 0.000000 0.000000 0.000000
# 2 -0.001605 0.010606 -0.002428 0.000000 0.000000 0.000000
# 3 -0.002945 -0.002428 0.013098 0.000000 0.000000 0.000000
# 4 0.000000 0.000000 0.000000 0.029882 0.000000 0.000000
# 5 0.000000 0.000000 0.000000 0.000000 0.056290 0.000000
# 6 0.000000 0.000000 0.000000 0.000000 0.000000 0.058599
#
#
# Mechanical properties :
#
#
# Convention : Reuss Voigt Hill
#
# Bulk Modulus (GPa) = 51.64015 52.33241 51.98628
# Shear Modulus (GPa) = 25.18865 28.89331 27.04098
#
# Velocity S-wave (km/s) = 3.36406 3.60297 3.48556
# Velocity P-wave (km/s) = 6.18793 6.38911 6.28932
#
# Compressibility (1/GPa) = 0.01936478
#
# Stress axis : x y z
#
# Youngs Moduli (GPa) = 103.98373 94.28814 76.34783
#
# Poissons Ratio (x) = 0.15133 0.22481
# Poissons Ratio (y) = 0.16689 0.18540
# Poissons Ratio (z) = 0.30619 0.22897
#
# Static dielectric constant tensor:
#      x y z
#    x 3.634280 0.000000 0.000000 
#    y 0.000000 4.082770 0.000000 
#    z 0.000000 0.000000 4.102310 
# 
# 
# High freq. dielectric constant tensor:
#      x y z
#    x 1.853980 0.000000 0.000000 
#    y 0.000000 1.883400 0.000000 
#    z 0.000000 0.000000 1.876300 
# 
# From -- ./inp_files/5618.got.cif
#   From: 2010.03.12/outbox.cif.g09.slc.cpg/sg26_3_cif.got.tgz:5618.got - 2010.04.14 03:33:09.
