data_PCOD8167821
_publ_section_title
;
Structure prediction by ZEFSAII (Michael W. Deem and Ramdas Pophale) SiO2 
 PCOD8167821
Probable space group: P C C 2
;
_chemical_formula_sum "Si O2"
_cell_formula_units_Z 32
_cell_length_a 9.018018
_cell_length_b 12.894176
_cell_length_c 13.960030
_cell_angle_alpha 90.000000
_cell_angle_beta 90.000000
_cell_angle_gamma 90.000000
_cell_volume 1623.271050
_symmetry_space_group_name_H-M "P C C 2"
_symmetry_group_IT_number 27
_symmetry_cell_setting 'orthorhombic'
loop_
_space_group_symop_operation_xyz
x,y,z
-x,-y,z
-x,y,1/2+z
x,-y,1/2+z
loop_
_atom_site_type_symbol
_atom_site_label
_atom_site_fract_x
_atom_site_fract_y
_atom_site_fract_z
Si Si1 0.770309 0.363974 0.680810
Si Si2 0.512767 0.243841 0.222511
Si Si3 0.649599 0.041533 0.154823
Si Si4 0.872208 0.925877 0.501315
Si Si5 0.033212 0.706005 0.046318
Si Si6 0.986665 0.615994 0.343198
Si Si7 0.239831 0.395942 0.688833
Si Si8 0.620147 0.922477 0.349164
O O1 0.633456 0.284911 0.667223
O O2 0.834179 0.356273 0.788609
O O3 0.726228 0.484113 0.667144
O O4 0.889442 0.332386 0.601982
O O5 0.619467 0.164779 0.164941
O O6 0.612638 0.345921 0.234537
O O7 0.459774 0.186224 0.320223
O O8 0.785677 0.015426 0.086111
O O9 0.500000 0.000000 0.105920
O O10 0.679228 0.981469 0.254284
O O11 0.946755 0.828599 0.553249
O O12 0.757658 0.896285 0.417286
O O13 0.000000 0.000000 0.459337
O O14 0.181274 0.650557 0.087519
O O15 0.004508 0.688958 0.934149
O O16 0.000000 0.500000 0.383082
O O17 0.116631 0.630758 0.267041
O O18 0.500000 0.000000 0.398772
#
# Coordination Sequence:
#
# PCOD8167821 Si02
#       8
#     4   4   4   4   4   4   4   4
#     4  10  21  36  61  90 123 161 202 253 302 360
#     4  10  19  39  62  86 118 160 200 246 302 359
#     4   9  21  41  63  81 121 160 194 253 310 362
#     4  12  25  39  60  94 120 155 211 257 301 374
#     4  11  22  38  59  89 123 163 200 252 307 362
#     4   9  19  37  58  83 122 162 198 244 300 359
#     4  10  20  38  61  89 123 162 205 246 301 364
#     4   9  22  42  64  85 120 165 196 257 313 364
#
# _framework density 19.713282
#
# number of rings (size 3 to 8) (size 9 to 14) (size 15 to 20)
#    0.000    2.250    1.250    3.375    3.500    2.500 
#    2.250    0.000    0.000    3.000    0.000    0.000 
#    0.000    0.000    0.000    0.000    0.000    0.000 
#
# Total GULP energy -396536.158614 kJ/mol
# GULP energy per Si atom -12391.754957 kJ/mol
# Density = 1.966841 g / cm^3
# Si number density = 19.713282 Si / 1000 Ang^3
#
#
#
# Elastic Constant Matrix: (Units=GPa)
#
#
# Indices 1 2 3 4 5 6 
#
# 1 89.8046 44.8215 22.6433 0.0000 0.0000 0.0000
# 2 44.8215 100.9733 28.1094 0.0000 0.0000 0.0000
# 3 22.6433 28.1094 70.9399 0.0000 0.0000 0.0000
# 4 0.0000 0.0000 0.0000 20.0406 0.0000 0.0000
# 5 0.0000 0.0000 0.0000 0.0000 20.0191 0.0000
# 6 0.0000 0.0000 0.0000 0.0000 0.0000 39.9500
#
#
#
# Elastic Compliance Matrix: (Units=1/GPa)
#
#
# Indices 1 2 3 4 5 6 
#
# 1 0.014647 -0.005845 -0.002359 0.000000 0.000000 0.000000
# 2 -0.005845 0.013464 -0.003469 0.000000 0.000000 0.000000
# 3 -0.002359 -0.003469 0.016224 0.000000 0.000000 0.000000
# 4 0.000000 0.000000 0.000000 0.049899 0.000000 0.000000
# 5 0.000000 0.000000 0.000000 0.000000 0.049952 0.000000
# 6 0.000000 0.000000 0.000000 0.000000 0.000000 0.025031
#
#
# Mechanical properties :
#
#
# Convention : Reuss Voigt Hill
#
# Bulk Modulus (GPa) = 47.64561 50.31846 48.98203
# Shear Modulus (GPa) = 25.05493 27.07818 26.06656
#
# Velocity S-wave (km/s) = 3.56893 3.71023 3.64027
# Velocity P-wave (km/s) = 6.41910 6.62835 6.52456
#
# Compressibility (1/GPa) = 0.02098829
#
# Stress axis : x y z
#
# Youngs Moduli (GPa) = 68.27119 74.27188 61.63640
#
# Poissons Ratio (x) = 0.43413 0.14541
# Poissons Ratio (y) = 0.39906 0.21384
# Poissons Ratio (z) = 0.16107 0.25767
#
# Static dielectric constant tensor:
#      x y z
#    x 3.624120 0.000000 0.000000 
#    y 0.000000 3.698680 0.000000 
#    z 0.000000 0.000000 3.350300 
# 
# 
# High freq. dielectric constant tensor:
#      x y z
#    x 1.767820 0.000000 0.000000 
#    y 0.000000 1.777740 0.000000 
#    z 0.000000 0.000000 1.750320 
# 
# From -- ./inp_files/3451.got.cif
#   From: 2010.03.12/outbox.cif.g09.slc.cpg/sg27_2_cif.got.tgz:3451.got - 2010.04.14 03:36:05.
