data_PCOD8167243
_publ_section_title
;
Structure prediction by ZEFSAII (Michael W. Deem and Ramdas Pophale) SiO2 
 PCOD8167243
Probable space group: P M C 21
;
_chemical_formula_sum "Si O2"
_cell_formula_units_Z 32
_cell_length_a 9.439841
_cell_length_b 14.507824
_cell_length_c 12.546277
_cell_angle_alpha 90.000000
_cell_angle_beta 90.000000
_cell_angle_gamma 90.000000
_cell_volume 1718.232105
_symmetry_space_group_name_H-M "P M C 21"
_symmetry_group_IT_number 26
_symmetry_cell_setting 'orthorhombic'
loop_
_space_group_symop_operation_xyz
x,y,z
-x,-y,1/2+z
-x,y,z
x,-y,1/2+z
loop_
_atom_site_type_symbol
_atom_site_label
_atom_site_fract_x
_atom_site_fract_y
_atom_site_fract_z
Si Si1 0.666262 0.935475 0.865540
Si Si2 0.335227 0.139770 0.924559
Si Si3 0.667524 0.825954 0.658192
Si Si4 0.656637 0.438885 0.622848
Si Si5 0.341354 0.371252 0.237882
Si Si6 0.841050 0.376738 0.437979
Si Si7 0.665001 0.252279 0.727227
Si Si8 0.162937 0.821403 0.031231
O O1 0.500000 0.913012 0.882808
O O2 0.722701 0.892260 0.753861
O O3 0.696695 0.044235 0.864261
O O4 0.753755 0.898701 0.966139
O O5 0.500000 0.152515 0.944907
O O6 0.283275 0.221531 0.845365
O O7 0.264686 0.145769 0.043051
O O8 0.500000 0.835754 0.654028
O O9 0.714716 0.720741 0.680001
O O10 0.500000 0.416414 0.576528
O O11 0.660559 0.543336 0.659245
O O12 0.773428 0.433895 0.532928
O O13 0.689105 0.362578 0.714891
O O14 0.500000 0.353115 0.281711
O O15 0.240315 0.401127 0.331858
O O16 0.831465 0.268623 0.458317
O O17 0.000000 0.411899 0.425372
O O18 0.500000 0.225345 0.710468
O O19 0.758074 0.196077 0.642286
O O20 0.000000 0.850959 0.052874
#
# Coordination Sequence:
#
# PCOD8167243 Si02
#       8
#     4   4   4   4   4   4   4   4
#     4  10  19  32  55  80 103 136 178 222 266 321
#     4   9  19  32  52  81 110 139 177 221 272 326
#     4   9  18  32  51  81 113 138 172 224 276 319
#     4   9  19  33  53  80 106 139 182 223 270 323
#     4  10  19  33  55  80 108 141 178 224 274 321
#     4  10  20  34  52  75 105 140 179 223 268 319
#     4   9  18  34  55  79 107 138 175 222 268 318
#     4  10  20  34  53  76 104 139 177 223 268 313
#
# _framework density 18.623795000000001
#
# number of rings (size 3 to 8) (size 9 to 14) (size 15 to 20)
#    0.000    2.500    1.250    0.750    1.750    2.500 
#    0.000    4.375    0.000    2.250    0.000    0.000 
#    0.000    0.000    0.000    0.000    0.000    0.000 
#
# Total GULP energy -396662.266926 kJ/mol
# GULP energy per Si atom -12395.695841 kJ/mol
# Density = 1.858141 g / cm^3
# Si number density = 18.623795 Si / 1000 Ang^3
#
#
#
# Elastic Constant Matrix: (Units=GPa)
#
#
# Indices 1 2 3 4 5 6 
#
# 1 72.7887 23.1571 33.2536 0.0000 0.0000 0.0000
# 2 23.1571 93.9735 51.1507 0.0000 0.0000 0.0000
# 3 33.2536 51.1507 107.8191 0.0000 0.0000 0.0000
# 4 0.0000 0.0000 0.0000 19.7289 0.0000 0.0000
# 5 0.0000 0.0000 0.0000 0.0000 -13.9361 0.0000
# 6 0.0000 0.0000 0.0000 0.0000 0.0000 10.7208
#
#
#
# Elastic Compliance Matrix: (Units=1/GPa)
#
#
# Indices 1 2 3 4 5 6 
#
# 1 0.016194 -0.001715 -0.004181 0.000000 0.000000 0.000000
# 2 -0.001715 0.014527 -0.006363 0.000000 0.000000 0.000000
# 3 -0.004181 -0.006363 0.013583 0.000000 0.000000 0.000000
# 4 0.000000 0.000000 0.000000 0.050687 0.000000 0.000000
# 5 0.000000 0.000000 0.000000 0.000000 -0.071756 0.000000
# 6 0.000000 0.000000 0.000000 0.000000 0.000000 0.093277
#
#
# Mechanical properties :
#
#
# Convention : Reuss Voigt Hill
#
# Bulk Modulus (GPa) = 50.53926 54.41159 52.47543
# Shear Modulus (GPa) = 33.86952 14.43739 24.15345
#
# Velocity S-wave (km/s) = 4.26915 2.78728 3.60518
# Velocity P-wave (km/s) = 7.17612 6.29589 6.75037
#
# Compressibility (1/GPa) = 0.01978660
#
# Stress axis : x y z
#
# Youngs Moduli (GPa) = 61.75105 68.83576 73.62124
#
# Poissons Ratio (x) = 0.11804 0.30782
# Poissons Ratio (y) = 0.10589 0.46846
# Poissons Ratio (z) = 0.25819 0.43801
#
# Static dielectric constant tensor:
#      x y z
#    x 3.284130 0.000000 0.000000 
#    y 0.000000 3.377860 0.000000 
#    z 0.000000 0.000000 3.494460 
# 
# 
# High freq. dielectric constant tensor:
#      x y z
#    x 1.690620 0.000000 0.000000 
#    y 0.000000 1.722300 0.000000 
#    z 0.000000 0.000000 1.722490 
# 
# From -- ./inp_files/2922.got.cif
#   From: 2010.03.12/outbox.cif.g09.slc.cpg/sg26_2_cif.got.tgz:2922.got - 2010.04.14 03:33:09.
