data_PCOD8167054
_publ_section_title
;
Structure prediction by ZEFSAII (Michael W. Deem and Ramdas Pophale) SiO2 
 PCOD8167054
Probable space group: P M C 21
;
_chemical_formula_sum "Si O2"
_cell_formula_units_Z 32
_cell_length_a 12.238879
_cell_length_b 30.371811
_cell_length_c 5.104845
_cell_angle_alpha 90.000000
_cell_angle_beta 90.000000
_cell_angle_gamma 90.000000
_cell_volume 1897.557260
_symmetry_space_group_name_H-M "P M C 21"
_symmetry_group_IT_number 26
_symmetry_cell_setting 'orthorhombic'
loop_
_space_group_symop_operation_xyz
x,y,z
-x,-y,1/2+z
-x,y,z
x,-y,1/2+z
loop_
_atom_site_type_symbol
_atom_site_label
_atom_site_fract_x
_atom_site_fract_y
_atom_site_fract_z
Si Si1 0.120838 0.807344 0.478520
Si Si2 0.123501 0.971181 0.478960
Si Si3 0.263141 0.886615 0.422319
Si Si4 0.783562 0.228760 0.474643
Si Si5 0.130412 0.526134 0.428354
Si Si6 0.873166 0.376046 0.889201
Si Si7 0.627373 0.848285 0.915506
Si Si8 0.129085 0.321181 0.379479
O O1 0.155089 0.857883 0.466622
O O2 0.126140 0.791022 0.777399
O O3 0.000000 0.802647 0.371364
O O4 0.193605 0.778324 0.281623
O O5 0.220195 0.936239 0.434129
O O6 0.000000 0.951459 0.450625
O O7 0.139770 0.009809 0.268823
O O8 0.315440 0.876790 0.141261
O O9 0.351176 0.874278 0.645384
O O10 0.671702 0.202399 0.404247
O O11 0.786851 0.280991 0.427759
O O12 0.174533 0.503102 0.689312
O O13 0.180243 0.575465 0.410612
O O14 0.000000 0.527897 0.419180
O O15 0.850498 0.356985 0.603519
O O16 0.000000 0.381573 0.947402
O O17 0.829267 0.342657 0.109629
O O18 0.500000 0.845353 0.970413
O O19 0.000000 0.306697 0.373918
#
# Coordination Sequence:
#
# PCOD8167054 Si02
#       8
#     4   4   4   4   4   4   4   4
#     4  10  18  29  45  68  95 117 146 183 221 267
#     4  10  20  34  54  80 109 135 155 180 223 280
#     4  10  20  34  54  75  96 125 157 192 230 270
#     4  10  20  30  45  67  88 119 152 182 227 275
#     4   9  15  23  34  47  66  96 142 190 217 240
#     4   9  17  25  35  52  75 109 144 177 218 259
#     4  10  21  37  55  72  92 121 161 203 236 266
#     4  10  17  26  38  55  84 112 139 173 215 271
#
# _framework density 16.863785
#
# number of rings (size 3 to 8) (size 9 to 14) (size 15 to 20)
#    0.000    2.250    0.000    4.125    0.000    4.000 
#    0.000    3.750    0.000    7.500    0.000    0.000 
#    0.000    0.000    0.000    0.000    0.000   12.500 
#
# Total GULP energy -396631.141756 kJ/mol
# GULP energy per Si atom -12394.723180 kJ/mol
# Density = 1.682540 g / cm^3
# Si number density = 16.863785 Si / 1000 Ang^3
#
#
#
# Elastic Constant Matrix: (Units=GPa)
#
#
# Indices 1 2 3 4 5 6 
#
# 1 45.0865 26.3655 2.2463 0.0000 0.0000 0.0000
# 2 26.3655 90.0148 7.2931 0.0000 0.0000 0.0000
# 3 2.2463 7.2931 74.2498 0.0000 0.0000 0.0000
# 4 0.0000 0.0000 0.0000 23.2272 0.0000 0.0000
# 5 0.0000 0.0000 0.0000 0.0000 10.1810 0.0000
# 6 0.0000 0.0000 0.0000 0.0000 0.0000 9.6680
#
#
#
# Elastic Compliance Matrix: (Units=1/GPa)
#
#
# Indices 1 2 3 4 5 6 
#
# 1 0.026764 -0.007836 -0.000040 0.000000 0.000000 0.000000
# 2 -0.007836 0.013493 -0.001088 0.000000 0.000000 0.000000
# 3 -0.000040 -0.001088 0.013576 0.000000 0.000000 0.000000
# 4 0.000000 0.000000 0.000000 0.043053 0.000000 0.000000
# 5 0.000000 0.000000 0.000000 0.000000 0.098222 0.000000
# 6 0.000000 0.000000 0.000000 0.000000 0.000000 0.103434
#
#
# Mechanical properties :
#
#
# Convention : Reuss Voigt Hill
#
# Bulk Modulus (GPa) = 27.85186 31.24010 29.54598
# Shear Modulus (GPa) = 15.22356 20.17832 17.70094
#
# Velocity S-wave (km/s) = 3.00782 3.46287 3.24333
# Velocity P-wave (km/s) = 5.34923 5.87825 5.61997
#
# Compressibility (1/GPa) = 0.03590424
#
# Stress axis : x y z
#
# Youngs Moduli (GPa) = 37.36381 74.11460 73.65859
#
# Poissons Ratio (x) = 0.58076 0.00295
# Poissons Ratio (y) = 0.29278 0.08016
# Poissons Ratio (z) = 0.00150 0.08065
#
# Static dielectric constant tensor:
#      x y z
#    x 2.668260 0.000000 0.000000 
#    y 0.000000 3.204060 0.000000 
#    z 0.000000 0.000000 3.366090 
# 
# 
# High freq. dielectric constant tensor:
#      x y z
#    x 1.580440 0.000000 0.000000 
#    y 0.000000 1.652290 0.000000 
#    z 0.000000 0.000000 1.675960 
# 
# From -- ./inp_files/506.got.cif
#   From: 2010.03.12/outbox.cif.g09.slc.cpg/sg26_1_cif.got.tgz:506.got - 2010.04.14 03:33:09.
