data_PCOD8167666
_publ_section_title
;
Structure prediction by ZEFSAII (Michael W. Deem and Ramdas Pophale) SiO2 
 PCOD8167666
Probable space group: P M C 21
;
_chemical_formula_sum "Si O2"
_cell_formula_units_Z 24
_cell_length_a 9.110850
_cell_length_b 24.632657
_cell_length_c 4.937730
_cell_angle_alpha 90.000000
_cell_angle_beta 90.000000
_cell_angle_gamma 90.000000
_cell_volume 1108.147305
_symmetry_space_group_name_H-M "P M C 21"
_symmetry_group_IT_number 26
_symmetry_cell_setting 'orthorhombic'
loop_
_space_group_symop_operation_xyz
x,y,z
-x,-y,1/2+z
-x,y,z
x,-y,1/2+z
loop_
_atom_site_type_symbol
_atom_site_label
_atom_site_fract_x
_atom_site_fract_y
_atom_site_fract_z
Si Si1 0.761193 0.614525 0.270920
Si Si2 0.832762 0.963826 0.243806
Si Si3 0.826088 0.195978 0.230263
Si Si4 0.000000 0.535050 0.471409
Si Si5 0.500000 0.461742 0.701969
Si Si6 0.675523 0.145392 0.732596
Si Si7 0.165606 0.319854 0.247053
O O1 0.630561 0.579694 0.151645
O O2 0.724792 0.657016 0.514295
O O3 0.859464 0.570055 0.414458
O O4 0.831213 0.646684 0.023475
O O5 0.718687 0.916037 0.308722
O O6 0.000000 0.942058 0.276270
O O7 0.804063 0.013934 0.444095
O O8 0.739561 0.157330 0.435907
O O9 0.793777 0.257986 0.312542
O O10 0.000000 0.182702 0.230506
O O11 0.756302 0.186432 0.936121
O O12 0.000000 0.519039 0.787211
O O13 0.500000 0.512287 0.498836
O O14 0.500000 0.152746 0.740577
O O15 0.000000 0.323524 0.128229
#
# Coordination Sequence:
#
# PCOD8167666 Si02
#       7
#     4   4   4   2   2   4   4
#     4  12  23  42  65  93 125 160 207 258 313 378
#     4  10  21  38  64  95 130 177 228 272 322 392
#     4  11  24  44  71  94 130 180 224 273 331 400
#     4  12  22  36  62  94 120 156 200 256 312 364
#     4  12  26  46  62  88 130 168 204 242 310 392
#     4  12  25  43  64 102 141 174 222 280 337 389
#     4  11  22  43  67  96 122 158 214 267 317 372
#
# _framework density 21.657769999999999
#
# number of rings (size 3 to 8) (size 9 to 14) (size 15 to 20)
#    0.000    0.667    1.667    7.000    0.000    4.667 
#    9.000    0.000    0.000    0.000    0.000    0.000 
#    0.000    0.000    0.000    0.000    0.000    0.000 
#
# Total GULP energy -297653.208113 kJ/mol
# GULP energy per Si atom -12402.217005 kJ/mol
# Density = 2.160848 g / cm^3
# Si number density = 21.657770 Si / 1000 Ang^3
#
#
#
# Elastic Constant Matrix: (Units=GPa)
#
#
# Indices 1 2 3 4 5 6 
#
# 1 118.1032 41.6116 12.4873 0.0000 0.0000 0.0000
# 2 41.6116 102.6532 15.8596 0.0000 0.0000 0.0000
# 3 12.4873 15.8596 88.3771 0.0000 0.0000 0.0000
# 4 0.0000 0.0000 0.0000 38.4719 0.0000 0.0000
# 5 0.0000 0.0000 0.0000 0.0000 27.9755 0.0000
# 6 0.0000 0.0000 0.0000 0.0000 0.0000 27.8130
#
#
#
# Elastic Compliance Matrix: (Units=1/GPa)
#
#
# Indices 1 2 3 4 5 6 
#
# 1 0.009920 -0.003913 -0.000699 0.000000 0.000000 0.000000
# 2 -0.003913 0.011563 -0.001522 0.000000 0.000000 0.000000
# 3 -0.000699 -0.001522 0.011687 0.000000 0.000000 0.000000
# 4 0.000000 0.000000 0.000000 0.025993 0.000000 0.000000
# 5 0.000000 0.000000 0.000000 0.000000 0.035746 0.000000
# 6 0.000000 0.000000 0.000000 0.000000 0.000000 0.035954
#
#
# Mechanical properties :
#
#
# Convention : Reuss Voigt Hill
#
# Bulk Modulus (GPa) = 47.84531 49.89449 48.86990
# Shear Modulus (GPa) = 33.31138 34.79708 34.05423
#
# Velocity S-wave (km/s) = 3.92609 4.01269 3.96963
# Velocity P-wave (km/s) = 6.53389 6.67507 6.60486
#
# Compressibility (1/GPa) = 0.02090069
#
# Stress axis : x y z
#
# Youngs Moduli (GPa) = 100.80832 86.48350 85.56427
#
# Poissons Ratio (x) = 0.33841 0.05984
# Poissons Ratio (y) = 0.39447 0.13024
# Poissons Ratio (z) = 0.07051 0.13164
#
# Static dielectric constant tensor:
#      x y z
#    x 3.849530 0.000000 0.000000 
#    y 0.000000 3.960510 0.000000 
#    z 0.000000 0.000000 3.941070 
# 
# 
# High freq. dielectric constant tensor:
#      x y z
#    x 1.834300 0.000000 0.000000 
#    y 0.000000 1.865280 0.000000 
#    z 0.000000 0.000000 1.865250 
# 
# From -- ./inp_files/202.got.cif
#   From: 2010.03.12/outbox.cif.g09.slc.cpg/sg26_1_cif.got.tgz:202.got - 2010.04.14 03:33:09.
