data_PCOD8167203
_publ_section_title
;
Structure prediction by ZEFSAII (Michael W. Deem and Ramdas Pophale) SiO2 
 PCOD8167203
Probable space group: P M C 21
;
_chemical_formula_sum "Si O2"
_cell_formula_units_Z 32
_cell_length_a 9.238734
_cell_length_b 12.414011
_cell_length_c 14.709132
_cell_angle_alpha 90.000000
_cell_angle_beta 90.000000
_cell_angle_gamma 90.000000
_cell_volume 1686.986606
_symmetry_space_group_name_H-M "P M C 21"
_symmetry_group_IT_number 26
_symmetry_cell_setting 'orthorhombic'
loop_
_space_group_symop_operation_xyz
x,y,z
-x,-y,1/2+z
-x,y,z
x,-y,1/2+z
loop_
_atom_site_type_symbol
_atom_site_label
_atom_site_fract_x
_atom_site_fract_y
_atom_site_fract_z
Si Si1 0.171366 0.664074 0.563280
Si Si2 0.165561 0.093995 0.461128
Si Si3 0.830581 0.518428 0.188240
Si Si4 0.835712 0.254446 0.614069
Si Si5 0.661503 0.186814 0.776473
Si Si6 0.171973 0.094770 0.099029
Si Si7 0.829143 0.369735 0.864974
Si Si8 0.663304 0.057387 0.286167
O O1 0.238906 0.589960 0.644404
O O2 0.226596 0.786951 0.566737
O O3 0.215204 0.604606 0.468556
O O4 0.000000 0.666006 0.571620
O O5 0.180083 0.208528 0.512769
O O6 0.259827 0.113827 0.371440
O O7 0.000000 0.071801 0.432500
O O8 0.219781 0.994787 0.524909
O O9 0.795131 0.619211 0.121693
O O10 0.771506 0.542102 0.290942
O O11 0.000000 0.499268 0.194189
O O12 0.728557 0.185079 0.675910
O O13 0.000000 0.237098 0.649290
O O14 0.500000 0.235844 0.772705
O O15 0.761091 0.254484 0.843610
O O16 0.658711 0.066934 0.813923
O O17 0.247702 0.073988 0.194644
O O18 0.000000 0.089650 0.113973
O O19 0.000000 0.356902 0.854042
O O20 0.500000 0.102505 0.274058
#
# Coordination Sequence:
#
# PCOD8167203 Si02
#       8
#     4   4   4   4   4   4   4   4
#     4   9  17  31  51  79 108 136 175 218 266 312
#     4  10  20  34  54  80 106 138 179 219 265 318
#     4   8  15  29  50  79 106 129 167 217 265 310
#     4   9  17  32  54  77 101 131 169 216 263 305
#     4  10  19  31  50  75 103 136 173 215 257 308
#     4  10  20  35  55  78 108 142 177 223 267 315
#     4   9  17  31  54  78 102 137 176 221 264 305
#     4  11  23  35  50  76 110 145 176 213 267 325
#
# _framework density 18.968734999999999
#
# number of rings (size 3 to 8) (size 9 to 14) (size 15 to 20)
#    0.000    2.500    1.250    2.250    0.000    3.500 
#    2.250    0.625    0.000    6.000    0.000    0.000 
#    0.000    0.000    0.000    0.000    0.000    0.000 
#
# Total GULP energy -396540.644003 kJ/mol
# GULP energy per Si atom -12391.895125 kJ/mol
# Density = 1.892556 g / cm^3
# Si number density = 18.968735 Si / 1000 Ang^3
#
#
#
# Elastic Constant Matrix: (Units=GPa)
#
#
# Indices 1 2 3 4 5 6 
#
# 1 43.1544 1.2014 27.1557 0.0000 0.0000 0.0000
# 2 1.2014 65.4612 26.8319 0.0000 0.0000 0.0000
# 3 27.1557 26.8319 107.0519 0.0000 0.0000 0.0000
# 4 0.0000 0.0000 0.0000 26.1160 0.0000 0.0000
# 5 0.0000 0.0000 0.0000 0.0000 11.0237 0.0000
# 6 0.0000 0.0000 0.0000 0.0000 0.0000 12.0536
#
#
#
# Elastic Compliance Matrix: (Units=1/GPa)
#
#
# Indices 1 2 3 4 5 6 
#
# 1 0.027987 0.002671 -0.007769 0.000000 0.000000 0.000000
# 2 0.002671 0.017280 -0.005009 0.000000 0.000000 0.000000
# 3 -0.007769 -0.005009 0.012567 0.000000 0.000000 0.000000
# 4 0.000000 0.000000 0.000000 0.038291 0.000000 0.000000
# 5 0.000000 0.000000 0.000000 0.000000 0.090714 0.000000
# 6 0.000000 0.000000 0.000000 0.000000 0.000000 0.082962
#
#
# Mechanical properties :
#
#
# Convention : Reuss Voigt Hill
#
# Bulk Modulus (GPa) = 26.58089 36.22727 31.40408
# Shear Modulus (GPa) = 16.52591 20.53724 18.53158
#
# Velocity S-wave (km/s) = 2.95484 3.29399 3.12902
# Velocity P-wave (km/s) = 5.06803 5.79716 5.44481
#
# Compressibility (1/GPa) = 0.03762101
#
# Stress axis : x y z
#
# Youngs Moduli (GPa) = 35.73097 57.86973 79.57125
#
# Poissons Ratio (x) = -0.15455 0.61817
# Poissons Ratio (y) = -0.09543 0.39854
# Poissons Ratio (z) = 0.27759 0.28985
#
# Static dielectric constant tensor:
#      x y z
#    x 3.258060 0.000000 0.000000 
#    y 0.000000 3.599130 0.000000 
#    z 0.000000 0.000000 3.599220 
# 
# 
# High freq. dielectric constant tensor:
#      x y z
#    x 1.702610 0.000000 0.000000 
#    y 0.000000 1.725280 0.000000 
#    z 0.000000 0.000000 1.739230 
# 
# From -- ./inp_files/4308.got.cif
#   From: 2010.03.12/outbox.cif.g09.slc.cpg/sg26_3_cif.got.tgz:4308.got - 2010.04.14 03:33:09.
