data_PCOD8167096
_publ_section_title
;
Structure prediction by ZEFSAII (Michael W. Deem and Ramdas Pophale) SiO2 
 PCOD8167096
Probable space group: P M C 21
;
_chemical_formula_sum "Si O2"
_cell_formula_units_Z 32
_cell_length_a 9.173735
_cell_length_b 12.035622
_cell_length_c 14.650318
_cell_angle_alpha 90.000000
_cell_angle_beta 90.000000
_cell_angle_gamma 90.000000
_cell_volume 1617.565150
_symmetry_space_group_name_H-M "P M C 21"
_symmetry_group_IT_number 26
_symmetry_cell_setting 'orthorhombic'
loop_
_space_group_symop_operation_xyz
x,y,z
-x,-y,1/2+z
-x,y,z
x,-y,1/2+z
loop_
_atom_site_type_symbol
_atom_site_label
_atom_site_fract_x
_atom_site_fract_y
_atom_site_fract_z
Si Si1 0.668260 0.822724 0.289410
Si Si2 0.830502 0.115631 0.478756
Si Si3 0.173731 0.092649 0.091641
Si Si4 0.330396 0.409041 0.883150
Si Si5 0.831931 0.725330 0.128941
Si Si6 0.167900 0.503367 0.716186
Si Si7 0.171317 0.339781 0.056411
Si Si8 0.171408 0.961472 0.791947
O O1 0.500000 0.853443 0.283580
O O2 0.698397 0.715959 0.350899
O O3 0.728712 0.802253 0.188772
O O4 0.756966 0.925490 0.329554
O O5 0.794312 0.234304 0.525931
O O6 0.785890 0.125846 0.372313
O O7 0.000000 0.090566 0.485406
O O8 0.760592 0.008062 0.530792
O O9 0.227246 0.212259 0.053432
O O10 0.234690 0.078769 0.195214
O O11 0.000000 0.093982 0.095234
O O12 0.500000 0.438054 0.892591
O O13 0.262367 0.494082 0.808702
O O14 0.254060 0.416090 0.981847
O O15 0.797242 0.596579 0.145132
O O16 0.000000 0.752005 0.153366
O O17 0.205099 0.613756 0.658536
O O18 0.000000 0.501069 0.747097
O O19 0.000000 0.349942 0.035550
O O20 0.000000 0.981334 0.784896
#
# Coordination Sequence:
#
# PCOD8167096 Si02
#       8
#     4   4   4   4   4   4   4   4
#     4  10  19  31  49  75 104 135 174 218 258 302
#     4   9  16  27  48  76  98 128 173 211 250 310
#     4   9  17  30  49  77 108 137 171 213 265 319
#     4  10  21  36  56  81 107 144 187 222 266 326
#     4   9  16  31  52  73  99 129 170 214 259 312
#     4   9  19  35  56  82 108 137 175 230 280 314
#     4  10  20  36  56  82 112 141 179 227 275 320
#     4  10  18  30  50  74 102 139 173 209 263 321
#
# _framework density 19.782819
#
# number of rings (size 3 to 8) (size 9 to 14) (size 15 to 20)
#    0.000    2.500    1.250    1.500    0.000    3.000 
#    2.250    1.250    0.000    0.000    0.000    0.000 
#    0.000    0.000    0.000    0.000    0.000    0.000 
#
# Total GULP energy -396577.827730 kJ/mol
# GULP energy per Si atom -12393.057117 kJ/mol
# Density = 1.973779 g / cm^3
# Si number density = 19.782819 Si / 1000 Ang^3
#
#
#
# Elastic Constant Matrix: (Units=GPa)
#
#
# Indices 1 2 3 4 5 6 
#
# 1 47.8902 5.6623 23.0920 0.0000 0.0000 0.0000
# 2 5.6623 39.6839 4.5560 0.0000 0.0000 0.0000
# 3 23.0920 4.5560 90.7754 0.0000 0.0000 0.0000
# 4 0.0000 0.0000 0.0000 25.3411 0.0000 0.0000
# 5 0.0000 0.0000 0.0000 0.0000 12.7527 0.0000
# 6 0.0000 0.0000 0.0000 0.0000 0.0000 15.0423
#
#
#
# Elastic Compliance Matrix: (Units=1/GPa)
#
#
# Indices 1 2 3 4 5 6 
#
# 1 0.024095 -0.002750 -0.005991 0.000000 0.000000 0.000000
# 2 -0.002750 0.025659 -0.000588 0.000000 0.000000 0.000000
# 3 -0.005991 -0.000588 0.012570 0.000000 0.000000 0.000000
# 4 0.000000 0.000000 0.000000 0.039462 0.000000 0.000000
# 5 0.000000 0.000000 0.000000 0.000000 0.078415 0.000000
# 6 0.000000 0.000000 0.000000 0.000000 0.000000 0.066479
#
#
# Mechanical properties :
#
#
# Convention : Reuss Voigt Hill
#
# Bulk Modulus (GPa) = 22.90191 27.21891 25.06041
# Shear Modulus (GPa) = 17.86387 20.29648 19.08017
#
# Velocity S-wave (km/s) = 3.00825 3.20654 3.10898
# Velocity P-wave (km/s) = 4.86497 5.24385 5.05796
#
# Compressibility (1/GPa) = 0.04366447
#
# Stress axis : x y z
#
# Youngs Moduli (GPa) = 41.50191 38.97251 79.55524
#
# Poissons Ratio (x) = 0.10718 0.47665
# Poissons Ratio (y) = 0.11414 0.04680
# Poissons Ratio (z) = 0.24866 0.02292
#
# Static dielectric constant tensor:
#      x y z
#    x 3.236070 0.000000 0.000000 
#    y 0.000000 3.565920 0.000000 
#    z 0.000000 0.000000 3.810660 
# 
# 
# High freq. dielectric constant tensor:
#      x y z
#    x 1.728580 0.000000 0.000000 
#    y 0.000000 1.757450 0.000000 
#    z 0.000000 0.000000 1.776880 
# 
# From -- ./inp_files/4142.got.cif
#   From: 2010.03.12/outbox.cif.g09.slc.cpg/sg26_3_cif.got.tgz:4142.got - 2010.04.14 03:33:09.
