data_PCOD8167616
_publ_section_title
;
Structure prediction by ZEFSAII (Michael W. Deem and Ramdas Pophale) SiO2 
 PCOD8167616
Probable space group: P M C 21
;
_chemical_formula_sum "Si O2"
_cell_formula_units_Z 32
_cell_length_a 9.628235
_cell_length_b 20.167107
_cell_length_c 8.957037
_cell_angle_alpha 90.000000
_cell_angle_beta 90.000000
_cell_angle_gamma 90.000000
_cell_volume 1739.220527
_symmetry_space_group_name_H-M "P M C 21"
_symmetry_group_IT_number 26
_symmetry_cell_setting 'orthorhombic'
loop_
_space_group_symop_operation_xyz
x,y,z
-x,-y,1/2+z
-x,y,z
x,-y,1/2+z
loop_
_atom_site_type_symbol
_atom_site_label
_atom_site_fract_x
_atom_site_fract_y
_atom_site_fract_z
Si Si1 0.660507 0.420681 0.612600
Si Si2 0.340737 0.923325 0.737750
Si Si3 0.837363 0.332874 0.112343
Si Si4 0.659061 0.943583 0.084474
Si Si5 0.339089 0.443759 0.270341
Si Si6 0.159216 0.177745 0.615699
Si Si7 0.839084 0.801188 0.773714
Si Si8 0.839104 0.687568 0.269449
O O1 0.500000 0.400649 0.626482
O O2 0.696712 0.482114 0.718957
O O3 0.699511 0.439164 0.443653
O O4 0.750934 0.358437 0.660893
O O5 0.500000 0.905651 0.701346
O O6 0.247816 0.859952 0.696616
O O7 0.287651 0.985291 0.640898
O O8 0.320469 0.943196 0.908551
O O9 0.753036 0.394420 0.174415
O O10 0.790843 0.267584 0.201422
O O11 0.000000 0.346818 0.134210
O O12 0.797617 0.324099 0.939986
O O13 0.500000 0.932515 0.132895
O O14 0.747656 0.885140 0.160365
O O15 0.500000 0.427073 0.239825
O O16 0.193454 0.203291 0.449246
O O17 0.194094 0.236270 0.730600
O O18 0.000000 0.155242 0.627461
O O19 0.000000 0.815230 0.740575
O O20 0.000000 0.671698 0.239248
#
# Coordination Sequence:
#
# PCOD8167616 Si02
#       8
#     4   4   4   4   4   4   4   4
#     4  10  21  37  57  80 106 137 173 213 257 305
#     4   9  18  32  49  70  97 128 163 204 250 301
#     4  10  21  36  54  78 107 138 173 213 257 306
#     4   9  18  32  49  70  97 128 163 204 250 301
#     4  10  21  37  57  80 106 137 173 213 257 305
#     4   9  18  33  51  71  98 132 168 207 252 301
#     4   9  18  33  51  71  98 132 168 207 252 301
#     4  10  21  36  54  78 107 138 173 213 257 306
#
# _framework density 18.399048000000001
#
# number of rings (size 3 to 8) (size 9 to 14) (size 15 to 20)
#    0.000    2.500    0.000    1.500    0.000    6.000 
#    0.000    2.500    0.000    0.000    0.000    0.000 
#    0.000    0.000    0.000    0.000    0.000    0.000 
#
# Total GULP energy -396924.198199 kJ/mol
# GULP energy per Si atom -12403.881194 kJ/mol
# Density = 1.835717 g / cm^3
# Si number density = 18.399048 Si / 1000 Ang^3
#
#
#
# Elastic Constant Matrix: (Units=GPa)
#
#
# Indices 1 2 3 4 5 6 
#
# 1 47.2202 27.7684 13.8334 0.0000 0.0000 0.0000
# 2 27.7684 48.8204 -1.0946 0.0000 0.0000 0.0000
# 3 13.8334 -1.0946 42.0965 0.0000 0.0000 0.0000
# 4 0.0000 0.0000 0.0000 37.9423 0.0000 0.0000
# 5 0.0000 0.0000 0.0000 0.0000 25.6712 0.0000
# 6 0.0000 0.0000 0.0000 0.0000 0.0000 42.3470
#
#
#
# Elastic Compliance Matrix: (Units=1/GPa)
#
#
# Indices 1 2 3 4 5 6 
#
# 1 0.037795 -0.021788 -0.012986 0.000000 0.000000 0.000000
# 2 -0.021788 0.033056 0.008019 0.000000 0.000000 0.000000
# 3 -0.012986 0.008019 0.028231 0.000000 0.000000 0.000000
# 4 0.000000 0.000000 0.000000 0.026356 0.000000 0.000000
# 5 0.000000 0.000000 0.000000 0.000000 0.038954 0.000000
# 6 0.000000 0.000000 0.000000 0.000000 0.000000 0.023614
#
#
# Mechanical properties :
#
#
# Convention : Reuss Voigt Hill
#
# Bulk Modulus (GPa) = 21.94369 24.35014 23.14692
# Shear Modulus (GPa) = 19.47753 27.70076 23.58915
#
# Velocity S-wave (km/s) = 3.25717 3.88436 3.58451
# Velocity P-wave (km/s) = 5.10862 5.77761 5.45338
#
# Compressibility (1/GPa) = 0.04557118
#
# Stress axis : x y z
#
# Youngs Moduli (GPa) = 26.45888 30.25185 35.42218
#
# Poissons Ratio (x) = 0.65913 0.46000
# Poissons Ratio (y) = 0.57649 -0.28406
# Poissons Ratio (z) = 0.34360 -0.24260
#
# Static dielectric constant tensor:
#      x y z
#    x 3.370980 0.000000 0.000000 
#    y 0.000000 3.421040 0.000000 
#    z 0.000000 0.000000 3.406180 
# 
# 
# High freq. dielectric constant tensor:
#      x y z
#    x 1.708360 0.000000 0.000000 
#    y 0.000000 1.719440 0.000000 
#    z 0.000000 0.000000 1.715680 
# 
# From -- ./inp_files/1588.got.cif
#   From: 2010.03.12/outbox.cif.g09.slc.cpg/sg26_1_cif.got.tgz:1588.got - 2010.04.14 03:33:09.
