data_PCOD8167334
_publ_section_title
;
Structure prediction by ZEFSAII (Michael W. Deem and Ramdas Pophale) SiO2 
 PCOD8167334
Probable space group: P M C 21
;
_chemical_formula_sum "Si O2"
_cell_formula_units_Z 32
_cell_length_a 9.305618
_cell_length_b 16.211129
_cell_length_c 10.861512
_cell_angle_alpha 90.000000
_cell_angle_beta 90.000000
_cell_angle_gamma 90.000000
_cell_volume 1638.508764
_symmetry_space_group_name_H-M "P M C 21"
_symmetry_group_IT_number 26
_symmetry_cell_setting 'orthorhombic'
loop_
_space_group_symop_operation_xyz
x,y,z
-x,-y,1/2+z
-x,y,z
x,-y,1/2+z
loop_
_atom_site_type_symbol
_atom_site_label
_atom_site_fract_x
_atom_site_fract_y
_atom_site_fract_z
Si Si1 0.340788 0.638433 0.316280
Si Si2 0.161633 0.755550 0.882810
Si Si3 0.337432 0.639494 0.028754
Si Si4 0.159778 0.333939 0.141529
Si Si5 0.171231 0.051725 0.022734
Si Si6 0.165073 0.520230 0.478856
Si Si7 0.830448 0.065350 0.301706
Si Si8 0.664099 0.784346 0.480220
O O1 0.500000 0.609401 0.360982
O O2 0.327367 0.631228 0.172642
O O3 0.216920 0.582316 0.373084
O O4 0.320311 0.734619 0.352196
O O5 0.165959 0.679472 0.787190
O O6 0.218856 0.839860 0.820147
O O7 0.000000 0.769800 0.932982
O O8 0.263726 0.726577 0.993207
O O9 0.500000 0.639699 0.979801
O O10 0.256759 0.561995 0.970753
O O11 0.185710 0.430426 0.108651
O O12 0.000000 0.307627 0.092686
O O13 0.284169 0.277764 0.085735
O O14 0.234754 0.136958 0.974751
O O15 0.000000 0.057863 0.021178
O O16 0.227585 0.985274 0.921144
O O17 0.224025 0.034145 0.165278
O O18 0.000000 0.496562 0.455659
O O19 0.000000 0.058428 0.300089
O O20 0.500000 0.811002 0.506807
#
# Coordination Sequence:
#
# PCOD8167334 Si02
#       8
#     4   4   4   4   4   4   4   4
#     4   9  21  40  56  77 113 151 190 234 285 348
#     4  10  20  37  58  84 114 149 191 239 288 340
#     4  11  24  39  55  80 115 154 190 234 292 351
#     4   9  18  35  59  83 110 142 182 234 282 330
#     4  10  19  36  59  87 116 151 193 241 294 352
#     4  10  21  36  58  86 111 144 189 239 289 337
#     4   9  19  35  59  85 116 150 192 241 293 350
#     4  10  19  34  58  84 109 145 189 232 281 338
#
# _framework density 19.529955000000001
#
# number of rings (size 3 to 8) (size 9 to 14) (size 15 to 20)
#    0.000    2.250    1.250    1.125    1.750    3.500 
#    0.000    2.500    0.000    0.000    0.000    0.000 
#    0.000    0.000    0.000    0.000    0.000    0.000 
#
# Total GULP energy -396601.040048 kJ/mol
# GULP energy per Si atom -12393.782501 kJ/mol
# Density = 1.948550 g / cm^3
# Si number density = 19.529955 Si / 1000 Ang^3
#
#
#
# Elastic Constant Matrix: (Units=GPa)
#
#
# Indices 1 2 3 4 5 6 
#
# 1 75.2445 33.2889 33.1841 0.0000 0.0000 0.0000
# 2 33.2889 86.8638 49.1694 0.0000 0.0000 0.0000
# 3 33.1841 49.1694 76.9413 0.0000 0.0000 0.0000
# 4 0.0000 0.0000 0.0000 27.2176 0.0000 0.0000
# 5 0.0000 0.0000 0.0000 0.0000 23.6250 0.0000
# 6 0.0000 0.0000 0.0000 0.0000 0.0000 23.6247
#
#
#
# Elastic Compliance Matrix: (Units=1/GPa)
#
#
# Indices 1 2 3 4 5 6 
#
# 1 0.017153 -0.003738 -0.005009 0.000000 0.000000 0.000000
# 2 -0.003738 0.018852 -0.010435 0.000000 0.000000 0.000000
# 3 -0.005009 -0.010435 0.021826 0.000000 0.000000 0.000000
# 4 0.000000 0.000000 0.000000 0.036741 0.000000 0.000000
# 5 0.000000 0.000000 0.000000 0.000000 0.042328 0.000000
# 6 0.000000 0.000000 0.000000 0.000000 0.000000 0.042329
#
#
# Mechanical properties :
#
#
# Convention : Reuss Voigt Hill
#
# Bulk Modulus (GPa) = 51.37155 52.25937 51.81546
# Shear Modulus (GPa) = 22.31343 23.12060 22.71702
#
# Velocity S-wave (km/s) = 3.38379 3.44445 3.41425
# Velocity P-wave (km/s) = 6.45196 6.52960 6.49090
#
# Compressibility (1/GPa) = 0.01946603
#
# Stress axis : x y z
#
# Youngs Moduli (GPa) = 58.29935 53.04608 45.81761
#
# Poissons Ratio (x) = 0.19829 0.22950
# Poissons Ratio (y) = 0.21793 0.47810
# Poissons Ratio (z) = 0.29202 0.55353
#
# Static dielectric constant tensor:
#      x y z
#    x 3.583530 0.000000 0.000000 
#    y 0.000000 3.574270 0.000000 
#    z 0.000000 0.000000 3.634670 
# 
# 
# High freq. dielectric constant tensor:
#      x y z
#    x 1.749460 0.000000 0.000000 
#    y 0.000000 1.753810 0.000000 
#    z 0.000000 0.000000 1.756120 
# 
# From -- ./inp_files/3007.got.cif
#   From: 2010.03.12/outbox.cif.g09.slc.cpg/sg26_2_cif.got.tgz:3007.got - 2010.04.14 03:33:09.
