data_PCOD8167088
_publ_section_title
;
Structure prediction by ZEFSAII (Michael W. Deem and Ramdas Pophale) SiO2 
 PCOD8167088
Probable space group: P M C 21
;
_chemical_formula_sum "Si O2"
_cell_formula_units_Z 32
_cell_length_a 9.140569
_cell_length_b 9.554236
_cell_length_c 22.052781
_cell_angle_alpha 90.000000
_cell_angle_beta 90.000000
_cell_angle_gamma 90.000000
_cell_volume 1925.894800
_symmetry_space_group_name_H-M "P M C 21"
_symmetry_group_IT_number 26
_symmetry_cell_setting 'orthorhombic'
loop_
_space_group_symop_operation_xyz
x,y,z
-x,-y,1/2+z
-x,y,z
x,-y,1/2+z
loop_
_atom_site_type_symbol
_atom_site_label
_atom_site_fract_x
_atom_site_fract_y
_atom_site_fract_z
Si Si1 0.670477 0.190425 0.681690
Si Si2 0.671693 0.119085 0.216126
Si Si3 0.171391 0.697078 0.808501
Si Si4 0.165581 0.544225 0.220823
Si Si5 0.661733 0.747924 0.051397
Si Si6 0.828476 0.645843 0.946503
Si Si7 0.831304 0.689657 0.622978
Si Si8 0.337471 0.554721 0.521845
O O1 0.500000 0.222740 0.677381
O O2 0.740763 0.315178 0.719904
O O3 0.729920 0.182427 0.612019
O O4 0.703889 0.046036 0.715626
O O5 0.500000 0.152474 0.212127
O O6 0.736897 0.177271 0.278863
O O7 0.750915 0.186757 0.158478
O O8 0.217254 0.550445 0.777616
O O9 0.211078 0.692555 0.878964
O O10 0.000000 0.725410 0.796488
O O11 0.182201 0.454924 0.159589
O O12 0.000000 0.592861 0.230039
O O13 0.500000 0.809986 0.036315
O O14 0.647858 0.581557 0.065030
O O15 0.768280 0.766537 0.992764
O O16 0.000000 0.626415 0.956049
O O17 0.749639 0.496480 0.961215
O O18 0.753410 0.672924 0.557684
O O19 0.000000 0.731158 0.613086
O O20 0.500000 0.611614 0.504880
#
# Coordination Sequence:
#
# PCOD8167088 Si02
#       8
#     4   4   4   4   4   4   4   4
#     4  10  19  32  47  70  99 126 156 194 239 285
#     4  10  21  32  47  69  98 131 161 194 238 286
#     4   9  19  34  48  69  98 126 159 198 240 284
#     4   9  17  28  46  68  90 119 153 189 228 274
#     4   8  16  28  45  69  96 120 149 192 237 280
#     4   9  16  28  47  70  95 122 157 199 238 282
#     4  10  18  30  47  70  97 123 154 190 235 282
#     4   9  16  26  45  71  95 119 149 190 237 279
#
# _framework density 16.615653999999999
#
# number of rings (size 3 to 8) (size 9 to 14) (size 15 to 20)
#    0.750    2.000    1.250    1.875    0.000    4.500 
#    0.000    0.000    0.000    1.500    0.000    3.500 
#    0.000    0.000    0.000    0.000    0.000    0.000 
#
# Total GULP energy -396541.469691 kJ/mol
# GULP energy per Si atom -12391.920928 kJ/mol
# Density = 1.657784 g / cm^3
# Si number density = 16.615654 Si / 1000 Ang^3
#
#
#
# Elastic Constant Matrix: (Units=GPa)
#
#
# Indices 1 2 3 4 5 6 
#
# 1 93.5917 41.9056 50.3113 0.0000 0.0000 0.0000
# 2 41.9056 75.6388 37.7642 0.0000 0.0000 0.0000
# 3 50.3113 37.7642 101.6337 0.0000 0.0000 0.0000
# 4 0.0000 0.0000 0.0000 15.6451 0.0000 0.0000
# 5 0.0000 0.0000 0.0000 0.0000 25.1768 0.0000
# 6 0.0000 0.0000 0.0000 0.0000 0.0000 21.5494
#
#
#
# Elastic Compliance Matrix: (Units=1/GPa)
#
#
# Indices 1 2 3 4 5 6 
#
# 1 0.016683 -0.006286 -0.005923 0.000000 0.000000 0.000000
# 2 -0.006286 0.018600 -0.003800 0.000000 0.000000 0.000000
# 3 -0.005923 -0.003800 0.014183 0.000000 0.000000 0.000000
# 4 0.000000 0.000000 0.000000 0.063918 0.000000 0.000000
# 5 0.000000 0.000000 0.000000 0.000000 0.039719 0.000000
# 6 0.000000 0.000000 0.000000 0.000000 0.000000 0.046405
#
#
# Mechanical properties :
#
#
# Convention : Reuss Voigt Hill
#
# Bulk Modulus (GPa) = 57.30757 58.98070 58.14414
# Shear Modulus (GPa) = 21.06670 21.86648 21.46659
#
# Velocity S-wave (km/s) = 3.56460 3.63163 3.59827
# Velocity P-wave (km/s) = 7.17682 7.29103 7.23415
#
# Compressibility (1/GPa) = 0.01744970
#
# Stress axis : x y z
#
# Youngs Moduli (GPa) = 59.94107 53.76283 70.50609
#
# Poissons Ratio (x) = 0.33793 0.41761
# Poissons Ratio (y) = 0.37677 0.26791
# Poissons Ratio (z) = 0.35503 0.20429
#
# Static dielectric constant tensor:
#      x y z
#    x 3.177410 0.000000 0.000000 
#    y 0.000000 2.779780 0.000000 
#    z 0.000000 0.000000 2.963690 
# 
# 
# High freq. dielectric constant tensor:
#      x y z
#    x 1.650370 0.000000 0.000000 
#    y 0.000000 1.602080 0.000000 
#    z 0.000000 0.000000 1.623450 
# 
# From -- ./inp_files/5549.got.cif
#   From: 2010.03.12/outbox.cif.g09.slc.cpg/sg26_3_cif.got.tgz:5549.got - 2010.04.14 03:33:09.
