data_PCOD8167052
_publ_section_title
;
Structure prediction by ZEFSAII (Michael W. Deem and Ramdas Pophale) SiO2 
 PCOD8167052
Probable space group: P M C 21
;
_chemical_formula_sum "Si O2"
_cell_formula_units_Z 16
_cell_length_a 5.314045
_cell_length_b 7.816320
_cell_length_c 19.521548
_cell_angle_alpha 90.000000
_cell_angle_beta 90.000000
_cell_angle_gamma 90.000000
_cell_volume 810.852410
_symmetry_space_group_name_H-M "P M C 21"
_symmetry_group_IT_number 26
_symmetry_cell_setting 'orthorhombic'
loop_
_space_group_symop_operation_xyz
x,y,z
-x,-y,1/2+z
-x,y,z
x,-y,1/2+z
loop_
_atom_site_type_symbol
_atom_site_label
_atom_site_fract_x
_atom_site_fract_y
_atom_site_fract_z
Si Si1 0.500000 0.594148 0.754160
Si Si2 0.000000 0.805240 0.739877
Si Si3 0.000000 0.681287 0.164859
Si Si4 0.000000 0.827486 0.307892
Si Si5 0.500000 0.346567 0.622991
Si Si6 0.000000 0.304167 0.097481
Si Si7 0.500000 0.304366 0.865666
Si Si8 0.500000 0.368959 0.023589
O O1 0.251643 0.707813 0.762492
O O2 0.500000 0.497191 0.681070
O O3 0.500000 0.465172 0.816724
O O4 0.000000 0.836458 0.657680
O O5 0.000000 0.988960 0.773979
O O6 0.747569 0.770626 0.134808
O O7 0.000000 0.683824 0.247320
O O8 0.000000 0.486814 0.136833
O O9 0.249597 0.808052 0.353602
O O10 0.500000 0.432731 0.548370
O O11 0.247817 0.277364 0.051246
O O12 0.500000 0.372069 0.942535
#
# Coordination Sequence:
#
# PCOD8167052 Si02
#       8
#     2   2   2   2   2   2   2   2
#     4  12  19  38  61  86 112 146 201 239 277 334
#     4  12  22  35  61  89 113 151 191 243 285 332
#     4  10  16  32  55  81 107 137 179 244 276 309
#     4  12  23  36  55  90 121 145 188 240 295 338
#     4  10  16  32  59  79 106 133 192 242 264 314
#     4  10  17  35  57  84 107 143 194 241 272 339
#     4  12  23  38  58  87 116 157 187 240 290 346
#     4  10  20  32  58  84 108 146 196 235 281 334
#
# _framework density 19.732320999999999
#
# number of rings (size 3 to 8) (size 9 to 14) (size 15 to 20)
#    0.000    1.000    7.500    2.250    0.000    0.000 
#    0.000    0.000    0.000   18.000    0.000    0.000 
#    0.000    0.000    0.000    0.000    0.000    0.000 
#
# Total GULP energy -198294.939894 kJ/mol
# GULP energy per Si atom -12393.433743 kJ/mol
# Density = 1.968741 g / cm^3
# Si number density = 19.732321 Si / 1000 Ang^3
#
#
#
# Elastic Constant Matrix: (Units=GPa)
#
#
# Indices 1 2 3 4 5 6 
#
# 1 214.9348 25.4509 33.3217 0.0000 0.0000 0.0000
# 2 25.4509 48.7991 34.0326 0.0000 0.0000 0.0000
# 3 33.3217 34.0326 101.4033 0.0000 0.0000 0.0000
# 4 0.0000 0.0000 0.0000 18.2331 0.0000 0.0000
# 5 0.0000 0.0000 0.0000 0.0000 22.1675 0.0000
# 6 0.0000 0.0000 0.0000 0.0000 0.0000 12.7976
#
#
#
# Elastic Compliance Matrix: (Units=1/GPa)
#
#
# Indices 1 2 3 4 5 6 
#
# 1 0.005037 -0.001923 -0.001010 0.000000 0.000000 0.000000
# 2 -0.001923 0.027488 -0.008594 0.000000 0.000000 0.000000
# 3 -0.001010 -0.008594 0.013078 0.000000 0.000000 0.000000
# 4 0.000000 0.000000 0.000000 0.054845 0.000000 0.000000
# 5 0.000000 0.000000 0.000000 0.000000 0.045111 0.000000
# 6 0.000000 0.000000 0.000000 0.000000 0.000000 0.078140
#
#
# Mechanical properties :
#
#
# Convention : Reuss Voigt Hill
#
# Bulk Modulus (GPa) = 44.34538 61.19417 52.76977
# Shear Modulus (GPa) = 19.66431 28.79511 24.22971
#
# Velocity S-wave (km/s) = 3.16025 3.82421 3.50797
# Velocity P-wave (km/s) = 5.98653 7.11188 6.57333
#
# Compressibility (1/GPa) = 0.02255027
#
# Stress axis : x y z
#
# Youngs Moduli (GPa) = 198.53890 36.37924 76.46646
#
# Poissons Ratio (x) = 0.06994 0.07722
# Poissons Ratio (y) = 0.38172 0.65713
# Poissons Ratio (z) = 0.20049 0.31263
#
# Static dielectric constant tensor:
#      x y z
#    x 5.449570 0.000000 0.000000 
#    y 0.000000 3.084680 0.000000 
#    z 0.000000 0.000000 3.483420 
# 
# 
# High freq. dielectric constant tensor:
#      x y z
#    x 1.817400 0.000000 0.000000 
#    y 0.000000 1.718330 0.000000 
#    z 0.000000 0.000000 1.750950 
# 
# From -- ./inp_files/4744.got.cif
#   From: 2010.03.12/outbox.cif.g09.slc.cpg/sg26_3_cif.got.tgz:4744.got - 2010.04.14 03:33:09.
