data_PCOD8167763
_publ_section_title
;
Structure prediction by ZEFSAII (Michael W. Deem and Ramdas Pophale) SiO2 
 PCOD8167763
Probable space group: P M C 21
;
_chemical_formula_sum "Si O2"
_cell_formula_units_Z 32
_cell_length_a 14.122915
_cell_length_b 11.054203
_cell_length_c 11.043536
_cell_angle_alpha 90.000000
_cell_angle_beta 90.000000
_cell_angle_gamma 90.000000
_cell_volume 1724.089997
_symmetry_space_group_name_H-M "P M C 21"
_symmetry_group_IT_number 26
_symmetry_cell_setting 'orthorhombic'
loop_
_space_group_symop_operation_xyz
x,y,z
-x,-y,1/2+z
-x,y,z
x,-y,1/2+z
loop_
_atom_site_type_symbol
_atom_site_label
_atom_site_fract_x
_atom_site_fract_y
_atom_site_fract_z
Si Si1 0.761292 0.576129 0.519470
Si Si2 0.608188 0.907124 0.490734
Si Si3 0.752129 0.194468 0.172949
Si Si4 0.891785 0.288132 0.842068
Si Si5 0.608247 0.334987 0.850159
Si Si6 0.107951 0.938155 0.511495
Si Si7 0.741102 0.123269 0.442893
Si Si8 0.747242 0.676304 0.137727
O O1 0.762705 0.666200 0.633945
O O2 0.845440 0.610166 0.427362
O O3 0.660716 0.583387 0.450347
O O4 0.778993 0.441820 0.564904
O O5 0.500000 0.935626 0.522848
O O6 0.658494 0.863718 0.613577
O O7 0.617706 0.805337 0.387395
O O8 0.657179 0.025929 0.437603
O O9 0.842898 0.116569 0.130882
O O10 0.744928 0.193245 0.316509
O O11 0.836755 0.279961 0.715823
O O12 0.000000 0.324728 0.818195
O O13 0.882821 0.157178 0.902756
O O14 0.500000 0.378237 0.843064
O O15 0.655997 0.352698 0.719777
O O16 0.000000 0.968070 0.544326
O O17 0.158191 0.060849 0.469182
O O18 0.717353 0.219169 0.546181
#
# Coordination Sequence:
#
# PCOD8167763 Si02
#       8
#     4   4   4   4   4   4   4   4
#     4   9  20  39  62  79 108 151 189 232 280 324
#     4   9  20  38  59  81 112 149 184 226 281 335
#     4   9  20  37  58  81 110 147 187 228 276 334
#     4   9  20  40  61  81 109 151 191 226 279 339
#     4   9  20  40  61  81 109 151 191 226 279 339
#     4   9  20  38  59  81 112 149 184 226 281 335
#     4  11  23  33  55  91 115 141 183 231 279 333
#     4  11  23  35  59  87 115 147 183 235 281 323
#
# _framework density 18.560517000000001
#
# number of rings (size 3 to 8) (size 9 to 14) (size 15 to 20)
#    0.000    2.500    0.000    2.250   10.500    3.000 
#    0.000    0.000    0.000    0.000    0.000    0.000 
#    0.000    0.000    0.000    0.000    0.000    0.000 
#
# Total GULP energy -396902.716302 kJ/mol
# GULP energy per Si atom -12403.209884 kJ/mol
# Density = 1.851827 g / cm^3
# Si number density = 18.560517 Si / 1000 Ang^3
#
#
#
# Elastic Constant Matrix: (Units=GPa)
#
#
# Indices 1 2 3 4 5 6 
#
# 1 113.9844 -1.2308 17.2399 0.0000 0.0000 0.0000
# 2 -1.2308 50.6677 12.5321 0.0000 0.0000 0.0000
# 3 17.2399 12.5321 90.2679 0.0000 0.0000 0.0000
# 4 0.0000 0.0000 0.0000 20.4763 0.0000 0.0000
# 5 0.0000 0.0000 0.0000 0.0000 13.4157 0.0000
# 6 0.0000 0.0000 0.0000 0.0000 0.0000 16.3497
#
#
#
# Elastic Compliance Matrix: (Units=1/GPa)
#
#
# Indices 1 2 3 4 5 6 
#
# 1 0.009056 0.000671 -0.001823 0.000000 0.000000 0.000000
# 2 0.000671 0.020488 -0.002973 0.000000 0.000000 0.000000
# 3 -0.001823 -0.002973 0.011839 0.000000 0.000000 0.000000
# 4 0.000000 0.000000 0.000000 0.048837 0.000000 0.000000
# 5 0.000000 0.000000 0.000000 0.000000 0.074539 0.000000
# 6 0.000000 0.000000 0.000000 0.000000 0.000000 0.061163
#
#
# Mechanical properties :
#
#
# Convention : Reuss Voigt Hill
#
# Bulk Modulus (GPa) = 30.18036 34.66694 32.42365
# Shear Modulus (GPa) = 20.39018 25.14027 22.76522
#
# Velocity S-wave (km/s) = 3.31808 3.68435 3.50600
# Velocity P-wave (km/s) = 5.56555 6.06775 5.82207
#
# Compressibility (1/GPa) = 0.03313413
#
# Stress axis : x y z
#
# Youngs Moduli (GPa) = 110.42339 48.80915 84.46711
#
# Poissons Ratio (x) = -0.03274 0.15396
# Poissons Ratio (y) = -0.07407 0.25108
# Poissons Ratio (z) = 0.20127 0.14509
#
# Static dielectric constant tensor:
#      x y z
#    x 3.623850 0.000000 0.000000 
#    y 0.000000 3.238310 0.000000 
#    z 0.000000 0.000000 3.279760 
# 
# 
# High freq. dielectric constant tensor:
#      x y z
#    x 1.722970 0.000000 0.000000 
#    y 0.000000 1.710760 0.000000 
#    z 0.000000 0.000000 1.716660 
# 
# From -- ./inp_files/2232.got.cif
#   From: 2010.03.12/outbox.cif.g09.slc.cpg/sg26_2_cif.got.tgz:2232.got - 2010.04.14 03:33:09.
