data_PCOD8168662
_publ_section_title
;
Structure prediction by ZEFSAII (Michael W. Deem and Ramdas Pophale) SiO2 
 PCOD8168662
Probable space group: P C A 21
;
_chemical_formula_sum "Si O2"
_cell_formula_units_Z 32
_cell_length_a 32.605051
_cell_length_b 5.391180
_cell_length_c 8.196696
_cell_angle_alpha 90.000000
_cell_angle_beta 90.000000
_cell_angle_gamma 90.000000
_cell_volume 1440.812754
_symmetry_space_group_name_H-M "P C A 21"
_symmetry_group_IT_number 29
_symmetry_cell_setting 'orthorhombic'
loop_
_space_group_symop_operation_xyz
x,y,z
-x,-y,1/2+z
1/2-x,y,1/2+z
1/2+x,-y,z
loop_
_atom_site_type_symbol
_atom_site_label
_atom_site_fract_x
_atom_site_fract_y
_atom_site_fract_z
Si Si1 0.489986 0.837699 0.153130
Si Si2 0.305682 0.468208 0.757779
Si Si3 0.783501 0.527621 0.380181
Si Si4 0.848407 0.035970 0.718104
Si Si5 0.036158 0.465792 0.907977
Si Si6 0.414968 0.077290 0.269005
Si Si7 0.565232 0.137667 0.119486
Si Si8 0.326257 0.976175 0.339348
O O1 0.491423 0.659011 0.309519
O O2 0.443621 0.943003 0.135557
O O3 0.522423 0.053355 0.199897
O O4 0.502491 0.722117 0.980171
O O5 0.265260 0.469322 0.867417
O O6 0.294504 0.470047 0.568696
O O7 0.333002 0.222866 0.799151
O O8 0.328356 0.724123 0.804344
O O9 0.799106 0.782296 0.296417
O O10 0.803084 0.281617 0.293273
O O11 0.837274 0.031667 0.528319
O O12 0.897151 0.076909 0.740697
O O13 0.070923 0.365702 0.779397
O O14 0.060945 0.574880 0.065523
O O15 0.367639 0.014682 0.231810
O O16 0.427105 0.005601 0.451923
#
# Coordination Sequence:
#
# PCOD8168662 Si02
#       8
#     4   4   4   4   4   4   4   4
#     4  10  20  34  54  84 112 150 186 236 286 340
#     4  10  20  35  57  81 109 141 178 226 280 337
#     4  10  20  35  57  81 109 141 178 226 280 337
#     4   9  19  32  56  84 107 140 187 232 270 322
#     4  10  20  34  58  78 114 148 190 240 288 336
#     4   9  19  32  53  81 110 142 194 236 272 328
#     4   9  19  32  53  81 110 142 194 236 272 328
#     4   9  19  32  56  84 107 140 187 232 270 322
#
# _framework density 22.209686999999999
#
# number of rings (size 3 to 8) (size 9 to 14) (size 15 to 20)
#    0.000    2.500    0.000    1.500   12.250    0.000 
#    0.000    0.000    2.750    3.000    0.000    0.000 
#    0.000    0.000    0.000    0.000    0.000    0.000 
#
# Total GULP energy -396459.278524 kJ/mol
# GULP energy per Si atom -12389.352454 kJ/mol
# Density = 2.215914 g / cm^3
# Si number density = 22.209687 Si / 1000 Ang^3
#
#
#
# Elastic Constant Matrix: (Units=GPa)
#
#
# Indices 1 2 3 4 5 6 
#
# 1 36.1185 5.7873 3.7276 0.0000 0.0000 0.0000
# 2 5.7873 137.3609 9.8005 0.0000 0.0000 0.0000
# 3 3.7276 9.8005 9.3597 0.0000 0.0000 0.0000
# 4 0.0000 0.0000 0.0000 20.0941 0.0000 0.0000
# 5 0.0000 0.0000 0.0000 0.0000 27.3926 0.0000
# 6 0.0000 0.0000 0.0000 0.0000 0.0000 32.1536
#
#
#
# Elastic Compliance Matrix: (Units=1/GPa)
#
#
# Indices 1 2 3 4 5 6 
#
# 1 0.028897 -0.000428 -0.011060 0.000000 0.000000 0.000000
# 2 -0.000428 0.007874 -0.008075 0.000000 0.000000 0.000000
# 3 -0.011060 -0.008075 0.119701 0.000000 0.000000 0.000000
# 4 0.000000 0.000000 0.000000 0.049766 0.000000 0.000000
# 5 0.000000 0.000000 0.000000 0.000000 0.036506 0.000000
# 6 0.000000 0.000000 0.000000 0.000000 0.000000 0.031101
#
#
# Mechanical properties :
#
#
# Convention : Reuss Voigt Hill
#
# Bulk Modulus (GPa) = 8.52178 24.60776 16.56477
# Shear Modulus (GPa) = 14.20109 26.82965 20.51537
#
# Velocity S-wave (km/s) = 2.53140 3.47942 3.04256
# Velocity P-wave (km/s) = 3.51984 5.21974 4.45168
#
# Compressibility (1/GPa) = 0.11734643
#
# Stress axis : x y z
#
# Youngs Moduli (GPa) = 34.60607 126.99621 8.35415
#
# Poissons Ratio (x) = 0.05440 0.09240
# Poissons Ratio (y) = 0.01482 0.06746
# Poissons Ratio (z) = 0.38274 1.02544
#
# Static dielectric constant tensor:
#      x y z
#    x 4.242860 0.000000 0.000000 
#    y 0.000000 4.661590 0.000000 
#    z 0.000000 0.000000 3.330850 
# 
# 
# High freq. dielectric constant tensor:
#      x y z
#    x 1.875750 0.000000 0.000000 
#    y 0.000000 1.892090 0.000000 
#    z 0.000000 0.000000 1.818060 
# 
# From -- ./inp_files/3977.got.cif
#   From: 2010.03.12/outbox.cif.g09.slc.cpg/sg29_2_cif.got.tgz:3977.got - 2010.04.14 03:43:10.
