data_PCOD8168187
_publ_section_title
;
Structure prediction by ZEFSAII (Michael W. Deem and Ramdas Pophale) SiO2 
 PCOD8168187
Probable space group: P M A 2
;
_chemical_formula_sum "Si O2"
_cell_formula_units_Z 32
_cell_length_a 8.756540
_cell_length_b 14.555908
_cell_length_c 12.330778
_cell_angle_alpha 90.000000
_cell_angle_beta 90.000000
_cell_angle_gamma 90.000000
_cell_volume 1571.673450
_symmetry_space_group_name_H-M "P M A 2"
_symmetry_group_IT_number 28
_symmetry_cell_setting 'orthorhombic'
loop_
_space_group_symop_operation_xyz
x,y,z
-x,-y,z
1/2-x,y,z
1/2+x,-y,z
loop_
_atom_site_type_symbol
_atom_site_label
_atom_site_fract_x
_atom_site_fract_y
_atom_site_fract_z
Si Si1 0.074227 0.151494 0.324020
Si Si2 0.071340 0.666441 0.397015
Si Si3 0.076978 0.091604 0.561653
Si Si4 0.425754 0.713301 0.031288
Si Si5 0.430038 0.600999 0.819407
Si Si6 0.068618 0.292620 0.618232
Si Si7 0.071284 0.411233 0.198158
Si Si8 0.072589 0.910499 0.106524
O O1 0.250000 0.184514 0.309478
O O2 0.060352 0.089437 0.431481
O O3 0.963790 0.237815 0.338057
O O4 0.017694 0.096631 0.219835
O O5 0.250000 0.655595 0.419043
O O6 0.980358 0.655551 0.508950
O O7 0.010679 0.589249 0.315198
O O8 0.250000 0.086550 0.598978
O O9 0.008275 0.186609 0.611562
O O10 0.000000 0.000000 0.610277
O O11 0.250000 0.689863 0.058475
O O12 0.476735 0.665397 0.920137
O O13 0.532535 0.678198 0.127966
O O14 0.451477 0.823200 0.027105
O O15 0.500000 0.500000 0.832870
O O16 0.250000 0.590035 0.808322
O O17 0.493431 0.653108 0.715707
O O18 0.250000 0.295800 0.628428
O O19 0.250000 0.420589 0.212622
O O20 0.000000 0.500000 0.136651
O O21 0.250000 0.925676 0.131835
O O22 0.000000 0.000000 0.047332
#
# Coordination Sequence:
#
# PCOD8168187 Si02
#       8
#     4   4   4   4   4   4   4   4
#     4  10  19  33  53  83 121 164 209 251 298 359
#     4  11  21  36  58  87 124 163 201 247 306 364
#     4   9  19  33  53  83 121 160 202 246 294 352
#     4  10  23  43  64  89 123 159 203 255 307 365
#     4  11  24  44  69  94 118 153 203 257 313 372
#     4  10  22  41  62  89 123 159 204 255 306 364
#     4  12  24  38  60  89 123 161 202 247 305 371
#     4  11  22  36  57  86 123 165 208 255 304 362
#
# _framework density 20.360465000000001
#
# number of rings (size 3 to 8) (size 9 to 14) (size 15 to 20)
#    0.000    1.500    1.250    5.250    0.000    7.000 
#    0.000    3.125    0.000    3.000    0.000    0.000 
#    0.000    0.000    0.000    0.000    0.000    0.000 
#
# Total GULP energy -396791.723712 kJ/mol
# GULP energy per Si atom -12399.741366 kJ/mol
# Density = 2.031412 g / cm^3
# Si number density = 20.360465 Si / 1000 Ang^3
#
#
#
# Elastic Constant Matrix: (Units=GPa)
#
#
# Indices 1 2 3 4 5 6 
#
# 1 86.4976 51.6079 32.8989 0.0000 0.0000 0.0000
# 2 51.6079 133.8918 58.6036 0.0000 0.0000 0.0000
# 3 32.8989 58.6036 101.4090 0.0000 0.0000 0.0000
# 4 0.0000 0.0000 0.0000 26.7256 0.0000 0.0000
# 5 0.0000 0.0000 0.0000 0.0000 12.4110 0.0000
# 6 0.0000 0.0000 0.0000 0.0000 0.0000 37.5840
#
#
#
# Elastic Compliance Matrix: (Units=1/GPa)
#
#
# Indices 1 2 3 4 5 6 
#
# 1 0.015337 -0.004998 -0.002087 0.000000 0.000000 0.000000
# 2 -0.004998 0.011626 -0.005097 0.000000 0.000000 0.000000
# 3 -0.002087 -0.005097 0.013484 0.000000 0.000000 0.000000
# 4 0.000000 0.000000 0.000000 0.037417 0.000000 0.000000
# 5 0.000000 0.000000 0.000000 0.000000 0.080574 0.000000
# 6 0.000000 0.000000 0.000000 0.000000 0.000000 0.026607
#
#
# Mechanical properties :
#
#
# Convention : Reuss Voigt Hill
#
# Bulk Modulus (GPa) = 62.18143 67.55768 64.86955
# Shear Modulus (GPa) = 23.28064 27.25665 25.26865
#
# Velocity S-wave (km/s) = 3.38512 3.66280 3.52670
# Velocity P-wave (km/s) = 6.77387 7.15129 6.96514
#
# Compressibility (1/GPa) = 0.01608197
#
# Stress axis : x y z
#
# Youngs Moduli (GPa) = 65.20240 86.01271 74.16248
#
# Poissons Ratio (x) = 0.42988 0.15480
# Poissons Ratio (y) = 0.32588 0.37803
# Poissons Ratio (z) = 0.13610 0.43843
#
# Static dielectric constant tensor:
#      x y z
#    x 3.691830 0.000000 0.000000 
#    y 0.000000 3.879470 0.000000 
#    z 0.000000 0.000000 3.563960 
# 
# 
# High freq. dielectric constant tensor:
#      x y z
#    x 1.802250 0.000000 0.000000 
#    y 0.000000 1.808160 0.000000 
#    z 0.000000 0.000000 1.770870 
# 
# From -- ./inp_files/5048.got.cif
#   From: 2010.03.12/outbox.cif.g09.slc.cpg/sg28_3_cif.got.tgz:5048.got - 2010.04.14 03:39:34.
