data_PCOD8168144
_publ_section_title
;
Structure prediction by ZEFSAII (Michael W. Deem and Ramdas Pophale) SiO2 
 PCOD8168144
Probable space group: P M A 2
;
_chemical_formula_sum "Si O2"
_cell_formula_units_Z 28
_cell_length_a 8.963741
_cell_length_b 9.393010
_cell_length_c 17.866321
_cell_angle_alpha 90.000000
_cell_angle_beta 90.000000
_cell_angle_gamma 90.000000
_cell_volume 1504.281854
_symmetry_space_group_name_H-M "P M A 2"
_symmetry_group_IT_number 28
_symmetry_cell_setting 'orthorhombic'
loop_
_space_group_symop_operation_xyz
x,y,z
-x,-y,z
1/2-x,y,z
1/2+x,-y,z
loop_
_atom_site_type_symbol
_atom_site_label
_atom_site_fract_x
_atom_site_fract_y
_atom_site_fract_z
Si Si1 0.925290 0.847486 0.594850
Si Si2 0.574307 0.846267 0.272074
Si Si3 0.077907 0.644759 0.709045
Si Si4 0.076536 0.647917 0.883557
Si Si5 0.078408 0.148342 0.434149
Si Si6 0.575373 0.651997 0.138441
Si Si7 0.073963 0.151832 0.997804
O O1 0.750000 0.860436 0.611144
O O2 0.956048 0.770233 0.513065
O O3 0.001311 0.767391 0.662447
O O4 0.000000 0.000000 0.592217
O O5 0.750000 0.868397 0.260306
O O6 0.536204 0.777398 0.354651
O O7 0.512436 0.734628 0.211308
O O8 0.500000 0.000000 0.260663
O O9 0.250000 0.633786 0.687497
O O10 0.054455 0.677557 0.796073
O O11 0.000000 0.500000 0.685080
O O12 0.250000 0.639428 0.905802
O O13 0.000000 0.500000 0.907768
O O14 0.997059 0.779215 0.923913
O O15 0.250000 0.109735 0.432300
O O16 0.000000 0.000000 0.436037
O O17 0.500000 0.500000 0.130293
O O18 0.750000 0.625747 0.145538
O O19 0.535101 0.746420 0.066813
O O20 0.250000 0.132418 0.986267
O O21 0.000000 0.000000 0.013141
#
# Coordination Sequence:
#
# PCOD8168144 Si02
#       7
#     4   4   4   4   4   4   4
#     4  10  19  32  52  78 107 140 178 220 265 312
#     4   9  17  32  53  77 104 134 172 216 260 306
#     4  10  21  37  56  78 105 139 177 216 262 315
#     4  10  21  38  59  81 106 138 175 215 261 314
#     4   8  15  28  48  73 102 135 171 213 259 307
#     4  10  22  37  54  77 106 140 175 212 256 308
#     4  11  23  38  57  82 109 138 174 216 262 310
#
# _framework density 18.613531999999999
#
# number of rings (size 3 to 8) (size 9 to 14) (size 15 to 20)
#    0.000    2.286    0.000    2.571    0.000    5.714 
#    0.000    0.714    0.000    1.714    0.000    0.000 
#    0.000    0.000    0.000    0.000    0.000    0.000 
#
# Total GULP energy -347012.719590 kJ/mol
# GULP energy per Si atom -12393.311414 kJ/mol
# Density = 1.857117 g / cm^3
# Si number density = 18.613532 Si / 1000 Ang^3
#
#
#
# Elastic Constant Matrix: (Units=GPa)
#
#
# Indices 1 2 3 4 5 6 
#
# 1 93.3699 55.6330 58.4389 0.0000 0.0000 0.0000
# 2 55.6330 113.0712 63.9703 0.0000 0.0000 0.0000
# 3 58.4389 63.9703 106.5216 0.0000 0.0000 0.0000
# 4 0.0000 0.0000 0.0000 15.8450 0.0000 0.0000
# 5 0.0000 0.0000 0.0000 0.0000 -51.8150 0.0000
# 6 0.0000 0.0000 0.0000 0.0000 0.0000 34.3547
#
#
#
# Elastic Compliance Matrix: (Units=1/GPa)
#
#
# Indices 1 2 3 4 5 6 
#
# 1 0.017966 -0.004943 -0.006888 0.000000 0.000000 0.000000
# 2 -0.004943 0.014755 -0.006149 0.000000 0.000000 0.000000
# 3 -0.006888 -0.006149 0.016860 0.000000 0.000000 0.000000
# 4 0.000000 0.000000 0.000000 0.063111 0.000000 0.000000
# 5 0.000000 0.000000 0.000000 0.000000 -0.019299 0.000000
# 6 0.000000 0.000000 0.000000 0.000000 0.000000 0.029108
#
#
# Mechanical properties :
#
#
# Convention : Reuss Voigt Hill
#
# Bulk Modulus (GPa) = 73.41923 74.33857 73.87890
# Shear Modulus (GPa) = 30.67461 8.67165 19.67313
#
# Velocity S-wave (km/s) = 4.06393 2.16076 3.25457
# Velocity P-wave (km/s) = 7.84540 6.80072 7.34167
#
# Compressibility (1/GPa) = 0.01362041
#
# Stress axis : x y z
#
# Youngs Moduli (GPa) = 55.65941 67.77448 59.31354
#
# Poissons Ratio (x) = 0.33499 0.40857
# Poissons Ratio (y) = 0.27511 0.36473
# Poissons Ratio (z) = 0.38340 0.41676
#
# Static dielectric constant tensor:
#      x y z
#    x 3.564790 0.000000 0.000000 
#    y 0.000000 3.164240 0.000000 
#    z 0.000000 0.000000 3.992570 
# 
# 
# High freq. dielectric constant tensor:
#      x y z
#    x 1.731300 0.000000 0.000000 
#    y 0.000000 1.696890 0.000000 
#    z 0.000000 0.000000 1.745820 
# 
# From -- ./inp_files/6728.got.cif
#   From: 2010.03.12/outbox.cif.g09.slc.cpg/sg28_4_cif.got.tgz:6728.got - 2010.04.14 03:39:34.
