data_PCOD8168526
_publ_section_title
;
Structure prediction by ZEFSAII (Michael W. Deem and Ramdas Pophale) SiO2 
 PCOD8168526
Probable space group: P C A 21
;
_chemical_formula_sum "Si O2"
_cell_formula_units_Z 32
_cell_length_a 33.322526
_cell_length_b 8.361392
_cell_length_c 5.350279
_cell_angle_alpha 90.000000
_cell_angle_beta 90.000000
_cell_angle_gamma 90.000000
_cell_volume 1490.709193
_symmetry_space_group_name_H-M "P C A 21"
_symmetry_group_IT_number 29
_symmetry_cell_setting 'orthorhombic'
loop_
_space_group_symop_operation_xyz
x,y,z
-x,-y,1/2+z
1/2-x,y,1/2+z
1/2+x,-y,z
loop_
_atom_site_type_symbol
_atom_site_label
_atom_site_fract_x
_atom_site_fract_y
_atom_site_fract_z
Si Si1 0.492126 0.901683 0.492780
Si Si2 0.638178 0.150618 0.500409
Si Si3 0.479076 0.439571 0.003496
Si Si4 0.141838 0.493551 0.999663
Si Si5 0.264583 0.515180 0.499830
Si Si6 0.768700 0.128963 0.000550
Si Si7 0.600364 0.165969 0.000454
Si Si8 0.113287 0.485333 0.499653
O O1 0.522069 0.751594 0.478493
O O2 0.447301 0.835625 0.502734
O O3 0.501764 0.996709 0.743861
O O4 0.684136 0.098794 0.501092
O O5 0.617149 0.079276 0.250673
O O6 0.634752 0.342076 0.500284
O O7 0.616966 0.079388 0.749672
O O8 0.498027 0.484748 0.269273
O O9 0.434196 0.506341 0.998674
O O10 0.188072 0.542494 0.999137
O O11 0.114145 0.650747 0.000204
O O12 0.129508 0.394573 0.249889
O O13 0.129363 0.394482 0.749739
O O14 0.249923 0.421007 0.250004
O O15 0.241295 0.683301 0.500478
O O16 0.749951 0.048897 0.250415
#
# Coordination Sequence:
#
# PCOD8168526 Si02
#       8
#     4   4   4   4   4   4   4   4
#     4  12  26  43  61  86 120 156 194 252 315 363
#     4  10  17  28  46  72 102 141 182 225 275 336
#     4  12  23  40  64  89 113 150 203 250 293 353
#     4  10  18  29  46  73 105 143 182 227 278 336
#     4  10  16  24  38  62 100 147 176 207 268 343
#     4  10  16  23  36  61 100 145 172 205 268 342
#     4  10  18  32  49  67  95 138 184 220 270 342
#     4  10  18  29  46  70  99 132 177 228 271 323
#
# _framework density 21.466294999999999
#
# number of rings (size 3 to 8) (size 9 to 14) (size 15 to 20)
#    0.000    1.500    0.000   12.750    0.000    0.000 
#    0.000    0.000    0.000    0.000    0.000    0.000 
#    0.000    0.000    0.000  274.500    0.000    0.000 
#
# Total GULP energy -396608.254795 kJ/mol
# GULP energy per Si atom -12394.007962 kJ/mol
# Density = 2.141744 g / cm^3
# Si number density = 21.466295 Si / 1000 Ang^3
#
#
#
# Elastic Constant Matrix: (Units=GPa)
#
#
# Indices 1 2 3 4 5 6 
#
# 1 141.2237 4.1150 57.5119 0.0000 0.0000 0.0000
# 2 4.1150 30.7100 4.2991 0.0000 0.0000 0.0000
# 3 57.5119 4.2991 244.8512 0.0000 0.0000 0.0000
# 4 0.0000 0.0000 0.0000 14.2231 0.0000 0.0000
# 5 0.0000 0.0000 0.0000 0.0000 48.4805 0.0000
# 6 0.0000 0.0000 0.0000 0.0000 0.0000 7.9894
#
#
#
# Elastic Compliance Matrix: (Units=1/GPa)
#
#
# Indices 1 2 3 4 5 6 
#
# 1 0.007849 -0.000796 -0.001830 0.000000 0.000000 0.000000
# 2 -0.000796 0.032724 -0.000388 0.000000 0.000000 0.000000
# 3 -0.001830 -0.000388 0.004521 0.000000 0.000000 0.000000
# 4 0.000000 0.000000 0.000000 0.070308 0.000000 0.000000
# 5 0.000000 0.000000 0.000000 0.000000 0.020627 0.000000
# 6 0.000000 0.000000 0.000000 0.000000 0.000000 0.125166
#
#
# Mechanical properties :
#
#
# Convention : Reuss Voigt Hill
#
# Bulk Modulus (GPa) = 25.59673 60.95965 43.27819
# Shear Modulus (GPa) = 17.84168 37.52919 27.68543
#
# Velocity S-wave (km/s) = 2.88609 4.18579 3.59516
# Velocity P-wave (km/s) = 4.80167 7.19865 6.11869
#
# Compressibility (1/GPa) = 0.03906750
#
# Stress axis : x y z
#
# Youngs Moduli (GPa) = 127.40024 30.55902 221.20512
#
# Poissons Ratio (x) = 0.02431 0.40474
# Poissons Ratio (y) = 0.10136 0.08576
# Poissons Ratio (z) = 0.23311 0.01185
#
# Static dielectric constant tensor:
#      x y z
#    x 3.917200 0.000000 0.000000 
#    y 0.000000 3.007530 0.000000 
#    z 0.000000 0.000000 7.320540 
# 
# 
# High freq. dielectric constant tensor:
#      x y z
#    x 1.859060 0.000000 0.000000 
#    y 0.000000 1.741270 0.000000 
#    z 0.000000 0.000000 1.896120 
# 
# From -- ./inp_files/925.got.cif
#   From: 2010.03.12/outbox.cif.g09.slc.cpg/sg29_1_cif.got.tgz:925.got - 2010.04.14 03:43:10.
