data_PCOD8168331
_publ_section_title
;
Structure prediction by ZEFSAII (Michael W. Deem and Ramdas Pophale) SiO2 
 PCOD8168331
Probable space group: P M A 2
;
_chemical_formula_sum "Si O2"
_cell_formula_units_Z 28
_cell_length_a 8.666223
_cell_length_b 14.288238
_cell_length_c 12.802702
_cell_angle_alpha 90.000000
_cell_angle_beta 90.000000
_cell_angle_gamma 90.000000
_cell_volume 1585.295302
_symmetry_space_group_name_H-M "P M A 2"
_symmetry_group_IT_number 28
_symmetry_cell_setting 'orthorhombic'
loop_
_space_group_symop_operation_xyz
x,y,z
-x,-y,z
1/2-x,y,z
1/2+x,-y,z
loop_
_atom_site_type_symbol
_atom_site_label
_atom_site_fract_x
_atom_site_fract_y
_atom_site_fract_z
Si Si1 0.430393 0.599275 0.670470
Si Si2 0.431842 0.397787 0.058178
Si Si3 0.567999 0.600308 0.451941
Si Si4 0.068299 0.903036 0.174091
Si Si5 0.930530 0.280957 0.870487
Si Si6 0.430581 0.275422 0.258246
Si Si7 0.932587 0.901951 0.947589
O O1 0.500000 0.500000 0.705149
O O2 0.250000 0.584994 0.653490
O O3 0.504284 0.635779 0.562857
O O4 0.467799 0.675190 0.758300
O O5 0.500000 0.500000 0.072023
O O6 0.250000 0.403820 0.041431
O O7 0.476321 0.340254 0.161053
O O8 0.505539 0.349241 0.958395
O O9 0.500000 0.500000 0.421403
O O10 0.750000 0.590275 0.457932
O O11 0.517475 0.674066 0.364269
O O12 0.250000 0.912780 0.160100
O O13 0.025650 0.820962 0.254192
O O14 0.000000 0.000000 0.218205
O O15 0.993295 0.878558 0.062872
O O16 0.750000 0.266780 0.889014
O O17 0.013948 0.180625 0.871266
O O18 0.250000 0.252177 0.257340
O O19 0.750000 0.908104 0.950645
O O20 0.000000 0.000000 0.905968
#
# Coordination Sequence:
#
# PCOD8168331 Si02
#       7
#     4   4   4   4   4   4   4
#     4  10  21  36  55  78 107 141 183 228 266 315
#     4  11  22  34  50  74 109 145 176 215 265 321
#     4  10  20  35  56  79 107 142 183 226 266 315
#     4  11  21  34  55  79 108 143 179 220 265 318
#     4  11  22  36  54  79 108 141 181 222 270 321
#     4  10  21  36  53  78 109 142 179 221 268 318
#     4  11  21  35  55  79 109 142 178 220 266 320
#
# _framework density 17.662324999999999
#
# number of rings (size 3 to 8) (size 9 to 14) (size 15 to 20)
#    0.000    1.429    1.429    6.857    0.000    5.143 
#    0.000    0.000    0.000    0.857    0.000    6.000 
#    0.000    0.000    0.000    0.000    0.000    0.000 
#
# Total GULP energy -347326.793372 kJ/mol
# GULP energy per Si atom -12404.528335 kJ/mol
# Density = 1.762212 g / cm^3
# Si number density = 17.662325 Si / 1000 Ang^3
#
#
#
# Elastic Constant Matrix: (Units=GPa)
#
#
# Indices 1 2 3 4 5 6 
#
# 1 126.2925 66.2813 60.2378 0.0000 0.0000 0.0000
# 2 66.2813 146.5056 71.9802 0.0000 0.0000 0.0000
# 3 60.2378 71.9802 102.2536 0.0000 0.0000 0.0000
# 4 0.0000 0.0000 0.0000 27.1144 0.0000 0.0000
# 5 0.0000 0.0000 0.0000 0.0000 10.2685 0.0000
# 6 0.0000 0.0000 0.0000 0.0000 0.0000 33.8024
#
#
#
# Elastic Compliance Matrix: (Units=1/GPa)
#
#
# Indices 1 2 3 4 5 6 
#
# 1 0.011785 -0.002936 -0.004875 0.000000 0.000000 0.000000
# 2 -0.002936 0.011166 -0.006131 0.000000 0.000000 0.000000
# 3 -0.004875 -0.006131 0.016967 0.000000 0.000000 0.000000
# 4 0.000000 0.000000 0.000000 0.036881 0.000000 0.000000
# 5 0.000000 0.000000 0.000000 0.000000 0.097386 0.000000
# 6 0.000000 0.000000 0.000000 0.000000 0.000000 0.029584
#
#
# Mechanical properties :
#
#
# Convention : Reuss Voigt Hill
#
# Bulk Modulus (GPa) = 83.10041 85.78338 84.44190
# Shear Modulus (GPa) = 21.21672 26.00721 23.61196
#
# Velocity S-wave (km/s) = 3.46965 3.84144 3.66027
# Velocity P-wave (km/s) = 7.95003 8.26738 8.11026
#
# Compressibility (1/GPa) = 0.01203363
#
# Stress axis : x y z
#
# Youngs Moduli (GPa) = 84.85709 89.55726 58.93707
#
# Poissons Ratio (x) = 0.26295 0.28734
# Poissons Ratio (y) = 0.24915 0.36132
# Poissons Ratio (z) = 0.41372 0.54903
#
# Static dielectric constant tensor:
#      x y z
#    x 3.422740 0.000000 0.000000 
#    y 0.000000 3.412190 0.000000 
#    z 0.000000 0.000000 3.267890 
# 
# 
# High freq. dielectric constant tensor:
#      x y z
#    x 1.702370 0.000000 0.000000 
#    y 0.000000 1.688550 0.000000 
#    z 0.000000 0.000000 1.665260 
# 
# From -- ./inp_files/4826.got.cif
#   From: 2010.03.12/outbox.cif.g09.slc.cpg/sg28_3_cif.got.tgz:4826.got - 2010.04.14 03:39:34.
