data_PCOD8168086
_publ_section_title
;
Structure prediction by ZEFSAII (Michael W. Deem and Ramdas Pophale) SiO2 
 PCOD8168086
Probable space group: P M A 2
;
_chemical_formula_sum "Si O2"
_cell_formula_units_Z 32
_cell_length_a 8.830603
_cell_length_b 14.313366
_cell_length_c 15.465074
_cell_angle_alpha 90.000000
_cell_angle_beta 90.000000
_cell_angle_gamma 90.000000
_cell_volume 1954.718123
_symmetry_space_group_name_H-M "P M A 2"
_symmetry_group_IT_number 28
_symmetry_cell_setting 'orthorhombic'
loop_
_space_group_symop_operation_xyz
x,y,z
-x,-y,z
1/2-x,y,z
1/2+x,-y,z
loop_
_atom_site_type_symbol
_atom_site_label
_atom_site_fract_x
_atom_site_fract_y
_atom_site_fract_z
Si Si1 0.570331 0.293163 0.261190
Si Si2 0.425171 0.399868 0.915569
Si Si3 0.072949 0.398025 0.107311
Si Si4 0.425251 0.908517 0.522439
Si Si5 0.570877 0.600276 0.420488
Si Si6 0.073486 0.707521 0.575585
Si Si7 0.071881 0.601655 0.748012
Si Si8 0.071822 0.905928 0.326804
O O1 0.750000 0.304707 0.268066
O O2 0.511066 0.324683 0.168154
O O3 0.495134 0.358267 0.332717
O O4 0.520470 0.185419 0.273511
O O5 0.500000 0.500000 0.920050
O O6 0.250000 0.409570 0.892479
O O7 0.507332 0.347550 0.835221
O O8 0.448734 0.355114 0.010451
O O9 0.250000 0.406475 0.130718
O O10 0.000000 0.500000 0.117733
O O11 0.250000 0.929330 0.517854
O O12 0.461211 0.817978 0.580155
O O13 0.487250 0.892331 0.425033
O O14 0.500000 0.000000 0.565378
O O15 0.500000 0.500000 0.438071
O O16 0.750000 0.591563 0.411996
O O17 0.529240 0.664636 0.501160
O O18 0.250000 0.689029 0.553372
O O19 0.025883 0.665448 0.667287
O O20 0.250000 0.590794 0.756231
O O21 0.000000 0.500000 0.734349
O O22 0.250000 0.917119 0.323167
O O23 0.000000 0.000000 0.285955
#
# Coordination Sequence:
#
# PCOD8168086 Si02
#       8
#     4   4   4   4   4   4   4   4
#     4  11  21  35  51  70  97 129 161 198 240 284
#     4   9  17  30  48  68  95 124 157 199 240 279
#     4  10  20  33  49  72  98 129 163 200 240 284
#     4   9  17  32  50  69  94 122 157 199 242 284
#     4  12  24  35  48  66  94 132 168 199 232 279
#     4  10  20  35  50  69  98 129 161 200 240 283
#     4  10  19  30  48  70  96 128 161 197 238 282
#     4   9  18  32  51  70  93 123 156 198 242 283
#
# _framework density 16.370647999999999
#
# number of rings (size 3 to 8) (size 9 to 14) (size 15 to 20)
#    0.000    2.000    1.250    4.125    0.000    5.000 
#    0.000    0.000    0.000    0.000    0.000    0.875 
#    0.000    2.000    0.000    0.000    0.000    0.000 
#
# Total GULP energy -396709.429658 kJ/mol
# GULP energy per Si atom -12397.169677 kJ/mol
# Density = 1.633339 g / cm^3
# Si number density = 16.370648 Si / 1000 Ang^3
#
#
#
# Elastic Constant Matrix: (Units=GPa)
#
#
# Indices 1 2 3 4 5 6 
#
# 1 77.9292 30.5986 37.9439 0.0000 0.0000 0.0000
# 2 30.5986 90.9558 40.1526 0.0000 0.0000 0.0000
# 3 37.9439 40.1526 104.4036 0.0000 0.0000 0.0000
# 4 0.0000 0.0000 0.0000 5.1561 0.0000 0.0000
# 5 0.0000 0.0000 0.0000 0.0000 46.1105 0.0000
# 6 0.0000 0.0000 0.0000 0.0000 0.0000 26.1818
#
#
#
# Elastic Compliance Matrix: (Units=1/GPa)
#
#
# Indices 1 2 3 4 5 6 
#
# 1 0.016462 -0.003489 -0.004641 0.000000 0.000000 0.000000
# 2 -0.003489 0.013982 -0.004109 0.000000 0.000000 0.000000
# 3 -0.004641 -0.004109 0.012845 0.000000 0.000000 0.000000
# 4 0.000000 0.000000 0.000000 0.193944 0.000000 0.000000
# 5 0.000000 0.000000 0.000000 0.000000 0.021687 0.000000
# 6 0.000000 0.000000 0.000000 0.000000 0.000000 0.038194
#
#
# Mechanical properties :
#
#
# Convention : Reuss Voigt Hill
#
# Bulk Modulus (GPa) = 53.16183 54.51986 53.84085
# Shear Modulus (GPa) = 15.25024 26.46258 20.85641
#
# Velocity S-wave (km/s) = 3.05546 4.02489 3.57320
# Velocity P-wave (km/s) = 6.70762 7.41454 7.06992
#
# Compressibility (1/GPa) = 0.01881049
#
# Stress axis : x y z
#
# Youngs Moduli (GPa) = 60.74645 71.51928 77.84967
#
# Poissons Ratio (x) = 0.24955 0.36129
# Poissons Ratio (y) = 0.21196 0.31991
# Poissons Ratio (z) = 0.28192 0.29390
#
# Static dielectric constant tensor:
#      x y z
#    x 3.177420 0.000000 0.000000 
#    y 0.000000 3.026800 0.000000 
#    z 0.000000 0.000000 3.458500 
# 
# 
# High freq. dielectric constant tensor:
#      x y z
#    x 1.642390 0.000000 0.000000 
#    y 0.000000 1.608350 0.000000 
#    z 0.000000 0.000000 1.621510 
# 
# From -- ./inp_files/6435.got.cif
#   From: 2010.03.12/outbox.cif.g09.slc.cpg/sg28_4_cif.got.tgz:6435.got - 2010.04.14 03:39:34.
