data_PCOD8168422
_publ_section_title
;
Structure prediction by ZEFSAII (Michael W. Deem and Ramdas Pophale) SiO2 
 PCOD8168422
Probable space group: P M A 2
;
_chemical_formula_sum "Si O2"
_cell_formula_units_Z 16
_cell_length_a 8.516533
_cell_length_b 17.547528
_cell_length_c 5.093107
_cell_angle_alpha 90.000000
_cell_angle_beta 90.000000
_cell_angle_gamma 90.000000
_cell_volume 761.134798
_symmetry_space_group_name_H-M "P M A 2"
_symmetry_group_IT_number 28
_symmetry_cell_setting 'orthorhombic'
loop_
_space_group_symop_operation_xyz
x,y,z
-x,-y,z
1/2-x,y,z
1/2+x,-y,z
loop_
_atom_site_type_symbol
_atom_site_label
_atom_site_fract_x
_atom_site_fract_y
_atom_site_fract_z
Si Si1 0.434239 0.416579 0.058270
Si Si2 0.064153 0.323583 0.556250
Si Si3 0.566577 0.159906 0.520580
Si Si4 0.934860 0.918498 0.024832
O O1 0.500000 0.500000 0.099589
O O2 0.250000 0.423373 0.078176
O O3 0.494836 0.360332 0.285482
O O4 0.488428 0.382046 0.782298
O O5 0.250000 0.307696 0.563100
O O6 0.973885 0.245350 0.605704
O O7 0.750000 0.150284 0.466437
O O8 0.473830 0.141380 0.253635
O O9 0.516746 0.103728 0.752958
O O10 0.750000 0.921084 0.978876
O O11 0.000000 0.000000 0.115962
#
# Coordination Sequence:
#
# PCOD8168422 Si02
#       4
#     4   4   4   4
#     4  10  21  36  57  83 115 153 199 248 301 360
#     4  10  21  38  58  84 117 158 200 246 303 364
#     4  12  25  42  65  96 127 162 209 260 309 366
#     4  12  25  44  67  93 127 167 207 254 309 370
#
# _framework density 21.021242000000001
#
# number of rings (size 3 to 8) (size 9 to 14) (size 15 to 20)
#    0.000    1.000    0.000    7.500    0.000    4.000 
#    0.000    0.000    0.000    0.000    0.000    0.000 
#    0.000    0.000    0.000    0.000    0.000    0.000 
#
# Total GULP energy -198530.545140 kJ/mol
# GULP energy per Si atom -12408.159071 kJ/mol
# Density = 2.097340 g / cm^3
# Si number density = 21.021242 Si / 1000 Ang^3
#
#
#
# Elastic Constant Matrix: (Units=GPa)
#
#
# Indices 1 2 3 4 5 6 
#
# 1 62.2077 34.4823 23.9360 0.0000 0.0000 0.0000
# 2 34.4823 104.0101 12.4523 0.0000 0.0000 0.0000
# 3 23.9360 12.4523 109.4323 0.0000 0.0000 0.0000
# 4 0.0000 0.0000 0.0000 33.6289 0.0000 0.0000
# 5 0.0000 0.0000 0.0000 0.0000 -66.4105 0.0000
# 6 0.0000 0.0000 0.0000 0.0000 0.0000 43.0062
#
#
#
# Elastic Compliance Matrix: (Units=1/GPa)
#
#
# Indices 1 2 3 4 5 6 
#
# 1 0.021213 -0.006567 -0.003893 0.000000 0.000000 0.000000
# 2 -0.006567 0.011780 0.000096 0.000000 0.000000 0.000000
# 3 -0.003893 0.000096 0.009979 0.000000 0.000000 0.000000
# 4 0.000000 0.000000 0.000000 0.029736 0.000000 0.000000
# 5 0.000000 0.000000 0.000000 0.000000 -0.015058 0.000000
# 6 0.000000 0.000000 0.000000 0.000000 0.000000 0.023252
#
#
# Mechanical properties :
#
#
# Convention : Reuss Voigt Hill
#
# Bulk Modulus (GPa) = 44.95462 46.37681 45.66571
# Shear Modulus (GPa) = 45.85294 15.69689 30.77492
#
# Velocity S-wave (km/s) = 4.67547 2.73557 3.83036
# Velocity P-wave (km/s) = 7.11185 5.66459 6.42908
#
# Compressibility (1/GPa) = 0.02224465
#
# Stress axis : x y z
#
# Youngs Moduli (GPa) = 47.14101 84.88960 100.21439
#
# Poissons Ratio (x) = 0.55744 0.39010
# Poissons Ratio (y) = 0.30956 -0.00961
# Poissons Ratio (z) = 0.18350 -0.00814
#
# Static dielectric constant tensor:
#      x y z
#    x 3.761550 0.000000 0.000000 
#    y 0.000000 3.779940 0.000000 
#    z 0.000000 0.000000 4.017800 
# 
# 
# High freq. dielectric constant tensor:
#      x y z
#    x 1.819770 0.000000 0.000000 
#    y 0.000000 1.837320 0.000000 
#    z 0.000000 0.000000 1.840860 
# 
# From -- ./inp_files/151.got.cif
#   From: 2010.03.12/outbox.cif.g09.slc.cpg/sg28_1_cif.got.tgz:151.got - 2010.04.14 03:39:34.
