data_PCOD8168362
_publ_section_title
;
Structure prediction by ZEFSAII (Michael W. Deem and Ramdas Pophale) SiO2 
 PCOD8168362
Probable space group: P M A 2
;
_chemical_formula_sum "Si O2"
_cell_formula_units_Z 20
_cell_length_a 8.743134
_cell_length_b 9.180078
_cell_length_c 12.757840
_cell_angle_alpha 90.000000
_cell_angle_beta 90.000000
_cell_angle_gamma 90.000000
_cell_volume 1023.978073
_symmetry_space_group_name_H-M "P M A 2"
_symmetry_group_IT_number 28
_symmetry_cell_setting 'orthorhombic'
loop_
_space_group_symop_operation_xyz
x,y,z
-x,-y,z
1/2-x,y,z
1/2+x,-y,z
loop_
_atom_site_type_symbol
_atom_site_label
_atom_site_fract_x
_atom_site_fract_y
_atom_site_fract_z
Si Si1 0.071628 0.653337 0.549700
Si Si2 0.431406 0.343953 0.331475
Si Si3 0.069732 0.157650 0.135532
Si Si4 0.931124 0.659005 0.936248
Si Si5 0.571413 0.158540 0.750679
O O1 0.250000 0.627557 0.529559
O O2 0.040687 0.774921 0.636463
O O3 0.000000 0.500000 0.586059
O O4 0.994261 0.710775 0.443087
O O5 0.500000 0.500000 0.301986
O O6 0.250000 0.356935 0.335916
O O7 0.486362 0.230206 0.243664
O O8 0.250000 0.142641 0.133510
O O9 0.012338 0.254825 0.038724
O O10 0.000000 0.000000 0.123765
O O11 0.750000 0.647587 0.930751
O O12 0.000000 0.500000 0.941483
O O13 0.990443 0.739236 0.833874
O O14 0.750000 0.149348 0.776760
O O15 0.500000 0.000000 0.755333
#
# Coordination Sequence:
#
# PCOD8168362 Si02
#       5
#     4   4   4   4   4
#     4  10  21  37  58  84 113 148 190 234 281 333
#     4  10  20  36  58  84 113 147 189 233 279 332
#     4  10  23  39  57  84 116 150 187 231 282 336
#     4  11  23  40  62  87 115 149 191 235 283 339
#     4  11  24  40  59  85 117 152 190 235 287 340
#
# _framework density 19.531668
#
# number of rings (size 3 to 8) (size 9 to 14) (size 15 to 20)
#    0.000    1.600    0.000    5.400    0.000   10.400 
#    0.000    4.000    0.000    0.000    0.000    0.000 
#    0.000    0.000    0.000    0.000    0.000    0.000 
#
# Total GULP energy -248090.259651 kJ/mol
# GULP energy per Si atom -12404.512983 kJ/mol
# Density = 1.948721 g / cm^3
# Si number density = 19.531668 Si / 1000 Ang^3
#
#
#
# Elastic Constant Matrix: (Units=GPa)
#
#
# Indices 1 2 3 4 5 6 
#
# 1 94.0491 58.6969 60.2744 0.0000 0.0000 0.0000
# 2 58.6969 168.7290 91.2889 0.0000 0.0000 0.0000
# 3 60.2744 91.2889 135.1037 0.0000 0.0000 0.0000
# 4 0.0000 0.0000 0.0000 82.9615 0.0000 0.0000
# 5 0.0000 0.0000 0.0000 0.0000 23.3697 0.0000
# 6 0.0000 0.0000 0.0000 0.0000 0.0000 35.0216
#
#
#
# Elastic Compliance Matrix: (Units=1/GPa)
#
#
# Indices 1 2 3 4 5 6 
#
# 1 0.015590 -0.002617 -0.005187 0.000000 0.000000 0.000000
# 2 -0.002617 0.009781 -0.005441 0.000000 0.000000 0.000000
# 3 -0.005187 -0.005441 0.013393 0.000000 0.000000 0.000000
# 4 0.000000 0.000000 0.000000 0.012054 0.000000 0.000000
# 5 0.000000 0.000000 0.000000 0.000000 0.042791 0.000000
# 6 0.000000 0.000000 0.000000 0.000000 0.000000 0.028554
#
#
# Mechanical properties :
#
#
# Convention : Reuss Voigt Hill
#
# Bulk Modulus (GPa) = 81.48056 90.93359 86.20707
# Shear Modulus (GPa) = 32.73441 40.77867 36.75654
#
# Velocity S-wave (km/s) = 4.09830 4.57423 4.34279
# Velocity P-wave (km/s) = 8.01264 8.63459 8.32942
#
# Compressibility (1/GPa) = 0.01227287
#
# Stress axis : x y z
#
# Youngs Moduli (GPa) = 64.14204 102.23737 74.66813
#
# Poissons Ratio (x) = 0.26757 0.38730
# Poissons Ratio (y) = 0.16787 0.40630
# Poissons Ratio (z) = 0.33271 0.55632
#
# Static dielectric constant tensor:
#      x y z
#    x 3.700140 0.000000 0.000000 
#    y 0.000000 3.332820 0.000000 
#    z 0.000000 0.000000 3.897610 
# 
# 
# High freq. dielectric constant tensor:
#      x y z
#    x 1.772640 0.000000 0.000000 
#    y 0.000000 1.766330 0.000000 
#    z 0.000000 0.000000 1.778890 
# 
# From -- ./inp_files/4558.got.cif
#   From: 2010.03.12/outbox.cif.g09.slc.cpg/sg28_3_cif.got.tgz:4558.got - 2010.04.14 03:39:34.
