data_PCOD8168766
_publ_section_title
;
Structure prediction by ZEFSAII (Michael W. Deem and Ramdas Pophale) SiO2 
 PCOD8168766
Probable space group: P C A 21
;
_chemical_formula_sum "Si O2"
_cell_formula_units_Z 28
_cell_length_a 5.102596
_cell_length_b 16.286323
_cell_length_c 15.579013
_cell_angle_alpha 90.000000
_cell_angle_beta 90.000000
_cell_angle_gamma 90.000000
_cell_volume 1294.655342
_symmetry_space_group_name_H-M "P C A 21"
_symmetry_group_IT_number 29
_symmetry_cell_setting 'orthorhombic'
loop_
_space_group_symop_operation_xyz
x,y,z
-x,-y,1/2+z
1/2-x,y,1/2+z
1/2+x,-y,z
loop_
_atom_site_type_symbol
_atom_site_label
_atom_site_fract_x
_atom_site_fract_y
_atom_site_fract_z
Si Si1 0.809314 0.948359 0.972920
Si Si2 0.765220 0.767832 0.725999
Si Si3 0.265844 0.677383 0.668998
Si Si4 0.766546 0.321746 0.477224
Si Si5 0.308672 0.051654 0.173269
Si Si6 0.713312 0.446340 0.823504
Si Si7 0.268120 0.231931 0.420389
O O1 0.774321 0.865245 0.920407
O O2 0.585561 0.012682 0.946749
O O3 0.792815 0.926722 0.073089
O O4 0.543826 0.722617 0.671341
O O5 0.728213 0.865240 0.725679
O O6 0.748015 0.735613 0.823221
O O7 0.047131 0.745779 0.687724
O O8 0.229268 0.641496 0.572903
O O9 0.252342 0.603836 0.736258
O O10 0.735487 0.393730 0.408551
O O11 0.550256 0.251992 0.459987
O O12 0.047621 0.278576 0.474234
O O13 0.585308 0.012871 0.199393
O O14 0.417124 0.478920 0.824477
#
# Coordination Sequence:
#
# PCOD8168766 Si02
#       7
#     4   4   4   4   4   4   4
#     4  10  21  36  56  88 129 172 221 275 327 379
#     4  12  23  42  67  96 134 175 227 278 323 384
#     4  12  25  45  71 100 133 177 221 264 328 396
#     4  12  25  45  71 100 133 177 221 264 328 396
#     4  10  21  36  56  88 129 172 221 275 327 379
#     4  12  26  46  72 102 138 164 210 272 330 394
#     4  12  23  42  67  96 134 175 227 278 323 384
#
# _framework density 21.627379000000001
#
# number of rings (size 3 to 8) (size 9 to 14) (size 15 to 20)
#    0.000    0.571    2.857    6.000    0.000    4.571 
#    0.000    0.000    0.000    0.000    0.000    0.000 
#    0.000    0.000    0.000    0.000    0.000    0.000 
#
# Total GULP energy -347439.173500 kJ/mol
# GULP energy per Si atom -12408.541911 kJ/mol
# Density = 2.157815 g / cm^3
# Si number density = 21.627379 Si / 1000 Ang^3
#
#
#
# Elastic Constant Matrix: (Units=GPa)
#
#
# Indices 1 2 3 4 5 6 
#
# 1 84.3311 5.0738 12.8275 0.0000 0.0000 0.0000
# 2 5.0738 85.9423 33.9593 0.0000 0.0000 0.0000
# 3 12.8275 33.9593 147.3745 0.0000 0.0000 0.0000
# 4 0.0000 0.0000 0.0000 16.0004 0.0000 0.0000
# 5 0.0000 0.0000 0.0000 0.0000 23.2559 0.0000
# 6 0.0000 0.0000 0.0000 0.0000 0.0000 36.4647
#
#
#
# Elastic Compliance Matrix: (Units=1/GPa)
#
#
# Indices 1 2 3 4 5 6 
#
# 1 0.012025 -0.000326 -0.000972 0.000000 0.000000 0.000000
# 2 -0.000326 0.012810 -0.002923 0.000000 0.000000 0.000000
# 3 -0.000972 -0.002923 0.007544 0.000000 0.000000 0.000000
# 4 0.000000 0.000000 0.000000 0.062498 0.000000 0.000000
# 5 0.000000 0.000000 0.000000 0.000000 0.043000 0.000000
# 6 0.000000 0.000000 0.000000 0.000000 0.000000 0.027424
#
#
# Mechanical properties :
#
#
# Convention : Reuss Voigt Hill
#
# Bulk Modulus (GPa) = 41.77618 46.81881 44.29750
# Shear Modulus (GPa) = 27.51449 32.86335 30.18892
#
# Velocity S-wave (km/s) = 3.57067 3.90234 3.74018
# Velocity P-wave (km/s) = 6.02975 6.48068 6.25928
#
# Compressibility (1/GPa) = 0.02393709
#
# Stress axis : x y z
#
# Youngs Moduli (GPa) = 83.15719 78.06321 132.56191
#
# Poissons Ratio (x) = 0.02545 0.12879
# Poissons Ratio (y) = 0.02711 0.38754
# Poissons Ratio (z) = 0.08079 0.22821
#
# Static dielectric constant tensor:
#      x y z
#    x 4.114180 0.000000 0.000000 
#    y 0.000000 3.706750 0.000000 
#    z 0.000000 0.000000 4.025940 
# 
# 
# High freq. dielectric constant tensor:
#      x y z
#    x 1.868280 0.000000 0.000000 
#    y 0.000000 1.843180 0.000000 
#    z 0.000000 0.000000 1.856510 
# 
# From -- ./inp_files/4072.got.cif
#   From: 2010.03.12/outbox.cif.g09.slc.cpg/sg29_3_cif.got.tgz:4072.got - 2010.04.14 03:43:10.
