data_PCOD8168499
_publ_section_title
;
Structure prediction by ZEFSAII (Michael W. Deem and Ramdas Pophale) SiO2 
 PCOD8168499
Probable space group: P M A 2
;
_chemical_formula_sum "Si O2"
_cell_formula_units_Z 32
_cell_length_a 14.457688
_cell_length_b 9.022016
_cell_length_c 10.869657
_cell_angle_alpha 90.000000
_cell_angle_beta 90.000000
_cell_angle_gamma 90.000000
_cell_volume 1417.810803
_symmetry_space_group_name_H-M "P M A 2"
_symmetry_group_IT_number 28
_symmetry_cell_setting 'orthorhombic'
loop_
_space_group_symop_operation_xyz
x,y,z
-x,-y,z
1/2-x,y,z
1/2+x,-y,z
loop_
_atom_site_type_symbol
_atom_site_label
_atom_site_fract_x
_atom_site_fract_y
_atom_site_fract_z
Si Si1 0.022572 0.329657 0.513380
Si Si2 0.644598 0.273504 0.000538
Si Si3 0.354377 0.866567 0.501604
Si Si4 0.146196 0.390976 0.051709
Si Si5 0.150873 0.251975 0.298200
Si Si6 0.103567 0.944975 0.227525
Si Si7 0.357019 0.149650 0.669735
Si Si8 0.525107 0.845239 0.907999
O O1 0.063154 0.260742 0.387552
O O2 0.100658 0.303698 0.618032
O O3 0.000000 0.500000 0.496838
O O4 0.928670 0.248228 0.555879
O O5 0.750000 0.258130 0.955855
O O6 0.615415 0.442143 0.025449
O O7 0.628802 0.171659 0.121020
O O8 0.577164 0.225857 0.887909
O O9 0.250000 0.812120 0.530951
O O10 0.369989 0.869518 0.356369
O O11 0.371066 0.026655 0.563917
O O12 0.250000 0.362665 0.002681
O O13 0.140137 0.381420 0.198714
O O14 0.081146 0.267933 0.991707
O O15 0.250000 0.272683 0.369465
O O16 0.160405 0.098267 0.222060
O O17 0.000000 0.000000 0.223626
O O18 0.250000 0.170198 0.706851
O O19 0.417886 0.108225 0.788009
O O20 0.500000 0.000000 0.978552
#
# Coordination Sequence:
#
# PCOD8168499 Si02
#       8
#     4   4   4   4   4   4   4   4
#     4  12  26  41  65 102 143 182 233 288 361 426
#     4  11  25  42  65 103 145 186 234 288 353 428
#     4  11  23  43  69  97 136 182 237 294 350 415
#     4  10  24  44  65  97 143 189 232 285 353 423
#     4  11  22  39  63  94 136 183 232 287 350 415
#     4  12  21  38  67  98 139 184 234 292 349 414
#     4  11  25  50  76 100 132 180 243 301 352 418
#     4  12  25  43  72 100 136 181 237 289 353 411
#
# _framework density 22.570007
#
# number of rings (size 3 to 8) (size 9 to 14) (size 15 to 20)
#    0.000    0.750    2.500    5.250    1.750    4.000 
#    0.000    0.625    0.000    0.000    0.000    0.000 
#    0.000    0.000    0.000    0.000    0.000    0.000 
#
# Total GULP energy -396563.072437 kJ/mol
# GULP energy per Si atom -12392.596014 kJ/mol
# Density = 2.251864 g / cm^3
# Si number density = 22.570007 Si / 1000 Ang^3
#
#
#
# Elastic Constant Matrix: (Units=GPa)
#
#
# Indices 1 2 3 4 5 6 
#
# 1 180.8112 71.0525 49.2034 0.0000 0.0000 0.0000
# 2 71.0525 140.9792 27.0986 0.0000 0.0000 0.0000
# 3 49.2034 27.0986 63.7038 0.0000 0.0000 0.0000
# 4 0.0000 0.0000 0.0000 20.1108 0.0000 0.0000
# 5 0.0000 0.0000 0.0000 0.0000 37.8443 0.0000
# 6 0.0000 0.0000 0.0000 0.0000 0.0000 31.5881
#
#
#
# Elastic Compliance Matrix: (Units=1/GPa)
#
#
# Indices 1 2 3 4 5 6 
#
# 1 0.008104 -0.003138 -0.004924 0.000000 0.000000 0.000000
# 2 -0.003138 0.008940 -0.001379 0.000000 0.000000 0.000000
# 3 -0.004924 -0.001379 0.020088 0.000000 0.000000 0.000000
# 4 0.000000 0.000000 0.000000 0.049724 0.000000 0.000000
# 5 0.000000 0.000000 0.000000 0.000000 0.026424 0.000000
# 6 0.000000 0.000000 0.000000 0.000000 0.000000 0.031657
#
#
# Mechanical properties :
#
#
# Convention : Reuss Voigt Hill
#
# Bulk Modulus (GPa) = 54.79907 75.57813 65.18860
# Shear Modulus (GPa) = 29.42858 33.78464 31.60661
#
# Velocity S-wave (km/s) = 3.61485 3.87315 3.74623
# Velocity P-wave (km/s) = 6.46182 7.31851 6.90346
#
# Compressibility (1/GPa) = 0.01824848
#
# Stress axis : x y z
#
# Youngs Moduli (GPa) = 123.40089 111.86013 49.78124
#
# Poissons Ratio (x) = 0.35098 0.24514
# Poissons Ratio (y) = 0.38719 0.06867
# Poissons Ratio (z) = 0.60767 0.15430
#
# Static dielectric constant tensor:
#      x y z
#    x 4.486750 0.000000 0.000000 
#    y 0.000000 4.130040 0.000000 
#    z 0.000000 0.000000 3.850560 
# 
# 
# High freq. dielectric constant tensor:
#      x y z
#    x 1.918900 0.000000 0.000000 
#    y 0.000000 1.887320 0.000000 
#    z 0.000000 0.000000 1.867300 
# 
# From -- ./inp_files/5606.got.cif
#   From: 2010.03.12/outbox.cif.g09.slc.cpg/sg28_3_cif.got.tgz:5606.got - 2010.04.14 03:39:34.
