data_PCOD8168310
_publ_section_title
;
Structure prediction by ZEFSAII (Michael W. Deem and Ramdas Pophale) SiO2 
 PCOD8168310
Probable space group: P M A 2
;
_chemical_formula_sum "Si O2"
_cell_formula_units_Z 28
_cell_length_a 8.760090
_cell_length_b 9.366803
_cell_length_c 17.780924
_cell_angle_alpha 90.000000
_cell_angle_beta 90.000000
_cell_angle_gamma 90.000000
_cell_volume 1458.996601
_symmetry_space_group_name_H-M "P M A 2"
_symmetry_group_IT_number 28
_symmetry_cell_setting 'orthorhombic'
loop_
_space_group_symop_operation_xyz
x,y,z
-x,-y,z
1/2-x,y,z
1/2+x,-y,z
loop_
_atom_site_type_symbol
_atom_site_label
_atom_site_fract_x
_atom_site_fract_y
_atom_site_fract_z
Si Si1 0.928548 0.353666 0.512830
Si Si2 0.069166 0.841861 0.079800
Si Si3 0.071176 0.344666 0.949147
Si Si4 0.070079 0.649835 0.684720
Si Si5 0.072088 0.152609 0.805005
Si Si6 0.072932 0.153388 0.392841
Si Si7 0.072533 0.154044 0.228824
O O1 0.750000 0.367026 0.505007
O O2 0.976897 0.321050 0.598452
O O3 0.000000 0.500000 0.484103
O O4 0.987796 0.231675 0.459208
O O5 0.250000 0.853077 0.076641
O O6 0.014968 0.770589 0.159305
O O7 0.000000 0.000000 0.068864
O O8 0.011659 0.736881 0.015953
O O9 0.250000 0.357078 0.966667
O O10 0.038805 0.257954 0.873515
O O11 0.000000 0.500000 0.939105
O O12 0.250000 0.641253 0.696211
O O13 0.000000 0.500000 0.712909
O O14 0.003526 0.781840 0.730772
O O15 0.250000 0.131844 0.790049
O O16 0.000000 0.000000 0.823802
O O17 0.250000 0.141299 0.413261
O O18 0.051402 0.230189 0.310560
O O19 0.000000 0.000000 0.388174
O O20 0.250000 0.140830 0.207749
O O21 0.000000 0.000000 0.236306
#
# Coordination Sequence:
#
# PCOD8168310 Si02
#       7
#     4   4   4   4   4   4   4
#     4  10  21  37  57  81 111 148 187 229 278 332
#     4  11  21  35  58  85 113 147 186 230 278 328
#     4  11  24  41  60  84 114 148 185 226 275 330
#     4  10  21  38  60  84 112 147 186 228 277 332
#     4  11  24  40  61  87 115 147 184 228 275 325
#     4  10  20  34  55  82 112 147 187 232 279 329
#     4   9  17  31  52  79 110 144 184 229 278 330
#
# _framework density 19.191272000000001
#
# number of rings (size 3 to 8) (size 9 to 14) (size 15 to 20)
#    0.000    1.714    0.000    5.571    0.000    8.571 
#    0.000    0.714    0.000    3.429    0.000    0.000 
#    0.000    0.000    0.000    0.000    0.000    0.000 
#
# Total GULP energy -347168.655932 kJ/mol
# GULP energy per Si atom -12398.880569 kJ/mol
# Density = 1.914759 g / cm^3
# Si number density = 19.191272 Si / 1000 Ang^3
#
#
#
# Elastic Constant Matrix: (Units=GPa)
#
#
# Indices 1 2 3 4 5 6 
#
# 1 117.7869 51.7269 60.6685 0.0000 0.0000 0.0000
# 2 51.7269 96.2422 53.1039 0.0000 0.0000 0.0000
# 3 60.6685 53.1039 112.4264 0.0000 0.0000 0.0000
# 4 0.0000 0.0000 0.0000 -53.2992 0.0000 0.0000
# 5 0.0000 0.0000 0.0000 0.0000 11.0466 0.0000
# 6 0.0000 0.0000 0.0000 0.0000 0.0000 35.6380
#
#
#
# Elastic Compliance Matrix: (Units=1/GPa)
#
#
# Indices 1 2 3 4 5 6 
#
# 1 0.012892 -0.004180 -0.004983 0.000000 0.000000 0.000000
# 2 -0.004180 0.015408 -0.005022 0.000000 0.000000 0.000000
# 3 -0.004983 -0.005022 0.013956 0.000000 0.000000 0.000000
# 4 0.000000 0.000000 0.000000 -0.018762 0.000000 0.000000
# 5 0.000000 0.000000 0.000000 0.000000 0.090525 0.000000
# 6 0.000000 0.000000 0.000000 0.000000 0.000000 0.028060
#
#
# Mechanical properties :
#
#
# Convention : Reuss Voigt Hill
#
# Bulk Modulus (GPa) = 72.01321 73.05046 72.53183
# Shear Modulus (GPa) = 28.55886 9.40750 18.98318
#
# Velocity S-wave (km/s) = 3.86180 2.21644 3.14850
# Velocity P-wave (km/s) = 7.58222 6.68560 7.14798
#
# Compressibility (1/GPa) = 0.01388634
#
# Stress axis : x y z
#
# Youngs Moduli (GPa) = 77.56869 64.90074 71.65491
#
# Poissons Ratio (x) = 0.27126 0.35702
# Poissons Ratio (y) = 0.32421 0.35989
# Poissons Ratio (z) = 0.38649 0.32596
#
# Static dielectric constant tensor:
#      x y z
#    x 3.698360 0.000000 0.000000 
#    y 0.000000 3.347940 0.000000 
#    z 0.000000 0.000000 4.042300 
# 
# 
# High freq. dielectric constant tensor:
#      x y z
#    x 1.767580 0.000000 0.000000 
#    y 0.000000 1.723410 0.000000 
#    z 0.000000 0.000000 1.766190 
# 
# From -- ./inp_files/6857.got.cif
#   From: 2010.03.12/outbox.cif.g09.slc.cpg/sg28_4_cif.got.tgz:6857.got - 2010.04.14 03:39:34.
