data_PCOD8168286
_publ_section_title
;
Structure prediction by ZEFSAII (Michael W. Deem and Ramdas Pophale) SiO2 
 PCOD8168286
Probable space group: P M A 2
;
_chemical_formula_sum "Si O2"
_cell_formula_units_Z 28
_cell_length_a 8.491524
_cell_length_b 18.179805
_cell_length_c 9.542945
_cell_angle_alpha 90.000000
_cell_angle_beta 90.000000
_cell_angle_gamma 90.000000
_cell_volume 1473.184982
_symmetry_space_group_name_H-M "P M A 2"
_symmetry_group_IT_number 28
_symmetry_cell_setting 'orthorhombic'
loop_
_space_group_symop_operation_xyz
x,y,z
-x,-y,z
1/2-x,y,z
1/2+x,-y,z
loop_
_atom_site_type_symbol
_atom_site_label
_atom_site_fract_x
_atom_site_fract_y
_atom_site_fract_z
Si Si1 0.070793 0.205792 0.727920
Si Si2 0.435775 0.079448 0.171558
Si Si3 0.566529 0.419243 0.747135
Si Si4 0.564486 0.077528 0.866907
Si Si5 0.068662 0.692586 0.516183
Si Si6 0.567059 0.296923 0.960720
Si Si7 0.432182 0.242959 0.241574
O O1 0.250000 0.216992 0.677089
O O2 0.027039 0.121693 0.747046
O O3 0.947657 0.237787 0.617483
O O4 0.043441 0.239542 0.881552
O O5 0.250000 0.068997 0.152456
O O6 0.474805 0.154842 0.260121
O O7 0.500000 0.000000 0.232765
O O8 0.516337 0.097711 0.024560
O O9 0.500000 0.500000 0.757018
O O10 0.750000 0.424675 0.724979
O O11 0.501287 0.376474 0.608181
O O12 0.527151 0.377120 0.893316
O O13 0.750000 0.086076 0.851603
O O14 0.500000 0.000000 0.826418
O O15 0.250000 0.681927 0.472497
O O16 0.965406 0.709760 0.380349
O O17 0.750000 0.278415 0.933923
O O18 0.529512 0.287711 0.124121
O O19 0.250000 0.249184 0.202979
#
# Coordination Sequence:
#
# PCOD8168286 Si02
#       7
#     4   4   4   4   4   4   4
#     4  11  20  34  54  79 108 141 185 233 279 333
#     4  10  20  33  51  78 111 146 191 237 286 338
#     4   9  20  38  61  88 114 144 184 228 279 343
#     4  11  20  31  50  76 107 143 186 235 290 336
#     4  10  22  39  58  82 113 150 190 229 281 342
#     4  10  20  35  57  84 112 145 184 227 277 331
#     4  11  22  36  56  85 116 149 193 240 284 335
#
# _framework density 19.006440000000001
#
# number of rings (size 3 to 8) (size 9 to 14) (size 15 to 20)
#    0.000    1.714    1.429    6.000    0.000    5.143 
#    0.000    1.429    0.000    1.714    0.000    0.000 
#    0.000    0.000    0.000    0.000    0.000    0.000 
#
# Total GULP energy -346904.203555 kJ/mol
# GULP energy per Si atom -12389.435841 kJ/mol
# Density = 1.896318 g / cm^3
# Si number density = 19.006440 Si / 1000 Ang^3
#
#
#
# Elastic Constant Matrix: (Units=GPa)
#
#
# Indices 1 2 3 4 5 6 
#
# 1 78.9342 35.7495 12.1846 0.0000 0.0000 0.0000
# 2 35.7495 121.7582 52.3032 0.0000 0.0000 0.0000
# 3 12.1846 52.3032 81.0680 0.0000 0.0000 0.0000
# 4 0.0000 0.0000 0.0000 22.9432 0.0000 0.0000
# 5 0.0000 0.0000 0.0000 0.0000 54.1256 0.0000
# 6 0.0000 0.0000 0.0000 0.0000 0.0000 30.1247
#
#
#
# Elastic Compliance Matrix: (Units=1/GPa)
#
#
# Indices 1 2 3 4 5 6 
#
# 1 0.014649 -0.004642 0.000793 0.000000 0.000000 0.000000
# 2 -0.004642 0.012833 -0.007582 0.000000 0.000000 0.000000
# 3 0.000793 -0.007582 0.017108 0.000000 0.000000 0.000000
# 4 0.000000 0.000000 0.000000 0.043586 0.000000 0.000000
# 5 0.000000 0.000000 0.000000 0.000000 0.018476 0.000000
# 6 0.000000 0.000000 0.000000 0.000000 0.000000 0.033195
#
#
# Mechanical properties :
#
#
# Convention : Reuss Voigt Hill
#
# Bulk Modulus (GPa) = 46.02306 53.58165 49.80235
# Shear Modulus (GPa) = 29.42058 33.54025 31.48041
#
# Velocity S-wave (km/s) = 3.93864 4.20536 4.07418
# Velocity P-wave (km/s) = 6.70454 7.19949 6.95642
#
# Compressibility (1/GPa) = 0.02172824
#
# Stress axis : x y z
#
# Youngs Moduli (GPa) = 68.26599 77.92615 58.45329
#
# Poissons Ratio (x) = 0.36170 -0.04635
# Poissons Ratio (y) = 0.31686 0.44318
# Poissons Ratio (z) = -0.05413 0.59081
#
# Static dielectric constant tensor:
#      x y z
#    x 3.432360 0.000000 0.000000 
#    y 0.000000 3.208690 0.000000 
#    z 0.000000 0.000000 3.372000 
# 
# 
# High freq. dielectric constant tensor:
#      x y z
#    x 1.747040 0.000000 0.000000 
#    y 0.000000 1.738250 0.000000 
#    z 0.000000 0.000000 1.715830 
# 
# From -- ./inp_files/2632.got.cif
#   From: 2010.03.12/outbox.cif.g09.slc.cpg/sg28_2_cif.got.tgz:2632.got - 2010.04.14 03:39:34.
