data_PCOD8168943
_publ_section_title
;
Structure prediction by ZEFSAII (Michael W. Deem and Ramdas Pophale) SiO2 
 PCOD8168943
Probable space group: P C A 21
;
_chemical_formula_sum "Si O2"
_cell_formula_units_Z 28
_cell_length_a 9.763300
_cell_length_b 14.507176
_cell_length_c 8.476257
_cell_angle_alpha 90.000000
_cell_angle_beta 90.000000
_cell_angle_gamma 90.000000
_cell_volume 1200.559338
_symmetry_space_group_name_H-M "P C A 21"
_symmetry_group_IT_number 29
_symmetry_cell_setting 'orthorhombic'
loop_
_space_group_symop_operation_xyz
x,y,z
-x,-y,1/2+z
1/2-x,y,1/2+z
1/2+x,-y,z
loop_
_atom_site_type_symbol
_atom_site_label
_atom_site_fract_x
_atom_site_fract_y
_atom_site_fract_z
Si Si1 0.354767 0.844013 0.619190
Si Si2 0.406253 0.184980 0.555840
Si Si3 0.621360 0.847658 0.422212
Si Si4 0.873451 0.571290 0.145840
Si Si5 0.108384 0.486425 0.307089
Si Si6 0.062902 0.687780 0.329542
Si Si7 0.381788 0.939145 0.927587
O O1 0.484350 0.820954 0.512015
O O2 0.333978 0.753820 0.730841
O O3 0.381333 0.928166 0.738741
O O4 0.225577 0.870043 0.512371
O O5 0.402588 0.182970 0.743480
O O6 0.254112 0.204153 0.490349
O O7 0.507901 0.264910 0.490169
O O8 0.467080 0.087426 0.492197
O O9 0.650862 0.955035 0.455794
O O10 0.715382 0.553624 0.181919
O O11 0.928015 0.666211 0.221918
O O12 0.962599 0.485993 0.217526
O O13 0.893687 0.579307 0.958419
O O14 0.143310 0.591904 0.364050
#
# Coordination Sequence:
#
# PCOD8168943 Si02
#       7
#     4   4   4   4   4   4   4
#     4  11  24  43  64  96 135 174 223 279 341 394
#     4  11  24  43  64  96 135 173 222 280 342 394
#     4  12  23  40  66  96 129 182 225 277 328 403
#     4  10  22  44  70 101 131 172 225 271 338 414
#     4  10  22  43  71  99 132 171 225 271 338 413
#     4   9  25  45  63  99 132 167 222 271 339 404
#     4  11  22  40  66  95 132 175 230 273 332 404
#
# _framework density 23.322464
#
# number of rings (size 3 to 8) (size 9 to 14) (size 15 to 20)
#    0.857    0.571    0.000    6.000    0.000    4.571 
#    2.571    0.000    0.000    0.000    0.000    0.000 
#    0.000    0.000    0.000    0.000    0.000    0.000 
#
# Total GULP energy -347046.449453 kJ/mol
# GULP energy per Si atom -12394.516052 kJ/mol
# Density = 2.326938 g / cm^3
# Si number density = 23.322464 Si / 1000 Ang^3
#
#
#
# Elastic Constant Matrix: (Units=GPa)
#
#
# Indices 1 2 3 4 5 6 
#
# 1 67.1966 -23.3061 22.8661 0.0000 0.0000 0.0000
# 2 -23.3061 38.9748 -21.4879 0.0000 0.0000 0.0000
# 3 22.8661 -21.4879 120.5192 0.0000 0.0000 0.0000
# 4 0.0000 0.0000 0.0000 25.9623 0.0000 0.0000
# 5 0.0000 0.0000 0.0000 0.0000 45.7364 0.0000
# 6 0.0000 0.0000 0.0000 0.0000 0.0000 32.5273
#
#
#
# Elastic Compliance Matrix: (Units=1/GPa)
#
#
# Indices 1 2 3 4 5 6 
#
# 1 0.019107 0.010455 -0.001761 0.000000 0.000000 0.000000
# 2 0.010455 0.034175 0.004110 0.000000 0.000000 0.000000
# 3 -0.001761 0.004110 0.009364 0.000000 0.000000 0.000000
# 4 0.000000 0.000000 0.000000 0.038517 0.000000 0.000000
# 5 0.000000 0.000000 0.000000 0.000000 0.021864 0.000000
# 6 0.000000 0.000000 0.000000 0.000000 0.000000 0.030743
#
#
# Mechanical properties :
#
#
# Convention : Reuss Voigt Hill
#
# Bulk Modulus (GPa) = 11.33114 20.31500 15.82307
# Shear Modulus (GPa) = 31.72934 37.41977 34.57455
#
# Velocity S-wave (km/s) = 3.69245 4.00991 3.85445
# Velocity P-wave (km/s) = 4.80082 5.49259 5.15831
#
# Compressibility (1/GPa) = 0.08825234
#
# Stress axis : x y z
#
# Youngs Moduli (GPa) = 52.33682 29.26120 106.78847
#
# Poissons Ratio (x) = -0.30591 0.18807
# Poissons Ratio (y) = -0.54716 -0.43886
# Poissons Ratio (z) = 0.09217 -0.12025
#
# Static dielectric constant tensor:
#      x y z
#    x 4.048320 0.000000 0.000000 
#    y 0.000000 3.978680 0.000000 
#    z 0.000000 0.000000 4.099870 
# 
# 
# High freq. dielectric constant tensor:
#      x y z
#    x 1.914080 0.000000 0.000000 
#    y 0.000000 1.911710 0.000000 
#    z 0.000000 0.000000 1.931650 
# 
# From -- ./inp_files/1217.got.cif
#   From: 2010.03.12/outbox.cif.g09.slc.cpg/sg29_1_cif.got.tgz:1217.got - 2010.04.14 03:43:10.
