data_PCOD8169770
_publ_section_title
;
Structure prediction by ZEFSAII (Michael W. Deem and Ramdas Pophale) SiO2 
 PCOD8169770
Probable space group: P M N 21
;
_chemical_formula_sum "Si O2"
_cell_formula_units_Z 32
_cell_length_a 14.859213
_cell_length_b 9.757484
_cell_length_c 10.733530
_cell_angle_alpha 90.000000
_cell_angle_beta 90.000000
_cell_angle_gamma 90.000000
_cell_volume 1556.238770
_symmetry_space_group_name_H-M "P M N 21"
_symmetry_group_IT_number 31
_symmetry_cell_setting 'orthorhombic'
loop_
_space_group_symop_operation_xyz
x,y,z
1/2-x,-y,1/2+z
-x,y,z
1/2+x,-y,1/2+z
loop_
_atom_site_type_symbol
_atom_site_label
_atom_site_fract_x
_atom_site_fract_y
_atom_site_fract_z
Si Si1 0.339892 0.059970 0.895720
Si Si2 0.168909 0.147077 0.026948
Si Si3 0.102730 0.857387 0.131027
Si Si4 0.278564 0.364889 0.495747
Si Si5 0.901288 0.402134 0.914516
Si Si6 0.252204 0.177828 0.277956
Si Si7 0.604295 0.681694 0.138786
Si Si8 0.400484 0.997287 0.158816
O O1 0.389429 0.132969 0.780685
O O2 0.320974 0.901788 0.861505
O O3 0.246568 0.136056 0.923855
O O4 0.400430 0.060751 0.019723
O O5 0.207724 0.223156 0.148953
O O6 0.131506 0.998027 0.063575
O O7 0.094901 0.246704 0.967883
O O8 0.000000 0.823956 0.095914
O O9 0.167222 0.735913 0.086848
O O10 0.326660 0.511962 0.489318
O O11 0.283271 0.309892 0.354213
O O12 0.175204 0.383623 0.540868
O O13 0.881875 0.398708 0.767513
O O14 0.000000 0.466543 0.937450
O O15 0.335949 0.077019 0.252425
O O16 0.500000 0.667362 0.091906
O O17 0.630819 0.840321 0.155494
O O18 0.500000 0.010839 0.214803
#
# Coordination Sequence:
#
# PCOD8169770 Si02
#       8
#     4   4   4   4   4   4   4   4
#     4  10  18  37  58  88 119 158 201 254 304 359
#     4  10  20  38  61  84 118 160 205 251 298 361
#     4  11  22  35  61  93 128 162 200 250 312 370
#     4  12  23  41  63  89 127 163 198 258 314 367
#     4  11  25  41  62  88 121 161 211 254 305 370
#     4  10  20  34  57  88 117 157 191 245 308 361
#     4  10  22  42  67  91 118 165 215 257 304 371
#     4  10  19  34  61  93 122 154 204 257 304 361
#
# _framework density 20.562397000000001
#
# number of rings (size 3 to 8) (size 9 to 14) (size 15 to 20)
#    0.000    1.500    2.500    4.125    1.750    1.000 
#    0.000    0.625    0.000    0.750    0.000    0.000 
#    0.000    0.000    0.000    0.000    0.000    0.000 
#
# Total GULP energy -396769.692319 kJ/mol
# GULP energy per Si atom -12399.052885 kJ/mol
# Density = 2.051560 g / cm^3
# Si number density = 20.562397 Si / 1000 Ang^3
#
#
#
# Elastic Constant Matrix: (Units=GPa)
#
#
# Indices 1 2 3 4 5 6 
#
# 1 122.8499 31.8557 38.0422 0.0000 0.0000 0.0000
# 2 31.8557 68.5117 26.9152 0.0000 0.0000 0.0000
# 3 38.0422 26.9152 76.4549 0.0000 0.0000 0.0000
# 4 0.0000 0.0000 0.0000 24.3025 0.0000 0.0000
# 5 0.0000 0.0000 0.0000 0.0000 21.9754 0.0000
# 6 0.0000 0.0000 0.0000 0.0000 0.0000 26.2769
#
#
#
# Elastic Compliance Matrix: (Units=1/GPa)
#
#
# Indices 1 2 3 4 5 6 
#
# 1 0.010189 -0.003187 -0.003948 0.000000 0.000000 0.000000
# 2 -0.003187 0.017935 -0.004728 0.000000 0.000000 0.000000
# 3 -0.003948 -0.004728 0.016709 0.000000 0.000000 0.000000
# 4 0.000000 0.000000 0.000000 0.041148 0.000000 0.000000
# 5 0.000000 0.000000 0.000000 0.000000 0.045505 0.000000
# 6 0.000000 0.000000 0.000000 0.000000 0.000000 0.038056
#
#
# Mechanical properties :
#
#
# Convention : Reuss Voigt Hill
#
# Bulk Modulus (GPa) = 47.37771 51.27142 49.32457
# Shear Modulus (GPa) = 24.96210 25.91119 25.43664
#
# Velocity S-wave (km/s) = 3.48798 3.55367 3.52098
# Velocity P-wave (km/s) = 6.26996 6.46737 6.36943
#
# Compressibility (1/GPa) = 0.02110697
#
# Stress axis : x y z
#
# Youngs Moduli (GPa) = 98.14663 55.75614 59.84942
#
# Poissons Ratio (x) = 0.17767 0.23628
# Poissons Ratio (y) = 0.31274 0.28299
# Poissons Ratio (z) = 0.38748 0.26364
#
# Static dielectric constant tensor:
#      x y z
#    x 3.775580 0.000000 0.000000 
#    y 0.000000 3.357530 0.000000 
#    z 0.000000 0.000000 3.805100 
# 
# 
# High freq. dielectric constant tensor:
#      x y z
#    x 1.807300 0.000000 0.000000 
#    y 0.000000 1.773900 0.000000 
#    z 0.000000 0.000000 1.813700 
# 
# From -- ./inp_files/4292.got.cif
#   From: 2010.03.12/outbox.cif.g09.slc.cpg/sg31_3_cif.got.tgz:4292.got - 2010.04.14 01:42:59.
