data_PCOD8169053
_publ_section_title
;
Structure prediction by ZEFSAII (Michael W. Deem and Ramdas Pophale) SiO2 
 PCOD8169053
Probable space group: P C A 21
;
_chemical_formula_sum "Si O2"
_cell_formula_units_Z 28
_cell_length_a 4.929510
_cell_length_b 25.124963
_cell_length_c 9.250237
_cell_angle_alpha 90.000000
_cell_angle_beta 90.000000
_cell_angle_gamma 90.000000
_cell_volume 1145.676600
_symmetry_space_group_name_H-M "P C A 21"
_symmetry_group_IT_number 29
_symmetry_cell_setting 'orthorhombic'
loop_
_space_group_symop_operation_xyz
x,y,z
-x,-y,1/2+z
1/2-x,y,1/2+z
1/2+x,-y,z
loop_
_atom_site_type_symbol
_atom_site_label
_atom_site_fract_x
_atom_site_fract_y
_atom_site_fract_z
Si Si1 0.689477 0.035811 0.452390
Si Si2 0.548456 0.322690 0.965838
Si Si3 0.092780 0.536389 0.458650
Si Si4 0.060287 0.251620 0.942489
Si Si5 0.764329 0.110510 0.699046
Si Si6 0.768209 0.393517 0.214432
Si Si7 0.217508 0.180414 0.198633
O O1 0.633941 0.086250 0.554578
O O2 0.654520 0.059512 0.293332
O O3 0.488572 0.986968 0.477609
O O4 0.604520 0.351686 0.117296
O O5 0.246295 0.301230 0.986744
O O6 0.543681 0.362849 0.830106
O O7 0.753686 0.273534 0.935144
O O8 0.396958 0.513746 0.458366
O O9 0.049914 0.570871 0.605036
O O10 0.059844 0.571249 0.312003
O O11 0.166798 0.229406 0.790443
O O12 0.079559 0.203433 0.054514
O O13 0.529858 0.147360 0.773382
O O14 0.033072 0.142744 0.659484
#
# Coordination Sequence:
#
# PCOD8169053 Si02
#       7
#     4   4   4   4   4   4   4
#     4  12  24  42  64  91 124 161 202 250 302 360
#     4  11  24  41  62  91 122 161 202 251 302 361
#     4  11  24  41  64  91 124 161 204 251 304 361
#     4  12  24  42  64  91 124 161 204 250 304 360
#     4  12  24  42  64  92 124 160 204 250 302 360
#     4  10  24  41  64  91 124 161 204 251 304 360
#     4  12  24  41  64  91 122 161 202 251 302 360
#
# _framework density 24.439708
#
# number of rings (size 3 to 8) (size 9 to 14) (size 15 to 20)
#    0.000    0.571    0.000    8.571    0.000    6.857 
#    0.000    0.000    0.000    0.000    0.000    0.000 
#    0.000    0.000    0.000    0.000    0.000    0.000 
#
# Total GULP energy -347348.852128 kJ/mol
# GULP energy per Si atom -12405.316147 kJ/mol
# Density = 2.438408 g / cm^3
# Si number density = 24.439708 Si / 1000 Ang^3
#
#
#
# Elastic Constant Matrix: (Units=GPa)
#
#
# Indices 1 2 3 4 5 6 
#
# 1 66.3345 23.2878 10.8762 0.0000 0.0000 0.0000
# 2 23.2878 108.3740 28.7367 0.0000 0.0000 0.0000
# 3 10.8762 28.7367 102.1226 0.0000 0.0000 0.0000
# 4 0.0000 0.0000 0.0000 31.6061 0.0000 0.0000
# 5 0.0000 0.0000 0.0000 0.0000 20.1134 0.0000
# 6 0.0000 0.0000 0.0000 0.0000 0.0000 25.9187
#
#
#
# Elastic Compliance Matrix: (Units=1/GPa)
#
#
# Indices 1 2 3 4 5 6 
#
# 1 0.016368 -0.003301 -0.000814 0.000000 0.000000 0.000000
# 2 -0.003301 0.010637 -0.002642 0.000000 0.000000 0.000000
# 3 -0.000814 -0.002642 0.010622 0.000000 0.000000 0.000000
# 4 0.000000 0.000000 0.000000 0.031639 0.000000 0.000000
# 5 0.000000 0.000000 0.000000 0.000000 0.049718 0.000000
# 6 0.000000 0.000000 0.000000 0.000000 0.000000 0.038582
#
#
# Mechanical properties :
#
#
# Convention : Reuss Voigt Hill
#
# Bulk Modulus (GPa) = 41.47186 44.73696 43.10441
# Shear Modulus (GPa) = 27.91448 29.78965 28.85206
#
# Velocity S-wave (km/s) = 3.38328 3.49507 3.43963
# Velocity P-wave (km/s) = 5.68049 5.88490 5.78360
#
# Compressibility (1/GPa) = 0.02411274
#
# Stress axis : x y z
#
# Youngs Moduli (GPa) = 61.09644 94.01014 94.14229
#
# Poissons Ratio (x) = 0.31035 0.07665
# Poissons Ratio (y) = 0.20169 0.24869
# Poissons Ratio (z) = 0.04975 0.24834
#
# Static dielectric constant tensor:
#      x y z
#    x 4.079460 0.000000 0.000000 
#    y 0.000000 4.556210 0.000000 
#    z 0.000000 0.000000 4.442330 
# 
# 
# High freq. dielectric constant tensor:
#      x y z
#    x 1.960580 0.000000 0.000000 
#    y 0.000000 1.992400 0.000000 
#    z 0.000000 0.000000 1.977860 
# 
# From -- ./inp_files/1000.got.cif
#   From: 2010.03.12/outbox.cif.g09.slc.cpg/sg29_1_cif.got.tgz:1000.got - 2010.04.14 03:43:10.
