data_PCOD8169584
_publ_section_title
;
Structure prediction by ZEFSAII (Michael W. Deem and Ramdas Pophale) SiO2 
 PCOD8169584
Probable space group: P N C 2
;
_chemical_formula_sum "Si O2"
_cell_formula_units_Z 32
_cell_length_a 8.481762
_cell_length_b 15.487225
_cell_length_c 12.149569
_cell_angle_alpha 90.000000
_cell_angle_beta 90.000000
_cell_angle_gamma 90.000000
_cell_volume 1595.954706
_symmetry_space_group_name_H-M "P N C 2"
_symmetry_group_IT_number 30
_symmetry_cell_setting 'orthorhombic'
loop_
_space_group_symop_operation_xyz
x,y,z
-x,-y,z
-x,1/2+y,1/2+z
x,1/2-y,1/2+z
loop_
_atom_site_type_symbol
_atom_site_label
_atom_site_fract_x
_atom_site_fract_y
_atom_site_fract_z
Si Si1 0.349068 0.322050 0.961460
Si Si2 0.369768 0.761278 0.092062
Si Si3 0.171004 0.090677 0.654263
Si Si4 0.547823 0.598925 0.735520
Si Si5 0.325858 0.461862 0.533677
Si Si6 0.189880 0.601670 0.196278
Si Si7 0.190658 0.163831 0.884738
Si Si8 0.848052 0.377186 0.451094
O O1 0.416505 0.373184 0.858450
O O2 0.211014 0.263110 0.912852
O O3 0.480243 0.263789 0.019522
O O4 0.264915 0.385468 0.045599
O O5 0.418096 0.833859 0.183285
O O6 0.303483 0.671874 0.141395
O O7 0.233073 0.797698 0.013271
O O8 0.203321 0.156392 0.753898
O O9 0.982834 0.099139 0.639721
O O10 0.243836 0.997233 0.683524
O O11 0.500000 0.500000 0.749253
O O12 0.696086 0.591825 0.649235
O O13 0.500000 0.500000 0.536459
O O14 0.329514 0.394905 0.433508
O O15 0.195127 0.535169 0.515427
O O16 0.201446 0.622931 0.324431
O O17 0.035865 0.130480 0.948405
#
# Coordination Sequence:
#
# PCOD8169584 Si02
#       8
#     4   4   4   4   4   4   4   4
#     4  12  25  40  65  94 131 175 217 267 342 394
#     4  12  23  41  65  97 128 173 222 273 328 401
#     4  10  23  44  65  92 131 167 213 281 324 395
#     4  11  24  43  63  92 141 172 216 278 333 401
#     4  11  20  40  65  93 128 163 211 273 324 382
#     4  10  23  42  65  94 127 166 222 268 332 391
#     4  11  22  40  69  97 123 162 222 274 330 391
#     4  11  21  41  68  94 125 168 214 277 331 388
#
# _framework density 20.050694
#
# number of rings (size 3 to 8) (size 9 to 14) (size 15 to 20)
#    0.000    1.000    5.000    2.625    1.750    1.000 
#    0.000    0.000    5.500    0.000    0.000    0.000 
#    0.000    0.000    0.000    0.000    0.000    0.000 
#
# Total GULP energy -396437.098213 kJ/mol
# GULP energy per Si atom -12388.659319 kJ/mol
# Density = 2.000506 g / cm^3
# Si number density = 20.050694 Si / 1000 Ang^3
#
#
#
# Elastic Constant Matrix: (Units=GPa)
#
#
# Indices 1 2 3 4 5 6 
#
# 1 59.8111 46.5222 59.9959 0.0000 0.0000 0.0000
# 2 46.5222 105.4530 36.8845 0.0000 0.0000 0.0000
# 3 59.9959 36.8845 115.6681 0.0000 0.0000 0.0000
# 4 0.0000 0.0000 0.0000 47.9839 0.0000 0.0000
# 5 0.0000 0.0000 0.0000 0.0000 30.4917 0.0000
# 6 0.0000 0.0000 0.0000 0.0000 0.0000 36.9093
#
#
#
# Elastic Compliance Matrix: (Units=1/GPa)
#
#
# Indices 1 2 3 4 5 6 
#
# 1 0.048346 -0.014134 -0.020570 0.000000 0.000000 0.000000
# 2 -0.014134 0.014805 0.002610 0.000000 0.000000 0.000000
# 3 -0.020570 0.002610 0.018482 0.000000 0.000000 0.000000
# 4 0.000000 0.000000 0.000000 0.020840 0.000000 0.000000
# 5 0.000000 0.000000 0.000000 0.000000 0.032796 0.000000
# 6 0.000000 0.000000 0.000000 0.000000 0.000000 0.027093
#
#
# Mechanical properties :
#
#
# Convention : Reuss Voigt Hill
#
# Bulk Modulus (GPa) = 57.31723 63.08194 60.19959
# Shear Modulus (GPa) = 21.51777 32.24562 26.88170
#
# Velocity S-wave (km/s) = 3.27948 4.01459 3.66551
# Velocity P-wave (km/s) = 6.55654 7.28140 6.92846
#
# Compressibility (1/GPa) = 0.01744676
#
# Stress axis : x y z
#
# Youngs Moduli (GPa) = 20.68422 67.54289 54.10557
#
# Poissons Ratio (x) = 0.95465 1.11293
# Poissons Ratio (y) = 0.29235 -0.14121
# Poissons Ratio (z) = 0.42547 -0.17628
#
# Static dielectric constant tensor:
#      x y z
#    x 3.697640 0.000000 0.000000 
#    y 0.000000 3.759810 0.000000 
#    z 0.000000 0.000000 3.988880 
# 
# 
# High freq. dielectric constant tensor:
#      x y z
#    x 1.768490 0.000000 0.000000 
#    y 0.000000 1.801050 0.000000 
#    z 0.000000 0.000000 1.789480 
# 
# From -- ./inp_files/3789.got.cif
#   From: 2010.03.12/outbox.cif.g09.slc.cpg/sg30_2_cif.got.tgz:3789.got - 2010.04.14 01:38:02.
