data_PCOD8169428
_publ_section_title
;
Structure prediction by ZEFSAII (Michael W. Deem and Ramdas Pophale) SiO2 
 PCOD8169428
Probable space group: P N C 2
;
_chemical_formula_sum "Si O2"
_cell_formula_units_Z 32
_cell_length_a 9.117809
_cell_length_b 14.633347
_cell_length_c 11.827893
_cell_angle_alpha 90.000000
_cell_angle_beta 90.000000
_cell_angle_gamma 90.000000
_cell_volume 1578.125541
_symmetry_space_group_name_H-M "P N C 2"
_symmetry_group_IT_number 30
_symmetry_cell_setting 'orthorhombic'
loop_
_space_group_symop_operation_xyz
x,y,z
-x,-y,z
-x,1/2+y,1/2+z
x,1/2-y,1/2+z
loop_
_atom_site_type_symbol
_atom_site_label
_atom_site_fract_x
_atom_site_fract_y
_atom_site_fract_z
Si Si1 0.351901 0.555090 0.084200
Si Si2 0.420098 0.636059 0.861908
Si Si3 0.457316 0.600997 0.527137
Si Si4 0.558330 0.335849 0.279189
Si Si5 0.210513 0.929301 0.181122
Si Si6 0.264290 0.394400 0.945053
Si Si7 0.328517 0.248399 0.625359
Si Si8 0.102960 0.378625 0.727774
O O1 0.500000 0.500000 0.101857
O O2 0.320903 0.607069 0.203711
O O3 0.368588 0.635928 0.992269
O O4 0.240396 0.479337 0.033097
O O5 0.386640 0.735696 0.812080
O O6 0.323145 0.567082 0.787445
O O7 0.589807 0.602522 0.864239
O O8 0.500000 0.500000 0.566132
O O9 0.472760 0.608617 0.392839
O O10 0.289770 0.613181 0.570427
O O11 0.557809 0.672287 0.593710
O O12 0.408519 0.325607 0.206423
O O13 0.070210 0.865603 0.207564
O O14 0.159828 0.033162 0.158569
O O15 0.125276 0.393523 0.862269
O O16 0.271164 0.299785 0.012738
O O17 0.186934 0.288181 0.688113
#
# Coordination Sequence:
#
# PCOD8169428 Si02
#       8
#     4   4   4   4   4   4   4   4
#     4  10  20  34  57  93 120 152 194 259 312 362
#     4  11  20  35  63  88 118 148 208 256 303 354
#     4  12  23  37  61  94 121 160 204 257 312 366
#     4  12  21  35  60  94 128 153 196 258 322 369
#     4  11  24  39  62  89 118 164 208 256 306 361
#     4  11  21  38  64  93 119 162 206 259 311 367
#     4  12  21  38  61  94 122 159 205 258 305 375
#     4  11  23  42  58  86 123 162 213 249 302 374
#
# _framework density 20.277221000000001
#
# number of rings (size 3 to 8) (size 9 to 14) (size 15 to 20)
#    0.000    0.750    8.750    0.375    0.000    0.000 
#    2.250    0.000    0.000    0.000    6.500    0.000 
#    0.000    0.000    0.000    0.000    0.000    0.000 
#
# Total GULP energy -396637.207564 kJ/mol
# GULP energy per Si atom -12394.912736 kJ/mol
# Density = 2.023107 g / cm^3
# Si number density = 20.277221 Si / 1000 Ang^3
#
#
#
# Elastic Constant Matrix: (Units=GPa)
#
#
# Indices 1 2 3 4 5 6 
#
# 1 85.6932 31.3434 47.5115 0.0000 0.0000 0.0000
# 2 31.3434 88.4145 36.8360 0.0000 0.0000 0.0000
# 3 47.5115 36.8360 120.1097 0.0000 0.0000 0.0000
# 4 0.0000 0.0000 0.0000 46.3185 0.0000 0.0000
# 5 0.0000 0.0000 0.0000 0.0000 14.7774 0.0000
# 6 0.0000 0.0000 0.0000 0.0000 0.0000 17.5547
#
#
#
# Elastic Compliance Matrix: (Units=1/GPa)
#
#
# Indices 1 2 3 4 5 6 
#
# 1 0.015810 -0.003439 -0.005199 0.000000 0.000000 0.000000
# 2 -0.003439 0.013715 -0.002846 0.000000 0.000000 0.000000
# 3 -0.005199 -0.002846 0.011255 0.000000 0.000000 0.000000
# 4 0.000000 0.000000 0.000000 0.021590 0.000000 0.000000
# 5 0.000000 0.000000 0.000000 0.000000 0.067671 0.000000
# 6 0.000000 0.000000 0.000000 0.000000 0.000000 0.056965
#
#
# Mechanical properties :
#
#
# Convention : Reuss Voigt Hill
#
# Bulk Modulus (GPa) = 56.14056 58.39990 57.27023
# Shear Modulus (GPa) = 23.15772 27.63190 25.39481
#
# Velocity S-wave (km/s) = 3.38310 3.69549 3.54274
# Velocity P-wave (km/s) = 6.55798 6.86091 6.71116
#
# Compressibility (1/GPa) = 0.01781243
#
# Stress axis : x y z
#
# Youngs Moduli (GPa) = 63.25142 72.91240 88.84735
#
# Poissons Ratio (x) = 0.25071 0.46195
# Poissons Ratio (y) = 0.21749 0.25287
# Poissons Ratio (z) = 0.32887 0.20751
#
# Static dielectric constant tensor:
#      x y z
#    x 3.368970 0.000000 0.000000 
#    y 0.000000 3.834150 0.000000 
#    z 0.000000 0.000000 3.916050 
# 
# 
# High freq. dielectric constant tensor:
#      x y z
#    x 1.741320 0.000000 0.000000 
#    y 0.000000 1.801940 0.000000 
#    z 0.000000 0.000000 1.798810 
# 
# From -- ./inp_files/3773.got.cif
#   From: 2010.03.12/outbox.cif.g09.slc.cpg/sg30_2_cif.got.tgz:3773.got - 2010.04.14 01:38:02.
