data_PCOD8169926
_publ_section_title
;
Structure prediction by ZEFSAII (Michael W. Deem and Ramdas Pophale) SiO2 
 PCOD8169926
Probable space group: P M N 21
;
_chemical_formula_sum "Si O2"
_cell_formula_units_Z 32
_cell_length_a 9.280396
_cell_length_b 15.957423
_cell_length_c 11.019845
_cell_angle_alpha 90.000000
_cell_angle_beta 90.000000
_cell_angle_gamma 90.000000
_cell_volume 1631.942120
_symmetry_space_group_name_H-M "P M N 21"
_symmetry_group_IT_number 31
_symmetry_cell_setting 'orthorhombic'
loop_
_space_group_symop_operation_xyz
x,y,z
1/2-x,-y,1/2+z
-x,y,z
1/2+x,-y,1/2+z
loop_
_atom_site_type_symbol
_atom_site_label
_atom_site_fract_x
_atom_site_fract_y
_atom_site_fract_z
Si Si1 0.164051 0.209661 0.058010
Si Si2 0.840911 0.668191 0.406937
Si Si3 0.663818 0.648773 0.740050
Si Si4 0.828135 0.958904 0.529998
Si Si5 0.831688 0.947058 0.250042
Si Si6 0.840992 0.762828 0.176059
Si Si7 0.665360 0.475645 0.074523
Si Si8 0.670180 0.656645 0.008855
O O1 0.175584 0.258259 0.184941
O O2 0.273117 0.133069 0.061123
O O3 0.000000 0.179939 0.032111
O O4 0.211883 0.275593 0.957083
O O5 0.836943 0.681543 0.263306
O O6 0.816159 0.571035 0.443445
O O7 0.000000 0.696844 0.456345
O O8 0.500000 0.616999 0.741185
O O9 0.752635 0.577656 0.673583
O O10 0.728443 0.657720 0.873027
O O11 0.787022 0.980031 0.386924
O O12 0.000000 0.963122 0.544365
O O13 0.756730 0.017081 0.634369
O O14 0.800260 0.847360 0.248925
O O15 0.000000 0.967752 0.228917
O O16 0.000000 0.773755 0.119530
O O17 0.730432 0.740932 0.070154
O O18 0.500000 0.479247 0.113888
O O19 0.726856 0.569767 0.067536
O O20 0.500000 0.662454 0.014439
#
# Coordination Sequence:
#
# PCOD8169926 Si02
#       8
#     4   4   4   4   4   4   4   4
#     4  10  19  34  59  87 112 145 190 238 288 346
#     4   9  17  34  58  81 108 146 190 232 282 339
#     4   9  20  37  55  78 113 151 188 237 292 348
#     4  11  23  41  65  92 123 161 199 249 308 365
#     4  10  23  43  63  90 125 156 202 254 302 366
#     4  10  21  38  60  83 113 153 191 237 290 345
#     4   9  19  34  55  81 109 146 191 240 285 338
#     4  10  22  37  53  80 117 152 191 239 293 349
#
# _framework density 19.608536999999998
#
# number of rings (size 3 to 8) (size 9 to 14) (size 15 to 20)
#    0.000    2.250    1.250    0.750    1.750    4.500 
#    0.000    3.750    0.000    0.000    0.000    0.000 
#    0.000    0.000    0.000    0.000    0.000    0.000 
#
# Total GULP energy -396482.665764 kJ/mol
# GULP energy per Si atom -12390.083305 kJ/mol
# Density = 1.956391 g / cm^3
# Si number density = 19.608537 Si / 1000 Ang^3
#
#
#
# Elastic Constant Matrix: (Units=GPa)
#
#
# Indices 1 2 3 4 5 6 
#
# 1 69.0436 34.2086 52.6374 0.0000 0.0000 0.0000
# 2 34.2086 64.6529 38.3457 0.0000 0.0000 0.0000
# 3 52.6374 38.3457 123.9153 0.0000 0.0000 0.0000
# 4 0.0000 0.0000 0.0000 25.8137 0.0000 0.0000
# 5 0.0000 0.0000 0.0000 0.0000 29.7522 0.0000
# 6 0.0000 0.0000 0.0000 0.0000 0.0000 2.2001
#
#
#
# Elastic Compliance Matrix: (Units=1/GPa)
#
#
# Indices 1 2 3 4 5 6 
#
# 1 0.024630 -0.008361 -0.007875 0.000000 0.000000 0.000000
# 2 -0.008361 0.021783 -0.003189 0.000000 0.000000 0.000000
# 3 -0.007875 -0.003189 0.012402 0.000000 0.000000 0.000000
# 4 0.000000 0.000000 0.000000 0.038739 0.000000 0.000000
# 5 0.000000 0.000000 0.000000 0.000000 0.033611 0.000000
# 6 0.000000 0.000000 0.000000 0.000000 0.000000 0.454531
#
#
# Mechanical properties :
#
#
# Convention : Reuss Voigt Hill
#
# Bulk Modulus (GPa) = 50.08975 56.44394 53.26684
# Shear Modulus (GPa) = 7.92141 20.38120 14.15130
#
# Velocity S-wave (km/s) = 2.01210 3.22748 2.68934
# Velocity P-wave (km/s) = 5.56762 6.53733 6.07186
#
# Compressibility (1/GPa) = 0.01996416
#
# Stress axis : x y z
#
# Youngs Moduli (GPa) = 40.60062 45.90815 80.63176
#
# Poissons Ratio (x) = 0.38385 0.63498
# Poissons Ratio (y) = 0.33948 0.25712
# Poissons Ratio (z) = 0.31973 0.14640
#
# Static dielectric constant tensor:
#      x y z
#    x 3.607600 0.000000 0.000000 
#    y 0.000000 3.596150 0.000000 
#    z 0.000000 0.000000 3.663980 
# 
# 
# High freq. dielectric constant tensor:
#      x y z
#    x 1.760480 0.000000 0.000000 
#    y 0.000000 1.757920 0.000000 
#    z 0.000000 0.000000 1.761550 
# 
# From -- ./inp_files/3729.got.cif
#   From: 2010.03.12/outbox.cif.g09.slc.cpg/sg31_2_cif.got.tgz:3729.got - 2010.04.14 01:42:59.
