data_PCOD8169318
_publ_section_title
;
Structure prediction by ZEFSAII (Michael W. Deem and Ramdas Pophale) SiO2 
 PCOD8169318
Probable space group: P C A 21
;
_chemical_formula_sum "Si O2"
_cell_formula_units_Z 32
_cell_length_a 4.856739
_cell_length_b 21.436247
_cell_length_c 12.770273
_cell_angle_alpha 90.000000
_cell_angle_beta 90.000000
_cell_angle_gamma 90.000000
_cell_volume 1329.516402
_symmetry_space_group_name_H-M "P C A 21"
_symmetry_group_IT_number 29
_symmetry_cell_setting 'orthorhombic'
loop_
_space_group_symop_operation_xyz
x,y,z
-x,-y,1/2+z
1/2-x,y,1/2+z
1/2+x,-y,z
loop_
_atom_site_type_symbol
_atom_site_label
_atom_site_fract_x
_atom_site_fract_y
_atom_site_fract_z
Si Si1 0.698031 0.242483 0.790300
Si Si2 0.300002 0.886921 0.172899
Si Si3 0.948035 0.040598 0.369441
Si Si4 0.441955 0.459135 0.850199
Si Si5 0.313356 0.630231 0.181529
Si Si6 0.216771 0.253701 0.933794
Si Si7 0.184091 0.382603 0.544748
Si Si8 0.301086 0.127384 0.037686
O O1 0.739263 0.177818 0.732372
O O2 0.708035 0.296325 0.703096
O O3 0.388093 0.240855 0.830084
O O4 0.902888 0.252926 0.890100
O O5 0.425634 0.939686 0.248159
O O6 0.489720 0.889403 0.069197
O O7 0.991317 0.898263 0.131883
O O8 0.077546 0.098395 0.431468
O O9 0.636792 0.019734 0.395526
O O10 0.630628 0.519589 0.825976
O O11 0.563322 0.402379 0.783802
O O12 0.426255 0.437767 0.970711
O O13 0.502183 0.610717 0.082951
O O14 0.003716 0.612500 0.148786
O O15 0.321170 0.318200 0.982013
O O16 0.285458 0.201815 0.021333
#
# Coordination Sequence:
#
# PCOD8169318 Si02
#       8
#     4   4   4   4   4   4   4   4
#     4  12  24  44  76 105 147 186 230 298 374 433
#     4  12  26  46  74 107 143 188 239 297 366 435
#     4  12  28  47  72 103 144 194 246 300 352 424
#     4  12  28  47  72 103 144 194 246 300 352 424
#     4  12  26  46  74 107 143 188 239 297 366 435
#     4  12  24  44  76 105 147 186 230 298 374 433
#     4  12  26  46  74 107 143 188 239 297 366 435
#     4  12  26  46  74 107 143 188 239 297 366 435
#
# _framework density 24.068902000000001
#
# number of rings (size 3 to 8) (size 9 to 14) (size 15 to 20)
#    0.000    0.000    2.500    7.500    3.500    6.000 
#    0.000    0.000    0.000    0.000    0.000    0.000 
#    0.000    0.000    0.000    0.000    0.000    0.000 
#
# Total GULP energy -396603.745633 kJ/mol
# GULP energy per Si atom -12393.867051 kJ/mol
# Density = 2.401412 g / cm^3
# Si number density = 24.068902 Si / 1000 Ang^3
#
#
#
# Elastic Constant Matrix: (Units=GPa)
#
#
# Indices 1 2 3 4 5 6 
#
# 1 106.6260 18.9924 21.3904 0.0000 0.0000 0.0000
# 2 18.9924 69.2795 10.2133 0.0000 0.0000 0.0000
# 3 21.3904 10.2133 73.7839 0.0000 0.0000 0.0000
# 4 0.0000 0.0000 0.0000 37.4224 0.0000 0.0000
# 5 0.0000 0.0000 0.0000 0.0000 50.6543 0.0000
# 6 0.0000 0.0000 0.0000 0.0000 0.0000 29.7395
#
#
#
# Elastic Compliance Matrix: (Units=1/GPa)
#
#
# Indices 1 2 3 4 5 6 
#
# 1 0.010348 -0.002444 -0.002662 0.000000 0.000000 0.000000
# 2 -0.002444 0.015312 -0.001411 0.000000 0.000000 0.000000
# 3 -0.002662 -0.001411 0.014520 0.000000 0.000000 0.000000
# 4 0.000000 0.000000 0.000000 0.026722 0.000000 0.000000
# 5 0.000000 0.000000 0.000000 0.000000 0.019742 0.000000
# 6 0.000000 0.000000 0.000000 0.000000 0.000000 0.033625
#
#
# Mechanical properties :
#
#
# Convention : Reuss Voigt Hill
#
# Bulk Modulus (GPa) = 36.83716 38.98685 37.91200
# Shear Modulus (GPa) = 35.12422 36.83613 35.98017
#
# Velocity S-wave (km/s) = 3.82425 3.91633 3.87057
# Velocity P-wave (km/s) = 5.90237 6.05668 5.98002
#
# Compressibility (1/GPa) = 0.02714650
#
# Stress axis : x y z
#
# Youngs Moduli (GPa) = 96.63773 65.30658 68.87049
#
# Poissons Ratio (x) = 0.15964 0.18330
# Poissons Ratio (y) = 0.23622 0.09717
# Poissons Ratio (z) = 0.25721 0.09214
#
# Static dielectric constant tensor:
#      x y z
#    x 4.504570 0.000000 0.000000 
#    y 0.000000 4.452960 0.000000 
#    z 0.000000 0.000000 4.487520 
# 
# 
# High freq. dielectric constant tensor:
#      x y z
#    x 1.973420 0.000000 0.000000 
#    y 0.000000 1.953920 0.000000 
#    z 0.000000 0.000000 1.955640 
# 
# From -- ./inp_files/2708.got.cif
#   From: 2010.03.12/outbox.cif.g09.slc.cpg/sg29_2_cif.got.tgz:2708.got - 2010.04.14 03:43:10.
