data_PCOD8169289
_publ_section_title
;
Structure prediction by ZEFSAII (Michael W. Deem and Ramdas Pophale) SiO2 
 PCOD8169289
Probable space group: P C A 21
;
_chemical_formula_sum "Si O2"
_cell_formula_units_Z 20
_cell_length_a 8.982344
_cell_length_b 11.162789
_cell_length_c 7.477067
_cell_angle_alpha 90.000000
_cell_angle_beta 90.000000
_cell_angle_gamma 90.000000
_cell_volume 749.710635
_symmetry_space_group_name_H-M "P C A 21"
_symmetry_group_IT_number 29
_symmetry_cell_setting 'orthorhombic'
loop_
_space_group_symop_operation_xyz
x,y,z
-x,-y,1/2+z
1/2-x,y,1/2+z
1/2+x,-y,z
loop_
_atom_site_type_symbol
_atom_site_label
_atom_site_fract_x
_atom_site_fract_y
_atom_site_fract_z
Si Si1 0.591886 0.109871 0.562030
Si Si2 0.486426 0.467058 0.187611
Si Si3 0.203803 0.389111 0.369026
Si Si4 0.594813 0.866656 0.398589
Si Si5 0.879560 0.219825 0.692822
O O1 0.450094 0.096620 0.695219
O O2 0.707215 0.185143 0.681032
O O3 0.545283 0.175190 0.377862
O O4 0.663658 0.981784 0.501139
O O5 0.369260 0.442208 0.350255
O O6 0.586986 0.588164 0.203017
O O7 0.608348 0.362291 0.184524
O O8 0.377945 0.468326 0.018541
O O9 0.210391 0.245586 0.401439
O O10 0.452779 0.832513 0.515300
#
# Coordination Sequence:
#
# PCOD8169289 Si02
#       5
#     4   4   4   4   4
#     4  12  24  45  75 105 156 203 261 325 389 467
#     4  11  27  48  74 113 152 207 255 326 387 464
#     4  11  27  48  76 111 157 202 264 320 389 471
#     4  11  26  45  73 113 149 206 262 325 389 465
#     4  11  26  44  72 110 152 202 260 322 390 461
#
# _framework density 26.676959
#
# number of rings (size 3 to 8) (size 9 to 14) (size 15 to 20)
#    0.000    0.800    4.000    1.200    8.400    4.800 
#    0.000    0.000    0.000    0.000    0.000    0.000 
#    0.000    0.000    0.000    0.000    0.000    0.000 
#
# Total GULP energy -247883.145726 kJ/mol
# GULP energy per Si atom -12394.157286 kJ/mol
# Density = 2.661624 g / cm^3
# Si number density = 26.676959 Si / 1000 Ang^3
#
#
#
# Elastic Constant Matrix: (Units=GPa)
#
#
# Indices 1 2 3 4 5 6 
#
# 1 68.6600 25.2260 -23.2956 0.0000 0.0000 0.0000
# 2 25.2260 62.6700 -2.2317 0.0000 0.0000 0.0000
# 3 -23.2956 -2.2317 100.5888 0.0000 0.0000 0.0000
# 4 0.0000 0.0000 0.0000 39.0665 0.0000 0.0000
# 5 0.0000 0.0000 0.0000 0.0000 21.8099 0.0000
# 6 0.0000 0.0000 0.0000 0.0000 0.0000 24.2649
#
#
#
# Elastic Compliance Matrix: (Units=1/GPa)
#
#
# Indices 1 2 3 4 5 6 
#
# 1 0.018686 -0.007373 0.004164 0.000000 0.000000 0.000000
# 2 -0.007373 0.018879 -0.001289 0.000000 0.000000 0.000000
# 3 0.004164 -0.001289 0.010877 0.000000 0.000000 0.000000
# 4 0.000000 0.000000 0.000000 0.025597 0.000000 0.000000
# 5 0.000000 0.000000 0.000000 0.000000 0.045851 0.000000
# 6 0.000000 0.000000 0.000000 0.000000 0.000000 0.041212
#
#
# Mechanical properties :
#
#
# Convention : Reuss Voigt Hill
#
# Bulk Modulus (GPa) = 25.35113 25.70182 25.52647
# Shear Modulus (GPa) = 27.28557 32.50960 29.89758
#
# Velocity S-wave (km/s) = 3.20162 3.49469 3.35136
# Velocity P-wave (km/s) = 4.81568 5.09305 4.95631
#
# Compressibility (1/GPa) = 0.03944597
#
# Stress axis : x y z
#
# Youngs Moduli (GPa) = 53.51500 52.96990 91.93518
#
# Poissons Ratio (x) = 0.39057 -0.38282
# Poissons Ratio (y) = 0.39459 0.11848
# Poissons Ratio (z) = -0.22284 0.06827
#
# Static dielectric constant tensor:
#      x y z
#    x 4.447700 0.000000 0.000000 
#    y 0.000000 5.005930 0.000000 
#    z 0.000000 0.000000 5.254710 
# 
# 
# High freq. dielectric constant tensor:
#      x y z
#    x 2.050820 0.000000 0.000000 
#    y 0.000000 2.065860 0.000000 
#    z 0.000000 0.000000 2.096570 
# 
# From -- ./inp_files/1081.got.cif
#   From: 2010.03.12/outbox.cif.g09.slc.cpg/sg29_1_cif.got.tgz:1081.got - 2010.04.14 03:43:10.
