data_PCOD8169729
_publ_section_title
;
Structure prediction by ZEFSAII (Michael W. Deem and Ramdas Pophale) SiO2 
 PCOD8169729
Probable space group: P M N 21
;
_chemical_formula_sum "Si O2"
_cell_formula_units_Z 32
_cell_length_a 9.439418
_cell_length_b 16.377715
_cell_length_c 10.817441
_cell_angle_alpha 90.000000
_cell_angle_beta 90.000000
_cell_angle_gamma 90.000000
_cell_volume 1672.334166
_symmetry_space_group_name_H-M "P M N 21"
_symmetry_group_IT_number 31
_symmetry_cell_setting 'orthorhombic'
loop_
_space_group_symop_operation_xyz
x,y,z
1/2-x,-y,1/2+z
-x,y,z
1/2+x,-y,1/2+z
loop_
_atom_site_type_symbol
_atom_site_label
_atom_site_fract_x
_atom_site_fract_y
_atom_site_fract_z
Si Si1 0.157955 0.156366 0.214340
Si Si2 0.668952 0.559195 0.864393
Si Si3 0.835201 0.536195 0.615096
Si Si4 0.342757 0.278858 0.069060
Si Si5 0.841610 0.266299 0.437731
Si Si6 0.167704 0.148760 0.632607
Si Si7 0.163634 0.968764 0.589677
Si Si8 0.343766 0.152775 0.869646
O O1 0.224330 0.233341 0.145709
O O2 0.154400 0.184761 0.355114
O O3 0.247159 0.073315 0.200089
O O4 0.000000 0.140590 0.163418
O O5 0.500000 0.552729 0.840442
O O6 0.746462 0.520026 0.742856
O O7 0.729032 0.652939 0.877820
O O8 0.711136 0.518528 0.996543
O O9 0.805037 0.626577 0.565363
O O10 0.000000 0.521130 0.646901
O O11 0.500000 0.264393 0.127046
O O12 0.341386 0.242222 0.931161
O O13 0.767882 0.228111 0.560452
O O14 0.000000 0.296190 0.469282
O O15 0.222200 0.151002 0.770323
O O16 0.000000 0.156761 0.633546
O O17 0.212414 0.062134 0.571674
O O18 0.194525 0.918421 0.466069
O O19 0.000000 0.962865 0.628298
O O20 0.500000 0.136249 0.812804
#
# Coordination Sequence:
#
# PCOD8169729 Si02
#       8
#     4   4   4   4   4   4   4   4
#     4  10  18  31  57  82 101 134 181 224 262 319
#     4  10  21  39  60  86 121 154 194 244 293 348
#     4  10  21  37  60  88 118 155 195 240 291 349
#     4   9  18  35  56  77 106 142 177 219 276 330
#     4   9  19  35  55  79 108 145 181 223 278 329
#     4  10  21  36  53  75 107 145 183 224 277 334
#     4   9  20  36  53  74 106 144 175 220 278 327
#     4   9  19  35  52  73 105 139 176 226 279 330
#
# _framework density 19.134931000000002
#
# number of rings (size 3 to 8) (size 9 to 14) (size 15 to 20)
#    0.000    2.500    1.250    1.125    1.750    4.000 
#    0.000    1.875    0.000    0.000    0.000    0.000 
#    0.000    0.000    0.000    0.000    0.000    0.000 
#
# Total GULP energy -396448.972085 kJ/mol
# GULP energy per Si atom -12389.030378 kJ/mol
# Density = 1.909138 g / cm^3
# Si number density = 19.134931 Si / 1000 Ang^3
#
#
#
# Elastic Constant Matrix: (Units=GPa)
#
#
# Indices 1 2 3 4 5 6 
#
# 1 53.4162 28.0403 38.9097 0.0000 0.0000 0.0000
# 2 28.0403 79.1682 45.4870 0.0000 0.0000 0.0000
# 3 38.9097 45.4870 103.0470 0.0000 0.0000 0.0000
# 4 0.0000 0.0000 0.0000 25.6072 0.0000 0.0000
# 5 0.0000 0.0000 0.0000 0.0000 29.9539 0.0000
# 6 0.0000 0.0000 0.0000 0.0000 0.0000 23.2941
#
#
#
# Elastic Compliance Matrix: (Units=1/GPa)
#
#
# Indices 1 2 3 4 5 6 
#
# 1 0.027228 -0.005006 -0.008071 0.000000 0.000000 0.000000
# 2 -0.005006 0.017844 -0.005986 0.000000 0.000000 0.000000
# 3 -0.008071 -0.005986 0.015394 0.000000 0.000000 0.000000
# 4 0.000000 0.000000 0.000000 0.039052 0.000000 0.000000
# 5 0.000000 0.000000 0.000000 0.000000 0.033385 0.000000
# 6 0.000000 0.000000 0.000000 0.000000 0.000000 0.042929
#
#
# Mechanical properties :
#
#
# Convention : Reuss Voigt Hill
#
# Bulk Modulus (GPa) = 44.76530 51.16726 47.96628
# Shear Modulus (GPa) = 22.58289 23.98399 23.28344
#
# Velocity S-wave (km/s) = 3.43912 3.54420 3.49205
# Velocity P-wave (km/s) = 6.26222 6.59900 6.43281
#
# Compressibility (1/GPa) = 0.02233873
#
# Stress axis : x y z
#
# Youngs Moduli (GPa) = 36.72651 56.04106 64.95863
#
# Poissons Ratio (x) = 0.28057 0.52430
# Poissons Ratio (y) = 0.18387 0.38886
# Poissons Ratio (z) = 0.29643 0.33548
#
# Static dielectric constant tensor:
#      x y z
#    x 3.436020 0.000000 0.000000 
#    y 0.000000 3.784230 0.000000 
#    z 0.000000 0.000000 3.429200 
# 
# 
# High freq. dielectric constant tensor:
#      x y z
#    x 1.726480 0.000000 0.000000 
#    y 0.000000 1.750370 0.000000 
#    z 0.000000 0.000000 1.733800 
# 
# From -- ./inp_files/3801.got.cif
#   From: 2010.03.12/outbox.cif.g09.slc.cpg/sg31_2_cif.got.tgz:3801.got - 2010.04.14 01:42:59.
