data_PCOD8169742
_publ_section_title
;
Structure prediction by ZEFSAII (Michael W. Deem and Ramdas Pophale) SiO2 
 PCOD8169742
Probable space group: P M N 21
;
_chemical_formula_sum "Si O2"
_cell_formula_units_Z 24
_cell_length_a 15.093595
_cell_length_b 5.349050
_cell_length_c 14.868909
_cell_angle_alpha 90.000000
_cell_angle_beta 90.000000
_cell_angle_gamma 90.000000
_cell_volume 1200.462100
_symmetry_space_group_name_H-M "P M N 21"
_symmetry_group_IT_number 31
_symmetry_cell_setting 'orthorhombic'
loop_
_space_group_symop_operation_xyz
x,y,z
1/2-x,-y,1/2+z
-x,y,z
1/2+x,-y,1/2+z
loop_
_atom_site_type_symbol
_atom_site_label
_atom_site_fract_x
_atom_site_fract_y
_atom_site_fract_z
Si Si1 0.098172 0.000002 0.139320
Si Si2 0.744310 0.499998 0.492742
Si Si3 0.218782 0.999998 0.546217
Si Si4 0.163407 0.500002 0.191488
Si Si5 0.900633 0.000000 0.720997
Si Si6 0.163433 0.500000 0.807209
O O1 0.174366 0.000003 0.062904
O O2 0.106498 0.753329 0.202561
O O3 0.000000 0.000001 0.094662
O O4 0.106498 0.246674 0.202561
O O5 0.804716 0.247795 0.488007
O O6 0.702016 0.499997 0.591170
O O7 0.670899 0.499999 0.415083
O O8 0.804716 0.752201 0.488007
O O9 0.169104 1.000000 0.640629
O O10 0.238940 0.500001 0.266149
O O11 0.888473 0.249868 0.779540
O O12 0.000000 0.000000 0.681796
O O13 0.888473 0.750133 0.779540
#
# Coordination Sequence:
#
# PCOD8169742 Si02
#       6
#     4   4   4   4   4   4
#     4  10  18  32  58  83 110 150 192 243 299 358
#     4  10  20  35  64  83 118 161 204 246 304 368
#     4  10  19  40  57  90 116 163 206 243 310 366
#     4  10  19  37  55  84 114 155 196 239 309 362
#     4  12  23  40  65  91 128 169 210 258 313 376
#     4  12  21  40  61  91 122 166 206 261 313 368
#
# _framework density 19.992301999999999
#
# number of rings (size 3 to 8) (size 9 to 14) (size 15 to 20)
#    0.000    1.333    6.667    2.000    0.000    0.000 
#    0.000   20.000    0.000    6.000    0.000    0.000 
#    0.000    0.000    0.000    0.000    0.000    0.000 
#
# Total GULP energy -297383.601735 kJ/mol
# GULP energy per Si atom -12390.983406 kJ/mol
# Density = 1.994680 g / cm^3
# Si number density = 19.992302 Si / 1000 Ang^3
#
#
#
# Elastic Constant Matrix: (Units=GPa)
#
#
# Indices 1 2 3 4 5 6 
#
# 1 43.2323 8.5815 22.7221 0.0000 0.0000 0.0000
# 2 8.5815 229.7327 19.9118 0.0000 0.0000 0.0000
# 3 22.7221 19.9118 53.0536 0.0000 0.0000 0.0000
# 4 0.0000 0.0000 0.0000 20.5915 0.0000 0.0000
# 5 0.0000 0.0000 0.0000 0.0000 2.5731 0.0000
# 6 0.0000 0.0000 0.0000 0.0000 0.0000 13.2176
#
#
#
# Elastic Compliance Matrix: (Units=1/GPa)
#
#
# Indices 1 2 3 4 5 6 
#
# 1 0.029850 -0.000007 -0.012782 0.000000 0.000000 0.000000
# 2 -0.000007 0.004499 -0.001686 0.000000 0.000000 0.000000
# 3 -0.012782 -0.001686 0.024956 0.000000 0.000000 0.000000
# 4 0.000000 0.000000 0.000000 0.048564 0.000000 0.000000
# 5 0.000000 0.000000 0.000000 0.000000 0.388630 0.000000
# 6 0.000000 0.000000 0.000000 0.000000 0.000000 0.075657
#
#
# Mechanical properties :
#
#
# Convention : Reuss Voigt Hill
#
# Bulk Modulus (GPa) = 32.94221 47.60548 40.27384
# Shear Modulus (GPa) = 8.18032 25.59667 16.88849
#
# Velocity S-wave (km/s) = 2.02500 3.58205 2.90961
# Velocity P-wave (km/s) = 4.68836 6.40091 5.61036
#
# Compressibility (1/GPa) = 0.03035619
#
# Stress axis : x y z
#
# Youngs Moduli (GPa) = 33.50079 222.25941 40.07111
#
# Poissons Ratio (x) = 0.00160 0.51217
# Poissons Ratio (y) = 0.00024 0.06754
# Poissons Ratio (z) = 0.42819 0.37463
#
# Static dielectric constant tensor:
#      x y z
#    x 3.310210 0.000000 0.000000 
#    y 0.000000 6.027150 0.000000 
#    z 0.000000 0.000000 3.228050 
# 
# 
# High freq. dielectric constant tensor:
#      x y z
#    x 1.740770 0.000000 0.000000 
#    y 0.000000 1.833050 0.000000 
#    z 0.000000 0.000000 1.737940 
# 
# From -- ./inp_files/5404.got.cif
#   From: 2010.03.12/outbox.cif.g09.slc.cpg/sg31_3_cif.got.tgz:5404.got - 2010.04.14 01:42:59.
