data_PCOD8169576
_publ_section_title
;
Structure prediction by ZEFSAII (Michael W. Deem and Ramdas Pophale) SiO2 
 PCOD8169576
Probable space group: P N C 2
;
_chemical_formula_sum "Si O2"
_cell_formula_units_Z 18
_cell_length_a 8.295906
_cell_length_b 10.695117
_cell_length_c 8.236413
_cell_angle_alpha 90.000000
_cell_angle_beta 90.000000
_cell_angle_gamma 90.000000
_cell_volume 730.781388
_symmetry_space_group_name_H-M "P N C 2"
_symmetry_group_IT_number 30
_symmetry_cell_setting 'orthorhombic'
loop_
_space_group_symop_operation_xyz
x,y,z
-x,-y,z
-x,1/2+y,1/2+z
x,1/2-y,1/2+z
loop_
_atom_site_type_symbol
_atom_site_label
_atom_site_fract_x
_atom_site_fract_y
_atom_site_fract_z
Si Si1 0.260328 0.875593 0.475080
Si Si2 0.287523 0.384885 0.759580
Si Si3 0.444235 0.801422 0.775860
Si Si4 0.000000 0.000000 0.664281
Si Si5 0.766295 0.861717 0.904599
O O1 0.390448 0.879007 0.619699
O O2 0.286512 0.742264 0.382007
O O3 0.080916 0.893747 0.548379
O O4 0.300151 0.985889 0.351437
O O5 0.464759 0.327534 0.722026
O O6 0.191901 0.285120 0.874322
O O7 0.192554 0.401355 0.588681
O O8 0.574467 0.885660 0.873013
O O9 0.861353 0.944457 0.776142
#
# Coordination Sequence:
#
# PCOD8169576 Si02
#       5
#     4   4   4   2   4
#     4  12  26  47  76 116 155 209 260 335 403 474
#     4  10  22  45  82 105 148 205 272 326 385 473
#     4  10  23  46  77 109 149 199 283 315 378 493
#     4  12  30  44  76 118 172 206 254 344 420 462
#     4  10  23  46  73 113 151 209 259 329 389 487
#
# _framework density 24.631167999999999
#
# number of rings (size 3 to 8) (size 9 to 14) (size 15 to 20)
#    1.333    0.000    2.222    2.000    6.222    6.222 
#    4.000    0.000    0.000    0.000    0.000    0.000 
#    0.000    0.000    0.000    0.000    0.000    0.000 
#
# Total GULP energy -223008.404756 kJ/mol
# GULP energy per Si atom -12389.355820 kJ/mol
# Density = 2.457511 g / cm^3
# Si number density = 24.631168 Si / 1000 Ang^3
#
#
#
# Elastic Constant Matrix: (Units=GPa)
#
#
# Indices 1 2 3 4 5 6 
#
# 1 83.7778 51.9027 72.4317 0.0000 0.0000 0.0000
# 2 51.9027 70.2434 53.7357 0.0000 0.0000 0.0000
# 3 72.4317 53.7357 177.8022 0.0000 0.0000 0.0000
# 4 0.0000 0.0000 0.0000 50.1370 0.0000 0.0000
# 5 0.0000 0.0000 0.0000 0.0000 29.6584 0.0000
# 6 0.0000 0.0000 0.0000 0.0000 0.0000 39.4248
#
#
#
# Elastic Compliance Matrix: (Units=1/GPa)
#
#
# Indices 1 2 3 4 5 6 
#
# 1 0.026602 -0.014784 -0.006369 0.000000 0.000000 0.000000
# 2 -0.014784 0.026733 -0.002057 0.000000 0.000000 0.000000
# 3 -0.006369 -0.002057 0.008840 0.000000 0.000000 0.000000
# 4 0.000000 0.000000 0.000000 0.019945 0.000000 0.000000
# 5 0.000000 0.000000 0.000000 0.000000 0.033717 0.000000
# 6 0.000000 0.000000 0.000000 0.000000 0.000000 0.025365
#
#
# Mechanical properties :
#
#
# Convention : Reuss Voigt Hill
#
# Bulk Modulus (GPa) = 63.46626 76.44042 69.95334
# Shear Modulus (GPa) = 25.92368 34.09424 30.00896
#
# Velocity S-wave (km/s) = 3.24771 3.72451 3.49425
# Velocity P-wave (km/s) = 6.31554 7.04254 6.68892
#
# Compressibility (1/GPa) = 0.01575640
#
# Stress axis : x y z
#
# Youngs Moduli (GPa) = 37.59178 37.40628 113.11788
#
# Poissons Ratio (x) = 0.55301 0.72042
# Poissons Ratio (y) = 0.55575 0.23268
# Poissons Ratio (z) = 0.23941 0.07694
#
# Static dielectric constant tensor:
#      x y z
#    x 4.200430 0.000000 0.000000 
#    y 0.000000 4.172150 0.000000 
#    z 0.000000 0.000000 4.509610 
# 
# 
# High freq. dielectric constant tensor:
#      x y z
#    x 1.953180 0.000000 0.000000 
#    y 0.000000 1.964090 0.000000 
#    z 0.000000 0.000000 1.991550 
# 
# From -- ./inp_files/1711.got.cif
#   From: 2010.03.12/outbox.cif.g09.slc.cpg/sg30_1_cif.got.tgz:1711.got - 2010.04.14 01:38:02.
