data_PCOD8169724
_publ_section_title
;
Structure prediction by ZEFSAII (Michael W. Deem and Ramdas Pophale) SiO2 
 PCOD8169724
Probable space group: P M N 21
;
_chemical_formula_sum "Si O2"
_cell_formula_units_Z 32
_cell_length_a 9.030453
_cell_length_b 12.178116
_cell_length_c 14.457174
_cell_angle_alpha 90.000000
_cell_angle_beta 90.000000
_cell_angle_gamma 90.000000
_cell_volume 1589.911868
_symmetry_space_group_name_H-M "P M N 21"
_symmetry_group_IT_number 31
_symmetry_cell_setting 'orthorhombic'
loop_
_space_group_symop_operation_xyz
x,y,z
1/2-x,-y,1/2+z
-x,y,z
1/2+x,-y,1/2+z
loop_
_atom_site_type_symbol
_atom_site_label
_atom_site_fract_x
_atom_site_fract_y
_atom_site_fract_z
Si Si1 0.825112 0.905751 0.107160
Si Si2 0.329325 0.601991 0.324050
Si Si3 0.830666 0.971242 0.903930
Si Si4 0.675275 0.500953 0.985815
Si Si5 0.335228 0.189511 0.893292
Si Si6 0.829007 0.320477 0.628779
Si Si7 0.663509 0.290959 0.085537
Si Si8 0.172052 0.893766 0.709353
O O1 0.769294 0.787440 0.141769
O O2 0.000000 0.909932 0.119095
O O3 0.756232 0.000941 0.169384
O O4 0.776826 0.918302 0.999921
O O5 0.500000 0.590685 0.350348
O O6 0.243997 0.507534 0.382607
O O7 0.273151 0.722155 0.349491
O O8 0.303473 0.593045 0.213362
O O9 0.813174 0.884325 0.820364
O O10 0.000000 0.011981 0.913544
O O11 0.728832 0.070932 0.872170
O O12 0.500000 0.482172 0.975407
O O13 0.714144 0.616499 0.033720
O O14 0.743848 0.402335 0.050152
O O15 0.500000 0.199656 0.849655
O O16 0.343163 0.203602 0.002839
O O17 0.000000 0.283743 0.626519
O O18 0.500000 0.326198 0.118998
O O19 0.740278 0.220990 0.168394
O O20 0.000000 0.904332 0.679707
#
# Coordination Sequence:
#
# PCOD8169724 Si02
#       8
#     4   4   4   4   4   4   4   4
#     4  11  23  37  54  84 119 148 183 236 285 326
#     4  10  20  35  57  87 114 144 186 234 282 325
#     4  10  21  34  50  79 115 146 181 230 283 330
#     4   9  19  38  60  83 108 142 191 237 275 328
#     4  10  18  31  54  80 106 144 188 228 268 324
#     4  10  22  40  59  81 114 155 192 225 272 341
#     4   8  15  30  54  77  96 129 179 226 265 317
#     4  10  19  35  56  79 108 148 186 220 276 347
#
# _framework density 20.126901
#
# number of rings (size 3 to 8) (size 9 to 14) (size 15 to 20)
#    0.000    2.250    1.250    2.625    0.000    5.500 
#    2.250    0.000    0.000    0.000    0.000    0.000 
#    0.000    0.000    0.000    0.000    0.000    0.000 
#
# Total GULP energy -396593.480673 kJ/mol
# GULP energy per Si atom -12393.546271 kJ/mol
# Density = 2.008109 g / cm^3
# Si number density = 20.126901 Si / 1000 Ang^3
#
#
#
# Elastic Constant Matrix: (Units=GPa)
#
#
# Indices 1 2 3 4 5 6 
#
# 1 59.9265 13.8443 23.4661 0.0000 0.0000 0.0000
# 2 13.8443 38.4649 4.0002 0.0000 0.0000 0.0000
# 3 23.4661 4.0002 87.5349 0.0000 0.0000 0.0000
# 4 0.0000 0.0000 0.0000 24.0164 0.0000 0.0000
# 5 0.0000 0.0000 0.0000 0.0000 26.5518 0.0000
# 6 0.0000 0.0000 0.0000 0.0000 0.0000 18.9644
#
#
#
# Elastic Compliance Matrix: (Units=1/GPa)
#
#
# Indices 1 2 3 4 5 6 
#
# 1 0.020253 -0.006757 -0.005121 0.000000 0.000000 0.000000
# 2 -0.006757 0.028376 0.000515 0.000000 0.000000 0.000000
# 3 -0.005121 0.000515 0.012773 0.000000 0.000000 0.000000
# 4 0.000000 0.000000 0.000000 0.041638 0.000000 0.000000
# 5 0.000000 0.000000 0.000000 0.000000 0.037662 0.000000
# 6 0.000000 0.000000 0.000000 0.000000 0.000000 0.052731
#
#
# Mechanical properties :
#
#
# Convention : Reuss Voigt Hill
#
# Bulk Modulus (GPa) = 25.85539 29.83861 27.84700
# Shear Modulus (GPa) = 21.82911 23.54756 22.68834
#
# Velocity S-wave (km/s) = 3.29686 3.42417 3.36112
# Velocity P-wave (km/s) = 5.23130 5.52184 5.37853
#
# Compressibility (1/GPa) = 0.03867666
#
# Stress axis : x y z
#
# Youngs Moduli (GPa) = 49.37472 35.24078 78.28872
#
# Poissons Ratio (x) = 0.23812 0.40089
# Poissons Ratio (y) = 0.33363 -0.04029
# Poissons Ratio (z) = 0.25283 -0.01814
#
# Static dielectric constant tensor:
#      x y z
#    x 3.524150 0.000000 0.000000 
#    y 0.000000 3.425640 0.000000 
#    z 0.000000 0.000000 3.921770 
# 
# 
# High freq. dielectric constant tensor:
#      x y z
#    x 1.766300 0.000000 0.000000 
#    y 0.000000 1.766210 0.000000 
#    z 0.000000 0.000000 1.794420 
# 
# From -- ./inp_files/5059.got.cif
#   From: 2010.03.12/outbox.cif.g09.slc.cpg/sg31_3_cif.got.tgz:5059.got - 2010.04.14 01:42:59.
