data_PCOD8169949
_publ_section_title
;
Structure prediction by ZEFSAII (Michael W. Deem and Ramdas Pophale) SiO2 
 PCOD8169949
Probable space group: P M N 21
;
_chemical_formula_sum "Si O2"
_cell_formula_units_Z 32
_cell_length_a 14.210359
_cell_length_b 9.418306
_cell_length_c 11.659568
_cell_angle_alpha 90.000000
_cell_angle_beta 90.000000
_cell_angle_gamma 90.000000
_cell_volume 1560.487542
_symmetry_space_group_name_H-M "P M N 21"
_symmetry_group_IT_number 31
_symmetry_cell_setting 'orthorhombic'
loop_
_space_group_symop_operation_xyz
x,y,z
1/2-x,-y,1/2+z
-x,y,z
1/2+x,-y,1/2+z
loop_
_atom_site_type_symbol
_atom_site_label
_atom_site_fract_x
_atom_site_fract_y
_atom_site_fract_z
Si Si1 0.106972 0.053503 0.973550
Si Si2 0.891620 0.368191 0.031390
Si Si3 0.109460 0.296026 0.293252
Si Si4 0.775119 0.623242 0.941556
Si Si5 0.893706 0.983389 0.580834
Si Si6 0.278463 0.145059 0.628311
Si Si7 0.390577 0.033056 0.822225
Si Si8 0.394759 0.178660 0.295797
O O1 0.000000 0.025347 0.013705
O O2 0.129540 0.973653 0.854298
O O3 0.124107 0.220902 0.964345
O O4 0.172903 0.990758 0.070753
O O5 0.868477 0.356473 0.166806
O O6 0.000000 0.420079 0.016293
O O7 0.817534 0.470060 0.967942
O O8 0.167789 0.379161 0.393698
O O9 0.000000 0.315327 0.324854
O O10 0.136932 0.129587 0.293930
O O11 0.828811 0.695188 0.835503
O O12 0.793358 0.710312 0.058712
O O13 0.832534 0.113550 0.630171
O O14 0.000000 0.041671 0.582353
O O15 0.863754 0.937640 0.453814
O O16 0.882209 0.843824 0.659918
O O17 0.326850 0.147865 0.753469
O O18 0.500000 0.062594 0.796337
O O19 0.500000 0.224630 0.328113
#
# Coordination Sequence:
#
# PCOD8169949 Si02
#       8
#     4   4   4   4   4   4   4   4
#     4   9  18  34  58  87 115 150 193 243 293 354
#     4  10  21  39  62  86 116 159 205 246 299 365
#     4  10  20  39  63  85 120 164 206 247 298 365
#     4  11  22  37  60  93 120 152 195 256 310 352
#     4  10  21  35  54  85 123 158 193 239 299 358
#     4  11  20  32  59  90 118 145 195 247 302 352
#     4  10  19  35  59  88 117 154 202 247 290 355
#     4   9  19  35  57  88 125 154 189 245 307 357
#
# _framework density 20.506412000000001
#
# number of rings (size 3 to 8) (size 9 to 14) (size 15 to 20)
#    0.000    2.000    2.500    1.500    1.750    1.500 
#    2.250    0.000    0.000    3.750    0.000    0.000 
#    0.000    0.000    0.000    0.000    0.000    0.000 
#
# Total GULP energy -396705.028419 kJ/mol
# GULP energy per Si atom -12397.032138 kJ/mol
# Density = 2.045974 g / cm^3
# Si number density = 20.506412 Si / 1000 Ang^3
#
#
#
# Elastic Constant Matrix: (Units=GPa)
#
#
# Indices 1 2 3 4 5 6 
#
# 1 80.4294 35.9984 48.1901 0.0000 0.0000 0.0000
# 2 35.9984 77.5034 34.9275 0.0000 0.0000 0.0000
# 3 48.1901 34.9275 113.1303 0.0000 0.0000 0.0000
# 4 0.0000 0.0000 0.0000 20.6977 0.0000 0.0000
# 5 0.0000 0.0000 0.0000 0.0000 36.9836 0.0000
# 6 0.0000 0.0000 0.0000 0.0000 0.0000 20.5942
#
#
#
# Elastic Compliance Matrix: (Units=1/GPa)
#
#
# Indices 1 2 3 4 5 6 
#
# 1 0.018791 -0.005948 -0.006168 0.000000 0.000000 0.000000
# 2 -0.005948 0.016871 -0.002675 0.000000 0.000000 0.000000
# 3 -0.006168 -0.002675 0.012293 0.000000 0.000000 0.000000
# 4 0.000000 0.000000 0.000000 0.048315 0.000000 0.000000
# 5 0.000000 0.000000 0.000000 0.000000 0.027039 0.000000
# 6 0.000000 0.000000 0.000000 0.000000 0.000000 0.048557
#
#
# Mechanical properties :
#
#
# Convention : Reuss Voigt Hill
#
# Bulk Modulus (GPa) = 54.42987 56.58836 55.50911
# Shear Modulus (GPa) = 24.08795 25.78489 24.93642
#
# Velocity S-wave (km/s) = 3.43104 3.54984 3.49095
# Velocity P-wave (km/s) = 6.50358 6.66762 6.58611
#
# Compressibility (1/GPa) = 0.01837227
#
# Stress axis : x y z
#
# Youngs Moduli (GPa) = 53.21619 59.27336 81.34990
#
# Poissons Ratio (x) = 0.35258 0.50177
# Poissons Ratio (y) = 0.31655 0.21760
# Poissons Ratio (z) = 0.32824 0.15855
#
# Static dielectric constant tensor:
#      x y z
#    x 3.994990 0.000000 0.000000 
#    y 0.000000 3.259730 0.000000 
#    z 0.000000 0.000000 3.921050 
# 
# 
# High freq. dielectric constant tensor:
#      x y z
#    x 1.818540 0.000000 0.000000 
#    y 0.000000 1.752680 0.000000 
#    z 0.000000 0.000000 1.806160 
# 
# From -- ./inp_files/4294.got.cif
#   From: 2010.03.12/outbox.cif.g09.slc.cpg/sg31_3_cif.got.tgz:4294.got - 2010.04.14 01:42:59.
