data_PCOD8169905
_publ_section_title
;
Structure prediction by ZEFSAII (Michael W. Deem and Ramdas Pophale) SiO2 
 PCOD8169905
Probable space group: P M N 21
;
_chemical_formula_sum "Si O2"
_cell_formula_units_Z 24
_cell_length_a 8.539814
_cell_length_b 26.617347
_cell_length_c 5.160597
_cell_angle_alpha 90.000000
_cell_angle_beta 90.000000
_cell_angle_gamma 90.000000
_cell_volume 1173.040816
_symmetry_space_group_name_H-M "P M N 21"
_symmetry_group_IT_number 31
_symmetry_cell_setting 'orthorhombic'
loop_
_space_group_symop_operation_xyz
x,y,z
1/2-x,-y,1/2+z
-x,y,z
1/2+x,-y,1/2+z
loop_
_atom_site_type_symbol
_atom_site_label
_atom_site_fract_x
_atom_site_fract_y
_atom_site_fract_z
Si Si1 0.813508 0.139799 0.204380
Si Si2 0.181938 0.632457 0.674383
Si Si3 0.318796 0.304013 0.674551
Si Si4 0.815731 0.025280 0.179946
Si Si5 0.684066 0.804445 0.204604
Si Si6 0.180548 0.475122 0.230419
O O1 0.757126 0.082429 0.205872
O O2 0.743136 0.168318 0.453610
O O3 0.000000 0.142329 0.200867
O O4 0.742860 0.168527 0.955776
O O5 0.225442 0.657680 0.402327
O O6 0.287510 0.583643 0.701850
O O7 0.000000 0.616854 0.686389
O O8 0.225043 0.670828 0.902473
O O9 0.500000 0.289078 0.688111
O O10 0.218498 0.254270 0.706881
O O11 0.000000 0.020590 0.230150
O O12 0.723750 0.992692 0.390933
O O13 0.500000 0.812388 0.203508
O O14 0.282721 0.497197 0.462514
O O15 0.000000 0.484177 0.298023
#
# Coordination Sequence:
#
# PCOD8169905 Si02
#       6
#     4   4   4   4   4   4
#     4   9  19  35  55  78 108 147 186 231 288 346
#     4  10  21  38  58  81 114 154 192 232 288 351
#     4  10  21  36  55  81 114 149 184 233 294 343
#     4  11  22  39  61  86 118 155 198 245 298 356
#     4  10  19  34  56  79 104 142 190 232 278 343
#     4  12  25  42  65  93 124 159 202 249 298 351
#
# _framework density 20.459645999999999
#
# number of rings (size 3 to 8) (size 9 to 14) (size 15 to 20)
#    0.000    1.667    0.000    5.000    0.000    5.333 
#    0.000    5.000    0.000    0.000    0.000    0.000 
#    0.000    0.000    0.000    0.000    0.000    0.000 
#
# Total GULP energy -297729.245123 kJ/mol
# GULP energy per Si atom -12405.385213 kJ/mol
# Density = 2.041308 g / cm^3
# Si number density = 20.459646 Si / 1000 Ang^3
#
#
#
# Elastic Constant Matrix: (Units=GPa)
#
#
# Indices 1 2 3 4 5 6 
#
# 1 39.9138 22.5358 13.5112 0.0000 0.0000 0.0000
# 2 22.5358 102.4075 22.3207 0.0000 0.0000 0.0000
# 3 13.5112 22.3207 117.8692 0.0000 0.0000 0.0000
# 4 0.0000 0.0000 0.0000 36.8730 0.0000 0.0000
# 5 0.0000 0.0000 0.0000 0.0000 16.8637 0.0000
# 6 0.0000 0.0000 0.0000 0.0000 0.0000 38.3591
#
#
#
# Elastic Compliance Matrix: (Units=1/GPa)
#
#
# Indices 1 2 3 4 5 6 
#
# 1 0.029154 -0.005932 -0.002219 0.000000 0.000000 0.000000
# 2 -0.005932 0.011392 -0.001477 0.000000 0.000000 0.000000
# 3 -0.002219 -0.001477 0.009018 0.000000 0.000000 0.000000
# 4 0.000000 0.000000 0.000000 0.027120 0.000000 0.000000
# 5 0.000000 0.000000 0.000000 0.000000 0.059299 0.000000
# 6 0.000000 0.000000 0.000000 0.000000 0.000000 0.026069
#
#
# Mechanical properties :
#
#
# Convention : Reuss Voigt Hill
#
# Bulk Modulus (GPa) = 32.99393 41.88066 37.43730
# Shear Modulus (GPa) = 26.12159 31.87400 28.99779
#
# Velocity S-wave (km/s) = 3.57702 3.95130 3.76881
# Velocity P-wave (km/s) = 5.76381 6.42895 6.10544
#
# Compressibility (1/GPa) = 0.03030861
#
# Stress axis : x y z
#
# Youngs Moduli (GPa) = 34.30017 87.77820 110.88864
#
# Poissons Ratio (x) = 0.52072 0.24601
# Poissons Ratio (y) = 0.20347 0.16382
# Poissons Ratio (z) = 0.07610 0.12968
#
# Static dielectric constant tensor:
#      x y z
#    x 3.436120 0.000000 0.000000 
#    y 0.000000 3.706660 0.000000 
#    z 0.000000 0.000000 4.052990 
# 
# 
# High freq. dielectric constant tensor:
#      x y z
#    x 1.773750 0.000000 0.000000 
#    y 0.000000 1.813270 0.000000 
#    z 0.000000 0.000000 1.822360 
# 
# From -- ./inp_files/150.got.cif
#   From: 2010.03.12/outbox.cif.g09.slc.cpg/sg31_1_cif.got.tgz:150.got - 2010.04.14 01:42:59.
