data_PCOD8169365
_publ_section_title
;
Structure prediction by ZEFSAII (Michael W. Deem and Ramdas Pophale) SiO2 
 PCOD8169365
Probable space group: P N C 2
;
_chemical_formula_sum "Si O2"
_cell_formula_units_Z 20
_cell_length_a 8.967487
_cell_length_b 8.275689
_cell_length_c 13.324353
_cell_angle_alpha 90.000000
_cell_angle_beta 90.000000
_cell_angle_gamma 90.000000
_cell_volume 988.828664
_symmetry_space_group_name_H-M "P N C 2"
_symmetry_group_IT_number 30
_symmetry_cell_setting 'orthorhombic'
loop_
_space_group_symop_operation_xyz
x,y,z
-x,-y,z
-x,1/2+y,1/2+z
x,1/2-y,1/2+z
loop_
_atom_site_type_symbol
_atom_site_label
_atom_site_fract_x
_atom_site_fract_y
_atom_site_fract_z
Si Si1 0.832805 0.014561 0.691730
Si Si2 0.000000 0.000000 0.156277
Si Si3 0.166828 0.986060 0.469114
Si Si4 0.249712 0.220335 0.080787
Si Si5 0.746114 0.173501 0.275670
Si Si6 0.500000 0.500000 0.649008
O O1 0.837460 0.097534 0.579567
O O2 0.741028 0.131124 0.766407
O O3 0.755641 0.837630 0.680503
O O4 0.000000 0.000000 0.733996
O O5 0.100238 0.886809 0.226729
O O6 0.894342 0.894828 0.083999
O O7 0.263291 0.879347 0.392177
O O8 0.238822 0.166893 0.481301
O O9 0.000000 0.000000 0.426205
O O10 0.402769 0.119317 0.078972
O O11 0.604481 0.103951 0.219809
#
# Coordination Sequence:
#
# PCOD8169365 Si02
#       6
#     4   2   4   4   4   2
#     4   9  18  36  65  93 119 162 208 269 310 363
#     4  10  16  32  68  82 122 160 210 264 296 382
#     4   9  18  36  65  91 121 162 215 271 309 359
#     4   9  19  38  62  92 126 165 210 249 327 368
#     4  11  19  36  63  88 122 171 208 248 327 363
#     4  10  24  36  60  90 126 180 192 256 324 394
#
# _framework density 20.225950999999998
#
# number of rings (size 3 to 8) (size 9 to 14) (size 15 to 20)
#    1.200    1.200    3.000    0.000    0.000    0.800 
#    3.600    0.000   39.600    0.000    0.000    0.000 
#    0.000    0.000    0.000    0.000    0.000    0.000 
#
# Total GULP energy -247814.152470 kJ/mol
# GULP energy per Si atom -12390.707624 kJ/mol
# Density = 2.017992 g / cm^3
# Si number density = 20.225951 Si / 1000 Ang^3
#
#
#
# Elastic Constant Matrix: (Units=GPa)
#
#
# Indices 1 2 3 4 5 6 
#
# 1 114.2799 53.7846 24.2875 0.0000 0.0000 0.0000
# 2 53.7846 135.0250 37.6940 0.0000 0.0000 0.0000
# 3 24.2875 37.6940 62.9400 0.0000 0.0000 0.0000
# 4 0.0000 0.0000 0.0000 12.6673 0.0000 0.0000
# 5 0.0000 0.0000 0.0000 0.0000 4.0528 0.0000
# 6 0.0000 0.0000 0.0000 0.0000 0.0000 35.8235
#
#
#
# Elastic Compliance Matrix: (Units=1/GPa)
#
#
# Indices 1 2 3 4 5 6 
#
# 1 0.010963 -0.003826 -0.001939 0.000000 0.000000 0.000000
# 2 -0.003826 0.010228 -0.004649 0.000000 0.000000 0.000000
# 3 -0.001939 -0.004649 0.019421 0.000000 0.000000 0.000000
# 4 0.000000 0.000000 0.000000 0.078943 0.000000 0.000000
# 5 0.000000 0.000000 0.000000 0.000000 0.246742 0.000000
# 6 0.000000 0.000000 0.000000 0.000000 0.000000 0.027915
#
#
# Mechanical properties :
#
#
# Convention : Reuss Voigt Hill
#
# Bulk Modulus (GPa) = 50.54688 60.41969 55.48329
# Shear Modulus (GPa) = 11.85864 23.60732 17.73298
#
# Velocity S-wave (km/s) = 2.42401 3.42011 2.96420
# Velocity P-wave (km/s) = 5.73409 6.74784 6.26152
#
# Compressibility (1/GPa) = 0.01978361
#
# Stress axis : x y z
#
# Youngs Moduli (GPa) = 91.21550 97.77376 51.49118
#
# Poissons Ratio (x) = 0.37403 0.09986
# Poissons Ratio (y) = 0.34895 0.23939
# Poissons Ratio (z) = 0.17690 0.45456
#
# Static dielectric constant tensor:
#      x y z
#    x 3.509480 0.000000 0.000000 
#    y 0.000000 3.760930 0.000000 
#    z 0.000000 0.000000 3.205090 
# 
# 
# High freq. dielectric constant tensor:
#      x y z
#    x 1.776910 0.000000 0.000000 
#    y 0.000000 1.792340 0.000000 
#    z 0.000000 0.000000 1.745770 
# 
# From -- ./inp_files/4912.got.cif
#   From: 2010.03.12/outbox.cif.g09.slc.cpg/sg30_3_cif.got.tgz:4912.got - 2010.04.14 01:38:02.
