data_PCOD8169149
_publ_section_title
;
Structure prediction by ZEFSAII (Michael W. Deem and Ramdas Pophale) SiO2 
 PCOD8169149
Probable space group: P C A 21
;
_chemical_formula_sum "Si O2"
_cell_formula_units_Z 32
_cell_length_a 28.120058
_cell_length_b 6.411901
_cell_length_c 8.158057
_cell_angle_alpha 90.000000
_cell_angle_beta 90.000000
_cell_angle_gamma 90.000000
_cell_volume 1470.922380
_symmetry_space_group_name_H-M "P C A 21"
_symmetry_group_IT_number 29
_symmetry_cell_setting 'orthorhombic'
loop_
_space_group_symop_operation_xyz
x,y,z
-x,-y,1/2+z
1/2-x,y,1/2+z
1/2+x,-y,z
loop_
_atom_site_type_symbol
_atom_site_label
_atom_site_fract_x
_atom_site_fract_y
_atom_site_fract_z
Si Si1 0.961994 0.931436 0.550130
Si Si2 0.177266 0.633181 0.040032
Si Si3 0.283384 0.986662 0.331255
Si Si4 0.457514 0.777074 0.269361
Si Si5 0.199179 0.214067 0.150481
Si Si6 0.373484 0.023741 0.135786
Si Si7 0.403289 0.387820 0.342088
Si Si8 0.620283 0.041907 0.260317
O O1 0.924506 0.775504 0.469556
O O2 0.933785 0.043871 0.697673
O O3 0.007992 0.809465 0.615322
O O4 0.980739 0.112718 0.428678
O O5 0.139233 0.518396 0.923745
O O6 0.215042 0.764514 0.928538
O O7 0.207772 0.464307 0.147819
O O8 0.150276 0.776352 0.171759
O O9 0.233351 0.065091 0.258758
O O10 0.300776 0.158918 0.458745
O O11 0.318716 0.978779 0.177497
O O12 0.447922 0.532802 0.292063
O O13 0.405986 0.881519 0.250490
O O14 0.146499 0.176777 0.220923
O O15 0.385379 0.266609 0.177353
O O16 0.382451 0.941661 0.954472
#
# Coordination Sequence:
#
# PCOD8169149 Si02
#       8
#     4   4   4   4   4   4   4   4
#     4  11  23  40  65  94 134 176 226 290 334 410
#     4  11  21  45  70  92 136 186 215 284 356 404
#     4  11  23  42  67  97 137 173 231 283 345 410
#     4  11  23  42  65  95 133 181 225 280 348 407
#     4  11  23  42  66  98 133 178 229 283 339 416
#     4  11  23  42  66  97 136 176 223 286 337 406
#     4  11  21  44  68  93 137 181 226 277 350 414
#     4  11  23  41  65  96 136 175 225 279 345 409
#
# _framework density 21.755058999999999
#
# number of rings (size 3 to 8) (size 9 to 14) (size 15 to 20)
#    0.000    1.000    5.000    3.000    0.000    6.000 
#    2.250    0.000    0.000    0.000    0.000    0.000 
#    0.000    0.000    0.000    0.000    0.000    0.000 
#
# Total GULP energy -396597.589784 kJ/mol
# GULP energy per Si atom -12393.674681 kJ/mol
# Density = 2.170554 g / cm^3
# Si number density = 21.755059 Si / 1000 Ang^3
#
#
#
# Elastic Constant Matrix: (Units=GPa)
#
#
# Indices 1 2 3 4 5 6 
#
# 1 60.1373 18.3033 5.5995 0.0000 0.0000 0.0000
# 2 18.3033 120.3358 30.2160 0.0000 0.0000 0.0000
# 3 5.5995 30.2160 91.8410 0.0000 0.0000 0.0000
# 4 0.0000 0.0000 0.0000 27.0075 0.0000 0.0000
# 5 0.0000 0.0000 0.0000 0.0000 36.4095 0.0000
# 6 0.0000 0.0000 0.0000 0.0000 0.0000 29.1294
#
#
#
# Elastic Compliance Matrix: (Units=1/GPa)
#
#
# Indices 1 2 3 4 5 6 
#
# 1 0.017439 -0.002600 -0.000208 0.000000 0.000000 0.000000
# 2 -0.002600 0.009446 -0.002949 0.000000 0.000000 0.000000
# 3 -0.000208 -0.002949 0.011871 0.000000 0.000000 0.000000
# 4 0.000000 0.000000 0.000000 0.037027 0.000000 0.000000
# 5 0.000000 0.000000 0.000000 0.000000 0.027465 0.000000
# 6 0.000000 0.000000 0.000000 0.000000 0.000000 0.034330
#
#
# Mechanical properties :
#
#
# Convention : Reuss Voigt Hill
#
# Bulk Modulus (GPa) = 36.70786 42.28352 39.49569
# Shear Modulus (GPa) = 31.61074 33.05564 32.33319
#
# Velocity S-wave (km/s) = 3.81600 3.90224 3.85936
# Velocity P-wave (km/s) = 6.02708 6.30727 6.16876
#
# Compressibility (1/GPa) = 0.02724212
#
# Stress axis : x y z
#
# Youngs Moduli (GPa) = 57.34138 105.86316 84.23635
#
# Poissons Ratio (x) = 0.27529 0.01750
# Poissons Ratio (y) = 0.14911 0.24844
# Poissons Ratio (z) = 0.01191 0.31222
#
# Static dielectric constant tensor:
#      x y z
#    x 3.881340 0.000000 0.000000 
#    y 0.000000 4.170970 0.000000 
#    z 0.000000 0.000000 3.918300 
# 
# 
# High freq. dielectric constant tensor:
#      x y z
#    x 1.849690 0.000000 0.000000 
#    y 0.000000 1.855930 0.000000 
#    z 0.000000 0.000000 1.854740 
# 
# From -- ./inp_files/2583.got.cif
#   From: 2010.03.12/outbox.cif.g09.slc.cpg/sg29_2_cif.got.tgz:2583.got - 2010.04.14 03:43:10.
