data_PCOD8169803
_publ_section_title
;
Structure prediction by ZEFSAII (Michael W. Deem and Ramdas Pophale) SiO2 
 PCOD8169803
Probable space group: P M N 21
;
_chemical_formula_sum "Si O2"
_cell_formula_units_Z 32
_cell_length_a 9.104773
_cell_length_b 20.884191
_cell_length_c 9.669796
_cell_angle_alpha 90.000000
_cell_angle_beta 90.000000
_cell_angle_gamma 90.000000
_cell_volume 1838.671274
_symmetry_space_group_name_H-M "P M N 21"
_symmetry_group_IT_number 31
_symmetry_cell_setting 'orthorhombic'
loop_
_space_group_symop_operation_xyz
x,y,z
1/2-x,-y,1/2+z
-x,y,z
1/2+x,-y,1/2+z
loop_
_atom_site_type_symbol
_atom_site_label
_atom_site_fract_x
_atom_site_fract_y
_atom_site_fract_z
Si Si1 0.672621 0.562062 0.615760
Si Si2 0.671245 0.041962 0.395524
Si Si3 0.827073 0.236721 0.417958
Si Si4 0.169446 0.131688 0.197971
Si Si5 0.828511 0.104620 0.892845
Si Si6 0.665147 0.357138 0.314213
Si Si7 0.673613 0.144135 0.620028
Si Si8 0.335597 0.497386 0.340676
O O1 0.500000 0.572077 0.632257
O O2 0.757144 0.626589 0.665413
O O3 0.717325 0.546421 0.458474
O O4 0.724502 0.501326 0.710439
O O5 0.500000 0.048366 0.370984
O O6 0.745957 0.071126 0.259933
O O7 0.717793 0.080660 0.533551
O O8 0.720548 0.968904 0.412389
O O9 0.789867 0.196413 0.279537
O O10 0.760746 0.306887 0.399324
O O11 0.750635 0.205236 0.550676
O O12 0.000000 0.241408 0.445114
O O13 0.000000 0.114173 0.215697
O O14 0.207841 0.140888 0.036465
O O15 0.732861 0.137806 0.774958
O O16 0.000000 0.109749 0.854091
O O17 0.500000 0.330916 0.288828
O O18 0.661905 0.423999 0.400130
O O19 0.500000 0.155364 0.623045
O O20 0.500000 0.515843 0.291110
#
# Coordination Sequence:
#
# PCOD8169803 Si02
#       8
#     4   4   4   4   4   4   4   4
#     4   9  16  29  50  75 103 133 162 194 236 284
#     4   9  18  31  48  71  96 124 160 196 243 299
#     4  10  19  34  54  73  92 126 171 205 239 291
#     4   9  19  33  50  70  96 126 160 203 246 288
#     4  10  19  32  48  69  98 126 155 200 249 297
#     4   9  18  32  51  75 102 130 163 204 240 282
#     4  10  20  33  50  72  97 128 161 203 247 290
#     4   8  17  30  47  75 106 131 160 199 240 281
#
# _framework density 17.403872
#
# number of rings (size 3 to 8) (size 9 to 14) (size 15 to 20)
#    0.750    2.000    0.000    1.875    0.000    4.000 
#    0.000    0.000    2.750    0.000    0.000    0.000 
#    0.000    0.000    0.000    0.000    0.000    0.000 
#
# Total GULP energy -396597.716004 kJ/mol
# GULP energy per Si atom -12393.678625 kJ/mol
# Density = 1.736426 g / cm^3
# Si number density = 17.403872 Si / 1000 Ang^3
#
#
#
# Elastic Constant Matrix: (Units=GPa)
#
#
# Indices 1 2 3 4 5 6 
#
# 1 63.0524 9.5803 23.7857 0.0000 0.0000 0.0000
# 2 9.5803 27.9676 -0.7953 0.0000 0.0000 0.0000
# 3 23.7857 -0.7953 68.8263 0.0000 0.0000 0.0000
# 4 0.0000 0.0000 0.0000 16.5523 0.0000 0.0000
# 5 0.0000 0.0000 0.0000 0.0000 26.1569 0.0000
# 6 0.0000 0.0000 0.0000 0.0000 0.0000 25.3643
#
#
#
# Elastic Compliance Matrix: (Units=1/GPa)
#
#
# Indices 1 2 3 4 5 6 
#
# 1 0.019471 -0.006863 -0.006808 0.000000 0.000000 0.000000
# 2 -0.006863 0.038187 0.002813 0.000000 0.000000 0.000000
# 3 -0.006808 0.002813 0.016915 0.000000 0.000000 0.000000
# 4 0.000000 0.000000 0.000000 0.060414 0.000000 0.000000
# 5 0.000000 0.000000 0.000000 0.000000 0.038231 0.000000
# 6 0.000000 0.000000 0.000000 0.000000 0.000000 0.039425
#
#
# Mechanical properties :
#
#
# Convention : Reuss Voigt Hill
#
# Bulk Modulus (GPa) = 18.91953 24.99863 21.95908
# Shear Modulus (GPa) = 19.84294 22.09974 20.97134
#
# Velocity S-wave (km/s) = 3.38027 3.56732 3.47505
# Velocity P-wave (km/s) = 5.11169 5.60024 5.36153
#
# Compressibility (1/GPa) = 0.05285544
#
# Stress axis : x y z
#
# Youngs Moduli (GPa) = 51.35840 26.18708 59.12009
#
# Poissons Ratio (x) = 0.17973 0.40251
# Poissons Ratio (y) = 0.35249 -0.16632
# Poissons Ratio (z) = 0.34966 -0.07367
#
# Static dielectric constant tensor:
#      x y z
#    x 3.244250 0.000000 0.000000 
#    y 0.000000 3.018650 0.000000 
#    z 0.000000 0.000000 3.131850 
# 
# 
# High freq. dielectric constant tensor:
#      x y z
#    x 1.680720 0.000000 0.000000 
#    y 0.000000 1.646240 0.000000 
#    z 0.000000 0.000000 1.659440 
# 
# From -- ./inp_files/1888.got.cif
#   From: 2010.03.12/outbox.cif.g09.slc.cpg/sg31_1_cif.got.tgz:1888.got - 2010.04.14 01:42:59.
