data_PCOD8169796
_publ_section_title
;
Structure prediction by ZEFSAII (Michael W. Deem and Ramdas Pophale) SiO2 
 PCOD8169796
Probable space group: P M N 21
;
_chemical_formula_sum "Si O2"
_cell_formula_units_Z 32
_cell_length_a 9.015936
_cell_length_b 11.441475
_cell_length_c 17.762076
_cell_angle_alpha 90.000000
_cell_angle_beta 90.000000
_cell_angle_gamma 90.000000
_cell_volume 1832.257720
_symmetry_space_group_name_H-M "P M N 21"
_symmetry_group_IT_number 31
_symmetry_cell_setting 'orthorhombic'
loop_
_space_group_symop_operation_xyz
x,y,z
1/2-x,-y,1/2+z
-x,y,z
1/2+x,-y,1/2+z
loop_
_atom_site_type_symbol
_atom_site_label
_atom_site_fract_x
_atom_site_fract_y
_atom_site_fract_z
Si Si1 0.674643 0.093787 0.951110
Si Si2 0.675121 0.835539 0.906136
Si Si3 0.675386 0.326937 0.522982
Si Si4 0.828744 0.159628 0.805316
Si Si5 0.176255 0.791406 0.603451
Si Si6 0.331519 0.691657 0.168728
Si Si7 0.172736 0.898991 0.758617
Si Si8 0.331150 0.469811 0.088372
O O1 0.500000 0.108005 0.947050
O O2 0.740144 0.170370 0.882978
O O3 0.722451 0.958995 0.943179
O O4 0.738578 0.142490 0.029804
O O5 0.500000 0.816152 0.908669
O O6 0.731792 0.830751 0.820661
O O7 0.755980 0.732478 0.949929
O O8 0.500000 0.322335 0.518690
O O9 0.733594 0.259863 0.598551
O O10 0.732647 0.462101 0.525617
O O11 0.770946 0.260705 0.748333
O O12 0.000000 0.176850 0.825383
O O13 0.799249 0.036955 0.764064
O O14 0.233524 0.857304 0.677683
O O15 0.235532 0.657951 0.604199
O O16 0.000000 0.793005 0.602810
O O17 0.500000 0.738154 0.157431
O O18 0.326908 0.549048 0.165283
O O19 0.000000 0.868003 0.770063
O O20 0.500000 0.460322 0.058366
#
# Coordination Sequence:
#
# PCOD8169796 Si02
#       8
#     4   4   4   4   4   4   4   4
#     4   9  19  32  51  75 103 134 166 200 244 301
#     4  10  19  33  51  74 105 134 164 203 251 300
#     4  10  19  31  51  75  98 127 167 212 249 287
#     4   9  17  31  50  74 103 131 165 205 249 293
#     4   9  17  32  54  75  97 134 171 202 246 300
#     4   8  16  30  51  73  94 129 167 204 247 294
#     4   9  18  31  51  74 101 132 166 206 246 296
#     4   8  16  32  51  72  99 129 168 208 246 295
#
# _framework density 17.464791999999999
#
# number of rings (size 3 to 8) (size 9 to 14) (size 15 to 20)
#    0.750    2.250    0.000    1.125    1.750    1.000 
#    0.000    3.125    0.000    1.500    0.000    0.000 
#    0.000    0.000    0.000    0.000    0.000    0.000 
#
# Total GULP energy -396578.306367 kJ/mol
# GULP energy per Si atom -12393.072074 kJ/mol
# Density = 1.742504 g / cm^3
# Si number density = 17.464792 Si / 1000 Ang^3
#
#
#
# Elastic Constant Matrix: (Units=GPa)
#
#
# Indices 1 2 3 4 5 6 
#
# 1 56.0624 23.9488 36.7880 0.0000 0.0000 0.0000
# 2 23.9488 81.0478 64.9321 0.0000 0.0000 0.0000
# 3 36.7880 64.9321 142.4515 0.0000 0.0000 0.0000
# 4 0.0000 0.0000 0.0000 16.4615 0.0000 0.0000
# 5 0.0000 0.0000 0.0000 0.0000 29.3593 0.0000
# 6 0.0000 0.0000 0.0000 0.0000 0.0000 15.3544
#
#
#
# Elastic Compliance Matrix: (Units=1/GPa)
#
#
# Indices 1 2 3 4 5 6 
#
# 1 0.021949 -0.003063 -0.004272 0.000000 0.000000 0.000000
# 2 -0.003063 0.019864 -0.008263 0.000000 0.000000 0.000000
# 3 -0.004272 -0.008263 0.011890 0.000000 0.000000 0.000000
# 4 0.000000 0.000000 0.000000 0.060748 0.000000 0.000000
# 5 0.000000 0.000000 0.000000 0.000000 0.034061 0.000000
# 6 0.000000 0.000000 0.000000 0.000000 0.000000 0.065128
#
#
# Mechanical properties :
#
#
# Convention : Reuss Voigt Hill
#
# Bulk Modulus (GPa) = 44.43325 58.98881 51.71103
# Shear Modulus (GPa) = 19.81473 22.49456 21.15465
#
# Velocity S-wave (km/s) = 3.37197 3.59276 3.48411
# Velocity P-wave (km/s) = 6.37629 7.14561 6.77188
#
# Compressibility (1/GPa) = 0.02250567
#
# Stress axis : x y z
#
# Youngs Moduli (GPa) = 45.55989 50.34326 84.10631
#
# Poissons Ratio (x) = 0.15421 0.35931
# Poissons Ratio (y) = 0.13956 0.69498
# Poissons Ratio (z) = 0.19464 0.41599
#
# Static dielectric constant tensor:
#      x y z
#    x 3.042890 0.000000 0.000000 
#    y 0.000000 3.204560 0.000000 
#    z 0.000000 0.000000 3.284910 
# 
# 
# High freq. dielectric constant tensor:
#      x y z
#    x 1.656930 0.000000 0.000000 
#    y 0.000000 1.661570 0.000000 
#    z 0.000000 0.000000 1.667230 
# 
# From -- ./inp_files/5125.got.cif
#   From: 2010.03.12/outbox.cif.g09.slc.cpg/sg31_3_cif.got.tgz:5125.got - 2010.04.14 01:42:59.
