data_PCOD8169850
_publ_section_title
;
Structure prediction by ZEFSAII (Michael W. Deem and Ramdas Pophale) SiO2 
 PCOD8169850
Probable space group: P M N 21
;
_chemical_formula_sum "Si O2"
_cell_formula_units_Z 28
_cell_length_a 10.036893
_cell_length_b 11.422794
_cell_length_c 12.946432
_cell_angle_alpha 90.000000
_cell_angle_beta 90.000000
_cell_angle_gamma 90.000000
_cell_volume 1484.300158
_symmetry_space_group_name_H-M "P M N 21"
_symmetry_group_IT_number 31
_symmetry_cell_setting 'orthorhombic'
loop_
_space_group_symop_operation_xyz
x,y,z
1/2-x,-y,1/2+z
-x,y,z
1/2+x,-y,1/2+z
loop_
_atom_site_type_symbol
_atom_site_label
_atom_site_fract_x
_atom_site_fract_y
_atom_site_fract_z
Si Si1 0.844552 0.175285 0.676820
Si Si2 0.356114 0.196576 0.167415
Si Si3 0.843838 0.625307 0.832055
Si Si4 0.849767 0.169426 0.989906
Si Si5 0.655712 0.636557 0.332213
Si Si6 0.649907 0.797247 0.941064
Si Si7 0.217383 0.986847 0.823798
O O1 0.811921 0.304418 0.721317
O O2 0.813374 0.166756 0.557089
O O3 0.748009 0.083575 0.736489
O O4 0.000000 0.143809 0.701067
O O5 0.500000 0.198860 0.110463
O O6 0.323550 0.324383 0.215688
O O7 0.243384 0.153150 0.089289
O O8 0.372360 0.109800 0.265747
O O9 0.783986 0.493688 0.834933
O O10 0.754976 0.697922 0.911938
O O11 0.000000 0.631816 0.863704
O O12 0.000000 0.192682 0.028786
O O13 0.791823 0.279874 0.924787
O O14 0.853568 0.052839 0.919293
O O15 0.500000 0.624007 0.347025
O O16 0.500000 0.747357 0.933568
O O17 0.657628 0.914220 0.870129
#
# Coordination Sequence:
#
# PCOD8169850 Si02
#       7
#     4   4   4   4   4   4   4
#     4   9  17  32  54  77 102 135 174 211 251 303
#     4  10  20  33  51  75 104 137 172 210 255 306
#     4   9  19  36  55  75 103 139 174 207 250 308
#     4  10  20  34  55  79 102 133 174 215 254 299
#     4   8  16  33  55  77 102 135 174 211 249 302
#     4  10  21  35  54  80 105 132 170 217 260 297
#     4  10  19  33  52  73 102 137 170 205 251 307
#
# _framework density 18.864108000000002
#
# number of rings (size 3 to 8) (size 9 to 14) (size 15 to 20)
#    0.000    2.571    0.000    3.000    0.000    6.286 
#    0.000    2.857    0.000    2.571    0.000    0.000 
#    0.000    0.000    0.000    0.000    0.000    0.000 
#
# Total GULP energy -346884.590391 kJ/mol
# GULP energy per Si atom -12388.735371 kJ/mol
# Density = 1.882117 g / cm^3
# Si number density = 18.864108 Si / 1000 Ang^3
#
#
#
# Elastic Constant Matrix: (Units=GPa)
#
#
# Indices 1 2 3 4 5 6 
#
# 1 70.8411 33.3661 51.1359 0.0000 0.0000 0.0000
# 2 33.3661 134.1079 52.6867 0.0000 0.0000 0.0000
# 3 51.1359 52.6867 112.6834 0.0000 0.0000 0.0000
# 4 0.0000 0.0000 0.0000 19.4339 0.0000 0.0000
# 5 0.0000 0.0000 0.0000 0.0000 23.9402 0.0000
# 6 0.0000 0.0000 0.0000 0.0000 0.0000 15.7430
#
#
#
# Elastic Compliance Matrix: (Units=1/GPa)
#
#
# Indices 1 2 3 4 5 6 
#
# 1 0.021359 -0.001845 -0.008830 0.000000 0.000000 0.000000
# 2 -0.001845 0.009294 -0.003508 0.000000 0.000000 0.000000
# 3 -0.008830 -0.003508 0.014522 0.000000 0.000000 0.000000
# 4 0.000000 0.000000 0.000000 0.051457 0.000000 0.000000
# 5 0.000000 0.000000 0.000000 0.000000 0.041771 0.000000
# 6 0.000000 0.000000 0.000000 0.000000 0.000000 0.063520
#
#
# Mechanical properties :
#
#
# Convention : Reuss Voigt Hill
#
# Bulk Modulus (GPa) = 59.49510 65.77885 62.63697
# Shear Modulus (GPa) = 21.19612 23.85298 22.52455
#
# Velocity S-wave (km/s) = 3.35568 3.55979 3.45924
# Velocity P-wave (km/s) = 6.82799 7.20012 7.01652
#
# Compressibility (1/GPa) = 0.01680811
#
# Stress axis : x y z
#
# Youngs Moduli (GPa) = 46.81861 107.59616 68.86178
#
# Poissons Ratio (x) = 0.19852 0.60805
# Poissons Ratio (y) = 0.08638 0.24158
# Poissons Ratio (z) = 0.41341 0.37747
#
# Static dielectric constant tensor:
#      x y z
#    x 3.096570 0.000000 0.000000 
#    y 0.000000 3.849530 0.000000 
#    z 0.000000 0.000000 3.399870 
# 
# 
# High freq. dielectric constant tensor:
#      x y z
#    x 1.695910 0.000000 0.000000 
#    y 0.000000 1.740620 0.000000 
#    z 0.000000 0.000000 1.729340 
# 
# From -- ./inp_files/4006.got.cif
#   From: 2010.03.12/outbox.cif.g09.slc.cpg/sg31_3_cif.got.tgz:4006.got - 2010.04.14 01:42:59.
