data_PCOD8169819
_publ_section_title
;
Structure prediction by ZEFSAII (Michael W. Deem and Ramdas Pophale) SiO2 
 PCOD8169819
Probable space group: P M N 21
;
_chemical_formula_sum "Si O2"
_cell_formula_units_Z 32
_cell_length_a 9.653426
_cell_length_b 12.380587
_cell_length_c 14.081593
_cell_angle_alpha 90.000000
_cell_angle_beta 90.000000
_cell_angle_gamma 90.000000
_cell_volume 1682.962720
_symmetry_space_group_name_H-M "P M N 21"
_symmetry_group_IT_number 31
_symmetry_cell_setting 'orthorhombic'
loop_
_space_group_symop_operation_xyz
x,y,z
1/2-x,-y,1/2+z
-x,y,z
1/2+x,-y,1/2+z
loop_
_atom_site_type_symbol
_atom_site_label
_atom_site_fract_x
_atom_site_fract_y
_atom_site_fract_z
Si Si1 0.152936 0.391013 0.241020
Si Si2 0.335647 0.375931 0.748346
Si Si3 0.163783 0.659915 0.042176
Si Si4 0.658382 0.262692 0.931092
Si Si5 0.849547 0.427815 0.022351
Si Si6 0.162027 0.821269 0.741997
Si Si7 0.159984 0.942361 0.548737
Si Si8 0.337904 0.121859 0.450624
O O1 0.211678 0.504022 0.286348
O O2 0.131922 0.430348 0.134254
O O3 0.256804 0.291239 0.251172
O O4 0.000000 0.358184 0.281636
O O5 0.500000 0.377969 0.739586
O O6 0.269531 0.338098 0.648159
O O7 0.287274 0.285611 0.824703
O O8 0.203662 0.547124 0.990328
O O9 0.000000 0.667595 0.051393
O O10 0.217078 0.759005 0.978802
O O11 0.500000 0.296929 0.942074
O O12 0.739889 0.336438 0.003461
O O13 0.680938 0.139725 0.961309
O O14 0.000000 0.402050 0.975387
O O15 0.209136 0.889974 0.649339
O O16 0.190797 0.891819 0.837537
O O17 0.000000 0.791873 0.733664
O O18 0.000000 0.978641 0.557179
O O19 0.254979 0.042037 0.519544
O O20 0.500000 0.105225 0.472574
#
# Coordination Sequence:
#
# PCOD8169819 Si02
#       8
#     4   4   4   4   4   4   4   4
#     4   9  17  31  52  79 109 142 180 221 263 316
#     4   8  16  30  50  78 111 142 178 221 263 315
#     4   8  16  33  52  75 107 139 174 222 271 312
#     4  10  19  32  52  78 107 144 179 214 269 325
#     4   9  17  30  51  78 108 139 173 218 265 316
#     4  10  21  37  55  80 112 141 174 227 283 324
#     4  10  22  39  55  76 112 149 181 226 278 323
#     4  10  22  38  59  82 104 142 191 231 270 321
#
# _framework density 19.014087
#
# number of rings (size 3 to 8) (size 9 to 14) (size 15 to 20)
#    0.000    2.750    1.250    1.500    1.750    2.500 
#    0.000    1.875    0.000    2.250    0.000    0.000 
#    0.000    0.000    0.000    0.000    0.000    0.000 
#
# Total GULP energy -396449.784860 kJ/mol
# GULP energy per Si atom -12389.055777 kJ/mol
# Density = 1.897081 g / cm^3
# Si number density = 19.014087 Si / 1000 Ang^3
#
#
#
# Elastic Constant Matrix: (Units=GPa)
#
#
# Indices 1 2 3 4 5 6 
#
# 1 43.8006 36.3087 15.7366 0.0000 0.0000 0.0000
# 2 36.3087 79.3724 20.3168 0.0000 0.0000 0.0000
# 3 15.7366 20.3168 68.8167 0.0000 0.0000 0.0000
# 4 0.0000 0.0000 0.0000 26.5344 0.0000 0.0000
# 5 0.0000 0.0000 0.0000 0.0000 19.2998 0.0000
# 6 0.0000 0.0000 0.0000 0.0000 0.0000 28.8682
#
#
#
# Elastic Compliance Matrix: (Units=1/GPa)
#
#
# Indices 1 2 3 4 5 6 
#
# 1 0.037681 -0.016260 -0.003816 0.000000 0.000000 0.000000
# 2 -0.016260 0.020645 -0.002377 0.000000 0.000000 0.000000
# 3 -0.003816 -0.002377 0.016106 0.000000 0.000000 0.000000
# 4 0.000000 0.000000 0.000000 0.037687 0.000000 0.000000
# 5 0.000000 0.000000 0.000000 0.000000 0.051814 0.000000
# 6 0.000000 0.000000 0.000000 0.000000 0.000000 0.034640
#
#
# Mechanical properties :
#
#
# Convention : Reuss Voigt Hill
#
# Bulk Modulus (GPa) = 33.86895 37.41265 35.64080
# Shear Modulus (GPa) = 19.73780 22.91565 21.32672
#
# Velocity S-wave (km/s) = 3.22539 3.47536 3.35270
# Velocity P-wave (km/s) = 5.63224 5.98524 5.81142
#
# Compressibility (1/GPa) = 0.02952556
#
# Stress axis : x y z
#
# Youngs Moduli (GPa) = 26.53881 48.43696 62.08970
#
# Poissons Ratio (x) = 0.78759 0.23694
# Poissons Ratio (y) = 0.43152 0.14758
# Poissons Ratio (z) = 0.10128 0.11513
#
# Static dielectric constant tensor:
#      x y z
#    x 3.189020 0.000000 0.000000 
#    y 0.000000 3.508350 0.000000 
#    z 0.000000 0.000000 3.702760 
# 
# 
# High freq. dielectric constant tensor:
#      x y z
#    x 1.708300 0.000000 0.000000 
#    y 0.000000 1.733180 0.000000 
#    z 0.000000 0.000000 1.741910 
# 
# From -- ./inp_files/4950.got.cif
#   From: 2010.03.12/outbox.cif.g09.slc.cpg/sg31_3_cif.got.tgz:4950.got - 2010.04.14 01:42:59.
