data_PCOD8169377
_publ_section_title
;
Structure prediction by ZEFSAII (Michael W. Deem and Ramdas Pophale) SiO2 
 PCOD8169377
Probable space group: P N C 2
;
_chemical_formula_sum "Si O2"
_cell_formula_units_Z 30
_cell_length_a 7.535658
_cell_length_b 11.306429
_cell_length_c 18.107223
_cell_angle_alpha 90.000000
_cell_angle_beta 90.000000
_cell_angle_gamma 90.000000
_cell_volume 1542.760426
_symmetry_space_group_name_H-M "P N C 2"
_symmetry_group_IT_number 30
_symmetry_cell_setting 'orthorhombic'
loop_
_space_group_symop_operation_xyz
x,y,z
-x,-y,z
-x,1/2+y,1/2+z
x,1/2-y,1/2+z
loop_
_atom_site_type_symbol
_atom_site_label
_atom_site_fract_x
_atom_site_fract_y
_atom_site_fract_z
Si Si1 0.501245 0.360302 0.922680
Si Si2 0.796362 0.727926 0.026148
Si Si3 0.803147 0.355628 0.664685
Si Si4 0.195744 0.491278 0.126822
Si Si5 0.214129 0.128167 0.159190
Si Si6 0.503874 0.260621 0.763887
Si Si7 0.805095 0.290816 0.023384
Si Si8 0.500000 0.500000 0.240848
O O1 0.500000 0.500000 0.940324
O O2 0.492492 0.342047 0.835585
O O3 0.332244 0.295880 0.958373
O O4 0.674344 0.292614 0.953579
O O5 0.767579 0.635937 0.092661
O O6 0.757251 0.849323 0.070927
O O7 0.995132 0.725701 0.993322
O O8 0.745676 0.491155 0.672463
O O9 0.692794 0.280848 0.724238
O O10 0.755921 0.311217 0.582100
O O11 0.011896 0.337529 0.680817
O O12 0.217573 0.582610 0.060604
O O13 0.329346 0.520450 0.191050
O O14 0.000000 0.500000 0.161605
O O15 0.344739 0.205246 0.209232
O O16 0.483023 0.121736 0.787482
#
# Coordination Sequence:
#
# PCOD8169377 Si02
#       8
#     4   4   4   4   4   4   4   2
#     4  12  24  38  55  81 119 155 190 233 283 343
#     4  10  20  36  61  88 111 143 190 241 287 333
#     4  10  21  39  63  89 116 149 192 239 285 336
#     4  10  18  34  64  90 108 137 186 248 294 327
#     4  10  21  39  63  89 116 149 192 239 285 336
#     4  12  25  39  57  85 119 156 192 232 288 346
#     4  10  20  36  61  88 111 143 190 241 287 333
#     4  12  22  38  60  84 116 148 190 242 286 340
#
# _framework density 19.445664000000001
#
# number of rings (size 3 to 8) (size 9 to 14) (size 15 to 20)
#    0.000    1.333    4.000    2.800    0.000    1.067 
#    2.400    0.000    0.000    0.000    0.000    0.000 
#    0.000    0.000    0.000    0.000    0.000    0.000 
#
# Total GULP energy -371974.613841 kJ/mol
# GULP energy per Si atom -12399.153795 kJ/mol
# Density = 1.940140 g / cm^3
# Si number density = 19.445664 Si / 1000 Ang^3
#
#
#
# Elastic Constant Matrix: (Units=GPa)
#
#
# Indices 1 2 3 4 5 6 
#
# 1 115.0538 31.5738 52.3961 0.0000 0.0000 0.0000
# 2 31.5738 88.7687 17.5041 0.0000 0.0000 0.0000
# 3 52.3961 17.5041 80.1754 0.0000 0.0000 0.0000
# 4 0.0000 0.0000 0.0000 9.7105 0.0000 0.0000
# 5 0.0000 0.0000 0.0000 0.0000 -5.1500 0.0000
# 6 0.0000 0.0000 0.0000 0.0000 0.0000 20.1847
#
#
#
# Elastic Compliance Matrix: (Units=1/GPa)
#
#
# Indices 1 2 3 4 5 6 
#
# 1 0.013151 -0.003117 -0.007914 0.000000 0.000000 0.000000
# 2 -0.003117 0.012511 -0.000694 0.000000 0.000000 0.000000
# 3 -0.007914 -0.000694 0.017796 0.000000 0.000000 0.000000
# 4 0.000000 0.000000 0.000000 0.102982 0.000000 0.000000
# 5 0.000000 0.000000 0.000000 0.000000 -0.194173 0.000000
# 6 0.000000 0.000000 0.000000 0.000000 0.000000 0.049543
#
#
# Mechanical properties :
#
#
# Convention : Reuss Voigt Hill
#
# Bulk Modulus (GPa) = 49.98166 54.10512 52.04339
# Shear Modulus (GPa) = 156.59895 17.11728 86.85811
#
# Velocity S-wave (km/s) = 8.98367 2.97014 6.69059
# Velocity P-wave (km/s) = 11.54849 6.29654 9.30091
#
# Compressibility (1/GPa) = 0.02000734
#
# Stress axis : x y z
#
# Youngs Moduli (GPa) = 76.03966 79.93053 56.19207
#
# Poissons Ratio (x) = 0.24915 0.44470
# Poissons Ratio (y) = 0.23702 0.03902
# Poissons Ratio (z) = 0.60177 0.05550
#
# Static dielectric constant tensor:
#      x y z
#    x 4.671380 0.000000 0.000000 
#    y 0.000000 3.762500 0.000000 
#    z 0.000000 0.000000 3.120960 
# 
# 
# High freq. dielectric constant tensor:
#      x y z
#    x 1.773870 0.000000 0.000000 
#    y 0.000000 1.767400 0.000000 
#    z 0.000000 0.000000 1.718540 
# 
# From -- ./inp_files/5190.got.cif
#   From: 2010.03.12/outbox.cif.g09.slc.cpg/sg30_3_cif.got.tgz:5190.got - 2010.04.14 01:38:02.
