data_PCOD8169285
_publ_section_title
;
Structure prediction by ZEFSAII (Michael W. Deem and Ramdas Pophale) SiO2 
 PCOD8169285
Probable space group: P C A 21
;
_chemical_formula_sum "Si O2"
_cell_formula_units_Z 20
_cell_length_a 11.050868
_cell_length_b 7.439154
_cell_length_c 9.358873
_cell_angle_alpha 90.000000
_cell_angle_beta 90.000000
_cell_angle_gamma 90.000000
_cell_volume 769.384610
_symmetry_space_group_name_H-M "P C A 21"
_symmetry_group_IT_number 29
_symmetry_cell_setting 'orthorhombic'
loop_
_space_group_symop_operation_xyz
x,y,z
-x,-y,1/2+z
1/2-x,y,1/2+z
1/2+x,-y,z
loop_
_atom_site_type_symbol
_atom_site_label
_atom_site_fract_x
_atom_site_fract_y
_atom_site_fract_z
Si Si1 0.099386 0.939301 0.867800
Si Si2 0.388722 0.340847 0.396202
Si Si3 0.288226 0.870671 0.083512
Si Si4 0.127263 0.225670 0.435607
Si Si5 0.449931 0.535949 0.125048
O O1 0.207070 0.918517 0.752005
O O2 0.985060 0.809390 0.824072
O O3 0.053025 0.144084 0.876058
O O4 0.151353 0.868505 0.021361
O O5 0.245065 0.317669 0.365251
O O6 0.449227 0.495790 0.295784
O O7 0.419335 0.405407 0.559172
O O8 0.351426 0.677836 0.066233
O O9 0.353969 0.027488 0.997151
O O10 0.087567 0.342507 0.568331
#
# Coordination Sequence:
#
# PCOD8169285 Si02
#       5
#     4   4   4   4   4
#     4  11  25  53  76 115 162 211 260 331 397 475
#     4  11  27  50  78 117 155 210 267 327 398 477
#     4  11  26  47  78 112 157 207 260 325 400 470
#     4  11  26  48  77 116 156 203 267 328 391 478
#     4  12  26  48  77 112 154 209 260 331 394 468
#
# _framework density 25.994803000000001
#
# number of rings (size 3 to 8) (size 9 to 14) (size 15 to 20)
#    0.000    0.800    4.000    1.200    5.600    8.000 
#    3.600    0.000    0.000    2.400    0.000    0.000 
#    0.000    0.000    0.000    0.000    0.000    0.000 
#
# Total GULP energy -247797.767574 kJ/mol
# GULP energy per Si atom -12389.888379 kJ/mol
# Density = 2.593564 g / cm^3
# Si number density = 25.994803 Si / 1000 Ang^3
#
#
#
# Elastic Constant Matrix: (Units=GPa)
#
#
# Indices 1 2 3 4 5 6 
#
# 1 128.8118 71.9827 60.7765 0.0000 0.0000 0.0000
# 2 71.9827 95.0677 35.9818 0.0000 0.0000 0.0000
# 3 60.7765 35.9818 128.9695 0.0000 0.0000 0.0000
# 4 0.0000 0.0000 0.0000 39.9435 0.0000 0.0000
# 5 0.0000 0.0000 0.0000 0.0000 34.8578 0.0000
# 6 0.0000 0.0000 0.0000 0.0000 0.0000 36.1501
#
#
#
# Elastic Compliance Matrix: (Units=1/GPa)
#
#
# Indices 1 2 3 4 5 6 
#
# 1 0.015489 -0.010024 -0.004503 0.000000 0.000000 0.000000
# 2 -0.010024 0.018248 -0.000367 0.000000 0.000000 0.000000
# 3 -0.004503 -0.000367 0.009978 0.000000 0.000000 0.000000
# 4 0.000000 0.000000 0.000000 0.025035 0.000000 0.000000
# 5 0.000000 0.000000 0.000000 0.000000 0.028688 0.000000
# 6 0.000000 0.000000 0.000000 0.000000 0.000000 0.027662
#
#
# Mechanical properties :
#
#
# Convention : Reuss Voigt Hill
#
# Bulk Modulus (GPa) = 71.80093 76.70342 74.25218
# Shear Modulus (GPa) = 31.34190 34.46415 32.90303
#
# Velocity S-wave (km/s) = 3.47608 3.64512 3.56160
# Velocity P-wave (km/s) = 6.61756 6.87656 6.74830
#
# Compressibility (1/GPa) = 0.01392740
#
# Stress axis : x y z
#
# Youngs Moduli (GPa) = 64.56083 54.80161 100.21937
#
# Poissons Ratio (x) = 0.54932 0.45125
# Poissons Ratio (y) = 0.64715 0.03681
# Poissons Ratio (z) = 0.29070 0.02013
#
# Static dielectric constant tensor:
#      x y z
#    x 4.741220 0.000000 0.000000 
#    y 0.000000 4.973380 0.000000 
#    z 0.000000 0.000000 4.432720 
# 
# 
# High freq. dielectric constant tensor:
#      x y z
#    x 2.022470 0.000000 0.000000 
#    y 0.000000 2.077380 0.000000 
#    z 0.000000 0.000000 2.022490 
# 
# From -- ./inp_files/1375.got.cif
#   From: 2010.03.12/outbox.cif.g09.slc.cpg/sg29_1_cif.got.tgz:1375.got - 2010.04.14 03:43:10.
