data_PCOD8169977
_publ_section_title
;
Structure prediction by ZEFSAII (Michael W. Deem and Ramdas Pophale) SiO2 
 PCOD8169977
Probable space group: P M N 21
;
_chemical_formula_sum "Si O2"
_cell_formula_units_Z 32
_cell_length_a 8.810115
_cell_length_b 16.163382
_cell_length_c 11.009080
_cell_angle_alpha 90.000000
_cell_angle_beta 90.000000
_cell_angle_gamma 90.000000
_cell_volume 1567.706800
_symmetry_space_group_name_H-M "P M N 21"
_symmetry_group_IT_number 31
_symmetry_cell_setting 'orthorhombic'
loop_
_space_group_symop_operation_xyz
x,y,z
1/2-x,-y,1/2+z
-x,y,z
1/2+x,-y,1/2+z
loop_
_atom_site_type_symbol
_atom_site_label
_atom_site_fract_x
_atom_site_fract_y
_atom_site_fract_z
Si Si1 0.680368 0.526518 0.774840
Si Si2 0.175742 0.345392 0.077391
Si Si3 0.828898 0.657800 0.912128
Si Si4 0.178166 0.961493 0.802904
Si Si5 0.821410 0.358095 0.810486
Si Si6 0.325580 0.791617 0.754509
Si Si7 0.330919 0.241402 0.643784
Si Si8 0.821151 0.940761 0.077378
O O1 0.500000 0.528284 0.788977
O O2 0.744107 0.586050 0.667949
O O3 0.760181 0.565128 0.895938
O O4 0.737748 0.434686 0.746245
O O5 0.200489 0.251309 0.123570
O O6 0.000000 0.365480 0.066369
O O7 0.248981 0.353825 0.945413
O O8 0.713245 0.722234 0.852298
O O9 0.000000 0.663450 0.857993
O O10 0.832515 0.681311 0.052548
O O11 0.212662 0.867775 0.766563
O O12 0.235009 0.976391 0.944415
O O13 0.000000 0.976764 0.797684
O O14 0.252605 0.018294 0.698909
O O15 0.781860 0.269850 0.749975
O O16 0.000000 0.371770 0.806106
O O17 0.500000 0.820536 0.771212
O O18 0.500000 0.227273 0.696520
O O19 0.275345 0.156206 0.581162
O O20 0.000000 0.953934 0.083976
#
# Coordination Sequence:
#
# PCOD8169977 Si02
#       8
#     4   4   4   4   4   4   4   4
#     4  10  21  38  58  84 115 155 200 245 304 361
#     4   8  19  38  56  78 115 154 189 242 303 359
#     4  10  19  36  61  86 115 152 195 245 297 354
#     4  11  23  41  65  96 129 166 210 263 320 381
#     4  11  23  38  57  85 118 156 203 249 303 367
#     4  10  19  36  63  89 115 153 198 244 302 365
#     4  10  22  41  61  83 120 162 196 246 312 365
#     4  10  23  44  65  91 129 168 211 262 323 386
#
# _framework density 20.411978999999999
#
# number of rings (size 3 to 8) (size 9 to 14) (size 15 to 20)
#    0.000    2.000    1.250    2.625    1.750    3.500 
#    0.000   10.625    0.000    0.000    0.000    0.000 
#    0.000    0.000    0.000    0.000    0.000    0.000 
#
# Total GULP energy -396564.242267 kJ/mol
# GULP energy per Si atom -12392.632571 kJ/mol
# Density = 2.036552 g / cm^3
# Si number density = 20.411979 Si / 1000 Ang^3
#
#
#
# Elastic Constant Matrix: (Units=GPa)
#
#
# Indices 1 2 3 4 5 6 
#
# 1 57.9446 28.8891 46.1364 0.0000 0.0000 0.0000
# 2 28.8891 80.0613 50.2083 0.0000 0.0000 0.0000
# 3 46.1364 50.2083 126.8899 0.0000 0.0000 0.0000
# 4 0.0000 0.0000 0.0000 28.0483 0.0000 0.0000
# 5 0.0000 0.0000 0.0000 0.0000 28.3094 0.0000
# 6 0.0000 0.0000 0.0000 0.0000 0.0000 27.8957
#
#
#
# Elastic Compliance Matrix: (Units=1/GPa)
#
#
# Indices 1 2 3 4 5 6 
#
# 1 0.025451 -0.004496 -0.007475 0.000000 0.000000 0.000000
# 2 -0.004496 0.017407 -0.005253 0.000000 0.000000 0.000000
# 3 -0.007475 -0.005253 0.012677 0.000000 0.000000 0.000000
# 4 0.000000 0.000000 0.000000 0.035653 0.000000 0.000000
# 5 0.000000 0.000000 0.000000 0.000000 0.035324 0.000000
# 6 0.000000 0.000000 0.000000 0.000000 0.000000 0.035848
#
#
# Mechanical properties :
#
#
# Convention : Reuss Voigt Hill
#
# Bulk Modulus (GPa) = 47.42134 57.26260 52.34197
# Shear Modulus (GPa) = 24.52945 26.16146 25.34546
#
# Velocity S-wave (km/s) = 3.47034 3.58393 3.52759
# Velocity P-wave (km/s) = 6.27218 6.72610 6.50310
#
# Compressibility (1/GPa) = 0.02108755
#
# Stress axis : x y z
#
# Youngs Moduli (GPa) = 39.29124 57.44808 78.88214
#
# Poissons Ratio (x) = 0.25829 0.58963
# Poissons Ratio (y) = 0.17666 0.41436
# Poissons Ratio (z) = 0.29369 0.30177
#
# Static dielectric constant tensor:
#      x y z
#    x 3.572610 0.000000 0.000000 
#    y 0.000000 3.749990 0.000000 
#    z 0.000000 0.000000 3.969170 
# 
# 
# High freq. dielectric constant tensor:
#      x y z
#    x 1.788040 0.000000 0.000000 
#    y 0.000000 1.793380 0.000000 
#    z 0.000000 0.000000 1.797220 
# 
# From -- ./inp_files/3631.got.cif
#   From: 2010.03.12/outbox.cif.g09.slc.cpg/sg31_2_cif.got.tgz:3631.got - 2010.04.14 01:42:59.
