data_PCOD8169464
_publ_section_title
;
Structure prediction by ZEFSAII (Michael W. Deem and Ramdas Pophale) SiO2 
 PCOD8169464
Probable space group: P N C 2
;
_chemical_formula_sum "Si O2"
_cell_formula_units_Z 32
_cell_length_a 14.685881
_cell_length_b 10.907331
_cell_length_c 8.811053
_cell_angle_alpha 90.000000
_cell_angle_beta 90.000000
_cell_angle_gamma 90.000000
_cell_volume 1411.387644
_symmetry_space_group_name_H-M "P N C 2"
_symmetry_group_IT_number 30
_symmetry_cell_setting 'orthorhombic'
loop_
_space_group_symop_operation_xyz
x,y,z
-x,-y,z
-x,1/2+y,1/2+z
x,1/2-y,1/2+z
loop_
_atom_site_type_symbol
_atom_site_label
_atom_site_fract_x
_atom_site_fract_y
_atom_site_fract_z
Si Si1 0.509708 0.362469 0.883250
Si Si2 0.740475 0.626198 0.642115
Si Si3 0.005058 0.644557 0.550382
Si Si4 0.752596 0.969257 0.808842
Si Si5 0.791483 0.297869 0.460463
Si Si6 0.703230 0.124983 0.265799
Si Si7 0.893305 0.786296 0.766368
Si Si8 0.596357 0.681027 0.177089
O O1 0.500000 0.500000 0.816453
O O2 0.612040 0.321739 0.843931
O O3 0.446093 0.260273 0.810877
O O4 0.481813 0.364098 0.061361
O O5 0.772794 0.574520 0.481703
O O6 0.695860 0.521138 0.747692
O O7 0.823122 0.673191 0.748380
O O8 0.669524 0.731359 0.596533
O O9 0.105450 0.673772 0.497648
O O10 0.000000 0.500000 0.595407
O O11 0.985326 0.742875 0.683298
O O12 0.926005 0.680360 0.433610
O O13 0.835051 0.906520 0.709984
O O14 0.652056 0.934482 0.746972
O O15 0.760534 0.115551 0.817378
O O16 0.781396 0.161875 0.388624
O O17 0.724272 0.315598 0.602493
#
# Coordination Sequence:
#
# PCOD8169464 Si02
#       8
#     4   4   4   4   4   4   4   4
#     4  12  25  44  68 105 136 174 236 285 340 420
#     4  10  20  42  70 100 132 183 226 279 354 406
#     4  12  23  44  68 103 142 183 239 288 347 409
#     4  10  21  42  71  99 135 182 229 277 353 411
#     4  11  24  45  67  98 142 190 225 286 356 418
#     4  11  24  45  68  98 142 184 224 291 355 412
#     4  11  22  41  71 100 136 181 233 290 333 423
#     4  11  23  41  69  99 135 173 224 288 336 415
#
# _framework density 22.672723000000001
#
# number of rings (size 3 to 8) (size 9 to 14) (size 15 to 20)
#    0.000    1.000    5.000    2.250    0.000    2.000 
#    2.250    1.250    0.000    0.000    0.000    0.000 
#    0.000    0.000    0.000    0.000    0.000    0.000 
#
# Total GULP energy -396426.663206 kJ/mol
# GULP energy per Si atom -12388.333225 kJ/mol
# Density = 2.262112 g / cm^3
# Si number density = 22.672723 Si / 1000 Ang^3
#
#
#
# Elastic Constant Matrix: (Units=GPa)
#
#
# Indices 1 2 3 4 5 6 
#
# 1 109.6243 39.5307 35.6170 0.0000 0.0000 0.0000
# 2 39.5307 56.9893 29.4595 0.0000 0.0000 0.0000
# 3 35.6170 29.4595 63.8501 0.0000 0.0000 0.0000
# 4 0.0000 0.0000 0.0000 33.3387 0.0000 0.0000
# 5 0.0000 0.0000 0.0000 0.0000 44.0786 0.0000
# 6 0.0000 0.0000 0.0000 0.0000 0.0000 32.9672
#
#
#
# Elastic Compliance Matrix: (Units=1/GPa)
#
#
# Indices 1 2 3 4 5 6 
#
# 1 0.012909 -0.006871 -0.004031 0.000000 0.000000 0.000000
# 2 -0.006871 0.026700 -0.008486 0.000000 0.000000 0.000000
# 3 -0.004031 -0.008486 0.021826 0.000000 0.000000 0.000000
# 4 0.000000 0.000000 0.000000 0.029995 0.000000 0.000000
# 5 0.000000 0.000000 0.000000 0.000000 0.022687 0.000000
# 6 0.000000 0.000000 0.000000 0.000000 0.000000 0.030333
#
#
# Mechanical properties :
#
#
# Convention : Reuss Voigt Hill
#
# Bulk Modulus (GPa) = 44.13301 48.85312 46.49307
# Shear Modulus (GPa) = 26.20831 30.46734 28.33783
#
# Velocity S-wave (km/s) = 3.40360 3.66975 3.53918
# Velocity P-wave (km/s) = 5.91215 6.28887 6.10342
#
# Compressibility (1/GPa) = 0.02265878
#
# Stress axis : x y z
#
# Youngs Moduli (GPa) = 77.46292 37.45330 45.81757
#
# Poissons Ratio (x) = 0.25734 0.18469
# Poissons Ratio (y) = 0.53224 0.38882
# Poissons Ratio (z) = 0.31226 0.31784
#
# Static dielectric constant tensor:
#      x y z
#    x 4.129760 0.000000 0.000000 
#    y 0.000000 4.492120 0.000000 
#    z 0.000000 0.000000 3.917290 
# 
# 
# High freq. dielectric constant tensor:
#      x y z
#    x 1.906230 0.000000 0.000000 
#    y 0.000000 1.894490 0.000000 
#    z 0.000000 0.000000 1.876060 
# 
# From -- ./inp_files/2685.got.cif
#   From: 2010.03.12/outbox.cif.g09.slc.cpg/sg30_2_cif.got.tgz:2685.got - 2010.04.14 01:38:02.
