data_PCOD8169702
_publ_section_title
;
Structure prediction by ZEFSAII (Michael W. Deem and Ramdas Pophale) SiO2 
 PCOD8169702
Probable space group: P M N 21
;
_chemical_formula_sum "Si O2"
_cell_formula_units_Z 24
_cell_length_a 8.918994
_cell_length_b 9.242179
_cell_length_c 14.943401
_cell_angle_alpha 90.000000
_cell_angle_beta 90.000000
_cell_angle_gamma 90.000000
_cell_volume 1231.798577
_symmetry_space_group_name_H-M "P M N 21"
_symmetry_group_IT_number 31
_symmetry_cell_setting 'orthorhombic'
loop_
_space_group_symop_operation_xyz
x,y,z
1/2-x,-y,1/2+z
-x,y,z
1/2+x,-y,1/2+z
loop_
_atom_site_type_symbol
_atom_site_label
_atom_site_fract_x
_atom_site_fract_y
_atom_site_fract_z
Si Si1 0.321501 0.504170 0.495710
Si Si2 0.823477 0.409984 0.323326
Si Si3 0.830268 0.996224 0.699856
Si Si4 0.830038 0.806294 0.067875
Si Si5 0.329103 0.126553 0.378146
Si Si6 0.821983 0.672980 0.648686
O O1 0.500000 0.519678 0.491184
O O2 0.253547 0.516982 0.395626
O O3 0.269955 0.351628 0.539955
O O4 0.249550 0.631892 0.553763
O O5 0.792578 0.246844 0.354608
O O6 0.749262 0.430681 0.225369
O O7 0.000000 0.440859 0.317684
O O8 0.807879 0.006047 0.808390
O O9 0.774529 0.839051 0.666885
O O10 0.000000 0.016287 0.671287
O O11 0.747501 0.129789 0.654935
O O12 0.000000 0.791586 0.096487
O O13 0.808471 0.915913 0.982469
O O14 0.500000 0.190320 0.365173
O O15 0.000000 0.651981 0.647712
#
# Coordination Sequence:
#
# PCOD8169702 Si02
#       6
#     4   4   4   4   4   4
#     4  10  20  35  53  75 102 134 170 210 251 297
#     4  10  18  30  51  76  99 130 168 206 250 304
#     4   9  18  32  51  73  99 129 164 204 247 294
#     4   9  18  32  51  73  99 129 164 204 247 294
#     4   8  16  32  49  68  97 132 166 202 242 294
#     4  10  20  35  53  75 102 134 170 210 251 297
#
# _framework density 19.483706999999999
#
# number of rings (size 3 to 8) (size 9 to 14) (size 15 to 20)
#    0.000    2.667    0.000    4.500    0.000    6.667 
#    0.000    1.667    0.000    8.000    0.000    0.000 
#    0.000    0.000    0.000    0.000    0.000    0.000 
#
# Total GULP energy -297403.938558 kJ/mol
# GULP energy per Si atom -12391.830773 kJ/mol
# Density = 1.943936 g / cm^3
# Si number density = 19.483707 Si / 1000 Ang^3
#
#
#
# Elastic Constant Matrix: (Units=GPa)
#
#
# Indices 1 2 3 4 5 6 
#
# 1 74.6673 4.7783 5.7494 0.0000 0.0000 0.0000
# 2 4.7783 16.8602 -11.6304 0.0000 0.0000 0.0000
# 3 5.7494 -11.6304 28.1652 0.0000 0.0000 0.0000
# 4 0.0000 0.0000 0.0000 31.9557 0.0000 0.0000
# 5 0.0000 0.0000 0.0000 0.0000 33.0025 0.0000
# 6 0.0000 0.0000 0.0000 0.0000 0.0000 21.2492
#
#
#
# Elastic Compliance Matrix: (Units=1/GPa)
#
#
# Indices 1 2 3 4 5 6 
#
# 1 0.014440 -0.008566 -0.006485 0.000000 0.000000 0.000000
# 2 -0.008566 0.088016 0.038094 0.000000 0.000000 0.000000
# 3 -0.006485 0.038094 0.052559 0.000000 0.000000 0.000000
# 4 0.000000 0.000000 0.000000 0.031293 0.000000 0.000000
# 5 0.000000 0.000000 0.000000 0.000000 0.030301 0.000000
# 6 0.000000 0.000000 0.000000 0.000000 0.000000 0.047061
#
#
# Mechanical properties :
#
#
# Convention : Reuss Voigt Hill
#
# Bulk Modulus (GPa) = 4.97262 13.05415 9.01339
# Shear Modulus (GPa) = 17.56741 25.29449 21.43095
#
# Velocity S-wave (km/s) = 3.00600 3.60702 3.32014
# Velocity P-wave (km/s) = 3.82175 4.90530 4.39703
#
# Compressibility (1/GPa) = 0.20110110
#
# Stress axis : x y z
#
# Youngs Moduli (GPa) = 69.25084 11.36153 19.02633
#
# Poissons Ratio (x) = 0.09732 0.12338
# Poissons Ratio (y) = 0.59319 -0.72478
# Poissons Ratio (z) = 0.44908 -0.43280
#
# Static dielectric constant tensor:
#      x y z
#    x 3.435750 0.000000 0.000000 
#    y 0.000000 3.097110 0.000000 
#    z 0.000000 0.000000 3.904240 
# 
# 
# High freq. dielectric constant tensor:
#      x y z
#    x 1.757430 0.000000 0.000000 
#    y 0.000000 1.705210 0.000000 
#    z 0.000000 0.000000 1.773880 
# 
# From -- ./inp_files/3458.got.cif
#   From: 2010.03.12/outbox.cif.g09.slc.cpg/sg31_2_cif.got.tgz:3458.got - 2010.04.14 01:42:59.
