data_PCOD8169778
_publ_section_title
;
Structure prediction by ZEFSAII (Michael W. Deem and Ramdas Pophale) SiO2 
 PCOD8169778
Probable space group: P M N 21
;
_chemical_formula_sum "Si O2"
_cell_formula_units_Z 32
_cell_length_a 9.254874
_cell_length_b 20.418550
_cell_length_c 9.370573
_cell_angle_alpha 90.000000
_cell_angle_beta 90.000000
_cell_angle_gamma 90.000000
_cell_volume 1770.767558
_symmetry_space_group_name_H-M "P M N 21"
_symmetry_group_IT_number 31
_symmetry_cell_setting 'orthorhombic'
loop_
_space_group_symop_operation_xyz
x,y,z
1/2-x,-y,1/2+z
-x,y,z
1/2+x,-y,1/2+z
loop_
_atom_site_type_symbol
_atom_site_label
_atom_site_fract_x
_atom_site_fract_y
_atom_site_fract_z
Si Si1 0.339882 0.668561 0.080590
Si Si2 0.339747 0.707765 0.410847
Si Si3 0.667978 0.565850 0.441249
Si Si4 0.829878 0.190663 0.538687
Si Si5 0.668266 0.069193 0.472357
Si Si6 0.665474 0.179053 0.831736
Si Si7 0.662717 0.035172 0.799244
Si Si8 0.331482 0.451189 0.651827
O O1 0.500000 0.643963 0.038137
O O2 0.337316 0.689845 0.244716
O O3 0.300548 0.733960 0.988107
O O4 0.228827 0.609276 0.056449
O O5 0.500000 0.730053 0.458781
O O6 0.293193 0.640383 0.490711
O O7 0.229230 0.767707 0.444647
O O8 0.500000 0.562442 0.396878
O O9 0.703992 0.518664 0.572105
O O10 0.758929 0.543466 0.305266
O O11 0.750877 0.137570 0.437841
O O12 0.765232 0.182507 0.694689
O O13 0.000000 0.175926 0.543532
O O14 0.500000 0.081234 0.446501
O O15 0.723009 0.015005 0.362487
O O16 0.699957 0.045875 0.633149
O O17 0.500000 0.197339 0.794370
O O18 0.674497 0.104069 0.886400
O O19 0.500000 0.007460 0.815390
O O20 0.500000 0.439412 0.672340
#
# Coordination Sequence:
#
# PCOD8169778 Si02
#       8
#     4   4   4   4   4   4   4   4
#     4   8  15  27  43  65  92 120 150 188 232 274
#     4   8  14  26  43  62  88 120 150 185 232 276
#     4   9  19  33  46  67  98 124 152 192 233 277
#     4   9  16  27  44  65  91 122 152 186 232 276
#     4  10  20  32  49  73  96 122 158 194 228 272
#     4   9  16  26  42  67  94 116 150 196 230 266
#     4   9  19  33  47  68  98 125 151 189 233 276
#     4  10  19  30  48  71  93 123 159 192 230 275
#
# _framework density 18.071259999999999
#
# number of rings (size 3 to 8) (size 9 to 14) (size 15 to 20)
#    0.000    3.000    0.000    3.750    0.000    9.000 
#    0.000    0.000    0.000    1.500    0.000    5.250 
#    0.000    0.000    0.000    0.000    0.000    0.000 
#
# Total GULP energy -396505.689420 kJ/mol
# GULP energy per Si atom -12390.802794 kJ/mol
# Density = 1.803013 g / cm^3
# Si number density = 18.071260 Si / 1000 Ang^3
#
#
#
# Elastic Constant Matrix: (Units=GPa)
#
#
# Indices 1 2 3 4 5 6 
#
# 1 74.2198 4.7384 7.5304 0.0000 0.0000 0.0000
# 2 4.7384 16.4341 -7.9611 0.0000 0.0000 0.0000
# 3 7.5304 -7.9611 13.4062 0.0000 0.0000 0.0000
# 4 0.0000 0.0000 0.0000 20.8285 0.0000 0.0000
# 5 0.0000 0.0000 0.0000 0.0000 13.2193 0.0000
# 6 0.0000 0.0000 0.0000 0.0000 0.0000 35.5891
#
#
#
# Elastic Compliance Matrix: (Units=1/GPa)
#
#
# Indices 1 2 3 4 5 6 
#
# 1 0.015938 -0.012539 -0.016399 0.000000 0.000000 0.000000
# 2 -0.012539 0.095288 0.063629 0.000000 0.000000 0.000000
# 3 -0.016399 0.063629 0.121589 0.000000 0.000000 0.000000
# 4 0.000000 0.000000 0.000000 0.048011 0.000000 0.000000
# 5 0.000000 0.000000 0.000000 0.000000 0.075647 0.000000
# 6 0.000000 0.000000 0.000000 0.000000 0.000000 0.028098
#
#
# Mechanical properties :
#
#
# Convention : Reuss Voigt Hill
#
# Bulk Modulus (GPa) = 3.30909 12.51948 7.91429
# Shear Modulus (GPa) = 12.02149 20.57755 16.29952
#
# Velocity S-wave (km/s) = 2.58200 3.37811 3.00652
# Velocity P-wave (km/s) = 3.27476 4.70727 4.05478
#
# Compressibility (1/GPa) = 0.30219759
#
# Stress axis : x y z
#
# Youngs Moduli (GPa) = 62.74364 10.49447 8.22442
#
# Poissons Ratio (x) = 0.13159 0.13487
# Poissons Ratio (y) = 0.78676 -0.52331
# Poissons Ratio (z) = 1.02892 -0.66776
#
# Static dielectric constant tensor:
#      x y z
#    x 3.478870 0.000000 0.000000 
#    y 0.000000 4.252680 0.000000 
#    z 0.000000 0.000000 2.724170 
# 
# 
# High freq. dielectric constant tensor:
#      x y z
#    x 1.708870 0.000000 0.000000 
#    y 0.000000 1.720310 0.000000 
#    z 0.000000 0.000000 1.627620 
# 
# From -- ./inp_files/3766.got.cif
#   From: 2010.03.12/outbox.cif.g09.slc.cpg/sg31_2_cif.got.tgz:3766.got - 2010.04.14 01:42:59.
