data_PCOD8169593
_publ_section_title
;
Structure prediction by ZEFSAII (Michael W. Deem and Ramdas Pophale) SiO2 
 PCOD8169593
Probable space group: P N C 2
;
_chemical_formula_sum "Si O2"
_cell_formula_units_Z 20
_cell_length_a 10.066440
_cell_length_b 9.519345
_cell_length_c 9.667151
_cell_angle_alpha 90.000000
_cell_angle_beta 90.000000
_cell_angle_gamma 90.000000
_cell_volume 926.363593
_symmetry_space_group_name_H-M "P N C 2"
_symmetry_group_IT_number 30
_symmetry_cell_setting 'orthorhombic'
loop_
_space_group_symop_operation_xyz
x,y,z
-x,-y,z
-x,1/2+y,1/2+z
x,1/2-y,1/2+z
loop_
_atom_site_type_symbol
_atom_site_label
_atom_site_fract_x
_atom_site_fract_y
_atom_site_fract_z
Si Si1 0.871159 0.575318 0.913220
Si Si2 0.590309 0.876951 0.311814
Si Si3 0.512812 0.343129 0.117346
Si Si4 0.035120 0.840468 0.912322
Si Si5 0.183290 0.663026 0.123129
O O1 0.740411 0.565014 0.819780
O O2 0.000000 0.500000 0.842180
O O3 0.905344 0.740213 0.932986
O O4 0.840096 0.492589 0.056871
O O5 0.588738 0.748625 0.206344
O O6 0.530235 0.828397 0.458331
O O7 0.500000 0.000000 0.248887
O O8 0.500000 0.500000 0.171360
O O9 0.663650 0.300870 0.148781
O O10 0.096226 0.827929 0.760181
O O11 0.143227 0.787066 0.020103
O O12 0.000000 0.000000 0.947935
#
# Coordination Sequence:
#
# PCOD8169593 Si02
#       5
#     4   4   4   4   4
#     4  10  23  44  71  96 140 181 220 282 346 406
#     4  11  24  46  70 103 133 180 229 284 347 410
#     4  11  24  44  74  97 137 178 229 286 347 409
#     4  11  25  41  70 100 137 180 235 280 343 411
#     4  11  23  47  68  99 141 183 225 287 349 408
#
# _framework density 21.589794000000001
#
# number of rings (size 3 to 8) (size 9 to 14) (size 15 to 20)
#    0.000    1.200    4.000    3.000    5.600    6.400 
#    3.600    0.000    0.000    0.000    0.000    0.000 
#    0.000    0.000    0.000    0.000    0.000    0.000 
#
# Total GULP energy -247960.261709 kJ/mol
# GULP energy per Si atom -12398.013085 kJ/mol
# Density = 2.154066 g / cm^3
# Si number density = 21.589794 Si / 1000 Ang^3
#
#
#
# Elastic Constant Matrix: (Units=GPa)
#
#
# Indices 1 2 3 4 5 6 
#
# 1 134.7167 30.6762 18.7476 0.0000 0.0000 0.0000
# 2 30.6762 146.3712 52.4309 0.0000 0.0000 0.0000
# 3 18.7476 52.4309 86.8524 0.0000 0.0000 0.0000
# 4 0.0000 0.0000 0.0000 15.7243 0.0000 0.0000
# 5 0.0000 0.0000 0.0000 0.0000 28.6208 0.0000
# 6 0.0000 0.0000 0.0000 0.0000 0.0000 31.1751
#
#
#
# Elastic Compliance Matrix: (Units=1/GPa)
#
#
# Indices 1 2 3 4 5 6 
#
# 1 0.007849 -0.001325 -0.000895 0.000000 0.000000 0.000000
# 2 -0.001325 0.008940 -0.005111 0.000000 0.000000 0.000000
# 3 -0.000895 -0.005111 0.014792 0.000000 0.000000 0.000000
# 4 0.000000 0.000000 0.000000 0.063596 0.000000 0.000000
# 5 0.000000 0.000000 0.000000 0.000000 0.034940 0.000000
# 6 0.000000 0.000000 0.000000 0.000000 0.000000 0.032077
#
#
# Mechanical properties :
#
#
# Convention : Reuss Voigt Hill
#
# Bulk Modulus (GPa) = 59.09785 63.51662 61.30723
# Shear Modulus (GPa) = 27.39792 32.84308 30.12050
#
# Velocity S-wave (km/s) = 3.56620 3.90453 3.73919
# Velocity P-wave (km/s) = 6.66254 7.05767 6.86295
#
# Compressibility (1/GPa) = 0.01692109
#
# Stress axis : x y z
#
# Youngs Moduli (GPa) = 127.40316 111.85189 67.60210
#
# Poissons Ratio (x) = 0.14815 0.06048
# Poissons Ratio (y) = 0.16875 0.34553
# Poissons Ratio (z) = 0.11399 0.57170
#
# Static dielectric constant tensor:
#      x y z
#    x 4.137350 0.000000 0.000000 
#    y 0.000000 4.200330 0.000000 
#    z 0.000000 0.000000 3.664840 
# 
# 
# High freq. dielectric constant tensor:
#      x y z
#    x 1.863980 0.000000 0.000000 
#    y 0.000000 1.855210 0.000000 
#    z 0.000000 0.000000 1.829210 
# 
# From -- ./inp_files/2265.got.cif
#   From: 2010.03.12/outbox.cif.g09.slc.cpg/sg30_2_cif.got.tgz:2265.got - 2010.04.14 01:38:02.
