data_PCOD8169684
_publ_section_title
;
Structure prediction by ZEFSAII (Michael W. Deem and Ramdas Pophale) SiO2 
 PCOD8169684
Probable space group: P M N 21
;
_chemical_formula_sum "Si O2"
_cell_formula_units_Z 32
_cell_length_a 9.502002
_cell_length_b 11.092323
_cell_length_c 16.777987
_cell_angle_alpha 90.000000
_cell_angle_beta 90.000000
_cell_angle_gamma 90.000000
_cell_volume 1768.387671
_symmetry_space_group_name_H-M "P M N 21"
_symmetry_group_IT_number 31
_symmetry_cell_setting 'orthorhombic'
loop_
_space_group_symop_operation_xyz
x,y,z
1/2-x,-y,1/2+z
-x,y,z
1/2+x,-y,1/2+z
loop_
_atom_site_type_symbol
_atom_site_label
_atom_site_fract_x
_atom_site_fract_y
_atom_site_fract_z
Si Si1 0.331697 0.322564 0.567290
Si Si2 0.340469 0.442844 0.097880
Si Si3 0.154588 0.105448 0.136694
Si Si4 0.844921 0.851774 0.198686
Si Si5 0.161341 0.732455 0.737484
Si Si6 0.155458 0.795683 0.508774
Si Si7 0.663650 0.184808 0.407623
Si Si8 0.336682 0.051525 0.860853
O O1 0.500000 0.332342 0.568593
O O2 0.265774 0.453917 0.572150
O O3 0.272325 0.252967 0.646087
O O4 0.283216 0.254573 0.486462
O O5 0.500000 0.492429 0.102383
O O6 0.297091 0.385177 0.184409
O O7 0.325049 0.345692 0.026645
O O8 0.244049 0.155160 0.210703
O O9 0.000000 0.165478 0.139405
O O10 0.142601 0.962770 0.138707
O O11 0.226172 0.130269 0.053276
O O12 0.766706 0.897125 0.278958
O O13 0.000000 0.806469 0.224402
O O14 0.184151 0.721826 0.832812
O O15 0.000000 0.763505 0.717250
O O16 0.172838 0.831049 0.417013
O O17 0.000000 0.834820 0.539074
O O18 0.500000 0.148078 0.415238
O O19 0.752452 0.062780 0.395012
O O20 0.500000 0.011174 0.847266
#
# Coordination Sequence:
#
# PCOD8169684 Si02
#       8
#     4   4   4   4   4   4   4   4
#     4  10  21  37  54  76 107 144 179 219 270 314
#     4   9  19  37  54  72 101 138 183 223 257 309
#     4  10  17  29  53  80 105 131 167 215 261 311
#     4   9  18  32  50  75 109 138 166 212 266 313
#     4   9  18  34  55  77 105 141 175 213 265 319
#     4   9  19  34  53  75 103 140 173 211 265 316
#     4  10  20  35  56  81 111 141 173 219 273 324
#     4  10  19  34  55  80 109 139 174 214 261 324
#
# _framework density 18.095580000000002
#
# number of rings (size 3 to 8) (size 9 to 14) (size 15 to 20)
#    0.000    2.500    1.250    1.875    0.000    4.000 
#    2.250    1.875    0.000    0.000    0.000    0.000 
#    0.000    0.000    0.000    0.000    0.000    0.000 
#
# Total GULP energy -396476.425818 kJ/mol
# GULP energy per Si atom -12389.888307 kJ/mol
# Density = 1.805439 g / cm^3
# Si number density = 18.095580 Si / 1000 Ang^3
#
#
#
# Elastic Constant Matrix: (Units=GPa)
#
#
# Indices 1 2 3 4 5 6 
#
# 1 62.1711 39.3773 37.1120 0.0000 0.0000 0.0000
# 2 39.3773 98.2765 67.1496 0.0000 0.0000 0.0000
# 3 37.1120 67.1496 118.5070 0.0000 0.0000 0.0000
# 4 0.0000 0.0000 0.0000 27.2918 0.0000 0.0000
# 5 0.0000 0.0000 0.0000 0.0000 17.8731 0.0000
# 6 0.0000 0.0000 0.0000 0.0000 0.0000 25.5966
#
#
#
# Elastic Compliance Matrix: (Units=1/GPa)
#
#
# Indices 1 2 3 4 5 6 
#
# 1 0.022242 -0.006776 -0.003126 0.000000 0.000000 0.000000
# 2 -0.006776 0.018668 -0.008456 0.000000 0.000000 0.000000
# 3 -0.003126 -0.008456 0.014209 0.000000 0.000000 0.000000
# 4 0.000000 0.000000 0.000000 0.036641 0.000000 0.000000
# 5 0.000000 0.000000 0.000000 0.000000 0.055950 0.000000
# 6 0.000000 0.000000 0.000000 0.000000 0.000000 0.039068
#
#
# Mechanical properties :
#
#
# Convention : Reuss Voigt Hill
#
# Bulk Modulus (GPa) = 54.33843 62.91469 58.62656
# Shear Modulus (GPa) = 21.77433 23.17336 22.47385
#
# Velocity S-wave (km/s) = 3.47262 3.58244 3.52796
# Velocity P-wave (km/s) = 6.79504 7.20800 7.00456
#
# Compressibility (1/GPa) = 0.01840318
#
# Stress axis : x y z
#
# Youngs Moduli (GPa) = 44.95908 53.56731 70.38011
#
# Poissons Ratio (x) = 0.36298 0.22000
# Poissons Ratio (y) = 0.30465 0.59512
# Poissons Ratio (z) = 0.14054 0.45296
#
# Static dielectric constant tensor:
#      x y z
#    x 3.306830 0.000000 0.000000 
#    y 0.000000 3.099450 0.000000 
#    z 0.000000 0.000000 3.588070 
# 
# 
# High freq. dielectric constant tensor:
#      x y z
#    x 1.688720 0.000000 0.000000 
#    y 0.000000 1.678970 0.000000 
#    z 0.000000 0.000000 1.711280 
# 
# From -- ./inp_files/5101.got.cif
#   From: 2010.03.12/outbox.cif.g09.slc.cpg/sg31_3_cif.got.tgz:5101.got - 2010.04.14 01:42:59.
