data_PCOD8169898
_publ_section_title
;
Structure prediction by ZEFSAII (Michael W. Deem and Ramdas Pophale) SiO2 
 PCOD8169898
Probable space group: P M N 21
;
_chemical_formula_sum "Si O2"
_cell_formula_units_Z 32
_cell_length_a 8.996652
_cell_length_b 12.124728
_cell_length_c 14.433759
_cell_angle_alpha 90.000000
_cell_angle_beta 90.000000
_cell_angle_gamma 90.000000
_cell_volume 1574.462699
_symmetry_space_group_name_H-M "P M N 21"
_symmetry_group_IT_number 31
_symmetry_cell_setting 'orthorhombic'
loop_
_space_group_symop_operation_xyz
x,y,z
1/2-x,-y,1/2+z
-x,y,z
1/2+x,-y,1/2+z
loop_
_atom_site_type_symbol
_atom_site_label
_atom_site_fract_x
_atom_site_fract_y
_atom_site_fract_z
Si Si1 0.675294 0.052352 0.011710
Si Si2 0.672435 0.119830 0.809255
Si Si3 0.825798 0.677522 0.740633
Si Si4 0.334556 0.705786 0.197462
Si Si5 0.177019 0.403513 0.410562
Si Si6 0.323102 0.901239 0.701842
Si Si7 0.673949 0.495892 0.095192
Si Si8 0.835337 0.186468 0.505421
O O1 0.500000 0.047762 0.036407
O O2 0.761773 0.104766 0.097530
O O3 0.744370 0.930848 0.991453
O O4 0.705346 0.120462 0.918733
O O5 0.500000 0.123587 0.787269
O O6 0.740114 0.235644 0.777000
O O7 0.734810 0.010013 0.756851
O O8 0.764766 0.585865 0.813950
O O9 0.739147 0.792223 0.752993
O O10 0.794557 0.624207 0.638663
O O11 0.000000 0.696878 0.755268
O O12 0.500000 0.683791 0.236642
O O13 0.257557 0.592212 0.161141
O O14 0.340008 0.792297 0.114194
O O15 0.227229 0.495584 0.487395
O O16 0.238731 0.287069 0.450791
O O17 0.000000 0.407136 0.393749
O O18 0.500000 0.894820 0.701313
O O19 0.500000 0.525493 0.092750
O O20 0.000000 0.174270 0.463615
#
# Coordination Sequence:
#
# PCOD8169898 Si02
#       8
#     4   4   4   4   4   4   4   4
#     4  10  19  34  54  79 111 149 184 222 278 340
#     4  10  21  35  54  82 116 147 180 228 285 337
#     4  11  22  38  58  84 117 152 189 232 280 333
#     4   9  16  32  58  79 100 137 184 227 272 328
#     4   9  17  35  61  85 107 145 193 233 279 335
#     4  11  23  39  57  82 116 153 189 231 277 330
#     4   8  18  37  60  82 109 147 187 230 282 335
#     4   8  14  28  54  79 102 138 182 225 271 326
#
# _framework density 20.324394000000002
#
# number of rings (size 3 to 8) (size 9 to 14) (size 15 to 20)
#    0.000    2.500    1.250    3.000    0.000    3.000 
#    2.250    6.875    0.000    0.000    0.000    0.000 
#    0.000    0.000    0.000    0.000    0.000    0.000 
#
# Total GULP energy -396508.465771 kJ/mol
# GULP energy per Si atom -12390.889555 kJ/mol
# Density = 2.027814 g / cm^3
# Si number density = 20.324394 Si / 1000 Ang^3
#
#
#
# Elastic Constant Matrix: (Units=GPa)
#
#
# Indices 1 2 3 4 5 6 
#
# 1 50.0205 11.7756 29.8818 0.0000 0.0000 0.0000
# 2 11.7756 36.2995 3.7697 0.0000 0.0000 0.0000
# 3 29.8818 3.7697 87.8693 0.0000 0.0000 0.0000
# 4 0.0000 0.0000 0.0000 28.7514 0.0000 0.0000
# 5 0.0000 0.0000 0.0000 0.0000 29.9477 0.0000
# 6 0.0000 0.0000 0.0000 0.0000 0.0000 21.4994
#
#
#
# Elastic Compliance Matrix: (Units=1/GPa)
#
#
# Indices 1 2 3 4 5 6 
#
# 1 0.027166 -0.007888 -0.008900 0.000000 0.000000 0.000000
# 2 -0.007888 0.029962 0.001397 0.000000 0.000000 0.000000
# 3 -0.008900 0.001397 0.014347 0.000000 0.000000 0.000000
# 4 0.000000 0.000000 0.000000 0.034781 0.000000 0.000000
# 5 0.000000 0.000000 0.000000 0.000000 0.033392 0.000000
# 6 0.000000 0.000000 0.000000 0.000000 0.000000 0.046513
#
#
# Mechanical properties :
#
#
# Convention : Reuss Voigt Hill
#
# Bulk Modulus (GPa) = 24.57406 29.44927 27.01166
# Shear Modulus (GPa) = 21.69133 24.62384 23.15759
#
# Velocity S-wave (km/s) = 3.27043 3.48450 3.37916
# Velocity P-wave (km/s) = 5.13597 5.54166 5.34267
#
# Compressibility (1/GPa) = 0.04069332
#
# Stress axis : x y z
#
# Youngs Moduli (GPa) = 36.81138 33.37506 69.70012
#
# Poissons Ratio (x) = 0.26327 0.62032
# Poissons Ratio (y) = 0.29038 -0.09738
# Poissons Ratio (z) = 0.32761 -0.04663
#
# Static dielectric constant tensor:
#      x y z
#    x 3.285590 0.000000 0.000000 
#    y 0.000000 3.616430 0.000000 
#    z 0.000000 0.000000 3.739080 
# 
# 
# High freq. dielectric constant tensor:
#      x y z
#    x 1.752150 0.000000 0.000000 
#    y 0.000000 1.787570 0.000000 
#    z 0.000000 0.000000 1.798650 
# 
# From -- ./inp_files/5046.got.cif
#   From: 2010.03.12/outbox.cif.g09.slc.cpg/sg31_3_cif.got.tgz:5046.got - 2010.04.14 01:42:59.
