data_PCOD8169646
_publ_section_title
;
Structure prediction by ZEFSAII (Michael W. Deem and Ramdas Pophale) SiO2 
 PCOD8169646
Probable space group: P N C 2
;
_chemical_formula_sum "Si O2"
_cell_formula_units_Z 24
_cell_length_a 8.070854
_cell_length_b 13.464263
_cell_length_c 8.451273
_cell_angle_alpha 90.000000
_cell_angle_beta 90.000000
_cell_angle_gamma 90.000000
_cell_volume 918.383787
_symmetry_space_group_name_H-M "P N C 2"
_symmetry_group_IT_number 30
_symmetry_cell_setting 'orthorhombic'
loop_
_space_group_symop_operation_xyz
x,y,z
-x,-y,z
-x,1/2+y,1/2+z
x,1/2-y,1/2+z
loop_
_atom_site_type_symbol
_atom_site_label
_atom_site_fract_x
_atom_site_fract_y
_atom_site_fract_z
Si Si1 0.191513 0.004659 0.468960
Si Si2 0.604823 0.325360 0.011375
Si Si3 0.604824 0.825360 0.801259
Si Si4 0.116788 0.312682 0.792509
Si Si5 0.883211 0.187319 0.020124
Si Si6 0.808487 0.004660 0.843673
O O1 0.237179 0.108588 0.385449
O O2 0.312221 0.915668 0.407398
O O3 0.208347 0.000000 0.656317
O O4 0.000000 0.000000 0.416096
O O5 0.499999 0.371797 0.156316
O O6 0.500000 0.250000 0.906316
O O7 0.754860 0.265382 0.095683
O O8 0.754863 0.765383 0.716953
O O9 0.687779 0.915668 0.905236
O O10 0.999998 0.250002 0.906317
O O11 0.000001 0.360505 0.656315
O O12 0.762821 0.108589 0.927183
O O13 0.000000 0.000000 0.896538
#
# Coordination Sequence:
#
# PCOD8169646 Si02
#       6
#     4   4   4   4   4   4
#     4  11  24  46  80 110 150 212 268 318 396 488
#     4  12  27  48  74 115 163 203 258 339 407 460
#     4  12  27  48  74 115 163 203 258 339 407 460
#     4  12  25  48  80 117 157 211 271 325 394 493
#     4  12  25  48  80 117 157 211 271 325 394 493
#     4  11  24  46  80 110 150 212 268 318 396 488
#
# _framework density 26.132864000000001
#
# number of rings (size 3 to 8) (size 9 to 14) (size 15 to 20)
#    0.000    0.333    3.333    6.000    0.000    5.333 
#    0.000    1.667    0.000    0.000    0.000    0.000 
#    0.000    0.000    0.000    0.000    0.000    0.000 
#
# Total GULP energy -297342.358605 kJ/mol
# GULP energy per Si atom -12389.264942 kJ/mol
# Density = 2.607338 g / cm^3
# Si number density = 26.132864 Si / 1000 Ang^3
#
#
#
# Elastic Constant Matrix: (Units=GPa)
#
#
# Indices 1 2 3 4 5 6 
#
# 1 140.3889 84.8014 35.1302 0.0000 0.0000 0.0000
# 2 84.8014 203.3465 58.1467 0.0000 0.0000 0.0000
# 3 35.1302 58.1467 99.1198 0.0000 0.0000 0.0000
# 4 0.0000 0.0000 0.0000 40.2165 0.0000 0.0000
# 5 0.0000 0.0000 0.0000 0.0000 35.9711 0.0000
# 6 0.0000 0.0000 0.0000 0.0000 0.0000 81.8196
#
#
#
# Elastic Compliance Matrix: (Units=1/GPa)
#
#
# Indices 1 2 3 4 5 6 
#
# 1 0.009654 -0.003662 -0.001273 0.000000 0.000000 0.000000
# 2 -0.003662 0.007298 -0.002983 0.000000 0.000000 0.000000
# 3 -0.001273 -0.002983 0.012290 0.000000 0.000000 0.000000
# 4 0.000000 0.000000 0.000000 0.024865 0.000000 0.000000
# 5 0.000000 0.000000 0.000000 0.000000 0.027800 0.000000
# 6 0.000000 0.000000 0.000000 0.000000 0.000000 0.012222
#
#
# Mechanical properties :
#
#
# Convention : Reuss Voigt Hill
#
# Bulk Modulus (GPa) = 74.60016 88.77909 81.68963
# Shear Modulus (GPa) = 43.69323 49.25322 46.47322
#
# Velocity S-wave (km/s) = 4.09340 4.34605 4.22162
# Velocity P-wave (km/s) = 7.13791 7.69611 7.42226
#
# Compressibility (1/GPa) = 0.01340480
#
# Stress axis : x y z
#
# Youngs Moduli (GPa) = 103.58889 137.02703 81.36544
#
# Poissons Ratio (x) = 0.50175 0.10361
# Poissons Ratio (y) = 0.37931 0.24274
# Poissons Ratio (z) = 0.13191 0.40880
#
# Static dielectric constant tensor:
#      x y z
#    x 5.588740 0.000000 0.000000 
#    y 0.000000 5.445930 0.000000 
#    z 0.000000 0.000000 4.569390 
# 
# 
# High freq. dielectric constant tensor:
#      x y z
#    x 2.069400 0.000000 0.000000 
#    y 0.000000 2.057830 0.000000 
#    z 0.000000 0.000000 2.012990 
# 
# From -- ./inp_files/1848.got.cif
#   From: 2010.03.12/outbox.cif.g09.slc.cpg/sg30_1_cif.got.tgz:1848.got - 2010.04.14 01:38:02.
