data_PCOD8170838
_publ_section_title
;
Structure prediction by ZEFSAII (Michael W. Deem and Ramdas Pophale) SiO2 
 PCOD8170838
Probable space group: P N A 21
;
_chemical_formula_sum "Si O2"
_cell_formula_units_Z 32
_cell_length_a 14.015107
_cell_length_b 13.475121
_cell_length_c 8.381038
_cell_angle_alpha 90.000000
_cell_angle_beta 90.000000
_cell_angle_gamma 90.000000
_cell_volume 1582.803133
_symmetry_space_group_name_H-M "P N A 21"
_symmetry_group_IT_number 33
_symmetry_cell_setting 'orthorhombic'
loop_
_space_group_symop_operation_xyz
x,y,z
-x,-y,1/2+z
1/2-x,1/2+y,1/2+z
1/2+x,1/2-y,z
loop_
_atom_site_type_symbol
_atom_site_label
_atom_site_fract_x
_atom_site_fract_y
_atom_site_fract_z
Si Si1 0.719537 0.102306 0.166560
Si Si2 0.229230 0.181015 0.283493
Si Si3 0.365803 0.019107 0.207572
Si Si4 0.110920 0.931530 0.882365
Si Si5 0.651381 0.767095 0.068636
Si Si6 0.428266 0.531721 0.699906
Si Si7 0.795577 0.120275 0.813323
Si Si8 0.555322 0.967982 0.054367
O O1 0.698452 0.213704 0.217222
O O2 0.787233 0.050534 0.298057
O O3 0.622854 0.039012 0.161229
O O4 0.769501 0.114062 0.996286
O O5 0.316517 0.127664 0.186166
O O6 0.261480 0.185132 0.468594
O O7 0.134368 0.118178 0.275278
O O8 0.422814 0.011725 0.371711
O O9 0.281809 0.937362 0.203012
O O10 0.444027 0.996512 0.072768
O O11 0.036358 0.939308 0.737470
O O12 0.105992 0.823383 0.966152
O O13 0.088942 0.018118 0.010165
O O14 0.693745 0.730647 0.239233
O O15 0.572619 0.852467 0.100414
O O16 0.398695 0.430719 0.790233
#
# Coordination Sequence:
#
# PCOD8170838 Si02
#       8
#     4   4   4   4   4   4   4   4
#     4  10  21  36  55  81 112 143 185 235 282 336
#     4   9  20  37  55  78 108 146 185 229 282 341
#     4   9  20  36  55  79 110 143 182 226 277 333
#     4  10  21  37  57  83 111 146 186 235 287 339
#     4   9  20  36  56  80 113 151 187 228 286 340
#     4  10  20  36  57  80 108 145 187 229 283 341
#     4   9  19  37  55  79 112 145 184 232 279 336
#     4  10  21  37  56  82 112 147 186 230 280 338
#
# _framework density 20.217295
#
# number of rings (size 3 to 8) (size 9 to 14) (size 15 to 20)
#    0.000    2.500    0.000    1.500    0.000   10.000 
#    0.000    7.500    0.000    0.000    0.000    0.000 
#    0.000    0.000    0.000    0.000    0.000    0.000 
#
# Total GULP energy -396653.631374 kJ/mol
# GULP energy per Si atom -12395.425980 kJ/mol
# Density = 2.017128 g / cm^3
# Si number density = 20.217295 Si / 1000 Ang^3
#
#
#
# Elastic Constant Matrix: (Units=GPa)
#
#
# Indices 1 2 3 4 5 6 
#
# 1 54.8523 17.3917 -6.6072 0.0000 0.0000 0.0000
# 2 17.3917 78.1303 10.3718 0.0000 0.0000 0.0000
# 3 -6.6072 10.3718 50.0625 0.0000 0.0000 0.0000
# 4 0.0000 0.0000 0.0000 25.7670 0.0000 0.0000
# 5 0.0000 0.0000 0.0000 0.0000 27.8964 0.0000
# 6 0.0000 0.0000 0.0000 0.0000 0.0000 22.3619
#
#
#
# Elastic Compliance Matrix: (Units=1/GPa)
#
#
# Indices 1 2 3 4 5 6 
#
# 1 0.020264 -0.005003 0.003711 0.000000 0.000000 0.000000
# 2 -0.005003 0.014396 -0.003643 0.000000 0.000000 0.000000
# 3 0.003711 -0.003643 0.021220 0.000000 0.000000 0.000000
# 4 0.000000 0.000000 0.000000 0.038809 0.000000 0.000000
# 5 0.000000 0.000000 0.000000 0.000000 0.035847 0.000000
# 6 0.000000 0.000000 0.000000 0.000000 0.000000 0.044719
#
#
# Mechanical properties :
#
#
# Convention : Reuss Voigt Hill
#
# Bulk Modulus (GPa) = 21.73463 25.03976 23.38719
# Shear Modulus (GPa) = 24.94228 25.99762 25.46995
#
# Velocity S-wave (km/s) = 3.51623 3.58985 3.55323
# Velocity P-wave (km/s) = 5.22102 5.44012 5.33169
#
# Compressibility (1/GPa) = 0.04600952
#
# Stress axis : x y z
#
# Youngs Moduli (GPa) = 49.34811 69.46135 47.12631
#
# Poissons Ratio (x) = 0.34754 -0.17489
# Poissons Ratio (y) = 0.24691 0.17168
# Poissons Ratio (z) = -0.18313 0.25305
#
# Static dielectric constant tensor:
#      x y z
#    x 3.593470 0.000000 0.000000 
#    y 0.000000 3.794410 0.000000 
#    z 0.000000 0.000000 3.618930 
# 
# 
# High freq. dielectric constant tensor:
#      x y z
#    x 1.782280 0.000000 0.000000 
#    y 0.000000 1.786770 0.000000 
#    z 0.000000 0.000000 1.784910 
# 
# From -- ./inp_files/3922.got.cif
#   From: 2010.03.12/outbox.cif.g09.slc.cpg/sg33_2_cif.got.tgz:3922.got - 2010.04.14 01:49:19.
