data_PCOD8170957
_publ_section_title
;
Structure prediction by ZEFSAII (Michael W. Deem and Ramdas Pophale) SiO2 
 PCOD8170957
Probable space group: P N A 21
;
_chemical_formula_sum "Si O2"
_cell_formula_units_Z 32
_cell_length_a 11.465723
_cell_length_b 15.390090
_cell_length_c 8.645409
_cell_angle_alpha 90.000000
_cell_angle_beta 90.000000
_cell_angle_gamma 90.000000
_cell_volume 1525.555981
_symmetry_space_group_name_H-M "P N A 21"
_symmetry_group_IT_number 33
_symmetry_cell_setting 'orthorhombic'
loop_
_space_group_symop_operation_xyz
x,y,z
-x,-y,1/2+z
1/2-x,1/2+y,1/2+z
1/2+x,1/2-y,z
loop_
_atom_site_type_symbol
_atom_site_label
_atom_site_fract_x
_atom_site_fract_y
_atom_site_fract_z
Si Si1 0.066607 0.069932 0.801470
Si Si2 0.259729 0.190669 0.315144
Si Si3 0.813009 0.641004 0.999056
Si Si4 0.922997 0.369189 0.578888
Si Si5 0.438608 0.584068 0.661262
Si Si6 0.791600 0.519389 0.720148
Si Si7 0.124228 0.806517 0.233014
Si Si8 0.170664 0.823854 0.583167
O O1 0.010769 0.160231 0.739400
O O2 0.183913 0.048477 0.708881
O O3 0.095764 0.066848 0.983540
O O4 0.966918 0.001278 0.758924
O O5 0.200822 0.269826 0.406171
O O6 0.361801 0.141511 0.410750
O O7 0.163484 0.122393 0.265026
O O8 0.309556 0.229663 0.156415
O O9 0.808896 0.554061 0.894325
O O10 0.706708 0.635458 0.121456
O O11 0.938816 0.642110 0.076907
O O12 0.899573 0.464220 0.653433
O O13 0.871955 0.293853 0.687291
O O14 0.549783 0.646796 0.659928
O O15 0.769945 0.604482 0.616739
O O16 0.176409 0.813133 0.402075
#
# Coordination Sequence:
#
# PCOD8170957 Si02
#       8
#     4   4   4   4   4   4   4   4
#     4  10  22  39  63  96 122 158 214 272 322 373
#     4  10  22  39  65  88 127 172 214 257 323 387
#     4  10  23  45  61  92 132 174 211 267 331 383
#     4  11  25  40  64  93 129 178 216 265 324 403
#     4  10  21  36  64  91 122 160 205 269 317 378
#     4  10  23  43  62  88 131 169 214 266 325 396
#     4  10  23  39  68  96 127 163 216 277 316 385
#     4   9  21  41  59  94 128 158 212 269 322 379
#
# _framework density 20.975957999999999
#
# number of rings (size 3 to 8) (size 9 to 14) (size 15 to 20)
#    0.000    2.000    0.000    1.500   10.500    4.000 
#    2.250    2.500    0.000    0.000    0.000    0.000 
#    0.000    0.000    0.000    0.000    0.000    0.000 
#
# Total GULP energy -396722.539809 kJ/mol
# GULP energy per Si atom -12397.579369 kJ/mol
# Density = 2.092822 g / cm^3
# Si number density = 20.975958 Si / 1000 Ang^3
#
#
#
# Elastic Constant Matrix: (Units=GPa)
#
#
# Indices 1 2 3 4 5 6 
#
# 1 61.4899 7.5581 17.2516 0.0000 0.0000 0.0000
# 2 7.5581 63.0378 27.5443 0.0000 0.0000 0.0000
# 3 17.2516 27.5443 99.7612 0.0000 0.0000 0.0000
# 4 0.0000 0.0000 0.0000 29.1427 0.0000 0.0000
# 5 0.0000 0.0000 0.0000 0.0000 20.0311 0.0000
# 6 0.0000 0.0000 0.0000 0.0000 0.0000 31.0874
#
#
#
# Elastic Compliance Matrix: (Units=1/GPa)
#
#
# Indices 1 2 3 4 5 6 
#
# 1 0.017133 -0.000864 -0.002724 0.000000 0.000000 0.000000
# 2 -0.000864 0.018083 -0.004843 0.000000 0.000000 0.000000
# 3 -0.002724 -0.004843 0.011832 0.000000 0.000000 0.000000
# 4 0.000000 0.000000 0.000000 0.034314 0.000000 0.000000
# 5 0.000000 0.000000 0.000000 0.000000 0.049922 0.000000
# 6 0.000000 0.000000 0.000000 0.000000 0.000000 0.032167
#
#
# Mechanical properties :
#
#
# Convention : Reuss Voigt Hill
#
# Bulk Modulus (GPa) = 33.12818 36.55518 34.84168
# Shear Modulus (GPa) = 26.26352 27.51456 26.88904
#
# Velocity S-wave (km/s) = 3.54231 3.62570 3.58424
# Velocity P-wave (km/s) = 5.70599 5.91545 5.81166
#
# Compressibility (1/GPa) = 0.03018579
#
# Stress axis : x y z
#
# Youngs Moduli (GPa) = 58.36573 55.29923 84.51406
#
# Poissons Ratio (x) = 0.04777 0.23024
# Poissons Ratio (y) = 0.05042 0.40934
# Poissons Ratio (z) = 0.15901 0.26784
#
# Static dielectric constant tensor:
#      x y z
#    x 3.700120 0.000000 0.000000 
#    y 0.000000 3.814930 0.000000 
#    z 0.000000 0.000000 3.799090 
# 
# 
# High freq. dielectric constant tensor:
#      x y z
#    x 1.814670 0.000000 0.000000 
#    y 0.000000 1.822290 0.000000 
#    z 0.000000 0.000000 1.826360 
# 
# From -- ./inp_files/3923.got.cif
#   From: 2010.03.12/outbox.cif.g09.slc.cpg/sg33_2_cif.got.tgz:3923.got - 2010.04.14 01:49:19.
