data_PCOD8170897
_publ_section_title
;
Structure prediction by ZEFSAII (Michael W. Deem and Ramdas Pophale) SiO2 
 PCOD8170897
Probable space group: P N A 21
;
_chemical_formula_sum "Si O2"
_cell_formula_units_Z 32
_cell_length_a 10.267722
_cell_length_b 15.508252
_cell_length_c 9.801405
_cell_angle_alpha 90.000000
_cell_angle_beta 90.000000
_cell_angle_gamma 90.000000
_cell_volume 1560.721043
_symmetry_space_group_name_H-M "P N A 21"
_symmetry_group_IT_number 33
_symmetry_cell_setting 'orthorhombic'
loop_
_space_group_symop_operation_xyz
x,y,z
-x,-y,1/2+z
1/2-x,1/2+y,1/2+z
1/2+x,1/2-y,z
loop_
_atom_site_type_symbol
_atom_site_label
_atom_site_fract_x
_atom_site_fract_y
_atom_site_fract_z
Si Si1 0.708246 0.683924 0.925540
Si Si2 0.638541 0.504551 0.614546
Si Si3 0.762853 0.684047 0.622426
Si Si4 0.019304 0.603449 0.717284
Si Si5 0.588646 0.506704 0.918726
Si Si6 0.890550 0.421598 0.716413
Si Si7 0.497378 0.808320 0.995089
Si Si8 0.779185 0.363420 0.993850
O O1 0.699312 0.711256 0.766838
O O2 0.698916 0.580288 0.940841
O O3 0.587255 0.723640 0.008101
O O4 0.845751 0.716594 0.984757
O O5 0.688777 0.599045 0.568694
O O6 0.559007 0.504993 0.757144
O O7 0.544741 0.470305 0.495541
O O8 0.758152 0.438172 0.631278
O O9 0.915636 0.664836 0.641277
O O10 0.749914 0.762178 0.515670
O O11 0.959237 0.510989 0.748563
O O12 0.052364 0.639809 0.865775
O O13 0.147095 0.597290 0.624709
O O14 0.645091 0.416578 0.975832
O O15 0.988194 0.363149 0.631483
O O16 0.864854 0.373204 0.858317
#
# Coordination Sequence:
#
# PCOD8170897 Si02
#       8
#     4   4   4   4   4   4   4   4
#     4  10  22  40  62  92 120 163 212 257 301 369
#     4   9  21  40  60  86 124 162 201 256 303 370
#     4   9  20  38  60  90 115 156 210 253 296 367
#     4  10  20  39  65  84 115 160 213 245 299 376
#     4  10  22  39  62  87 128 159 208 254 313 361
#     4  10  22  40  58  89 129 159 195 258 321 356
#     4  11  22  40  65  88 126 161 208 257 305 372
#     4  11  21  38  62  90 119 160 199 260 304 363
#
# _framework density 20.503343999999998
#
# number of rings (size 3 to 8) (size 9 to 14) (size 15 to 20)
#    0.000    2.000    1.250    3.750    3.500    2.000 
#    4.500    1.250    0.000    0.000    0.000    0.000 
#    0.000    0.000    0.000    0.000    0.000    0.000 
#
# Total GULP energy -396852.450298 kJ/mol
# GULP energy per Si atom -12401.639072 kJ/mol
# Density = 2.045668 g / cm^3
# Si number density = 20.503344 Si / 1000 Ang^3
#
#
#
# Elastic Constant Matrix: (Units=GPa)
#
#
# Indices 1 2 3 4 5 6 
#
# 1 42.2930 8.4609 5.8733 0.0000 0.0000 0.0000
# 2 8.4609 95.2100 29.6135 0.0000 0.0000 0.0000
# 3 5.8733 29.6135 61.5973 0.0000 0.0000 0.0000
# 4 0.0000 0.0000 0.0000 34.4423 0.0000 0.0000
# 5 0.0000 0.0000 0.0000 0.0000 37.8130 0.0000
# 6 0.0000 0.0000 0.0000 0.0000 0.0000 22.9628
#
#
#
# Elastic Compliance Matrix: (Units=1/GPa)
#
#
# Indices 1 2 3 4 5 6 
#
# 1 0.024189 -0.001684 -0.001497 0.000000 0.000000 0.000000
# 2 -0.001684 0.012467 -0.005833 0.000000 0.000000 0.000000
# 3 -0.001497 -0.005833 0.019181 0.000000 0.000000 0.000000
# 4 0.000000 0.000000 0.000000 0.029034 0.000000 0.000000
# 5 0.000000 0.000000 0.000000 0.000000 0.026446 0.000000
# 6 0.000000 0.000000 0.000000 0.000000 0.000000 0.043549
#
#
# Mechanical properties :
#
#
# Convention : Reuss Voigt Hill
#
# Bulk Modulus (GPa) = 26.44805 31.88842 29.16824
# Shear Modulus (GPa) = 26.95451 29.38714 28.17082
#
# Velocity S-wave (km/s) = 3.62973 3.78998 3.71072
# Velocity P-wave (km/s) = 5.52213 5.89394 5.71106
#
# Compressibility (1/GPa) = 0.03780997
#
# Stress axis : x y z
#
# Youngs Moduli (GPa) = 41.34054 80.21157 52.13359
#
# Poissons Ratio (x) = 0.13508 0.07804
# Poissons Ratio (y) = 0.06962 0.30410
# Poissons Ratio (z) = 0.06188 0.46788
#
# Static dielectric constant tensor:
#      x y z
#    x 3.592160 0.000000 0.000000 
#    y 0.000000 3.615250 0.000000 
#    z 0.000000 0.000000 3.571120 
# 
# 
# High freq. dielectric constant tensor:
#      x y z
#    x 1.797630 0.000000 0.000000 
#    y 0.000000 1.801260 0.000000 
#    z 0.000000 0.000000 1.789530 
# 
# From -- ./inp_files/3929.got.cif
#   From: 2010.03.12/outbox.cif.g09.slc.cpg/sg33_2_cif.got.tgz:3929.got - 2010.04.14 01:49:19.
