data_PCOD8170988
_publ_section_title
;
Structure prediction by ZEFSAII (Michael W. Deem and Ramdas Pophale) SiO2 
 PCOD8170988
Probable space group: P N A 21
;
_chemical_formula_sum "Si O2"
_cell_formula_units_Z 24
_cell_length_a 9.004561
_cell_length_b 8.914496
_cell_length_c 13.888595
_cell_angle_alpha 90.000000
_cell_angle_beta 90.000000
_cell_angle_gamma 90.000000
_cell_volume 1114.853118
_symmetry_space_group_name_H-M "P N A 21"
_symmetry_group_IT_number 33
_symmetry_cell_setting 'orthorhombic'
loop_
_space_group_symop_operation_xyz
x,y,z
-x,-y,1/2+z
1/2-x,1/2+y,1/2+z
1/2+x,1/2-y,z
loop_
_atom_site_type_symbol
_atom_site_label
_atom_site_fract_x
_atom_site_fract_y
_atom_site_fract_z
Si Si1 0.423213 0.324388 0.272340
Si Si2 0.081298 0.383420 0.688170
Si Si3 0.426124 0.159634 0.076103
Si Si4 0.746527 0.377977 0.754190
Si Si5 0.692487 0.210080 0.951520
Si Si6 0.236814 0.066260 0.340215
O O1 0.475087 0.236785 0.176274
O O2 0.305931 0.452030 0.243129
O O3 0.339113 0.214719 0.347873
O O4 0.565755 0.391803 0.324795
O O5 0.067607 0.478112 0.589569
O O6 0.154782 0.219053 0.674073
O O7 0.202291 0.470720 0.751489
O O8 0.922579 0.367849 0.739933
O O9 0.521714 0.200110 0.982329
O O10 0.264637 0.216834 0.046303
O O11 0.705170 0.316780 0.859576
O O12 0.753399 0.040713 0.933827
#
# Coordination Sequence:
#
# PCOD8170988 Si02
#       6
#     4   4   4   4   4   4
#     4  11  21  39  64  87 119 164 204 244 303 379
#     4  10  21  38  60  88 121 162 205 243 302 381
#     4  11  22  39  61  89 120 154 201 261 309 355
#     4  11  21  39  64  89 122 166 206 247 304 381
#     4  11  22  39  61  89 121 156 203 261 310 354
#     4  10  21  38  60  88 119 162 205 242 302 378
#
# _framework density 21.527498000000001
#
# number of rings (size 3 to 8) (size 9 to 14) (size 15 to 20)
#    0.000    1.333    0.000   10.000    0.000    0.000 
#    0.000    8.333    0.000    0.000    0.000    0.000 
#    0.000    0.000    0.000    0.000    0.000    0.000 
#
# Total GULP energy -297538.143898 kJ/mol
# GULP energy per Si atom -12397.422662 kJ/mol
# Density = 2.147850 g / cm^3
# Si number density = 21.527498 Si / 1000 Ang^3
#
#
#
# Elastic Constant Matrix: (Units=GPa)
#
#
# Indices 1 2 3 4 5 6 
#
# 1 83.3245 20.0594 9.7050 0.0000 0.0000 0.0000
# 2 20.0594 124.1038 29.1024 0.0000 0.0000 0.0000
# 3 9.7050 29.1024 61.8863 0.0000 0.0000 0.0000
# 4 0.0000 0.0000 0.0000 42.4896 0.0000 0.0000
# 5 0.0000 0.0000 0.0000 0.0000 29.0752 0.0000
# 6 0.0000 0.0000 0.0000 0.0000 0.0000 42.2570
#
#
#
# Elastic Compliance Matrix: (Units=1/GPa)
#
#
# Indices 1 2 3 4 5 6 
#
# 1 0.012558 -0.001762 -0.001141 0.000000 0.000000 0.000000
# 2 -0.001762 0.009304 -0.004099 0.000000 0.000000 0.000000
# 3 -0.001141 -0.004099 0.018265 0.000000 0.000000 0.000000
# 4 0.000000 0.000000 0.000000 0.023535 0.000000 0.000000
# 5 0.000000 0.000000 0.000000 0.000000 0.034394 0.000000
# 6 0.000000 0.000000 0.000000 0.000000 0.000000 0.023665
#
#
# Mechanical properties :
#
#
# Convention : Reuss Voigt Hill
#
# Bulk Modulus (GPa) = 38.27959 43.00537 40.64248
# Shear Modulus (GPa) = 34.61831 36.79419 35.70625
#
# Velocity S-wave (km/s) = 4.01446 4.13870 4.07705
# Velocity P-wave (km/s) = 6.26962 6.54666 6.40964
#
# Compressibility (1/GPa) = 0.02612358
#
# Stress axis : x y z
#
# Youngs Moduli (GPa) = 79.62798 107.48294 54.74947
#
# Poissons Ratio (x) = 0.18943 0.06245
# Poissons Ratio (y) = 0.14034 0.22441
# Poissons Ratio (z) = 0.09083 0.44055
#
# Static dielectric constant tensor:
#      x y z
#    x 3.866130 0.000000 0.000000 
#    y 0.000000 4.551540 0.000000 
#    z 0.000000 0.000000 3.570350 
# 
# 
# High freq. dielectric constant tensor:
#      x y z
#    x 1.861100 0.000000 0.000000 
#    y 0.000000 1.860380 0.000000 
#    z 0.000000 0.000000 1.809120 
# 
# From -- ./inp_files/5747.got.cif
#   From: 2010.03.12/outbox.cif.g09.slc.cpg/sg33_3_cif.got.tgz:5747.got - 2010.04.14 01:49:19.
