data_PCOD8170748
_publ_section_title
;
Structure prediction by ZEFSAII (Michael W. Deem and Ramdas Pophale) SiO2 
 PCOD8170748
Probable space group: P N A 21
;
_chemical_formula_sum "Si O2"
_cell_formula_units_Z 32
_cell_length_a 5.150812
_cell_length_b 16.703373
_cell_length_c 16.892088
_cell_angle_alpha 90.000000
_cell_angle_beta 90.000000
_cell_angle_gamma 90.000000
_cell_volume 1453.326570
_symmetry_space_group_name_H-M "P N A 21"
_symmetry_group_IT_number 33
_symmetry_cell_setting 'orthorhombic'
loop_
_space_group_symop_operation_xyz
x,y,z
-x,-y,1/2+z
1/2-x,1/2+y,1/2+z
1/2+x,1/2-y,z
loop_
_atom_site_type_symbol
_atom_site_label
_atom_site_fract_x
_atom_site_fract_y
_atom_site_fract_z
Si Si1 0.912219 0.472961 0.628240
Si Si2 0.568368 0.470635 0.043445
Si Si3 0.548803 0.962487 0.309312
Si Si4 0.034984 0.210504 0.992900
Si Si5 0.056474 0.034393 0.380583
Si Si6 0.954266 0.279673 0.818066
Si Si7 0.247848 0.204626 0.391345
Si Si8 0.269869 0.203542 0.578646
O O1 0.655208 0.525880 0.610180
O O2 0.995148 0.485133 0.718438
O O3 0.840544 0.380651 0.617349
O O4 0.151482 0.501993 0.574565
O O5 0.586988 0.382985 0.005102
O O6 0.481495 0.532321 0.975159
O O7 0.628531 0.871296 0.326013
O O8 0.277304 0.971997 0.355070
O O9 0.778350 0.018031 0.341662
O O10 0.769791 0.239943 0.033872
O O11 0.035199 0.234220 0.900129
O O12 0.162718 0.120657 0.353435
O O13 0.726321 0.231971 0.770941
O O14 0.533788 0.230485 0.362400
O O15 0.263639 0.195303 0.484865
O O16 0.487787 0.266933 0.607143
#
# Coordination Sequence:
#
# PCOD8170748 Si02
#       8
#     4   4   4   4   4   4   4   4
#     4  12  26  43  62 100 140 183 213 266 347 408
#     4  12  24  41  70  96 133 177 228 277 324 404
#     4  12  26  42  66  97 141 175 217 275 344 413
#     4  10  19  36  61  94 124 157 216 276 322 369
#     4  12  23  42  68  97 124 173 228 280 329 385
#     4  10  20  37  60  91 129 167 210 260 322 394
#     4  10  21  37  63  95 123 156 215 281 323 375
#     4  10  21  38  62  92 132 168 211 259 315 398
#
# _framework density 22.018450000000001
#
# number of rings (size 3 to 8) (size 9 to 14) (size 15 to 20)
#    0.000    1.000    1.250    7.500    3.500    1.000 
#    0.000    0.000    0.000   15.000    0.000    0.000 
#    0.000    0.000    0.000    0.000    0.000    0.000 
#
# Total GULP energy -396742.217189 kJ/mol
# GULP energy per Si atom -12398.194287 kJ/mol
# Density = 2.196833 g / cm^3
# Si number density = 22.018450 Si / 1000 Ang^3
#
#
#
# Elastic Constant Matrix: (Units=GPa)
#
#
# Indices 1 2 3 4 5 6 
#
# 1 154.3646 17.9450 24.7465 0.0000 0.0000 0.0000
# 2 17.9450 87.9779 17.5885 0.0000 0.0000 0.0000
# 3 24.7465 17.5885 61.1724 0.0000 0.0000 0.0000
# 4 0.0000 0.0000 0.0000 10.6318 0.0000 0.0000
# 5 0.0000 0.0000 0.0000 0.0000 24.6199 0.0000
# 6 0.0000 0.0000 0.0000 0.0000 0.0000 45.8031
#
#
#
# Elastic Compliance Matrix: (Units=1/GPa)
#
#
# Indices 1 2 3 4 5 6 
#
# 1 0.006996 -0.000914 -0.002567 0.000000 0.000000 0.000000
# 2 -0.000914 0.012179 -0.003132 0.000000 0.000000 0.000000
# 3 -0.002567 -0.003132 0.018286 0.000000 0.000000 0.000000
# 4 0.000000 0.000000 0.000000 0.094057 0.000000 0.000000
# 5 0.000000 0.000000 0.000000 0.000000 0.040618 0.000000
# 6 0.000000 0.000000 0.000000 0.000000 0.000000 0.021833
#
#
# Mechanical properties :
#
#
# Convention : Reuss Voigt Hill
#
# Bulk Modulus (GPa) = 41.26278 47.11944 44.19111
# Shear Modulus (GPa) = 23.22625 32.42662 27.82644
#
# Velocity S-wave (km/s) = 3.25137 3.84174 3.55882
# Velocity P-wave (km/s) = 5.73376 6.41289 6.08281
#
# Compressibility (1/GPa) = 0.02423492
#
# Stress axis : x y z
#
# Youngs Moduli (GPa) = 142.93933 82.10828 54.68538
#
# Poissons Ratio (x) = 0.07502 0.14040
# Poissons Ratio (y) = 0.13060 0.17128
# Poissons Ratio (z) = 0.36699 0.25717
#
# Static dielectric constant tensor:
#      x y z
#    x 4.848360 0.000000 0.000000 
#    y 0.000000 3.885900 0.000000 
#    z 0.000000 0.000000 3.647940 
# 
# 
# High freq. dielectric constant tensor:
#      x y z
#    x 1.902550 0.000000 0.000000 
#    y 0.000000 1.868410 0.000000 
#    z 0.000000 0.000000 1.826250 
# 
# From -- ./inp_files/8360.got.cif
#   From: 2010.03.12/outbox.cif.g09.slc.cpg/sg33_5_cif.got.tgz:8360.got - 2010.04.14 01:49:19.
