data_PCOD8170527
_publ_section_title
;
Structure prediction by ZEFSAII (Michael W. Deem and Ramdas Pophale) SiO2 
 PCOD8170527
Probable space group: P B A 2
;
_chemical_formula_sum "Si O2"
_cell_formula_units_Z 28
_cell_length_a 18.467191
_cell_length_b 12.869643
_cell_length_c 5.538335
_cell_angle_alpha 90.000000
_cell_angle_beta 90.000000
_cell_angle_gamma 90.000000
_cell_volume 1316.274787
_symmetry_space_group_name_H-M "P B A 2"
_symmetry_group_IT_number 32
_symmetry_cell_setting 'orthorhombic'
loop_
_space_group_symop_operation_xyz
x,y,z
-x,-y,z
1/2-x,1/2+y,z
1/2+x,1/2-y,z
loop_
_atom_site_type_symbol
_atom_site_label
_atom_site_fract_x
_atom_site_fract_y
_atom_site_fract_z
Si Si1 0.117056 0.860551 0.934150
Si Si2 0.747081 0.545624 0.723321
Si Si3 0.399699 0.860449 0.671852
Si Si4 0.194726 0.016913 0.212539
Si Si5 0.420418 0.663809 0.375523
Si Si6 0.500000 0.500000 0.696079
Si Si7 0.516595 0.804281 0.068376
Si Si8 0.500000 0.000000 0.365981
O O1 0.181001 0.870259 0.734088
O O2 0.091120 0.740152 0.952867
O O3 0.046724 0.926148 0.863846
O O4 0.147731 0.909680 0.185700
O O5 0.822933 0.601705 0.766185
O O6 0.741820 0.488132 0.461400
O O7 0.740477 0.470185 0.960874
O O8 0.384071 0.758203 0.518493
O O9 0.453342 0.831618 0.885476
O O10 0.434933 0.953915 0.521598
O O11 0.142735 0.117619 0.207736
O O12 0.445650 0.569712 0.542008
O O13 0.489195 0.709783 0.235273
O O14 0.536755 0.908860 0.209542
#
# Coordination Sequence:
#
# PCOD8170527 Si02
#       8
#     4   4   4   4   4   2   4   2
#     4  10  22  37  72 100 148 169 222 289 358 428
#     4  10  25  43  69  96 150 183 225 290 351 432
#     4  11  25  47  69  97 140 191 242 295 345 427
#     4  10  22  43  66 105 144 182 218 288 369 431
#     4  11  22  36  73 103 141 173 234 284 367 422
#     4  12  18  40  66 116 136 176 214 292 368 432
#     4  11  23  42  70 102 130 191 236 301 342 427
#     4  10  26  44  72  92 138 188 260 292 350 408
#
# _framework density 21.272154
#
# number of rings (size 3 to 8) (size 9 to 14) (size 15 to 20)
#    0.857    0.571    2.857    2.143    6.000    0.000 
#    0.000    5.714    0.000    0.000    0.000    0.000 
#    0.000    0.000    0.000    0.000    0.000    0.000 
#
# Total GULP energy -346967.365184 kJ/mol
# GULP energy per Si atom -12391.691614 kJ/mol
# Density = 2.122374 g / cm^3
# Si number density = 21.272154 Si / 1000 Ang^3
#
#
#
# Elastic Constant Matrix: (Units=GPa)
#
#
# Indices 1 2 3 4 5 6 
#
# 1 76.2054 33.5422 16.8308 0.0000 0.0000 0.0000
# 2 33.5422 105.4395 27.9613 0.0000 0.0000 0.0000
# 3 16.8308 27.9613 107.8990 0.0000 0.0000 0.0000
# 4 0.0000 0.0000 0.0000 27.8970 0.0000 0.0000
# 5 0.0000 0.0000 0.0000 0.0000 10.4795 0.0000
# 6 0.0000 0.0000 0.0000 0.0000 0.0000 25.7823
#
#
#
# Elastic Compliance Matrix: (Units=1/GPa)
#
#
# Indices 1 2 3 4 5 6 
#
# 1 0.015406 -0.004578 -0.001217 0.000000 0.000000 0.000000
# 2 -0.004578 0.011545 -0.002278 0.000000 0.000000 0.000000
# 3 -0.001217 -0.002278 0.010048 0.000000 0.000000 0.000000
# 4 0.000000 0.000000 0.000000 0.035846 0.000000 0.000000
# 5 0.000000 0.000000 0.000000 0.000000 0.095425 0.000000
# 6 0.000000 0.000000 0.000000 0.000000 0.000000 0.038786
#
#
# Mechanical properties :
#
#
# Convention : Reuss Voigt Hill
#
# Bulk Modulus (GPa) = 47.95341 49.57914 48.76627
# Shear Modulus (GPa) = 21.72474 26.91239 24.31856
#
# Velocity S-wave (km/s) = 3.19921 3.56075 3.38481
# Velocity P-wave (km/s) = 6.01983 6.34531 6.18471
#
# Compressibility (1/GPa) = 0.02085358
#
# Stress axis : x y z
#
# Youngs Moduli (GPa) = 64.90825 86.62092 99.52302
#
# Poissons Ratio (x) = 0.39658 0.12109
# Poissons Ratio (y) = 0.29717 0.22667
# Poissons Ratio (z) = 0.07898 0.19728
#
# Static dielectric constant tensor:
#      x y z
#    x 3.700350 0.000000 0.000000 
#    y 0.000000 3.788610 0.000000 
#    z 0.000000 0.000000 4.016380 
# 
# 
# High freq. dielectric constant tensor:
#      x y z
#    x 1.823290 0.000000 0.000000 
#    y 0.000000 1.823670 0.000000 
#    z 0.000000 0.000000 1.839980 
# 
# From -- ./inp_files/1004.got.cif
#   From: 2010.03.12/outbox.cif.g09.slc.cpg/sg32_1_cif.got.tgz:1004.got - 2010.04.14 01:46:39.
