data_PCOD8170120
_publ_section_title
;
Structure prediction by ZEFSAII (Michael W. Deem and Ramdas Pophale) SiO2 
 PCOD8170120
Probable space group: P M N 21
;
_chemical_formula_sum "Si O2"
_cell_formula_units_Z 32
_cell_length_a 9.171554
_cell_length_b 12.094685
_cell_length_c 14.462052
_cell_angle_alpha 90.000000
_cell_angle_beta 90.000000
_cell_angle_gamma 90.000000
_cell_volume 1604.232861
_symmetry_space_group_name_H-M "P M N 21"
_symmetry_group_IT_number 31
_symmetry_cell_setting 'orthorhombic'
loop_
_space_group_symop_operation_xyz
x,y,z
1/2-x,-y,1/2+z
-x,y,z
1/2+x,-y,1/2+z
loop_
_atom_site_type_symbol
_atom_site_label
_atom_site_fract_x
_atom_site_fract_y
_atom_site_fract_z
Si Si1 0.327243 0.319455 0.620670
Si Si2 0.332344 0.877233 0.208361
Si Si3 0.667969 0.466795 0.125450
Si Si4 0.670085 0.587446 0.439645
Si Si5 0.172173 0.232450 0.448625
Si Si6 0.334231 0.375811 0.319486
Si Si7 0.165713 0.163816 0.911022
Si Si8 0.833013 0.999053 0.530079
O O1 0.500000 0.325989 0.613352
O O2 0.280530 0.218007 0.683758
O O3 0.260821 0.430072 0.663601
O O4 0.257113 0.312237 0.519022
O O5 0.500000 0.836448 0.192821
O O6 0.304962 0.904912 0.315916
O O7 0.302227 0.980729 0.139758
O O8 0.500000 0.500496 0.107926
O O9 0.679075 0.379001 0.208678
O O10 0.735831 0.418108 0.032532
O O11 0.500000 0.577621 0.465727
O O12 0.714387 0.492370 0.366619
O O13 0.706294 0.707530 0.395269
O O14 0.229711 0.273831 0.349400
O O15 0.216232 0.106162 0.470563
O O16 0.000000 0.249280 0.458494
O O17 0.500000 0.348922 0.348529
O O18 0.000000 0.152961 0.941007
O O19 0.251412 0.109547 0.995724
O O20 0.000000 0.974323 0.511895
#
# Coordination Sequence:
#
# PCOD8170120 Si02
#       8
#     4   4   4   4   4   4   4   4
#     4  11  20  32  55  85 115 148 190 240 284 335
#     4   9  19  38  61  85 112 151 198 244 295 345
#     4  11  22  36  55  83 118 158 192 229 289 352
#     4  10  21  38  58  84 117 152 191 243 291 339
#     4  10  20  36  58  82 111 146 188 239 291 338
#     4  10  21  37  58  84 115 151 193 236 285 350
#     4  10  21  39  62  85 115 156 197 240 293 350
#     4   9  20  38  59  84 115 146 187 243 292 343
#
# _framework density 19.947229
#
# number of rings (size 3 to 8) (size 9 to 14) (size 15 to 20)
#    0.000    2.000    1.250    3.375    0.000    6.500 
#    2.250    1.250    0.000    0.000    0.000    0.000 
#    0.000    0.000    0.000    0.000    0.000    0.000 
#
# Total GULP energy -396709.833621 kJ/mol
# GULP energy per Si atom -12397.182301 kJ/mol
# Density = 1.990183 g / cm^3
# Si number density = 19.947229 Si / 1000 Ang^3
#
#
#
# Elastic Constant Matrix: (Units=GPa)
#
#
# Indices 1 2 3 4 5 6 
#
# 1 83.0894 18.2512 28.0666 0.0000 0.0000 0.0000
# 2 18.2512 44.6485 12.0031 0.0000 0.0000 0.0000
# 3 28.0666 12.0031 87.8326 0.0000 0.0000 0.0000
# 4 0.0000 0.0000 0.0000 24.7746 0.0000 0.0000
# 5 0.0000 0.0000 0.0000 0.0000 24.8368 0.0000
# 6 0.0000 0.0000 0.0000 0.0000 0.0000 32.6751
#
#
#
# Elastic Compliance Matrix: (Units=1/GPa)
#
#
# Indices 1 2 3 4 5 6 
#
# 1 0.014432 -0.004837 -0.003951 0.000000 0.000000 0.000000
# 2 -0.004837 0.024873 -0.001853 0.000000 0.000000 0.000000
# 3 -0.003951 -0.001853 0.012901 0.000000 0.000000 0.000000
# 4 0.000000 0.000000 0.000000 0.040364 0.000000 0.000000
# 5 0.000000 0.000000 0.000000 0.000000 0.040263 0.000000
# 6 0.000000 0.000000 0.000000 0.000000 0.000000 0.030604
#
#
# Mechanical properties :
#
#
# Convention : Reuss Voigt Hill
#
# Bulk Modulus (GPa) = 32.33818 36.91246 34.62532
# Shear Modulus (GPa) = 25.63735 26.94061 26.28898
#
# Velocity S-wave (km/s) = 3.58894 3.67903 3.63426
# Velocity P-wave (km/s) = 5.78109 6.04915 5.91664
#
# Compressibility (1/GPa) = 0.03092320
#
# Stress axis : x y z
#
# Youngs Moduli (GPa) = 69.28888 40.20449 77.51340
#
# Poissons Ratio (x) = 0.19449 0.30623
# Poissons Ratio (y) = 0.33518 0.14365
# Poissons Ratio (z) = 0.27374 0.07451
#
# Static dielectric constant tensor:
#      x y z
#    x 3.558730 0.000000 0.000000 
#    y 0.000000 3.454700 0.000000 
#    z 0.000000 0.000000 3.611650 
# 
# 
# High freq. dielectric constant tensor:
#      x y z
#    x 1.775360 0.000000 0.000000 
#    y 0.000000 1.759580 0.000000 
#    z 0.000000 0.000000 1.777470 
# 
# From -- ./inp_files/5010.got.cif
#   From: 2010.03.12/outbox.cif.g09.slc.cpg/sg31_3_cif.got.tgz:5010.got - 2010.04.14 01:42:59.
