data_PCOD8170173
_publ_section_title
;
Structure prediction by ZEFSAII (Michael W. Deem and Ramdas Pophale) SiO2 
 PCOD8170173
Probable space group: P M N 21
;
_chemical_formula_sum "Si O2"
_cell_formula_units_Z 32
_cell_length_a 9.229746
_cell_length_b 15.160804
_cell_length_c 11.890822
_cell_angle_alpha 90.000000
_cell_angle_beta 90.000000
_cell_angle_gamma 90.000000
_cell_volume 1663.887123
_symmetry_space_group_name_H-M "P M N 21"
_symmetry_group_IT_number 31
_symmetry_cell_setting 'orthorhombic'
loop_
_space_group_symop_operation_xyz
x,y,z
1/2-x,-y,1/2+z
-x,y,z
1/2+x,-y,1/2+z
loop_
_atom_site_type_symbol
_atom_site_label
_atom_site_fract_x
_atom_site_fract_y
_atom_site_fract_z
Si Si1 0.327308 0.598604 0.368300
Si Si2 0.832919 0.417711 0.337808
Si Si3 0.163265 0.921973 0.834280
Si Si4 0.831436 0.739036 0.219275
Si Si5 0.662998 0.167395 0.107057
Si Si6 0.669378 0.257775 0.454931
Si Si7 0.163051 0.332887 0.108878
Si Si8 0.670658 0.099401 0.872561
O O1 0.500000 0.593976 0.354876
O O2 0.262912 0.501522 0.365728
O O3 0.261666 0.659403 0.270575
O O4 0.277456 0.634845 0.489286
O O5 0.767006 0.333756 0.401468
O O6 0.825342 0.408422 0.202754
O O7 0.000000 0.429819 0.376256
O O8 0.170494 0.907792 0.700617
O O9 0.217044 0.835974 0.902441
O O10 0.000000 0.944861 0.872185
O O11 0.265271 0.003618 0.855821
O O12 0.783726 0.831895 0.275261
O O13 0.000000 0.719649 0.244151
O O14 0.799806 0.745450 0.087580
O O15 0.500000 0.198026 0.083657
O O16 0.745732 0.251451 0.154748
O O17 0.733468 0.134341 0.990965
O O18 0.500000 0.276210 0.428903
O O19 0.000000 0.299822 0.094191
O O20 0.500000 0.087091 0.877569
#
# Coordination Sequence:
#
# PCOD8170173 Si02
#       8
#     4   4   4   4   4   4   4   4
#     4  11  24  41  62  90 120 156 198 243 296 354
#     4  11  24  41  62  90 120 156 198 243 296 354
#     4  10  22  38  59  87 117 154 196 242 293 349
#     4  10  22  41  62  86 120 159 198 243 296 353
#     4  10  20  38  62  85 112 151 202 247 290 346
#     4  10  22  41  62  86 120 159 198 243 296 353
#     4  10  22  40  62  87 116 151 196 247 296 346
#     4  10  22  38  59  87 117 154 196 242 293 349
#
# _framework density 19.232074000000001
#
# number of rings (size 3 to 8) (size 9 to 14) (size 15 to 20)
#    0.000    1.750    2.500    0.750    3.500    3.500 
#    0.000    0.000    0.000    0.000    0.000    0.000 
#    0.000    0.000    0.000    0.000    0.000    0.000 
#
# Total GULP energy -396849.135986 kJ/mol
# GULP energy per Si atom -12401.535500 kJ/mol
# Density = 1.918830 g / cm^3
# Si number density = 19.232074 Si / 1000 Ang^3
#
#
#
# Elastic Constant Matrix: (Units=GPa)
#
#
# Indices 1 2 3 4 5 6 
#
# 1 68.1010 51.4859 32.7735 0.0000 0.0000 0.0000
# 2 51.4859 124.6633 36.2654 0.0000 0.0000 0.0000
# 3 32.7735 36.2654 111.6000 0.0000 0.0000 0.0000
# 4 0.0000 0.0000 0.0000 24.4436 0.0000 0.0000
# 5 0.0000 0.0000 0.0000 0.0000 27.1487 0.0000
# 6 0.0000 0.0000 0.0000 0.0000 0.0000 42.7846
#
#
#
# Elastic Compliance Matrix: (Units=1/GPa)
#
#
# Indices 1 2 3 4 5 6 
#
# 1 0.022882 -0.008278 -0.004030 0.000000 0.000000 0.000000
# 2 -0.008278 0.011854 -0.001421 0.000000 0.000000 0.000000
# 3 -0.004030 -0.001421 0.010606 0.000000 0.000000 0.000000
# 4 0.000000 0.000000 0.000000 0.040911 0.000000 0.000000
# 5 0.000000 0.000000 0.000000 0.000000 0.036834 0.000000
# 6 0.000000 0.000000 0.000000 0.000000 0.000000 0.023373
#
#
# Mechanical properties :
#
#
# Convention : Reuss Voigt Hill
#
# Bulk Modulus (GPa) = 55.91587 60.60153 58.25870
# Shear Modulus (GPa) = 27.79676 31.13134 29.46405
#
# Velocity S-wave (km/s) = 3.80588 4.02770 3.91836
# Velocity P-wave (km/s) = 6.96063 7.29444 7.12949
#
# Compressibility (1/GPa) = 0.01788401
#
# Stress axis : x y z
#
# Youngs Moduli (GPa) = 43.70327 84.36157 94.28857
#
# Poissons Ratio (x) = 0.69833 0.37995
# Poissons Ratio (y) = 0.36177 0.13399
# Poissons Ratio (z) = 0.17611 0.11988
#
# Static dielectric constant tensor:
#      x y z
#    x 3.481660 0.000000 0.000000 
#    y 0.000000 3.401680 0.000000 
#    z 0.000000 0.000000 3.755660 
# 
# 
# High freq. dielectric constant tensor:
#      x y z
#    x 1.744920 0.000000 0.000000 
#    y 0.000000 1.748720 0.000000 
#    z 0.000000 0.000000 1.763640 
# 
# From -- ./inp_files/3609.got.cif
#   From: 2010.03.12/outbox.cif.g09.slc.cpg/sg31_2_cif.got.tgz:3609.got - 2010.04.14 01:42:59.
