data_PCOD8170531
_publ_section_title
;
Structure prediction by ZEFSAII (Michael W. Deem and Ramdas Pophale) SiO2 
 PCOD8170531
Probable space group: P B A 2
;
_chemical_formula_sum "Si O2"
_cell_formula_units_Z 20
_cell_length_a 15.590337
_cell_length_b 11.576831
_cell_length_c 4.851727
_cell_angle_alpha 90.000000
_cell_angle_beta 90.000000
_cell_angle_gamma 90.000000
_cell_volume 875.672179
_symmetry_space_group_name_H-M "P B A 2"
_symmetry_group_IT_number 32
_symmetry_cell_setting 'orthorhombic'
loop_
_space_group_symop_operation_xyz
x,y,z
-x,-y,z
1/2-x,1/2+y,z
1/2+x,1/2-y,z
loop_
_atom_site_type_symbol
_atom_site_label
_atom_site_fract_x
_atom_site_fract_y
_atom_site_fract_z
Si Si1 0.722817 0.808080 0.985260
Si Si2 0.442523 0.702406 0.590381
Si Si3 0.826283 0.988433 0.299111
Si Si4 0.058573 0.810302 0.101795
Si Si5 0.283847 0.821337 0.486134
O O1 0.740120 0.781137 0.665355
O O2 0.761999 0.930034 0.078133
O O3 0.620137 0.797139 0.024462
O O4 0.772275 0.710829 0.165036
O O5 0.384348 0.596895 0.480565
O O6 0.525619 0.719188 0.405208
O O7 0.384487 0.819777 0.574370
O O8 0.476763 0.677493 0.898175
O O9 0.888592 0.070426 0.118967
O O10 0.765647 0.057232 0.520017
#
# Coordination Sequence:
#
# PCOD8170531 Si02
#       5
#     4   4   4   4   4
#     4  10  22  39  59  88 124 163 205 254 315 385
#     4  11  23  39  61  93 123 155 205 268 313 360
#     4  10  23  40  65  88 124 174 214 250 317 394
#     4  11  23  39  61  93 123 155 205 268 313 360
#     4  10  22  39  59  88 124 163 205 254 315 385
#
# _framework density 22.839594999999999
#
# number of rings (size 3 to 8) (size 9 to 14) (size 15 to 20)
#    0.000    1.600    0.000    5.400    0.000   19.200 
#    0.000    1.000    0.000    2.400    0.000    0.000 
#    0.000    0.000    0.000    0.000    0.000    0.000 
#
# Total GULP energy -247865.940579 kJ/mol
# GULP energy per Si atom -12393.297029 kJ/mol
# Density = 2.278761 g / cm^3
# Si number density = 22.839595 Si / 1000 Ang^3
#
#
#
# Elastic Constant Matrix: (Units=GPa)
#
#
# Indices 1 2 3 4 5 6 
#
# 1 128.6910 56.9501 18.7912 0.0000 0.0000 0.0000
# 2 56.9501 44.3500 17.1114 0.0000 0.0000 0.0000
# 3 18.7912 17.1114 66.8943 0.0000 0.0000 0.0000
# 4 0.0000 0.0000 0.0000 28.7031 0.0000 0.0000
# 5 0.0000 0.0000 0.0000 0.0000 44.5146 0.0000
# 6 0.0000 0.0000 0.0000 0.0000 0.0000 53.9587
#
#
#
# Elastic Compliance Matrix: (Units=1/GPa)
#
#
# Indices 1 2 3 4 5 6 
#
# 1 0.018053 -0.023549 0.000953 0.000000 0.000000 0.000000
# 2 -0.023549 0.055736 -0.007642 0.000000 0.000000 0.000000
# 3 0.000953 -0.007642 0.016636 0.000000 0.000000 0.000000
# 4 0.000000 0.000000 0.000000 0.034839 0.000000 0.000000
# 5 0.000000 0.000000 0.000000 0.000000 0.022465 0.000000
# 6 0.000000 0.000000 0.000000 0.000000 0.000000 0.018533
#
#
# Mechanical properties :
#
#
# Convention : Reuss Voigt Hill
#
# Bulk Modulus (GPa) = 33.39129 47.29341 40.34235
# Shear Modulus (GPa) = 21.12187 35.24078 28.18132
#
# Velocity S-wave (km/s) = 3.04434 3.93233 3.51647
# Velocity P-wave (km/s) = 5.19702 6.43190 5.84715
#
# Compressibility (1/GPa) = 0.02994793
#
# Stress axis : x y z
#
# Youngs Moduli (GPa) = 55.39318 17.94170 60.11004
#
# Poissons Ratio (x) = 0.42251 -0.05726
# Poissons Ratio (y) = 1.30447 0.45936
# Poissons Ratio (z) = -0.05277 0.13711
#
# Static dielectric constant tensor:
#      x y z
#    x 4.463520 0.000000 0.000000 
#    y 0.000000 4.048160 0.000000 
#    z 0.000000 0.000000 4.055120 
# 
# 
# High freq. dielectric constant tensor:
#      x y z
#    x 1.914490 0.000000 0.000000 
#    y 0.000000 1.861800 0.000000 
#    z 0.000000 0.000000 1.914180 
# 
# From -- ./inp_files/1162.got.cif
#   From: 2010.03.12/outbox.cif.g09.slc.cpg/sg32_1_cif.got.tgz:1162.got - 2010.04.14 01:46:39.
