data_PCOD8170318
_publ_section_title
;
Structure prediction by ZEFSAII (Michael W. Deem and Ramdas Pophale) SiO2 
 PCOD8170318
Probable space group: P M N 21
;
_chemical_formula_sum "Si O2"
_cell_formula_units_Z 32
_cell_length_a 15.118332
_cell_length_b 9.037076
_cell_length_c 11.663329
_cell_angle_alpha 90.000000
_cell_angle_beta 90.000000
_cell_angle_gamma 90.000000
_cell_volume 1593.508334
_symmetry_space_group_name_H-M "P M N 21"
_symmetry_group_IT_number 31
_symmetry_cell_setting 'orthorhombic'
loop_
_space_group_symop_operation_xyz
x,y,z
1/2-x,-y,1/2+z
-x,y,z
1/2+x,-y,1/2+z
loop_
_atom_site_type_symbol
_atom_site_label
_atom_site_fract_x
_atom_site_fract_y
_atom_site_fract_z
Si Si1 0.338756 0.822603 0.447280
Si Si2 0.309362 0.382293 0.924257
Si Si3 0.101886 0.212964 0.694782
Si Si4 0.602804 0.440359 0.164399
Si Si5 0.740492 0.677685 0.810682
Si Si6 0.095698 0.148321 0.177189
Si Si7 0.598712 0.107444 0.827310
Si Si8 0.295825 0.917547 0.986822
O O1 0.290120 0.663220 0.459137
O O2 0.378092 0.848403 0.321545
O O3 0.416068 0.827569 0.540926
O O4 0.272603 0.949379 0.491717
O O5 0.307864 0.528809 0.849636
O O6 0.339493 0.249688 0.839756
O O7 0.372680 0.399727 0.033890
O O8 0.119856 0.387333 0.686939
O O9 0.169907 0.129479 0.611699
O O10 0.000000 0.177945 0.663243
O O11 0.500000 0.398394 0.185459
O O12 0.663700 0.348084 0.252695
O O13 0.675259 0.749999 0.719291
O O14 0.751299 0.780471 0.922366
O O15 0.000000 0.191270 0.232521
O O16 0.114063 0.973588 0.204698
O O17 0.500000 0.165309 0.844875
O O18 0.618687 0.976271 0.918208
#
# Coordination Sequence:
#
# PCOD8170318 Si02
#       8
#     4   4   4   4   4   4   4   4
#     4  11  23  38  63  90 124 167 211 260 322 379
#     4  11  21  38  62  90 127 164 208 263 315 378
#     4  11  23  40  64  94 127 167 217 269 320 385
#     4  11  23  39  64  97 131 168 215 268 322 382
#     4  11  22  41  62  94 127 166 206 264 324 379
#     4  10  22  40  62  90 128 167 209 259 323 389
#     4   9  20  37  59  89 121 155 204 262 311 370
#     4  10  23  37  63  88 123 164 206 259 319 380
#
# _framework density 20.081477
#
# number of rings (size 3 to 8) (size 9 to 14) (size 15 to 20)
#    0.000    1.500    3.750    1.125    5.250    1.500 
#    0.000    3.750    0.000    0.000    0.000    0.000 
#    0.000    0.000    0.000    0.000    0.000    0.000 
#
# Total GULP energy -396671.762695 kJ/mol
# GULP energy per Si atom -12395.992584 kJ/mol
# Density = 2.003577 g / cm^3
# Si number density = 20.081477 Si / 1000 Ang^3
#
#
#
# Elastic Constant Matrix: (Units=GPa)
#
#
# Indices 1 2 3 4 5 6 
#
# 1 85.8786 27.8040 26.4448 0.0000 0.0000 0.0000
# 2 27.8040 91.3149 29.3918 0.0000 0.0000 0.0000
# 3 26.4448 29.3918 107.5693 0.0000 0.0000 0.0000
# 4 0.0000 0.0000 0.0000 25.9875 0.0000 0.0000
# 5 0.0000 0.0000 0.0000 0.0000 28.1975 0.0000
# 6 0.0000 0.0000 0.0000 0.0000 0.0000 23.8373
#
#
#
# Elastic Compliance Matrix: (Units=1/GPa)
#
#
# Indices 1 2 3 4 5 6 
#
# 1 0.013460 -0.003326 -0.002400 0.000000 0.000000 0.000000
# 2 -0.003326 0.012829 -0.002688 0.000000 0.000000 0.000000
# 3 -0.002400 -0.002688 0.010621 0.000000 0.000000 0.000000
# 4 0.000000 0.000000 0.000000 0.038480 0.000000 0.000000
# 5 0.000000 0.000000 0.000000 0.000000 0.035464 0.000000
# 6 0.000000 0.000000 0.000000 0.000000 0.000000 0.041951
#
#
# Mechanical properties :
#
#
# Convention : Reuss Voigt Hill
#
# Bulk Modulus (GPa) = 49.79528 50.22711 50.01120
# Shear Modulus (GPa) = 28.35639 29.01259 28.68449
#
# Velocity S-wave (km/s) = 3.76182 3.80510 3.78353
# Velocity P-wave (km/s) = 6.61203 6.66116 6.63664
#
# Compressibility (1/GPa) = 0.02008222
#
# Stress axis : x y z
#
# Youngs Moduli (GPa) = 74.29279 77.94917 94.15491
#
# Poissons Ratio (x) = 0.25925 0.22600
# Poissons Ratio (y) = 0.24709 0.25306
# Poissons Ratio (z) = 0.17833 0.20950
#
# Static dielectric constant tensor:
#      x y z
#    x 3.682100 0.000000 0.000000 
#    y 0.000000 3.645770 0.000000 
#    z 0.000000 0.000000 3.700610 
# 
# 
# High freq. dielectric constant tensor:
#      x y z
#    x 1.786960 0.000000 0.000000 
#    y 0.000000 1.780580 0.000000 
#    z 0.000000 0.000000 1.784740 
# 
# From -- ./inp_files/4272.got.cif
#   From: 2010.03.12/outbox.cif.g09.slc.cpg/sg31_3_cif.got.tgz:4272.got - 2010.04.14 01:42:59.
