data_PCOD8170800
_publ_section_title
;
Structure prediction by ZEFSAII (Michael W. Deem and Ramdas Pophale) SiO2 
 PCOD8170800
Probable space group: P N A 21
;
_chemical_formula_sum "Si O2"
_cell_formula_units_Z 28
_cell_length_a 11.751623
_cell_length_b 17.362732
_cell_length_c 6.246242
_cell_angle_alpha 90.000000
_cell_angle_beta 90.000000
_cell_angle_gamma 90.000000
_cell_volume 1274.484971
_symmetry_space_group_name_H-M "P N A 21"
_symmetry_group_IT_number 33
_symmetry_cell_setting 'orthorhombic'
loop_
_space_group_symop_operation_xyz
x,y,z
-x,-y,1/2+z
1/2-x,1/2+y,1/2+z
1/2+x,1/2-y,z
loop_
_atom_site_type_symbol
_atom_site_label
_atom_site_fract_x
_atom_site_fract_y
_atom_site_fract_z
Si Si1 0.768976 0.227592 0.503490
Si Si2 0.190693 0.047532 0.390729
Si Si3 0.884130 0.677087 0.665997
Si Si4 0.461081 0.649326 0.627875
Si Si5 0.818161 0.130507 0.889760
Si Si6 0.636376 0.848734 0.674411
Si Si7 0.290087 0.638401 0.284562
O O1 0.686858 0.165832 0.385275
O O2 0.845107 0.178507 0.672191
O O3 0.846065 0.274129 0.329164
O O4 0.690599 0.289522 0.626386
O O5 0.075207 0.094896 0.326732
O O6 0.297345 0.075746 0.250826
O O7 0.227229 0.062454 0.637379
O O8 0.167935 0.959158 0.341840
O O9 0.905205 0.767787 0.653864
O O10 0.810231 0.648823 0.464294
O O11 0.002704 0.631220 0.667534
O O12 0.595854 0.653584 0.583605
O O13 0.402551 0.615944 0.414445
O O14 0.682350 0.835819 0.432442
#
# Coordination Sequence:
#
# PCOD8170800 Si02
#       7
#     4   4   4   4   4   4   4
#     4  11  21  41  67 104 133 176 227 285 340 421
#     4  10  25  47  65 100 138 184 232 290 362 404
#     4  12  23  43  67 101 138 177 240 284 341 428
#     4  11  23  42  68  98 138 181 234 284 345 424
#     4  12  28  42  70 108 140 181 238 288 355 417
#     4  10  23  44  69  97 139 181 233 284 350 421
#     4  10  19  43  70  92 132 184 224 283 349 409
#
# _framework density 21.969659
#
# number of rings (size 3 to 8) (size 9 to 14) (size 15 to 20)
#    0.000    1.143    5.714    1.714    4.000    5.714 
#    5.143    0.000    0.000    0.000    0.000    0.000 
#    0.000    0.000    0.000    0.000    0.000    0.000 
#
# Total GULP energy -347065.131818 kJ/mol
# GULP energy per Si atom -12395.183279 kJ/mol
# Density = 2.191965 g / cm^3
# Si number density = 21.969659 Si / 1000 Ang^3
#
#
#
# Elastic Constant Matrix: (Units=GPa)
#
#
# Indices 1 2 3 4 5 6 
#
# 1 124.9128 7.0093 32.0807 0.0000 0.0000 0.0000
# 2 7.0093 95.5925 27.3969 0.0000 0.0000 0.0000
# 3 32.0807 27.3969 107.6041 0.0000 0.0000 0.0000
# 4 0.0000 0.0000 0.0000 24.6828 0.0000 0.0000
# 5 0.0000 0.0000 0.0000 0.0000 29.3182 0.0000
# 6 0.0000 0.0000 0.0000 0.0000 0.0000 16.3674
#
#
#
# Elastic Compliance Matrix: (Units=1/GPa)
#
#
# Indices 1 2 3 4 5 6 
#
# 1 0.008671 0.000113 -0.002614 0.000000 0.000000 0.000000
# 2 0.000113 0.011286 -0.002907 0.000000 0.000000 0.000000
# 3 -0.002614 -0.002907 0.010813 0.000000 0.000000 0.000000
# 4 0.000000 0.000000 0.000000 0.040514 0.000000 0.000000
# 5 0.000000 0.000000 0.000000 0.000000 0.034108 0.000000
# 6 0.000000 0.000000 0.000000 0.000000 0.000000 0.061097
#
#
# Mechanical properties :
#
#
# Convention : Reuss Voigt Hill
#
# Bulk Modulus (GPa) = 50.11588 51.23148 50.67368
# Shear Modulus (GPa) = 27.18044 31.51518 29.34781
#
# Velocity S-wave (km/s) = 3.52117 3.79157 3.65887
# Velocity P-wave (km/s) = 6.27634 6.52210 6.40040
#
# Compressibility (1/GPa) = 0.01995376
#
# Stress axis : x y z
#
# Youngs Moduli (GPa) = 115.33319 88.60540 92.48268
#
# Poissons Ratio (x) = -0.01005 0.24174
# Poissons Ratio (y) = -0.01308 0.26888
# Poissons Ratio (z) = 0.30147 0.25760
#
# Static dielectric constant tensor:
#      x y z
#    x 3.996090 0.000000 0.000000 
#    y 0.000000 3.676580 0.000000 
#    z 0.000000 0.000000 4.358980 
# 
# 
# High freq. dielectric constant tensor:
#      x y z
#    x 1.850000 0.000000 0.000000 
#    y 0.000000 1.841060 0.000000 
#    z 0.000000 0.000000 1.878210 
# 
# From -- ./inp_files/930.got.cif
#   From: 2010.03.12/outbox.cif.g09.slc.cpg/sg33_1_cif.got.tgz:930.got - 2010.04.14 01:49:19.
