data_PCOD8170711
_publ_section_title
;
Structure prediction by ZEFSAII (Michael W. Deem and Ramdas Pophale) SiO2 
 PCOD8170711
Probable space group: P N A 21
;
_chemical_formula_sum "Si O2"
_cell_formula_units_Z 32
_cell_length_a 17.707760
_cell_length_b 5.886353
_cell_length_c 15.172679
_cell_angle_alpha 90.000000
_cell_angle_beta 90.000000
_cell_angle_gamma 90.000000
_cell_volume 1581.510938
_symmetry_space_group_name_H-M "P N A 21"
_symmetry_group_IT_number 33
_symmetry_cell_setting 'orthorhombic'
loop_
_space_group_symop_operation_xyz
x,y,z
-x,-y,1/2+z
1/2-x,1/2+y,1/2+z
1/2+x,1/2-y,z
loop_
_atom_site_type_symbol
_atom_site_label
_atom_site_fract_x
_atom_site_fract_y
_atom_site_fract_z
Si Si1 0.000000 0.093109 0.423170
Si Si2 0.719229 0.658343 0.796716
Si Si3 0.638360 0.100712 0.392642
Si Si4 0.852387 0.500000 0.173170
Si Si5 0.394721 0.276509 0.016099
Si Si6 0.861641 0.399287 0.453698
Si Si7 0.719229 0.341657 0.549624
Si Si8 0.105279 0.223492 0.830241
O O1 0.064260 0.247168 0.378294
O O2 0.935740 0.247167 0.468045
O O3 0.034100 0.944059 0.503520
O O4 0.965901 0.944058 0.342821
O O5 0.809602 0.611706 0.804929
O O6 0.700615 0.792027 0.706408
O O7 0.690618 0.818156 0.874211
O O8 0.679347 0.415085 0.802876
O O9 0.690618 0.181845 0.472129
O O10 0.615133 0.844995 0.420590
O O11 0.907332 0.406444 0.094962
O O12 0.799385 0.707974 0.139932
O O13 0.907333 0.593556 0.251378
O O14 0.320652 0.415084 0.043464
O O15 0.809602 0.388293 0.541411
O O16 0.884867 0.655005 0.425750
#
# Coordination Sequence:
#
# PCOD8170711 Si02
#       8
#     4   4   4   4   4   4   4   4
#     4  10  20  34  56  82 116 148 186 238 288 346
#     4   9  18  33  56  81 107 141 190 238 281 331
#     4   9  18  33  55  82 107 142 190 234 281 339
#     4  10  20  34  56  84 114 148 196 238 288 344
#     4  10  19  34  57  85 112 152 192 238 288 346
#     4   9  18  33  55  82 107 142 190 234 281 339
#     4   9  18  33  56  81 107 141 190 238 281 331
#     4  10  19  34  57  85 112 152 192 238 288 346
#
# _framework density 20.233813999999999
#
# number of rings (size 3 to 8) (size 9 to 14) (size 15 to 20)
#    0.000    2.500    0.000    2.250    0.000    2.000 
#    0.000    0.000   22.000    0.000    0.000    0.000 
#    0.000    0.000    0.000    0.000    0.000    0.000 
#
# Total GULP energy -396585.985364 kJ/mol
# GULP energy per Si atom -12393.312043 kJ/mol
# Density = 2.018776 g / cm^3
# Si number density = 20.233814 Si / 1000 Ang^3
#
#
#
# Elastic Constant Matrix: (Units=GPa)
#
#
# Indices 1 2 3 4 5 6 
#
# 1 140.4325 56.0219 42.0305 0.0000 0.0000 0.0000
# 2 56.0219 120.7243 36.8492 0.0000 0.0000 0.0000
# 3 42.0305 36.8492 65.3224 0.0000 0.0000 0.0000
# 4 0.0000 0.0000 0.0000 35.7211 0.0000 0.0000
# 5 0.0000 0.0000 0.0000 0.0000 16.0122 0.0000
# 6 0.0000 0.0000 0.0000 0.0000 0.0000 20.1263
#
#
#
# Elastic Compliance Matrix: (Units=1/GPa)
#
#
# Indices 1 2 3 4 5 6 
#
# 1 0.009714 -0.003141 -0.004479 0.000000 0.000000 0.000000
# 2 -0.003141 0.011022 -0.004197 0.000000 0.000000 0.000000
# 3 -0.004479 -0.004197 0.020558 0.000000 0.000000 0.000000
# 4 0.000000 0.000000 0.000000 0.027995 0.000000 0.000000
# 5 0.000000 0.000000 0.000000 0.000000 0.062452 0.000000
# 6 0.000000 0.000000 0.000000 0.000000 0.000000 0.049686
#
#
# Mechanical properties :
#
#
# Convention : Reuss Voigt Hill
#
# Bulk Modulus (GPa) = 56.62015 66.25360 61.43687
# Shear Modulus (GPa) = 23.70269 27.14375 25.42322
#
# Velocity S-wave (km/s) = 3.42634 3.66663 3.54852
# Velocity P-wave (km/s) = 6.61035 7.12325 6.87159
#
# Compressibility (1/GPa) = 0.01766156
#
# Stress axis : x y z
#
# Youngs Moduli (GPa) = 102.94151 90.72941 48.64344
#
# Poissons Ratio (x) = 0.28497 0.21786
# Poissons Ratio (y) = 0.32332 0.20414
# Poissons Ratio (z) = 0.46104 0.38076
#
# Static dielectric constant tensor:
#      x y z
#    x 3.684960 0.000000 0.000000 
#    y 0.000000 3.924190 0.000000 
#    z 0.000000 0.000000 3.539780 
# 
# 
# High freq. dielectric constant tensor:
#      x y z
#    x 1.768730 0.000000 0.000000 
#    y 0.000000 1.811120 0.000000 
#    z 0.000000 0.000000 1.755350 
# 
# From -- ./inp_files/8837.got.cif
#   From: 2010.03.12/outbox.cif.g09.slc.cpg/sg33_5_cif.got.tgz:8837.got - 2010.04.14 01:49:19.
