data_PCOD8170594
_publ_section_title
;
Structure prediction by ZEFSAII (Michael W. Deem and Ramdas Pophale) SiO2 
 PCOD8170594
Probable space group: P B A 2
;
_chemical_formula_sum "Si O2"
_cell_formula_units_Z 24
_cell_length_a 9.446217
_cell_length_b 16.109454
_cell_length_c 7.532534
_cell_angle_alpha 90.000000
_cell_angle_beta 90.000000
_cell_angle_gamma 90.000000
_cell_volume 1146.251296
_symmetry_space_group_name_H-M "P B A 2"
_symmetry_group_IT_number 32
_symmetry_cell_setting 'orthorhombic'
loop_
_space_group_symop_operation_xyz
x,y,z
-x,-y,z
1/2-x,1/2+y,z
1/2+x,1/2-y,z
loop_
_atom_site_type_symbol
_atom_site_label
_atom_site_fract_x
_atom_site_fract_y
_atom_site_fract_z
Si Si1 0.936822 0.119221 0.281350
Si Si2 0.659234 0.977544 0.942882
Si Si3 0.734937 0.466645 0.325332
Si Si4 0.088133 0.914618 0.893584
Si Si5 0.191921 0.644177 0.640304
Si Si6 0.007897 0.212789 0.600359
O O1 0.942383 0.201415 0.402138
O O2 0.081528 0.072991 0.323855
O O3 0.798281 0.065231 0.339293
O O4 0.935394 0.140163 0.071735
O O5 0.714951 0.899902 0.828293
O O6 0.500000 0.000000 0.896021
O O7 0.748081 0.059117 0.890299
O O8 0.676197 0.949859 0.147149
O O9 0.821693 0.427650 0.489824
O O10 0.050850 0.861469 0.722836
O O11 0.000000 0.000000 0.905961
O O12 0.046865 0.696786 0.656821
O O13 0.321639 0.708001 0.604480
#
# Coordination Sequence:
#
# PCOD8170594 Si02
#       6
#     4   4   4   4   4   4
#     4   9  17  36  65  87 106 151 204 240 285 352
#     4  11  23  39  63  91 118 151 202 257 293 337
#     4   9  18  38  62  86 112 149 199 247 289 340
#     4  11  19  39  67  87 108 156 205 243 292 348
#     4  11  24  41  58  89 125 159 192 240 298 357
#     4  11  24  38  61  88 123 159 194 239 299 360
#
# _framework density 20.937816999999999
#
# number of rings (size 3 to 8) (size 9 to 14) (size 15 to 20)
#    0.000    1.667    5.000    1.000    4.667    2.000 
#    6.000    0.000    0.000    0.000    0.000    0.000 
#    0.000    0.000    0.000    0.000    0.000    0.000 
#
# Total GULP energy -297500.331958 kJ/mol
# GULP energy per Si atom -12395.847165 kJ/mol
# Density = 2.089016 g / cm^3
# Si number density = 20.937817 Si / 1000 Ang^3
#
#
#
# Elastic Constant Matrix: (Units=GPa)
#
#
# Indices 1 2 3 4 5 6 
#
# 1 67.9391 5.3585 21.3168 0.0000 0.0000 0.0000
# 2 5.3585 32.1092 19.7674 0.0000 0.0000 0.0000
# 3 21.3168 19.7674 95.1820 0.0000 0.0000 0.0000
# 4 0.0000 0.0000 0.0000 18.8448 0.0000 0.0000
# 5 0.0000 0.0000 0.0000 0.0000 18.3647 0.0000
# 6 0.0000 0.0000 0.0000 0.0000 0.0000 28.1223
#
#
#
# Elastic Compliance Matrix: (Units=1/GPa)
#
#
# Indices 1 2 3 4 5 6 
#
# 1 0.015839 -0.000527 -0.003438 0.000000 0.000000 0.000000
# 2 -0.000527 0.035727 -0.007302 0.000000 0.000000 0.000000
# 3 -0.003438 -0.007302 0.012793 0.000000 0.000000 0.000000
# 4 0.000000 0.000000 0.000000 0.053065 0.000000 0.000000
# 5 0.000000 0.000000 0.000000 0.000000 0.054452 0.000000
# 6 0.000000 0.000000 0.000000 0.000000 0.000000 0.035559
#
#
# Mechanical properties :
#
#
# Convention : Reuss Voigt Hill
#
# Bulk Modulus (GPa) = 23.90875 32.01284 27.96080
# Shear Modulus (GPa) = 20.49938 22.98553 21.74246
#
# Velocity S-wave (km/s) = 3.13239 3.31690 3.22596
# Velocity P-wave (km/s) = 4.95239 5.47648 5.22101
#
# Compressibility (1/GPa) = 0.04182568
#
# Stress axis : x y z
#
# Youngs Moduli (GPa) = 63.13401 27.99021 78.17038
#
# Poissons Ratio (x) = 0.01475 0.26875
# Poissons Ratio (y) = 0.03326 0.57078
# Poissons Ratio (z) = 0.21705 0.20438
#
# Static dielectric constant tensor:
#      x y z
#    x 3.696990 0.000000 0.000000 
#    y 0.000000 4.004270 0.000000 
#    z 0.000000 0.000000 4.089020 
# 
# 
# High freq. dielectric constant tensor:
#      x y z
#    x 1.813870 0.000000 0.000000 
#    y 0.000000 1.783510 0.000000 
#    z 0.000000 0.000000 1.833490 
# 
# From -- ./inp_files/2291.got.cif
#   From: 2010.03.12/outbox.cif.g09.slc.cpg/sg32_2_cif.got.tgz:2291.got - 2010.04.14 01:46:39.
