data_PCOD8170541
_publ_section_title
;
Structure prediction by ZEFSAII (Michael W. Deem and Ramdas Pophale) SiO2 
 PCOD8170541
Probable space group: P B A 2
;
_chemical_formula_sum "Si O2"
_cell_formula_units_Z 32
_cell_length_a 13.857438
_cell_length_b 12.432179
_cell_length_c 8.809240
_cell_angle_alpha 90.000000
_cell_angle_beta 90.000000
_cell_angle_gamma 90.000000
_cell_volume 1517.639567
_symmetry_space_group_name_H-M "P B A 2"
_symmetry_group_IT_number 32
_symmetry_cell_setting 'orthorhombic'
loop_
_space_group_symop_operation_xyz
x,y,z
-x,-y,z
1/2-x,1/2+y,z
1/2+x,1/2-y,z
loop_
_atom_site_type_symbol
_atom_site_label
_atom_site_fract_x
_atom_site_fract_y
_atom_site_fract_z
Si Si1 0.576923 0.625708 0.049190
Si Si2 0.214359 0.981111 0.445012
Si Si3 0.489535 0.619542 0.719089
Si Si4 0.130988 0.759832 0.509734
Si Si5 0.698884 0.836054 0.036871
Si Si6 0.399981 0.060446 0.299236
Si Si7 0.618328 0.404889 0.188464
Si Si8 0.228861 0.127155 0.711062
O O1 0.655381 0.717902 0.045314
O O2 0.629262 0.515345 0.093224
O O3 0.488310 0.646459 0.168776
O O4 0.536245 0.611739 0.882660
O O5 0.170191 0.863593 0.420376
O O6 0.319378 0.982477 0.369229
O O7 0.142856 0.068991 0.364696
O O8 0.225381 0.012184 0.623064
O O9 0.500000 0.500000 0.643629
O O10 0.542445 0.708067 0.617137
O O11 0.380867 0.662008 0.741310
O O12 0.093972 0.673039 0.389179
O O13 0.220137 0.714997 0.606195
O O14 0.627078 0.917174 0.124032
O O15 0.801291 0.824679 0.122549
O O16 0.711608 0.881767 0.867139
O O17 0.500000 0.000000 0.309080
#
# Coordination Sequence:
#
# PCOD8170541 Si02
#       8
#     4   4   4   4   4   4   4   4
#     4  11  21  39  69  98 129 177 231 282 342 403
#     4  10  23  43  66 100 132 175 223 287 344 404
#     4  12  21  39  67 101 134 176 234 290 335 409
#     4  11  24  43  69 101 136 181 227 284 352 412
#     4  11  22  43  64  94 134 177 220 278 348 401
#     4  10  25  48  66  98 142 180 230 283 344 417
#     4  10  22  41  66  94 129 169 227 290 327 405
#     4  11  23  39  66  97 137 173 225 283 345 408
#
# _framework density 21.085376
#
# number of rings (size 3 to 8) (size 9 to 14) (size 15 to 20)
#    0.000    1.250    5.000    0.750    1.750    3.000 
#    9.000    3.750    0.000    0.000    0.000    0.000 
#    0.000    0.000    0.000    0.000    0.000    0.000 
#
# Total GULP energy -396837.227750 kJ/mol
# GULP energy per Si atom -12401.163367 kJ/mol
# Density = 2.103738 g / cm^3
# Si number density = 21.085376 Si / 1000 Ang^3
#
#
#
# Elastic Constant Matrix: (Units=GPa)
#
#
# Indices 1 2 3 4 5 6 
#
# 1 136.2299 65.9746 48.3757 0.0000 0.0000 0.0000
# 2 65.9746 96.9594 39.5231 0.0000 0.0000 0.0000
# 3 48.3757 39.5231 115.5353 0.0000 0.0000 0.0000
# 4 0.0000 0.0000 0.0000 26.5950 0.0000 0.0000
# 5 0.0000 0.0000 0.0000 0.0000 28.0432 0.0000
# 6 0.0000 0.0000 0.0000 0.0000 0.0000 44.3119
#
#
#
# Elastic Compliance Matrix: (Units=1/GPa)
#
#
# Indices 1 2 3 4 5 6 
#
# 1 0.011534 -0.006833 -0.002492 0.000000 0.000000 0.000000
# 2 -0.006833 0.016032 -0.002624 0.000000 0.000000 0.000000
# 3 -0.002492 -0.002624 0.010596 0.000000 0.000000 0.000000
# 4 0.000000 0.000000 0.000000 0.037601 0.000000 0.000000
# 5 0.000000 0.000000 0.000000 0.000000 0.035659 0.000000
# 6 0.000000 0.000000 0.000000 0.000000 0.000000 0.022567
#
#
# Mechanical properties :
#
#
# Convention : Reuss Voigt Hill
#
# Bulk Modulus (GPa) = 70.09535 72.94127 71.51831
# Shear Modulus (GPa) = 30.74223 32.78010 31.76116
#
# Velocity S-wave (km/s) = 3.82250 3.94717 3.88533
# Velocity P-wave (km/s) = 7.26621 7.44593 7.35662
#
# Compressibility (1/GPa) = 0.01426628
#
# Stress axis : x y z
#
# Youngs Moduli (GPa) = 86.69671 62.37480 94.37197
#
# Poissons Ratio (x) = 0.42618 0.23520
# Poissons Ratio (y) = 0.59236 0.24759
# Poissons Ratio (z) = 0.21607 0.16364
#
# Static dielectric constant tensor:
#      x y z
#    x 3.976660 0.000000 0.000000 
#    y 0.000000 3.696990 0.000000 
#    z 0.000000 0.000000 4.053490 
# 
# 
# High freq. dielectric constant tensor:
#      x y z
#    x 1.835060 0.000000 0.000000 
#    y 0.000000 1.804950 0.000000 
#    z 0.000000 0.000000 1.841160 
# 
# From -- ./inp_files/3082.got.cif
#   From: 2010.03.12/outbox.cif.g09.slc.cpg/sg32_2_cif.got.tgz:3082.got - 2010.04.14 01:46:39.
