data_PCOD8170733
_publ_section_title
;
Structure prediction by ZEFSAII (Michael W. Deem and Ramdas Pophale) SiO2 
 PCOD8170733
Probable space group: P N A 21
;
_chemical_formula_sum "Si O2"
_cell_formula_units_Z 32
_cell_length_a 10.803336
_cell_length_b 18.566050
_cell_length_c 8.041161
_cell_angle_alpha 90.000000
_cell_angle_beta 90.000000
_cell_angle_gamma 90.000000
_cell_volume 1612.858090
_symmetry_space_group_name_H-M "P N A 21"
_symmetry_group_IT_number 33
_symmetry_cell_setting 'orthorhombic'
loop_
_space_group_symop_operation_xyz
x,y,z
-x,-y,1/2+z
1/2-x,1/2+y,1/2+z
1/2+x,1/2-y,z
loop_
_atom_site_type_symbol
_atom_site_label
_atom_site_fract_x
_atom_site_fract_y
_atom_site_fract_z
Si Si1 0.555027 0.621587 0.195790
Si Si2 0.463446 0.249275 0.461104
Si Si3 0.757704 0.549660 0.998006
Si Si4 0.208123 0.306954 0.318239
Si Si5 0.920169 0.524909 0.301843
Si Si6 0.404320 0.091817 0.557585
Si Si7 0.274118 0.390665 0.001910
Si Si8 0.324529 0.528067 0.190654
O O1 0.642124 0.641341 0.353145
O O2 0.441772 0.572505 0.252519
O O3 0.508563 0.694644 0.108993
O O4 0.622668 0.572169 0.060486
O O5 0.338253 0.269368 0.363836
O O6 0.586929 0.244586 0.342976
O O7 0.437194 0.174390 0.549480
O O8 0.821525 0.623706 0.933938
O O9 0.750145 0.490563 0.856283
O O10 0.831596 0.510785 0.144956
O O11 0.228522 0.328110 0.125855
O O12 0.956716 0.450560 0.394732
O O13 0.853411 0.576610 0.433573
O O14 0.043064 0.561224 0.231144
O O15 0.256792 0.078548 0.568497
O O16 0.354112 0.452505 0.096554
#
# Coordination Sequence:
#
# PCOD8170733 Si02
#       8
#     4   4   4   4   4   4   4   4
#     4  10  20  37  60  89 121 165 202 247 310 381
#     4  11  23  40  63  83 130 165 207 241 320 379
#     4   9  18  36  61  84 118 160 196 253 313 361
#     4  10  21  42  61  87 120 169 202 252 310 377
#     4  10  20  36  60  86 115 153 207 255 310 360
#     4  11  22  35  59  89 118 154 201 258 303 368
#     4   9  21  39  62  88 120 159 211 258 309 362
#     4  10  19  35  60  92 120 151 208 260 305 358
#
# _framework density 19.840555999999999
#
# number of rings (size 3 to 8) (size 9 to 14) (size 15 to 20)
#    0.000    2.000    1.250    2.250    3.500    0.000 
#    2.250    3.750    0.000    0.000    0.000    0.000 
#    0.000    0.000    0.000    0.000    0.000    0.000 
#
# Total GULP energy -396667.099776 kJ/mol
# GULP energy per Si atom -12395.846868 kJ/mol
# Density = 1.979540 g / cm^3
# Si number density = 19.840556 Si / 1000 Ang^3
#
#
#
# Elastic Constant Matrix: (Units=GPa)
#
#
# Indices 1 2 3 4 5 6 
#
# 1 94.2204 45.9961 30.8335 0.0000 0.0000 0.0000
# 2 45.9961 92.5628 45.6171 0.0000 0.0000 0.0000
# 3 30.8335 45.6171 107.0702 0.0000 0.0000 0.0000
# 4 0.0000 0.0000 0.0000 30.2118 0.0000 0.0000
# 5 0.0000 0.0000 0.0000 0.0000 29.0544 0.0000
# 6 0.0000 0.0000 0.0000 0.0000 0.0000 27.7224
#
#
#
# Elastic Compliance Matrix: (Units=1/GPa)
#
#
# Indices 1 2 3 4 5 6 
#
# 1 0.014169 -0.006367 -0.001368 0.000000 0.000000 0.000000
# 2 -0.006367 0.016536 -0.005211 0.000000 0.000000 0.000000
# 3 -0.001368 -0.005211 0.011954 0.000000 0.000000 0.000000
# 4 0.000000 0.000000 0.000000 0.033100 0.000000 0.000000
# 5 0.000000 0.000000 0.000000 0.000000 0.034418 0.000000
# 6 0.000000 0.000000 0.000000 0.000000 0.000000 0.036072
#
#
# Mechanical properties :
#
#
# Convention : Reuss Voigt Hill
#
# Bulk Modulus (GPa) = 59.64285 59.86075 59.75180
# Shear Modulus (GPa) = 28.13267 28.82485 28.47876
#
# Velocity S-wave (km/s) = 3.76964 3.81573 3.79275
# Velocity P-wave (km/s) = 7.00523 7.04624 7.02576
#
# Compressibility (1/GPa) = 0.01676647
#
# Stress axis : x y z
#
# Youngs Moduli (GPa) = 70.57592 60.47561 83.65469
#
# Poissons Ratio (x) = 0.38504 0.11442
# Poissons Ratio (y) = 0.44934 0.43596
# Poissons Ratio (z) = 0.09653 0.31517
#
# Static dielectric constant tensor:
#      x y z
#    x 3.701810 0.000000 0.000000 
#    y 0.000000 3.441620 0.000000 
#    z 0.000000 0.000000 3.637630 
# 
# 
# High freq. dielectric constant tensor:
#      x y z
#    x 1.784210 0.000000 0.000000 
#    y 0.000000 1.753700 0.000000 
#    z 0.000000 0.000000 1.774730 
# 
# From -- ./inp_files/4085.got.cif
#   From: 2010.03.12/outbox.cif.g09.slc.cpg/sg33_3_cif.got.tgz:4085.got - 2010.04.14 01:49:19.
