data_PCOD8170678
_publ_section_title
;
Structure prediction by ZEFSAII (Michael W. Deem and Ramdas Pophale) SiO2 
 PCOD8170678
Probable space group: P N A 21
;
_chemical_formula_sum "Si O2"
_cell_formula_units_Z 28
_cell_length_a 13.453436
_cell_length_b 10.917414
_cell_length_c 8.687505
_cell_angle_alpha 90.000000
_cell_angle_beta 90.000000
_cell_angle_gamma 90.000000
_cell_volume 1275.992331
_symmetry_space_group_name_H-M "P N A 21"
_symmetry_group_IT_number 33
_symmetry_cell_setting 'orthorhombic'
loop_
_space_group_symop_operation_xyz
x,y,z
-x,-y,1/2+z
1/2-x,1/2+y,1/2+z
1/2+x,1/2-y,z
loop_
_atom_site_type_symbol
_atom_site_label
_atom_site_fract_x
_atom_site_fract_y
_atom_site_fract_z
Si Si1 0.336057 0.176930 0.187760
Si Si2 0.729800 0.051163 0.828505
Si Si3 0.529972 0.760791 0.947295
Si Si4 0.671593 0.942785 0.127825
Si Si5 0.650903 0.547070 0.046329
Si Si6 0.273865 0.683906 0.397871
Si Si7 0.823089 0.662863 0.844446
O O1 0.428870 0.241473 0.270272
O O2 0.230897 0.228633 0.252762
O O3 0.344419 0.031751 0.224864
O O4 0.327090 0.195952 0.003808
O O5 0.832720 0.056535 0.731233
O O6 0.679479 0.182602 0.866207
O O7 0.745918 0.986245 0.992798
O O8 0.551558 0.624231 0.011961
O O9 0.413151 0.781741 0.943231
O O10 0.581179 0.865291 0.053488
O O11 0.740933 0.858932 0.230968
O O12 0.633978 0.059403 0.227193
O O13 0.646300 0.407102 0.981029
O O14 0.746182 0.607491 0.965183
#
# Coordination Sequence:
#
# PCOD8170678 Si02
#       7
#     4   4   4   4   4   4   4
#     4   9  20  36  58  84 110 154 191 236 297 343
#     4  10  18  35  63  82 113 150 195 237 295 352
#     4  10  20  36  58  83 118 149 192 242 292 348
#     4  10  20  32  58  90 112 154 198 242 292 350
#     4   9  20  36  58  84 110 154 191 236 297 343
#     4  10  18  35  63  82 113 150 195 237 295 352
#     4  10  20  36  58  83 118 149 192 242 292 348
#
# _framework density 21.943704
#
# number of rings (size 3 to 8) (size 9 to 14) (size 15 to 20)
#    0.000    2.286    2.857    0.000    0.000    4.571 
#    0.000    0.000   12.571    0.000    0.000    0.000 
#    0.000    0.000    0.000    0.000    0.000    0.000 
#
# Total GULP energy -346894.716088 kJ/mol
# GULP energy per Si atom -12389.097003 kJ/mol
# Density = 2.189376 g / cm^3
# Si number density = 21.943704 Si / 1000 Ang^3
#
#
#
# Elastic Constant Matrix: (Units=GPa)
#
#
# Indices 1 2 3 4 5 6 
#
# 1 45.5773 14.0053 10.6261 0.0000 0.0000 0.0000
# 2 14.0053 121.0558 27.0433 0.0000 0.0000 0.0000
# 3 10.6261 27.0433 111.6240 0.0000 0.0000 0.0000
# 4 0.0000 0.0000 0.0000 37.4264 0.0000 0.0000
# 5 0.0000 0.0000 0.0000 0.0000 16.8414 0.0000
# 6 0.0000 0.0000 0.0000 0.0000 0.0000 15.7249
#
#
#
# Elastic Compliance Matrix: (Units=1/GPa)
#
#
# Indices 1 2 3 4 5 6 
#
# 1 0.023028 -0.002299 -0.001635 0.000000 0.000000 0.000000
# 2 -0.002299 0.008963 -0.001953 0.000000 0.000000 0.000000
# 3 -0.001635 -0.001953 0.009587 0.000000 0.000000 0.000000
# 4 0.000000 0.000000 0.000000 0.026719 0.000000 0.000000
# 5 0.000000 0.000000 0.000000 0.000000 0.059378 0.000000
# 6 0.000000 0.000000 0.000000 0.000000 0.000000 0.063594
#
#
# Mechanical properties :
#
#
# Convention : Reuss Voigt Hill
#
# Bulk Modulus (GPa) = 33.55131 42.40074 37.97603
# Shear Modulus (GPa) = 23.47668 29.10402 26.29035
#
# Velocity S-wave (km/s) = 3.27442 3.64580 3.46509
# Velocity P-wave (km/s) = 5.44230 6.08990 5.77519
#
# Compressibility (1/GPa) = 0.02980510
#
# Stress axis : x y z
#
# Youngs Moduli (GPa) = 43.42463 111.57201 104.30390
#
# Poissons Ratio (x) = 0.25649 0.17056
# Poissons Ratio (y) = 0.09983 0.20366
# Poissons Ratio (z) = 0.07101 0.21785
#
# Static dielectric constant tensor:
#      x y z
#    x 3.156660 0.000000 0.000000 
#    y 0.000000 4.457940 0.000000 
#    z 0.000000 0.000000 4.349110 
# 
# 
# High freq. dielectric constant tensor:
#      x y z
#    x 1.782000 0.000000 0.000000 
#    y 0.000000 1.884960 0.000000 
#    z 0.000000 0.000000 1.883180 
# 
# From -- ./inp_files/4334.got.cif
#   From: 2010.03.12/outbox.cif.g09.slc.cpg/sg33_3_cif.got.tgz:4334.got - 2010.04.14 01:49:19.
