data_PCOD8170070
_publ_section_title
;
Structure prediction by ZEFSAII (Michael W. Deem and Ramdas Pophale) SiO2 
 PCOD8170070
Probable space group: P M N 21
;
_chemical_formula_sum "Si O2"
_cell_formula_units_Z 32
_cell_length_a 9.323777
_cell_length_b 12.044852
_cell_length_c 14.420483
_cell_angle_alpha 90.000000
_cell_angle_beta 90.000000
_cell_angle_gamma 90.000000
_cell_volume 1619.470915
_symmetry_space_group_name_H-M "P M N 21"
_symmetry_group_IT_number 31
_symmetry_cell_setting 'orthorhombic'
loop_
_space_group_symop_operation_xyz
x,y,z
1/2-x,-y,1/2+z
-x,y,z
1/2+x,-y,1/2+z
loop_
_atom_site_type_symbol
_atom_site_label
_atom_site_fract_x
_atom_site_fract_y
_atom_site_fract_z
Si Si1 0.166776 0.906084 0.593180
Si Si2 0.667509 0.195848 0.427827
Si Si3 0.668569 0.845013 0.111470
Si Si4 0.333622 0.404364 0.934131
Si Si5 0.658207 0.747784 0.299918
Si Si6 0.669807 0.336909 0.140072
Si Si7 0.330572 0.621025 0.819425
Si Si8 0.656119 0.948510 0.421414
O O1 0.211393 0.794772 0.649617
O O2 0.231955 0.895272 0.491350
O O3 0.000000 0.899844 0.577011
O O4 0.211208 0.026120 0.636304
O O5 0.500000 0.230487 0.429748
O O6 0.734523 0.202743 0.529734
O O7 0.755826 0.269714 0.357243
O O8 0.692459 0.072444 0.388863
O O9 0.500000 0.839656 0.085340
O O10 0.705707 0.758625 0.193258
O O11 0.500000 0.378328 0.931951
O O12 0.266019 0.319926 0.861805
O O13 0.298097 0.526486 0.895757
O O14 0.279322 0.385954 0.039825
O O15 0.500000 0.693359 0.308403
O O16 0.652868 0.875935 0.329576
O O17 0.500000 0.356167 0.154859
O O18 0.757472 0.403945 0.219232
O O19 0.500000 0.637733 0.805421
O O20 0.500000 0.948797 0.471086
#
# Coordination Sequence:
#
# PCOD8170070 Si02
#       8
#     4   4   4   4   4   4   4   4
#     4   9  17  32  57  83 114 155 196 236 287 346
#     4  10  21  38  59  84 119 157 196 242 291 347
#     4   9  19  34  55  86 124 161 195 237 293 352
#     4  10  23  43  62  84 117 154 198 250 294 344
#     4  10  20  34  57  87 118 155 193 236 291 351
#     4  10  21  39  63  87 113 152 197 244 296 352
#     4  11  25  42  61  87 118 154 198 248 296 346
#     4   9  18  32  54  84 119 152 187 237 290 342
#
# _framework density 19.759539
#
# number of rings (size 3 to 8) (size 9 to 14) (size 15 to 20)
#    0.000    2.250    1.250    0.750    1.750    4.000 
#    0.000    3.750    0.000    0.000    0.000    0.000 
#    0.000    0.000    0.000    0.000    0.000    0.000 
#
# Total GULP energy -396584.440876 kJ/mol
# GULP energy per Si atom -12393.263777 kJ/mol
# Density = 1.971457 g / cm^3
# Si number density = 19.759539 Si / 1000 Ang^3
#
#
#
# Elastic Constant Matrix: (Units=GPa)
#
#
# Indices 1 2 3 4 5 6 
#
# 1 52.8593 39.3069 43.8527 0.0000 0.0000 0.0000
# 2 39.3069 57.9123 39.4707 0.0000 0.0000 0.0000
# 3 43.8527 39.4707 93.7412 0.0000 0.0000 0.0000
# 4 0.0000 0.0000 0.0000 23.9384 0.0000 0.0000
# 5 0.0000 0.0000 0.0000 0.0000 33.7665 0.0000
# 6 0.0000 0.0000 0.0000 0.0000 0.0000 22.0295
#
#
#
# Elastic Compliance Matrix: (Units=1/GPa)
#
#
# Indices 1 2 3 4 5 6 
#
# 1 0.045820 -0.023127 -0.011697 0.000000 0.000000 0.000000
# 2 -0.023127 0.035891 -0.004293 0.000000 0.000000 0.000000
# 3 -0.011697 -0.004293 0.017947 0.000000 0.000000 0.000000
# 4 0.000000 0.000000 0.000000 0.041774 0.000000 0.000000
# 5 0.000000 0.000000 0.000000 0.000000 0.029615 0.000000
# 6 0.000000 0.000000 0.000000 0.000000 0.000000 0.045394
#
#
# Mechanical properties :
#
#
# Convention : Reuss Voigt Hill
#
# Bulk Modulus (GPa) = 46.67808 49.97482 48.32645
# Shear Modulus (GPa) = 16.56643 21.40572 18.98607
#
# Velocity S-wave (km/s) = 2.89866 3.29494 3.10313
# Velocity P-wave (km/s) = 5.90570 6.31046 6.11143
#
# Compressibility (1/GPa) = 0.02142333
#
# Stress axis : x y z
#
# Youngs Moduli (GPa) = 21.82473 27.86243 55.71921
#
# Poissons Ratio (x) = 0.64438 0.65173
# Poissons Ratio (y) = 0.50474 0.23921
# Poissons Ratio (z) = 0.25528 0.11962
#
# Static dielectric constant tensor:
#      x y z
#    x 3.611460 0.000000 0.000000 
#    y 0.000000 3.693700 0.000000 
#    z 0.000000 0.000000 3.572540 
# 
# 
# High freq. dielectric constant tensor:
#      x y z
#    x 1.765090 0.000000 0.000000 
#    y 0.000000 1.767960 0.000000 
#    z 0.000000 0.000000 1.768200 
# 
# From -- ./inp_files/5074.got.cif
#   From: 2010.03.12/outbox.cif.g09.slc.cpg/sg31_3_cif.got.tgz:5074.got - 2010.04.14 01:42:59.
