data_PCOD8170441
_publ_section_title
;
Structure prediction by ZEFSAII (Michael W. Deem and Ramdas Pophale) SiO2 
 PCOD8170441
Probable space group: P B A 2
;
_chemical_formula_sum "Si O2"
_cell_formula_units_Z 32
_cell_length_a 19.513783
_cell_length_b 9.731033
_cell_length_c 8.697164
_cell_angle_alpha 90.000000
_cell_angle_beta 90.000000
_cell_angle_gamma 90.000000
_cell_volume 1651.498091
_symmetry_space_group_name_H-M "P B A 2"
_symmetry_group_IT_number 32
_symmetry_cell_setting 'orthorhombic'
loop_
_space_group_symop_operation_xyz
x,y,z
-x,-y,z
1/2-x,1/2+y,z
1/2+x,1/2-y,z
loop_
_atom_site_type_symbol
_atom_site_label
_atom_site_fract_x
_atom_site_fract_y
_atom_site_fract_z
Si Si1 0.731467 0.098506 0.956870
Si Si2 0.315202 0.170976 0.111330
Si Si3 0.094654 0.279214 0.871930
Si Si4 0.710117 0.599178 0.617926
Si Si5 0.924665 0.018747 0.757849
Si Si6 0.442590 0.206268 0.925919
Si Si7 0.076260 0.507264 0.644038
Si Si8 0.300796 0.115140 0.465248
O O1 0.658096 0.173679 0.976095
O O2 0.751979 0.077916 0.779792
O O3 0.788110 0.184486 0.047368
O O4 0.727592 0.948920 0.030703
O O5 0.303813 0.164686 0.291616
O O6 0.396449 0.162778 0.071705
O O7 0.101072 0.118035 0.841940
O O8 0.097369 0.357516 0.707920
O O9 0.023352 0.318669 0.958867
O O10 0.629512 0.561829 0.627525
O O11 0.718751 0.756776 0.571630
O O12 0.743082 0.500540 0.489754
O O13 0.929940 0.134338 0.888620
O O14 0.000000 0.000000 0.680499
O O15 0.417718 0.115921 0.782250
O O16 0.125779 0.551204 0.507256
O O17 0.000000 0.500000 0.574824
#
# Coordination Sequence:
#
# PCOD8170441 Si02
#       8
#     4   4   4   4   4   4   4   4
#     4  12  22  40  65  91 117 161 215 254 296 366
#     4  12  25  40  60  91 129 162 198 257 323 368
#     4  10  20  34  65  94 116 147 218 260 292 350
#     4  12  22  41  67  89 120 165 213 255 302 370
#     4  10  20  35  63  94 116 151 211 263 296 346
#     4  10  19  39  62  88 119 160 204 259 301 364
#     4  10  19  38  62  89 119 158 210 257 296 365
#     4  12  25  41  59  93 129 165 196 258 325 370
#
# _framework density 19.376346999999999
#
# number of rings (size 3 to 8) (size 9 to 14) (size 15 to 20)
#    0.000    1.000    5.000    3.000    0.000    0.000 
#    2.250    0.000    2.750    0.000    0.000    0.000 
#    0.000    0.000    0.000    0.000    0.000    0.000 
#
# Total GULP energy -396887.837018 kJ/mol
# GULP energy per Si atom -12402.744907 kJ/mol
# Density = 1.933225 g / cm^3
# Si number density = 19.376347 Si / 1000 Ang^3
#
#
#
# Elastic Constant Matrix: (Units=GPa)
#
#
# Indices 1 2 3 4 5 6 
#
# 1 115.5376 16.3525 24.6890 0.0000 0.0000 0.0000
# 2 16.3525 95.2729 9.8438 0.0000 0.0000 0.0000
# 3 24.6890 9.8438 68.9110 0.0000 0.0000 0.0000
# 4 0.0000 0.0000 0.0000 20.6457 0.0000 0.0000
# 5 0.0000 0.0000 0.0000 0.0000 20.6251 0.0000
# 6 0.0000 0.0000 0.0000 0.0000 0.0000 32.6606
#
#
#
# Elastic Compliance Matrix: (Units=1/GPa)
#
#
# Indices 1 2 3 4 5 6 
#
# 1 0.009529 -0.001302 -0.003228 0.000000 0.000000 0.000000
# 2 -0.001302 0.010831 -0.001081 0.000000 0.000000 0.000000
# 3 -0.003228 -0.001081 0.015822 0.000000 0.000000 0.000000
# 4 0.000000 0.000000 0.000000 0.048436 0.000000 0.000000
# 5 0.000000 0.000000 0.000000 0.000000 0.048485 0.000000
# 6 0.000000 0.000000 0.000000 0.000000 0.000000 0.030618
#
#
# Mechanical properties :
#
#
# Convention : Reuss Voigt Hill
#
# Bulk Modulus (GPa) = 40.06215 42.38800 41.22507
# Shear Modulus (GPa) = 27.28306 30.04203 28.66254
#
# Velocity S-wave (km/s) = 3.75648 3.94185 3.85028
# Velocity P-wave (km/s) = 6.28773 6.53002 6.41002
#
# Compressibility (1/GPa) = 0.02496122
#
# Stress axis : x y z
#
# Youngs Moduli (GPa) = 104.93966 92.32488 63.20156
#
# Poissons Ratio (x) = 0.12021 0.20402
# Poissons Ratio (y) = 0.13664 0.06830
# Poissons Ratio (z) = 0.33876 0.09978
#
# Static dielectric constant tensor:
#      x y z
#    x 3.919420 0.000000 0.000000 
#    y 0.000000 3.774290 0.000000 
#    z 0.000000 0.000000 3.052450 
# 
# 
# High freq. dielectric constant tensor:
#      x y z
#    x 1.775780 0.000000 0.000000 
#    y 0.000000 1.778460 0.000000 
#    z 0.000000 0.000000 1.699110 
# 
# From -- ./inp_files/3315.got.cif
#   From: 2010.03.12/outbox.cif.g09.slc.cpg/sg32_2_cif.got.tgz:3315.got - 2010.04.14 01:46:39.
