data_PCOD8170591
_publ_section_title
;
Structure prediction by ZEFSAII (Michael W. Deem and Ramdas Pophale) SiO2 
 PCOD8170591
Probable space group: P B A 2
;
_chemical_formula_sum "Si O2"
_cell_formula_units_Z 16
_cell_length_a 9.558040
_cell_length_b 7.353399
_cell_length_c 8.111710
_cell_angle_alpha 90.000000
_cell_angle_beta 90.000000
_cell_angle_gamma 90.000000
_cell_volume 570.124089
_symmetry_space_group_name_H-M "P B A 2"
_symmetry_group_IT_number 32
_symmetry_cell_setting 'orthorhombic'
loop_
_space_group_symop_operation_xyz
x,y,z
-x,-y,z
1/2-x,1/2+y,z
1/2+x,1/2-y,z
loop_
_atom_site_type_symbol
_atom_site_label
_atom_site_fract_x
_atom_site_fract_y
_atom_site_fract_z
Si Si1 0.101300 0.168165 0.079200
Si Si2 0.592267 0.182794 0.714832
Si Si3 0.635632 0.703962 0.506644
Si Si4 0.681722 0.007660 0.274182
O O1 0.069917 0.339077 0.206802
O O2 0.263128 0.113233 0.120432
O O3 0.099869 0.232067 0.894122
O O4 0.000000 0.000000 0.108227
O O5 0.515394 0.327914 0.591650
O O6 0.749391 0.166493 0.649156
O O7 0.500000 0.000000 0.726491
O O8 0.670896 0.592223 0.342492
O O9 0.623265 0.911784 0.437992
#
# Coordination Sequence:
#
# PCOD8170591 Si02
#       4
#     4   4   4   4
#     4  11  29  49  81 113 162 212 271 334 414 477
#     4  12  29  50  80 121 165 214 271 341 412 492
#     4  11  26  51  82 114 162 214 273 337 407 490
#     4  10  26  51  79 115 157 213 273 334 406 486
#
# _framework density 28.064064999999999
#
# number of rings (size 3 to 8) (size 9 to 14) (size 15 to 20)
#    0.000    1.000    2.500    0.000   17.500    2.000 
#    0.000    0.000    0.000    0.000    0.000    0.000 
#    0.000    0.000    0.000    0.000    0.000    0.000 
#
# Total GULP energy -198231.352774 kJ/mol
# GULP energy per Si atom -12389.459548 kJ/mol
# Density = 2.800019 g / cm^3
# Si number density = 28.064065 Si / 1000 Ang^3
#
#
#
# Elastic Constant Matrix: (Units=GPa)
#
#
# Indices 1 2 3 4 5 6 
#
# 1 75.2995 -17.2890 28.2906 0.0000 0.0000 0.0000
# 2 -17.2890 81.8871 39.1530 0.0000 0.0000 0.0000
# 3 28.2906 39.1530 174.0162 0.0000 0.0000 0.0000
# 4 0.0000 0.0000 0.0000 43.5499 0.0000 0.0000
# 5 0.0000 0.0000 0.0000 0.0000 47.7921 0.0000
# 6 0.0000 0.0000 0.0000 0.0000 0.0000 34.9697
#
#
#
# Elastic Compliance Matrix: (Units=1/GPa)
#
#
# Indices 1 2 3 4 5 6 
#
# 1 0.015862 0.005134 -0.003734 0.000000 0.000000 0.000000
# 2 0.005134 0.015346 -0.004287 0.000000 0.000000 0.000000
# 3 -0.003734 -0.004287 0.007318 0.000000 0.000000 0.000000
# 4 0.000000 0.000000 0.000000 0.022962 0.000000 0.000000
# 5 0.000000 0.000000 0.000000 0.000000 0.020924 0.000000
# 6 0.000000 0.000000 0.000000 0.000000 0.000000 0.028596
#
#
# Mechanical properties :
#
#
# Convention : Reuss Voigt Hill
#
# Bulk Modulus (GPa) = 30.53247 47.94579 39.23913
# Shear Modulus (GPa) = 39.15419 43.99888 41.57654
#
# Velocity S-wave (km/s) = 3.73925 3.96384 3.85318
# Velocity P-wave (km/s) = 5.43561 6.17016 5.81450
#
# Compressibility (1/GPa) = 0.03275201
#
# Stress axis : x y z
#
# Youngs Moduli (GPa) = 63.04362 65.16372 136.64350
#
# Poissons Ratio (x) = -0.33457 0.51022
# Poissons Ratio (y) = -0.32369 0.58586
# Poissons Ratio (z) = 0.23540 0.27939
#
# Static dielectric constant tensor:
#      x y z
#    x 5.036490 0.000000 0.000000 
#    y 0.000000 5.708460 0.000000 
#    z 0.000000 0.000000 5.105310 
# 
# 
# High freq. dielectric constant tensor:
#      x y z
#    x 2.132720 0.000000 0.000000 
#    y 0.000000 2.149600 0.000000 
#    z 0.000000 0.000000 2.152080 
# 
# From -- ./inp_files/2115.got.cif
#   From: 2010.03.12/outbox.cif.g09.slc.cpg/sg32_2_cif.got.tgz:2115.got - 2010.04.14 01:46:39.
