data_PCOD8170394
_publ_section_title
;
Structure prediction by ZEFSAII (Michael W. Deem and Ramdas Pophale) SiO2 
 PCOD8170394
Probable space group: P M N 21
;
_chemical_formula_sum "Si O2"
_cell_formula_units_Z 16
_cell_length_a 21.967523
_cell_length_b 6.274173
_cell_length_c 4.742997
_cell_angle_alpha 90.000000
_cell_angle_beta 90.000000
_cell_angle_gamma 90.000000
_cell_volume 653.717979
_symmetry_space_group_name_H-M "P M N 21"
_symmetry_group_IT_number 31
_symmetry_cell_setting 'orthorhombic'
loop_
_space_group_symop_operation_xyz
x,y,z
1/2-x,-y,1/2+z
-x,y,z
1/2+x,-y,1/2+z
loop_
_atom_site_type_symbol
_atom_site_label
_atom_site_fract_x
_atom_site_fract_y
_atom_site_fract_z
Si Si1 0.000000 0.336246 0.632010
Si Si2 0.373187 0.154823 0.740591
Si Si3 0.000000 0.625616 0.143233
Si Si4 0.210440 0.503081 0.928409
Si Si5 0.372984 0.867768 0.247784
O O1 0.941346 0.193562 0.675943
O O2 0.000000 0.402641 0.307099
O O3 0.000000 0.555270 0.816151
O O4 0.441168 0.243088 0.733036
O O5 0.327821 0.325519 0.605385
O O6 0.370692 0.937437 0.569140
O O7 0.353919 0.072029 0.052828
O O8 0.249749 0.611768 0.675299
O O9 0.171066 0.336258 0.742194
#
# Coordination Sequence:
#
# PCOD8170394 Si02
#       5
#     2   4   2   4   4
#     4  12  24  44  78 109 149 188 230 303 382 440
#     4  12  26  47  77 110 146 190 244 302 373 441
#     4  12  24  44  78 109 149 188 230 303 382 440
#     4  12  28  49  76 103 150 200 252 308 362 430
#     4  12  26  47  77 110 146 190 244 302 373 441
#
# _framework density 24.475387999999999
#
# number of rings (size 3 to 8) (size 9 to 14) (size 15 to 20)
#    0.000    0.000    2.500    7.500    3.500    4.000 
#    0.000    0.000    0.000    0.000    0.000    0.000 
#    0.000    0.000    0.000    0.000    0.000    0.000 
#
# Total GULP energy -198341.193369 kJ/mol
# GULP energy per Si atom -12396.324586 kJ/mol
# Density = 2.441968 g / cm^3
# Si number density = 24.475388 Si / 1000 Ang^3
#
#
#
# Elastic Constant Matrix: (Units=GPa)
#
#
# Indices 1 2 3 4 5 6 
#
# 1 146.5149 50.7344 45.3878 0.0000 0.0000 0.0000
# 2 50.7344 98.7523 25.1716 0.0000 0.0000 0.0000
# 3 45.3878 25.1716 109.2032 0.0000 0.0000 0.0000
# 4 0.0000 0.0000 0.0000 65.1246 0.0000 0.0000
# 5 0.0000 0.0000 0.0000 0.0000 25.6836 0.0000
# 6 0.0000 0.0000 0.0000 0.0000 0.0000 -19.8497
#
#
#
# Elastic Compliance Matrix: (Units=1/GPa)
#
#
# Indices 1 2 3 4 5 6 
#
# 1 0.009074 -0.003932 -0.002865 0.000000 0.000000 0.000000
# 2 -0.003932 0.012462 -0.001238 0.000000 0.000000 0.000000
# 3 -0.002865 -0.001238 0.010634 0.000000 0.000000 0.000000
# 4 0.000000 0.000000 0.000000 0.015355 0.000000 0.000000
# 5 0.000000 0.000000 0.000000 0.000000 0.038935 0.000000
# 6 0.000000 0.000000 0.000000 0.000000 0.000000 -0.050379
#
#
# Mechanical properties :
#
#
# Convention : Reuss Voigt Hill
#
# Bulk Modulus (GPa) = 62.11498 66.33977 64.22738
# Shear Modulus (GPa) = 86.92826 29.73680 58.33253
#
# Velocity S-wave (km/s) = 5.96605 3.48942 4.88722
# Velocity P-wave (km/s) = 8.53768 6.58774 7.62529
#
# Compressibility (1/GPa) = 0.01609918
#
# Stress axis : x y z
#
# Youngs Moduli (GPa) = 110.20183 80.24465 94.04168
#
# Poissons Ratio (x) = 0.31549 0.26945
# Poissons Ratio (y) = 0.43327 0.11646
# Poissons Ratio (z) = 0.31576 0.09938
#
# Static dielectric constant tensor:
#      x y z
#    x 4.514950 0.000000 0.000000 
#    y 0.000000 4.129320 0.000000 
#    z 0.000000 0.000000 4.807390 
# 
# 
# High freq. dielectric constant tensor:
#      x y z
#    x 1.984300 0.000000 0.000000 
#    y 0.000000 1.966000 0.000000 
#    z 0.000000 0.000000 1.999480 
# 
# From -- ./inp_files/926.got.cif
#   From: 2010.03.12/outbox.cif.g09.slc.cpg/sg31_1_cif.got.tgz:926.got - 2010.04.14 01:42:59.
