data_PCOD8170875
_publ_section_title
;
Structure prediction by ZEFSAII (Michael W. Deem and Ramdas Pophale) SiO2 
 PCOD8170875
Probable space group: P N A 21
;
_chemical_formula_sum "Si O2"
_cell_formula_units_Z 24
_cell_length_a 18.081570
_cell_length_b 5.192472
_cell_length_c 13.281142
_cell_angle_alpha 90.000000
_cell_angle_beta 90.000000
_cell_angle_gamma 90.000000
_cell_volume 1246.940470
_symmetry_space_group_name_H-M "P N A 21"
_symmetry_group_IT_number 33
_symmetry_cell_setting 'orthorhombic'
loop_
_space_group_symop_operation_xyz
x,y,z
-x,-y,1/2+z
1/2-x,1/2+y,1/2+z
1/2+x,1/2-y,z
loop_
_atom_site_type_symbol
_atom_site_label
_atom_site_fract_x
_atom_site_fract_y
_atom_site_fract_z
Si Si1 0.086852 0.478163 0.828820
Si Si2 0.694507 0.814436 0.202126
Si Si3 0.663960 0.532322 0.391087
Si Si4 0.336038 0.467675 0.285700
Si Si5 0.694508 0.814438 0.974661
Si Si6 0.586850 0.021834 0.347967
O O1 0.118870 0.707521 0.756721
O O2 0.124764 0.510402 0.939186
O O3 0.000001 0.500003 0.838394
O O4 0.106562 0.203014 0.782150
O O5 0.699984 0.568462 0.278300
O O6 0.624762 0.989592 0.237601
O O7 0.769724 0.981260 0.208266
O O8 0.681959 0.719420 0.088394
O O9 0.730275 0.481258 0.468523
O O10 0.618868 0.792475 0.420065
O O11 0.606562 0.296983 0.394636
O O12 0.300016 0.431537 0.398488
#
# Coordination Sequence:
#
# PCOD8170875 Si02
#       6
#     4   4   4   4   4   4
#     4  10  20  38  61  81 121 156 189 250 306 345
#     4  10  21  38  63  87 117 162 203 242 301 357
#     4  10  20  39  57  87 116 154 197 252 285 354
#     4  10  20  39  57  87 116 154 197 252 285 354
#     4  10  21  38  63  87 117 162 203 242 301 357
#     4  10  20  38  61  81 121 156 189 250 306 345
#
# _framework density 19.247108000000001
#
# number of rings (size 3 to 8) (size 9 to 14) (size 15 to 20)
#    2.000    0.000    3.333    1.000    0.000    1.333 
#    0.000    3.333    0.000    0.000    0.000    0.000 
#    0.000    0.000    0.000    0.000    0.000    0.000 
#
# Total GULP energy -297316.957268 kJ/mol
# GULP energy per Si atom -12388.206553 kJ/mol
# Density = 1.920330 g / cm^3
# Si number density = 19.247108 Si / 1000 Ang^3
#
#
#
# Elastic Constant Matrix: (Units=GPa)
#
#
# Indices 1 2 3 4 5 6 
#
# 1 147.8787 33.0760 8.5461 0.0000 0.0000 0.0000
# 2 33.0760 119.6480 -0.1969 0.0000 0.0000 0.0000
# 3 8.5461 -0.1969 55.1815 0.0000 0.0000 0.0000
# 4 0.0000 0.0000 0.0000 16.4918 0.0000 0.0000
# 5 0.0000 0.0000 0.0000 0.0000 11.1989 0.0000
# 6 0.0000 0.0000 0.0000 0.0000 0.0000 33.2219
#
#
#
# Elastic Compliance Matrix: (Units=1/GPa)
#
#
# Indices 1 2 3 4 5 6 
#
# 1 0.007278 -0.002014 -0.001134 0.000000 0.000000 0.000000
# 2 -0.002014 0.008915 0.000344 0.000000 0.000000 0.000000
# 3 -0.001134 0.000344 0.018299 0.000000 0.000000 0.000000
# 4 0.000000 0.000000 0.000000 0.060636 0.000000 0.000000
# 5 0.000000 0.000000 0.000000 0.000000 0.089294 0.000000
# 6 0.000000 0.000000 0.000000 0.000000 0.000000 0.030101
#
#
# Mechanical properties :
#
#
# Convention : Reuss Voigt Hill
#
# Bulk Modulus (GPa) = 34.62218 45.06205 39.84211
# Shear Modulus (GPa) = 21.76179 30.93472 26.34825
#
# Velocity S-wave (km/s) = 3.36617 4.01339 3.70394
# Velocity P-wave (km/s) = 5.75634 6.70370 6.24800
#
# Compressibility (1/GPa) = 0.02888322
#
# Stress axis : x y z
#
# Youngs Moduli (GPa) = 137.39457 112.16860 54.64796
#
# Poissons Ratio (x) = 0.22590 0.06199
# Poissons Ratio (y) = 0.27670 -0.01878
# Poissons Ratio (z) = 0.15586 -0.03855
#
# Static dielectric constant tensor:
#      x y z
#    x 3.356100 0.000000 0.000000 
#    y 0.000000 3.554140 0.000000 
#    z 0.000000 0.000000 2.950490 
# 
# 
# High freq. dielectric constant tensor:
#      x y z
#    x 1.751430 0.000000 0.000000 
#    y 0.000000 1.754400 0.000000 
#    z 0.000000 0.000000 1.691650 
# 
# From -- ./inp_files/6910.got.cif
#   From: 2010.03.12/outbox.cif.g09.slc.cpg/sg33_4_cif.got.tgz:6910.got - 2010.04.14 01:49:19.
