data_PCOD8170525
_publ_section_title
;
Structure prediction by ZEFSAII (Michael W. Deem and Ramdas Pophale) SiO2 
 PCOD8170525
Probable space group: P B A 2
;
_chemical_formula_sum "Si O2"
_cell_formula_units_Z 22
_cell_length_a 13.732906
_cell_length_b 13.734391
_cell_length_c 6.257656
_cell_angle_alpha 90.000000
_cell_angle_beta 90.000000
_cell_angle_gamma 90.000000
_cell_volume 1180.275900
_symmetry_space_group_name_H-M "P B A 2"
_symmetry_group_IT_number 32
_symmetry_cell_setting 'orthorhombic'
loop_
_space_group_symop_operation_xyz
x,y,z
-x,-y,z
1/2-x,1/2+y,z
1/2+x,1/2-y,z
loop_
_atom_site_type_symbol
_atom_site_label
_atom_site_fract_x
_atom_site_fract_y
_atom_site_fract_z
Si Si1 0.820253 0.420392 0.196730
Si Si2 0.579616 0.179677 0.753725
Si Si3 0.761829 0.761821 0.475248
Si Si4 0.000000 0.500000 0.475147
Si Si5 0.759693 0.623703 0.089461
Si Si6 0.876282 0.259730 0.861033
O O1 0.744308 0.360797 0.341642
O O2 0.755282 0.508133 0.108306
O O3 0.915366 0.456752 0.324866
O O4 0.850200 0.356018 0.994471
O O5 0.639208 0.255679 0.608950
O O6 0.543246 0.084628 0.625422
O O7 0.491872 0.244593 0.842337
O O8 0.644011 0.149644 0.955887
O O9 0.763071 0.667333 0.325782
O O10 0.667305 0.763005 0.624656
O O11 0.662147 0.662188 0.975286
#
# Coordination Sequence:
#
# PCOD8170525 Si02
#       6
#     4   4   4   2   4   4
#     4  11  21  37  59  94 121 155 204 259 305 366
#     4  11  21  37  59  94 121 155 204 259 305 366
#     4  10  22  38  58  88 124 160 192 258 310 364
#     4  12  20  34  68  96 118 148 208 266 316 364
#     4  10  22  37  60  87 124 160 202 251 310 363
#     4  10  22  37  60  87 124 160 202 251 310 363
#
# _framework density 18.639710000000001
#
# number of rings (size 3 to 8) (size 9 to 14) (size 15 to 20)
#    0.000    1.455    3.636    2.182    0.000    0.000 
#    0.000    0.000    0.000   26.182    0.000    0.000 
#    0.000    0.000    0.000    0.000    0.000    0.000 
#
# Total GULP energy -272780.141459 kJ/mol
# GULP energy per Si atom -12399.097339 kJ/mol
# Density = 1.859729 g / cm^3
# Si number density = 18.639710 Si / 1000 Ang^3
#
#
#
# Elastic Constant Matrix: (Units=GPa)
#
#
# Indices 1 2 3 4 5 6 
#
# 1 88.3762 59.0470 37.3139 0.0000 0.0000 0.0000
# 2 59.0470 88.6792 37.4817 0.0000 0.0000 0.0000
# 3 37.3139 37.4817 104.1750 0.0000 0.0000 0.0000
# 4 0.0000 0.0000 0.0000 32.1212 0.0000 0.0000
# 5 0.0000 0.0000 0.0000 0.0000 32.1536 0.0000
# 6 0.0000 0.0000 0.0000 0.0000 0.0000 23.2034
#
#
#
# Elastic Compliance Matrix: (Units=1/GPa)
#
#
# Indices 1 2 3 4 5 6 
#
# 1 0.021128 -0.012819 -0.002956 0.000000 0.000000 0.000000
# 2 -0.012819 0.021076 -0.002992 0.000000 0.000000 0.000000
# 3 -0.002956 -0.002992 0.011734 0.000000 0.000000 0.000000
# 4 0.000000 0.000000 0.000000 0.031132 0.000000 0.000000
# 5 0.000000 0.000000 0.000000 0.000000 0.031101 0.000000
# 6 0.000000 0.000000 0.000000 0.000000 0.000000 0.043097
#
#
# Mechanical properties :
#
#
# Convention : Reuss Voigt Hill
#
# Bulk Modulus (GPa) = 60.95138 60.99060 60.97099
# Shear Modulus (GPa) = 24.71956 27.32150 26.02053
#
# Velocity S-wave (km/s) = 3.64562 3.83269 3.74033
# Velocity P-wave (km/s) = 7.10574 7.23725 7.17180
#
# Compressibility (1/GPa) = 0.01640652
#
# Stress axis : x y z
#
# Youngs Moduli (GPa) = 47.33127 47.44644 85.22051
#
# Poissons Ratio (x) = 0.60820 0.25187
# Poissons Ratio (y) = 0.60672 0.25496
# Poissons Ratio (z) = 0.13989 0.14195
#
# Static dielectric constant tensor:
#      x y z
#    x 3.484390 0.000000 0.000000 
#    y 0.000000 3.484670 0.000000 
#    z 0.000000 0.000000 3.787740 
# 
# 
# High freq. dielectric constant tensor:
#      x y z
#    x 1.715780 0.000000 0.000000 
#    y 0.000000 1.715820 0.000000 
#    z 0.000000 0.000000 1.748510 
# 
# From -- ./inp_files/822.got.cif
#   From: 2010.03.12/outbox.cif.g09.slc.cpg/sg32_1_cif.got.tgz:822.got - 2010.04.14 01:46:39.
