data_PCOD8171761
_publ_section_title
;
Structure prediction by ZEFSAII (Michael W. Deem and Ramdas Pophale) SiO2 
 PCOD8171761
Probable space group: P N A 21
;
_chemical_formula_sum "Si O2"
_cell_formula_units_Z 32
_cell_length_a 14.218717
_cell_length_b 12.519157
_cell_length_c 8.431693
_cell_angle_alpha 90.000000
_cell_angle_beta 90.000000
_cell_angle_gamma 90.000000
_cell_volume 1500.894899
_symmetry_space_group_name_H-M "P N A 21"
_symmetry_group_IT_number 33
_symmetry_cell_setting 'orthorhombic'
loop_
_space_group_symop_operation_xyz
x,y,z
-x,-y,1/2+z
1/2-x,1/2+y,1/2+z
1/2+x,1/2-y,z
loop_
_atom_site_type_symbol
_atom_site_label
_atom_site_fract_x
_atom_site_fract_y
_atom_site_fract_z
Si Si1 0.263484 0.836464 0.696660
Si Si2 0.266380 0.133392 0.993034
Si Si3 0.090871 0.489287 0.037317
Si Si4 0.610618 0.517044 0.850191
Si Si5 0.641467 0.799565 0.187608
Si Si6 0.605080 0.015757 0.669735
Si Si7 0.996564 0.873157 0.124145
Si Si8 0.170840 0.268389 0.528835
O O1 0.250538 0.753190 0.553897
O O2 0.336052 0.924728 0.641568
O O3 0.168949 0.899782 0.742848
O O4 0.302256 0.770314 0.845130
O O5 0.172322 0.078166 0.925990
O O6 0.342982 0.139323 0.853016
O O7 0.307573 0.062340 0.135856
O O8 0.112324 0.615260 0.053517
O O9 0.989204 0.459658 0.106900
O O10 0.098461 0.457292 0.854459
O O11 0.527173 0.467106 0.746258
O O12 0.562851 0.584926 0.986498
O O13 0.555541 0.718171 0.213998
O O14 0.736861 0.740054 0.137484
O O15 0.617381 0.124057 0.572966
O O16 0.897726 0.831351 0.055260
#
# Coordination Sequence:
#
# PCOD8171761 Si02
#       8
#     4   4   4   4   4   4   4   4
#     4  12  26  46  74 104 146 191 246 304 371 434
#     4  12  26  46  74 104 146 191 246 304 371 434
#     4  12  25  43  71 105 142 184 240 301 360 436
#     4  12  28  50  68 110 146 194 248 310 358 468
#     4  12  23  47  72 103 143 189 242 300 362 437
#     4  12  25  43  71 105 142 184 240 301 360 436
#     4  12  28  46  74 100 150 190 242 294 384 428
#     4  12  23  47  72 103 143 189 242 300 362 437
#
# _framework density 21.320613000000002
#
# number of rings (size 3 to 8) (size 9 to 14) (size 15 to 20)
#    0.000    0.000    6.250    3.000    3.500    0.000 
#    2.250    0.000    0.000    0.000    0.000    0.000 
#    0.000    0.000    0.000    0.000    0.000    0.000 
#
# Total GULP energy -397050.359101 kJ/mol
# GULP energy per Si atom -12407.823722 kJ/mol
# Density = 2.127209 g / cm^3
# Si number density = 21.320613 Si / 1000 Ang^3
#
#
#
# Elastic Constant Matrix: (Units=GPa)
#
#
# Indices 1 2 3 4 5 6 
#
# 1 91.2824 19.6251 16.6380 0.0000 0.0000 0.0000
# 2 19.6251 82.3180 8.8051 0.0000 0.0000 0.0000
# 3 16.6380 8.8051 69.4392 0.0000 0.0000 0.0000
# 4 0.0000 0.0000 0.0000 37.4053 0.0000 0.0000
# 5 0.0000 0.0000 0.0000 0.0000 33.9454 0.0000
# 6 0.0000 0.0000 0.0000 0.0000 0.0000 37.7544
#
#
#
# Elastic Compliance Matrix: (Units=1/GPa)
#
#
# Indices 1 2 3 4 5 6 
#
# 1 0.011974 -0.002583 -0.002541 0.000000 0.000000 0.000000
# 2 -0.002583 0.012872 -0.001013 0.000000 0.000000 0.000000
# 3 -0.002541 -0.001013 0.015139 0.000000 0.000000 0.000000
# 4 0.000000 0.000000 0.000000 0.026734 0.000000 0.000000
# 5 0.000000 0.000000 0.000000 0.000000 0.029459 0.000000
# 6 0.000000 0.000000 0.000000 0.000000 0.000000 0.026487
#
#
# Mechanical properties :
#
#
# Convention : Reuss Voigt Hill
#
# Bulk Modulus (GPa) = 36.08919 37.01954 36.55436
# Shear Modulus (GPa) = 34.67986 35.01910 34.84948
#
# Velocity S-wave (km/s) = 4.03747 4.05717 4.04734
# Velocity P-wave (km/s) = 6.22082 6.27284 6.24688
#
# Compressibility (1/GPa) = 0.02770913
#
# Stress axis : x y z
#
# Youngs Moduli (GPa) = 83.51772 77.68711 66.05661
#
# Poissons Ratio (x) = 0.20064 0.16788
# Poissons Ratio (y) = 0.21570 0.06694
# Poissons Ratio (z) = 0.21225 0.07873
#
# Static dielectric constant tensor:
#      x y z
#    x 3.999000 0.000000 0.000000 
#    y 0.000000 3.894950 0.000000 
#    z 0.000000 0.000000 3.854170 
# 
# 
# High freq. dielectric constant tensor:
#      x y z
#    x 1.848440 0.000000 0.000000 
#    y 0.000000 1.844390 0.000000 
#    z 0.000000 0.000000 1.841800 
# 
# From -- ./inp_files/4431.got.cif
#   From: 2010.03.12/outbox.cif.g09.slc.cpg/sg33_3_cif.got.tgz:4431.got - 2010.04.14 01:49:19.
