data_PCOD8171432
_publ_section_title
;
Structure prediction by ZEFSAII (Michael W. Deem and Ramdas Pophale) SiO2 
 PCOD8171432
Probable space group: P N A 21
;
_chemical_formula_sum "Si O2"
_cell_formula_units_Z 24
_cell_length_a 24.506071
_cell_length_b 6.682570
_cell_length_c 6.850958
_cell_angle_alpha 90.000000
_cell_angle_beta 90.000000
_cell_angle_gamma 90.000000
_cell_volume 1121.937099
_symmetry_space_group_name_H-M "P N A 21"
_symmetry_group_IT_number 33
_symmetry_cell_setting 'orthorhombic'
loop_
_space_group_symop_operation_xyz
x,y,z
-x,-y,1/2+z
1/2-x,1/2+y,1/2+z
1/2+x,1/2-y,z
loop_
_atom_site_type_symbol
_atom_site_label
_atom_site_fract_x
_atom_site_fract_y
_atom_site_fract_z
Si Si1 0.179162 0.105801 0.173500
Si Si2 0.501401 0.719867 0.592237
Si Si3 0.926440 0.120461 0.747435
Si Si4 0.066573 0.566507 0.919077
Si Si5 0.322279 0.917539 0.376511
Si Si6 0.246500 0.262937 0.521847
O O1 0.132251 0.981788 0.281076
O O2 0.216786 0.961515 0.039262
O O3 0.210967 0.248297 0.325803
O O4 0.151622 0.258273 0.024555
O O5 0.554382 0.675360 0.462948
O O6 0.470792 0.516755 0.642247
O O7 0.522635 0.818881 0.789794
O O8 0.460019 0.856381 0.472702
O O9 0.919200 0.316450 0.616617
O O10 0.123954 0.536000 0.800429
O O11 0.292721 0.786096 0.209849
O O12 0.282424 0.060468 0.504742
#
# Coordination Sequence:
#
# PCOD8171432 Si02
#       6
#     4   4   4   4   4   4
#     4  11  23  43  68  95 134 174 219 269 330 390
#     4  12  26  44  70  96 134 172 224 274 332 392
#     4  12  25  43  68  98 134 175 219 278 333 391
#     4  12  25  43  68  98 134 175 219 278 333 391
#     4  11  23  43  68  95 134 174 219 269 330 390
#     4  10  24  42  64 102 132 172 218 270 328 390
#
# _framework density 21.391573000000001
#
# number of rings (size 3 to 8) (size 9 to 14) (size 15 to 20)
#    0.000    0.667    6.667    1.000    0.000    5.333 
#   12.000    0.000    0.000    0.000    0.000    0.000 
#    0.000    0.000    0.000    0.000    0.000    0.000 
#
# Total GULP energy -297449.368715 kJ/mol
# GULP energy per Si atom -12393.723696 kJ/mol
# Density = 2.134289 g / cm^3
# Si number density = 21.391573 Si / 1000 Ang^3
#
#
#
# Elastic Constant Matrix: (Units=GPa)
#
#
# Indices 1 2 3 4 5 6 
#
# 1 108.0637 19.5121 22.2379 0.0000 0.0000 0.0000
# 2 19.5121 72.4121 35.9174 0.0000 0.0000 0.0000
# 3 22.2379 35.9174 70.6961 0.0000 0.0000 0.0000
# 4 0.0000 0.0000 0.0000 42.6673 0.0000 0.0000
# 5 0.0000 0.0000 0.0000 0.0000 32.7118 0.0000
# 6 0.0000 0.0000 0.0000 0.0000 0.0000-3366.2705
#
#
#
# Elastic Compliance Matrix: (Units=1/GPa)
#
#
# Indices 1 2 3 4 5 6 
#
# 1 0.010018 -0.001519 -0.002379 0.000000 0.000000 0.000000
# 2 -0.001519 0.018693 -0.009019 0.000000 0.000000 0.000000
# 3 -0.002379 -0.009019 0.019476 0.000000 0.000000 0.000000
# 4 0.000000 0.000000 0.000000 0.023437 0.000000 0.000000
# 5 0.000000 0.000000 0.000000 0.000000 0.030570 0.000000
# 6 0.000000 0.000000 0.000000 0.000000 0.000000 -0.000297
#
#
# Mechanical properties :
#
#
# Convention : Reuss Voigt Hill
#
# Bulk Modulus (GPa) = 44.74067 45.16741 44.95404
# Shear Modulus (GPa) = 36.98727 -646.61131 -304.81202
#
# Velocity S-wave (km/s) = 4.16271 -17.40489 -11.94994
# Velocity P-wave (km/s) = 6.63812 19.56390 13.01310
#
# Compressibility (1/GPa) = 0.02235103
#
# Stress axis : x y z
#
# Youngs Moduli (GPa) = 99.82297 53.49664 51.34623
#
# Poissons Ratio (x) = 0.08127 0.12217
# Poissons Ratio (y) = 0.15165 0.46309
# Poissons Ratio (z) = 0.23751 0.48249
#
# Static dielectric constant tensor:
#      x y z
#    x 3.937770 0.000000 0.000000 
#    y 0.000000 3.932170 0.000000 
#    z 0.000000 0.000000 3.797010 
# 
# 
# High freq. dielectric constant tensor:
#      x y z
#    x 1.853180 0.000000 0.000000 
#    y 0.000000 1.851300 0.000000 
#    z 0.000000 0.000000 1.828930 
# 
# From -- ./inp_files/2367.got.cif
#   From: 2010.03.12/outbox.cif.g09.slc.cpg/sg33_2_cif.got.tgz:2367.got - 2010.04.14 01:49:19.
