data_PCOD8171505
_publ_section_title
;
Structure prediction by ZEFSAII (Michael W. Deem and Ramdas Pophale) SiO2 
 PCOD8171505
Probable space group: P N A 21
;
_chemical_formula_sum "Si O2"
_cell_formula_units_Z 28
_cell_length_a 9.073738
_cell_length_b 6.344849
_cell_length_c 22.491065
_cell_angle_alpha 90.000000
_cell_angle_beta 90.000000
_cell_angle_gamma 90.000000
_cell_volume 1294.844292
_symmetry_space_group_name_H-M "P N A 21"
_symmetry_group_IT_number 33
_symmetry_cell_setting 'orthorhombic'
loop_
_space_group_symop_operation_xyz
x,y,z
-x,-y,1/2+z
1/2-x,1/2+y,1/2+z
1/2+x,1/2-y,z
loop_
_atom_site_type_symbol
_atom_site_label
_atom_site_fract_x
_atom_site_fract_y
_atom_site_fract_z
Si Si1 0.914455 0.952636 0.680290
Si Si2 0.335641 0.749998 0.136293
Si Si3 0.367312 0.558131 0.813670
Si Si4 0.414454 0.952652 0.592287
Si Si5 0.367351 0.941984 0.458902
Si Si6 0.854606 0.303727 0.891149
Si Si7 0.645222 0.696452 0.881374
O O1 0.914751 0.750013 0.636280
O O2 0.768576 0.096525 0.674533
O O3 0.913959 0.872736 0.747752
O O4 0.060290 0.095658 0.674391
O O5 0.231428 0.596524 0.098049
O O6 0.439713 0.904329 0.098193
O O7 0.360522 0.306350 0.825719
O O8 0.480762 0.645449 0.862353
O O9 0.208318 0.651661 0.829748
O O10 0.413965 0.872819 0.524817
O O11 0.208484 0.848072 0.442795
O O12 0.481109 0.855436 0.410234
O O13 0.360203 0.193779 0.446860
O O14 0.749642 0.499763 0.886151
#
# Coordination Sequence:
#
# PCOD8171505 Si02
#       7
#     4   4   4   4   4   4   4
#     4  11  26  45  70  99 137 184 230 288 344 407
#     4  10  26  46  64 102 132 176 240 274 356 404
#     4  11  26  42  71  96 138 174 229 275 341 412
#     4  11  26  45  70  99 137 184 230 288 344 407
#     4  11  26  42  71  96 138 174 229 275 341 412
#     4  11  24  44  64 104 133 176 221 276 344 401
#     4  11  24  44  64 104 133 176 221 276 344 401
#
# _framework density 21.624220000000001
#
# number of rings (size 3 to 8) (size 9 to 14) (size 15 to 20)
#    0.000    1.143    2.857    0.857   12.000    2.286 
#    0.000    0.000    0.000    0.000    0.000    0.000 
#    0.000    0.000    0.000    0.000    0.000    0.000 
#
# Total GULP energy -347055.089924 kJ/mol
# GULP energy per Si atom -12394.824640 kJ/mol
# Density = 2.157500 g / cm^3
# Si number density = 21.624220 Si / 1000 Ang^3
#
#
#
# Elastic Constant Matrix: (Units=GPa)
#
#
# Indices 1 2 3 4 5 6 
#
# 1 107.7353 35.3648 9.7485 0.0000 0.0000 0.0000
# 2 35.3648 128.1556 46.9175 0.0000 0.0000 0.0000
# 3 9.7485 46.9175 115.7817 0.0000 0.0000 0.0000
# 4 0.0000 0.0000 0.0000 31.9605 0.0000 0.0000
# 5 0.0000 0.0000 0.0000 0.0000 20.5662 0.0000
# 6 0.0000 0.0000 0.0000 0.0000 0.0000 47.2547
#
#
#
# Elastic Compliance Matrix: (Units=1/GPa)
#
#
# Indices 1 2 3 4 5 6 
#
# 1 0.010217 -0.002941 0.000331 0.000000 0.000000 0.000000
# 2 -0.002941 0.010009 -0.003808 0.000000 0.000000 0.000000
# 3 0.000331 -0.003808 0.010152 0.000000 0.000000 0.000000
# 4 0.000000 0.000000 0.000000 0.031289 0.000000 0.000000
# 5 0.000000 0.000000 0.000000 0.000000 0.048623 0.000000
# 6 0.000000 0.000000 0.000000 0.000000 0.000000 0.021162
#
#
# Mechanical properties :
#
#
# Convention : Reuss Voigt Hill
#
# Bulk Modulus (GPa) = 57.00239 59.52603 58.26421
# Shear Modulus (GPa) = 33.30334 37.26574 35.28454
#
# Velocity S-wave (km/s) = 3.92866 4.15581 4.04383
# Velocity P-wave (km/s) = 6.85542 7.11442 6.98612
#
# Compressibility (1/GPa) = 0.01754312
#
# Stress axis : x y z
#
# Youngs Moduli (GPa) = 97.87256 99.91311 98.50092
#
# Poissons Ratio (x) = 0.29383 -0.03265
# Poissons Ratio (y) = 0.28783 0.37511
# Poissons Ratio (z) = -0.03244 0.38048
#
# Static dielectric constant tensor:
#      x y z
#    x 5.031630 0.000000 0.000000 
#    y 0.000000 4.351660 0.000000 
#    z 0.000000 0.000000 5.035020 
# 
# 
# High freq. dielectric constant tensor:
#      x y z
#    x 1.874280 0.000000 0.000000 
#    y 0.000000 1.865990 0.000000 
#    z 0.000000 0.000000 1.823630 
# 
# From -- ./inp_files/9228.got.cif
#   From: 2010.03.12/outbox.cif.g09.slc.cpg/sg33_5_cif.got.tgz:9228.got - 2010.04.14 01:49:19.
