data_PCOD8171609
_publ_section_title
;
Structure prediction by ZEFSAII (Michael W. Deem and Ramdas Pophale) SiO2 
 PCOD8171609
Probable space group: P N A 21
;
_chemical_formula_sum "Si O2"
_cell_formula_units_Z 32
_cell_length_a 14.801177
_cell_length_b 11.163305
_cell_length_c 9.036604
_cell_angle_alpha 90.000000
_cell_angle_beta 90.000000
_cell_angle_gamma 90.000000
_cell_volume 1493.118560
_symmetry_space_group_name_H-M "P N A 21"
_symmetry_group_IT_number 33
_symmetry_cell_setting 'orthorhombic'
loop_
_space_group_symop_operation_xyz
x,y,z
-x,-y,1/2+z
1/2-x,1/2+y,1/2+z
1/2+x,1/2-y,z
loop_
_atom_site_type_symbol
_atom_site_label
_atom_site_fract_x
_atom_site_fract_y
_atom_site_fract_z
Si Si1 0.525199 0.696181 0.212670
Si Si2 0.978259 0.844087 0.896854
Si Si3 0.055942 0.368406 0.193857
Si Si4 0.050224 0.577537 0.406366
Si Si5 0.326408 0.482900 0.825045
Si Si6 0.875475 0.962373 0.336109
Si Si7 0.771247 0.396426 0.069541
Si Si8 0.237764 0.873686 0.617823
O O1 0.561769 0.811818 0.296039
O O2 0.602995 0.596842 0.231668
O O3 0.429253 0.649905 0.271424
O O4 0.502356 0.732189 0.043244
O O5 0.979417 0.760540 0.751201
O O6 0.053582 0.945549 0.902207
O O7 0.880082 0.907197 0.901979
O O8 0.017895 0.464963 0.310005
O O9 0.163227 0.376367 0.186681
O O10 0.022943 0.390794 0.029009
O O11 0.144451 0.545771 0.485055
O O12 0.248872 0.527779 0.715358
O O13 0.270110 0.411365 0.947348
O O14 0.820632 0.034342 0.212856
O O15 0.815105 0.902199 0.462775
O O16 0.797386 0.262694 0.122550
#
# Coordination Sequence:
#
# PCOD8171609 Si02
#       8
#     4   4   4   4   4   4   4   4
#     4  11  23  44  72 103 142 184 235 290 359 424
#     4  11  23  44  72 103 142 184 235 290 359 424
#     4  12  27  47  68 101 146 189 235 295 365 430
#     4  12  27  47  68 101 146 189 235 295 365 430
#     4  11  24  42  71 108 138 180 237 296 356 429
#     4  11  24  44  73 106 138 182 239 292 346 439
#     4  12  24  46  71 106 142 183 238 298 361 426
#     4  12  24  46  71 106 142 183 238 298 361 426
#
# _framework density 21.431653000000001
#
# number of rings (size 3 to 8) (size 9 to 14) (size 15 to 20)
#    0.000    0.500    6.250    2.250    1.750    0.000 
#    4.500    3.750    0.000    0.000    0.000    0.000 
#    0.000    0.000    0.000    0.000    0.000    0.000 
#
# Total GULP energy -396846.353504 kJ/mol
# GULP energy per Si atom -12401.448547 kJ/mol
# Density = 2.138287 g / cm^3
# Si number density = 21.431653 Si / 1000 Ang^3
#
#
#
# Elastic Constant Matrix: (Units=GPa)
#
#
# Indices 1 2 3 4 5 6 
#
# 1 56.3692 2.6632 6.8224 0.0000 0.0000 0.0000
# 2 2.6632 69.6772 8.1093 0.0000 0.0000 0.0000
# 3 6.8224 8.1093 85.6463 0.0000 0.0000 0.0000
# 4 0.0000 0.0000 0.0000 42.1782 0.0000 0.0000
# 5 0.0000 0.0000 0.0000 0.0000 38.5988 0.0000
# 6 0.0000 0.0000 0.0000 0.0000 0.0000 24.4826
#
#
#
# Elastic Compliance Matrix: (Units=1/GPa)
#
#
# Indices 1 2 3 4 5 6 
#
# 1 0.017932 -0.000525 -0.001379 0.000000 0.000000 0.000000
# 2 -0.000525 0.014527 -0.001334 0.000000 0.000000 0.000000
# 3 -0.001379 -0.001334 0.011912 0.000000 0.000000 0.000000
# 4 0.000000 0.000000 0.000000 0.023709 0.000000 0.000000
# 5 0.000000 0.000000 0.000000 0.000000 0.025908 0.000000
# 6 0.000000 0.000000 0.000000 0.000000 0.000000 0.040845
#
#
# Mechanical properties :
#
#
# Convention : Reuss Voigt Hill
#
# Bulk Modulus (GPa) = 26.38771 27.43139 26.90955
# Shear Modulus (GPa) = 32.48026 33.99177 33.23602
#
# Velocity S-wave (km/s) = 3.89720 3.98685 3.94228
# Velocity P-wave (km/s) = 5.70878 5.83272 5.77108
#
# Compressibility (1/GPa) = 0.03789643
#
# Stress axis : x y z
#
# Youngs Moduli (GPa) = 55.76665 68.83644 83.94872
#
# Poissons Ratio (x) = 0.03613 0.11574
# Poissons Ratio (y) = 0.02927 0.11196
# Poissons Ratio (z) = 0.07689 0.09181
#
# Static dielectric constant tensor:
#      x y z
#    x 3.831200 0.000000 0.000000 
#    y 0.000000 3.858460 0.000000 
#    z 0.000000 0.000000 3.975530 
# 
# 
# High freq. dielectric constant tensor:
#      x y z
#    x 1.841950 0.000000 0.000000 
#    y 0.000000 1.841490 0.000000 
#    z 0.000000 0.000000 1.854570 
# 
# From -- ./inp_files/4379.got.cif
#   From: 2010.03.12/outbox.cif.g09.slc.cpg/sg33_3_cif.got.tgz:4379.got - 2010.04.14 01:49:19.
