data_PCOD8171058
_publ_section_title
;
Structure prediction by ZEFSAII (Michael W. Deem and Ramdas Pophale) SiO2 
 PCOD8171058
Probable space group: P N A 21
;
_chemical_formula_sum "Si O2"
_cell_formula_units_Z 32
_cell_length_a 8.821355
_cell_length_b 11.451651
_cell_length_c 13.604183
_cell_angle_alpha 90.000000
_cell_angle_beta 90.000000
_cell_angle_gamma 90.000000
_cell_volume 1374.282035
_symmetry_space_group_name_H-M "P N A 21"
_symmetry_group_IT_number 33
_symmetry_cell_setting 'orthorhombic'
loop_
_space_group_symop_operation_xyz
x,y,z
-x,-y,1/2+z
1/2-x,1/2+y,1/2+z
1/2+x,1/2-y,z
loop_
_atom_site_type_symbol
_atom_site_label
_atom_site_fract_x
_atom_site_fract_y
_atom_site_fract_z
Si Si1 0.169070 0.986969 0.803200
Si Si2 0.398152 0.790153 0.857100
Si Si3 0.509327 0.345252 0.950747
Si Si4 0.078836 0.032271 0.137203
Si Si5 0.310216 0.192647 0.700065
Si Si6 0.688412 0.905411 0.786235
Si Si7 0.961249 0.790816 0.070656
Si Si8 0.299628 0.852570 0.367893
O O1 0.070027 0.047934 0.886208
O O2 0.297629 0.075230 0.763282
O O3 0.256748 0.878645 0.851362
O O4 0.054831 0.951697 0.716648
O O5 0.534710 0.827987 0.783035
O O6 0.333598 0.664847 0.827195
O O7 0.468556 0.774091 0.965956
O O8 0.557769 0.221806 0.904121
O O9 0.327898 0.346966 0.952036
O O10 0.565428 0.360125 0.061678
O O11 0.249134 0.044970 0.182068
O O12 0.061658 0.909708 0.077663
O O13 0.479361 0.204925 0.657874
O O14 0.272337 0.305196 0.766462
O O15 0.210568 0.183803 0.600649
O O16 0.647921 0.014150 0.856377
#
# Coordination Sequence:
#
# PCOD8171058 Si02
#       8
#     4   4   4   4   4   4   4   4
#     4  10  24  46  70 105 152 188 239 315 369 433
#     4  12  28  44  72 107 154 196 245 307 385 444
#     4  11  25  43  75 106 144 190 250 302 371 433
#     4  11  24  47  75 101 144 201 243 304 372 447
#     4  10  21  40  72 104 139 186 248 304 354 431
#     4  12  26  46  71 101 149 197 240 306 377 436
#     4  11  23  41  71 107 138 191 256 297 358 446
#     4  11  23  45  72 105 146 191 243 311 370 432
#
# _framework density 23.284884999999999
#
# number of rings (size 3 to 8) (size 9 to 14) (size 15 to 20)
#    0.000    1.000    2.500    3.750    8.750    3.000 
#    0.000    0.000    2.750    0.000    0.000    0.000 
#    0.000    0.000    0.000    0.000    0.000    0.000 
#
# Total GULP energy -396784.181870 kJ/mol
# GULP energy per Si atom -12399.505683 kJ/mol
# Density = 2.323189 g / cm^3
# Si number density = 23.284885 Si / 1000 Ang^3
#
#
#
# Elastic Constant Matrix: (Units=GPa)
#
#
# Indices 1 2 3 4 5 6 
#
# 1 69.1619 23.7961 21.0767 0.0000 0.0000 0.0000
# 2 23.7961 118.7167 35.5119 0.0000 0.0000 0.0000
# 3 21.0767 35.5119 81.5269 0.0000 0.0000 0.0000
# 4 0.0000 0.0000 0.0000 30.1352 0.0000 0.0000
# 5 0.0000 0.0000 0.0000 0.0000 27.8537 0.0000
# 6 0.0000 0.0000 0.0000 0.0000 0.0000 37.9852
#
#
#
# Elastic Compliance Matrix: (Units=1/GPa)
#
#
# Indices 1 2 3 4 5 6 
#
# 1 0.016222 -0.002296 -0.003194 0.000000 0.000000 0.000000
# 2 -0.002296 0.010010 -0.003767 0.000000 0.000000 0.000000
# 3 -0.003194 -0.003767 0.014732 0.000000 0.000000 0.000000
# 4 0.000000 0.000000 0.000000 0.033184 0.000000 0.000000
# 5 0.000000 0.000000 0.000000 0.000000 0.035902 0.000000
# 6 0.000000 0.000000 0.000000 0.000000 0.000000 0.026326
#
#
# Mechanical properties :
#
#
# Convention : Reuss Voigt Hill
#
# Bulk Modulus (GPa) = 44.54042 47.79723 46.16883
# Shear Modulus (GPa) = 30.79317 31.79621 31.29469
#
# Velocity S-wave (km/s) = 3.64050 3.69932 3.67003
# Velocity P-wave (km/s) = 6.06968 6.23043 6.15058
#
# Compressibility (1/GPa) = 0.02245152
#
# Stress axis : x y z
#
# Youngs Moduli (GPa) = 61.64417 99.89550 67.87835
#
# Poissons Ratio (x) = 0.22939 0.21677
# Poissons Ratio (y) = 0.14156 0.25568
# Poissons Ratio (z) = 0.19686 0.37628
#
# Static dielectric constant tensor:
#      x y z
#    x 4.128580 0.000000 0.000000 
#    y 0.000000 4.311400 0.000000 
#    z 0.000000 0.000000 4.093860 
# 
# 
# High freq. dielectric constant tensor:
#      x y z
#    x 1.922780 0.000000 0.000000 
#    y 0.000000 1.925460 0.000000 
#    z 0.000000 0.000000 1.906990 
# 
# From -- ./inp_files/7626.got.cif
#   From: 2010.03.12/outbox.cif.g09.slc.cpg/sg33_4_cif.got.tgz:7626.got - 2010.04.14 01:49:19.
