data_PCOD8171752
_publ_section_title
;
Structure prediction by ZEFSAII (Michael W. Deem and Ramdas Pophale) SiO2 
 PCOD8171752
Probable space group: P N A 21
;
_chemical_formula_sum "Si O2"
_cell_formula_units_Z 32
_cell_length_a 9.616579
_cell_length_b 13.868063
_cell_length_c 10.959723
_cell_angle_alpha 90.000000
_cell_angle_beta 90.000000
_cell_angle_gamma 90.000000
_cell_volume 1461.625083
_symmetry_space_group_name_H-M "P N A 21"
_symmetry_group_IT_number 33
_symmetry_cell_setting 'orthorhombic'
loop_
_space_group_symop_operation_xyz
x,y,z
-x,-y,1/2+z
1/2-x,1/2+y,1/2+z
1/2+x,1/2-y,z
loop_
_atom_site_type_symbol
_atom_site_label
_atom_site_fract_x
_atom_site_fract_y
_atom_site_fract_z
Si Si1 0.753498 0.011417 0.375000
Si Si2 0.810934 0.167033 0.988539
Si Si3 0.375933 0.657031 0.545168
Si Si4 0.423269 0.892193 0.065076
Si Si5 0.548380 0.331228 0.568830
Si Si6 0.708609 0.972993 0.119199
Si Si7 0.960925 0.912723 0.807666
Si Si8 0.694292 0.592895 0.241092
O O1 0.664124 0.093142 0.441670
O O2 0.878999 0.057939 0.297378
O O3 0.807588 0.932078 0.471760
O O4 0.660929 0.974563 0.261725
O O5 0.770106 0.171238 0.844945
O O6 0.731101 0.255366 0.049573
O O7 0.976545 0.185198 0.987939
O O8 0.769167 0.070384 0.060883
O O9 0.404474 0.634876 0.685777
O O10 0.438986 0.780582 0.097794
O O11 0.570465 0.943929 0.045457
O O12 0.336402 0.939802 0.176164
O O13 0.680394 0.387275 0.618354
O O14 0.547555 0.342696 0.423100
O O15 0.410324 0.372523 0.633919
O O16 0.868401 0.008092 0.825793
#
# Coordination Sequence:
#
# PCOD8171752 Si02
#       8
#     4   4   4   4   4   4   4   4
#     4  12  25  50  73 102 152 196 247 300 376 439
#     4  12  28  47  71 108 148 192 244 301 364 442
#     4  12  27  46  77 108 143 200 244 299 370 440
#     4  12  30  44  73 113 142 189 249 314 363 430
#     4  12  25  48  75 108 146 199 242 299 374 446
#     4  12  27  49  71 106 152 193 242 310 369 430
#     4  12  22  47  78 100 144 199 246 291 369 453
#     4  12  24  47  72 103 147 196 244 296 367 440
#
# _framework density 21.893439000000001
#
# number of rings (size 3 to 8) (size 9 to 14) (size 15 to 20)
#    0.000    0.000    7.500    0.750   10.500    0.000 
#    0.000    0.000    0.000    0.000    0.000    0.000 
#    0.000    0.000    0.000    0.000    0.000    0.000 
#
# Total GULP energy -396722.197111 kJ/mol
# GULP energy per Si atom -12397.568660 kJ/mol
# Density = 2.184361 g / cm^3
# Si number density = 21.893439 Si / 1000 Ang^3
#
#
#
# Elastic Constant Matrix: (Units=GPa)
#
#
# Indices 1 2 3 4 5 6 
#
# 1 87.8266 41.1105 6.5779 0.0000 0.0000 0.0000
# 2 41.1105 78.1143 11.2145 0.0000 0.0000 0.0000
# 3 6.5779 11.2145 133.5950 0.0000 0.0000 0.0000
# 4 0.0000 0.0000 0.0000 31.5881 0.0000 0.0000
# 5 0.0000 0.0000 0.0000 0.0000 36.5285 0.0000
# 6 0.0000 0.0000 0.0000 0.0000 0.0000 4.8216
#
#
#
# Elastic Compliance Matrix: (Units=1/GPa)
#
#
# Indices 1 2 3 4 5 6 
#
# 1 0.015109 -0.007940 -0.000077 0.000000 0.000000 0.000000
# 2 -0.007940 0.017131 -0.001047 0.000000 0.000000 0.000000
# 3 -0.000077 -0.001047 0.007577 0.000000 0.000000 0.000000
# 4 0.000000 0.000000 0.000000 0.031658 0.000000 0.000000
# 5 0.000000 0.000000 0.000000 0.000000 0.027376 0.000000
# 6 0.000000 0.000000 0.000000 0.000000 0.000000 0.207399
#
#
# Mechanical properties :
#
#
# Convention : Reuss Voigt Hill
#
# Bulk Modulus (GPa) = 46.11056 46.37133 46.24095
# Shear Modulus (GPa) = 15.07806 30.62983 22.85395
#
# Velocity S-wave (km/s) = 2.62716 3.74443 3.23441
# Velocity P-wave (km/s) = 5.50543 6.31829 5.92581
#
# Compressibility (1/GPa) = 0.02168700
#
# Stress axis : x y z
#
# Youngs Moduli (GPa) = 66.18720 58.37375 131.97807
#
# Poissons Ratio (x) = 0.46351 0.01021
# Poissons Ratio (y) = 0.52555 0.13819
# Poissons Ratio (z) = 0.00512 0.06112
#
# Static dielectric constant tensor:
#      x y z
#    x 4.060510 0.000000 0.000000 
#    y 0.000000 3.813810 0.000000 
#    z 0.000000 0.000000 4.163890 
# 
# 
# High freq. dielectric constant tensor:
#      x y z
#    x 1.867360 0.000000 0.000000 
#    y 0.000000 1.847360 0.000000 
#    z 0.000000 0.000000 1.885250 
# 
# From -- ./inp_files/5978.got.cif
#   From: 2010.03.12/outbox.cif.g09.slc.cpg/sg33_3_cif.got.tgz:5978.got - 2010.04.14 01:49:19.
