data_PCOD8171871
_publ_section_title
;
Structure prediction by ZEFSAII (Michael W. Deem and Ramdas Pophale) SiO2 
 PCOD8171871
Probable space group: P N N 2
;
_chemical_formula_sum "Si O2"
_cell_formula_units_Z 32
_cell_length_a 16.382036
_cell_length_b 11.502871
_cell_length_c 8.914296
_cell_angle_alpha 90.000000
_cell_angle_beta 90.000000
_cell_angle_gamma 90.000000
_cell_volume 1679.813921
_symmetry_space_group_name_H-M "P N N 2"
_symmetry_group_IT_number 34
_symmetry_cell_setting 'orthorhombic'
loop_
_space_group_symop_operation_xyz
x,y,z
-x,-y,z
1/2-x,1/2+y,1/2+z
1/2+x,1/2-y,1/2+z
loop_
_atom_site_type_symbol
_atom_site_label
_atom_site_fract_x
_atom_site_fract_y
_atom_site_fract_z
Si Si1 0.442610 0.821469 0.895860
Si Si2 0.163647 0.252747 0.654569
Si Si3 0.067103 0.645134 0.982774
Si Si4 0.385801 0.903778 0.414822
Si Si5 0.395148 0.082990 0.823685
Si Si6 0.204281 0.812451 0.915886
Si Si7 0.287828 0.586272 0.396884
Si Si8 0.675607 0.244383 0.658420
O O1 0.540145 0.832454 0.907043
O O2 0.407526 0.744714 0.757551
O O3 0.403012 0.949560 0.875767
O O4 0.415380 0.758270 0.048263
O O5 0.159217 0.360681 0.766915
O O6 0.245327 0.266692 0.558045
O O7 0.162875 0.133950 0.751706
O O8 0.103730 0.539960 0.884464
O O9 0.113232 0.762741 0.936953
O O10 0.972052 0.661851 0.945799
O O11 0.081591 0.599318 0.150701
O O12 0.328644 0.873033 0.557693
O O13 0.305604 0.124491 0.868102
O O14 0.245223 0.765072 0.763975
O O15 0.198138 0.950385 0.910916
O O16 0.318726 0.643705 0.551143
#
# Coordination Sequence:
#
# PCOD8171871 Si02
#       8
#     4   4   4   4   4   4   4   4
#     4  10  19  36  60  86 115 148 191 253 305 340
#     4  10  22  36  55  87 124 151 194 254 287 358
#     4  11  20  35  62  91 117 154 193 255 294 347
#     4  10  20  37  60  88 119 147 203 245 293 339
#     4  11  18  34  62  87 117 144 198 250 298 350
#     4  11  23  37  59  90 120 159 199 235 311 352
#     4  11  22  38  57  89 119 156 197 241 298 368
#     4  10  20  37  56  82 121 155 187 246 297 355
#
# _framework density 19.04973
#
# number of rings (size 3 to 8) (size 9 to 14) (size 15 to 20)
#    0.000    1.500    6.250    0.750    1.750    3.000 
#    0.000    2.500    0.000    0.000    0.000    0.000 
#    0.000    0.000    0.000    0.000    0.000    0.000 
#
# Total GULP energy -396676.934476 kJ/mol
# GULP energy per Si atom -12396.154202 kJ/mol
# Density = 1.900637 g / cm^3
# Si number density = 19.049730 Si / 1000 Ang^3
#
#
#
# Elastic Constant Matrix: (Units=GPa)
#
#
# Indices 1 2 3 4 5 6 
#
# 1 84.8543 29.5637 25.5344 0.0000 0.0000 0.0000
# 2 29.5637 93.0529 35.7194 0.0000 0.0000 0.0000
# 3 25.5344 35.7194 108.5454 0.0000 0.0000 0.0000
# 4 0.0000 0.0000 0.0000 15.1978 0.0000 0.0000
# 5 0.0000 0.0000 0.0000 0.0000 19.4198 0.0000
# 6 0.0000 0.0000 0.0000 0.0000 0.0000 31.2894
#
#
#
# Elastic Compliance Matrix: (Units=1/GPa)
#
#
# Indices 1 2 3 4 5 6 
#
# 1 0.013635 -0.003549 -0.002040 0.000000 0.000000 0.000000
# 2 -0.003549 0.013224 -0.003517 0.000000 0.000000 0.000000
# 3 -0.002040 -0.003517 0.010850 0.000000 0.000000 0.000000
# 4 0.000000 0.000000 0.000000 0.065799 0.000000 0.000000
# 5 0.000000 0.000000 0.000000 0.000000 0.051494 0.000000
# 6 0.000000 0.000000 0.000000 0.000000 0.000000 0.031960
#
#
# Mechanical properties :
#
#
# Convention : Reuss Voigt Hill
#
# Bulk Modulus (GPa) = 51.28715 52.00972 51.64843
# Shear Modulus (GPa) = 23.62146 26.22375 24.92261
#
# Velocity S-wave (km/s) = 3.52517 3.71427 3.62096
# Velocity P-wave (km/s) = 6.59927 6.76430 6.68229
#
# Compressibility (1/GPa) = 0.01949806
#
# Stress axis : x y z
#
# Youngs Moduli (GPa) = 73.33960 75.61950 92.16723
#
# Poissons Ratio (x) = 0.26838 0.18799
# Poissons Ratio (y) = 0.26029 0.32413
# Poissons Ratio (z) = 0.14959 0.26594
#
# Static dielectric constant tensor:
#      x y z
#    x 3.559170 0.000000 0.000000 
#    y 0.000000 3.253730 0.000000 
#    z 0.000000 0.000000 3.677990 
# 
# 
# High freq. dielectric constant tensor:
#      x y z
#    x 1.734020 0.000000 0.000000 
#    y 0.000000 1.714070 0.000000 
#    z 0.000000 0.000000 1.753920 
# 
# From -- ./inp_files/3426.got.cif
#   From: 2010.03.12/outbox.cif.g09.slc.cpg/sg34_2_cif.got.tgz:3426.got - 2010.04.14 01:56:33.
