data_PCOD8171242
_publ_section_title
;
Structure prediction by ZEFSAII (Michael W. Deem and Ramdas Pophale) SiO2 
 PCOD8171242
Probable space group: P N A 21
;
_chemical_formula_sum "Si O2"
_cell_formula_units_Z 24
_cell_length_a 15.423919
_cell_length_b 5.377324
_cell_length_c 12.296469
_cell_angle_alpha 90.000000
_cell_angle_beta 90.000000
_cell_angle_gamma 90.000000
_cell_volume 1019.861882
_symmetry_space_group_name_H-M "P N A 21"
_symmetry_group_IT_number 33
_symmetry_cell_setting 'orthorhombic'
loop_
_space_group_symop_operation_xyz
x,y,z
-x,-y,1/2+z
1/2-x,1/2+y,1/2+z
1/2+x,1/2-y,z
loop_
_atom_site_type_symbol
_atom_site_label
_atom_site_fract_x
_atom_site_fract_y
_atom_site_fract_z
Si Si1 0.506860 0.535101 0.613230
Si Si2 0.507755 0.836549 0.810996
Si Si3 0.366062 0.683834 0.963492
Si Si4 0.725167 0.814945 0.404585
Si Si5 0.620632 0.830994 0.194405
Si Si6 0.104444 0.373093 0.984436
O O1 0.551336 0.674433 0.715353
O O2 0.574404 0.326301 0.572327
O O3 0.411406 0.430185 0.644942
O O4 0.484325 0.726671 0.514806
O O5 0.429480 0.673972 0.860481
O O6 0.464466 0.081738 0.760364
O O7 0.578752 0.906804 0.901181
O O8 0.307978 0.437620 0.961104
O O9 0.310861 0.938423 0.964609
O O10 0.702732 0.811399 0.275670
O O11 0.828457 0.809797 0.423006
O O12 0.645877 0.013802 0.095069
#
# Coordination Sequence:
#
# PCOD8171242 Si02
#       6
#     4   4   4   4   4   4
#     4  11  22  43  74 103 138 195 256 298 359 446
#     4  10  22  42  72 103 136 190 250 304 351 442
#     4  11  23  45  71 101 146 191 239 298 364 432
#     4  11  26  47  69 107 153 187 232 309 376 433
#     4  10  22  44  71 101 140 189 241 302 360 437
#     4  11  25  45  73 105 151 192 242 307 378 436
#
# _framework density 23.532598
#
# number of rings (size 3 to 8) (size 9 to 14) (size 15 to 20)
#    0.000    1.333    3.333    2.000    4.667    0.000 
#    6.000    0.000    0.000    0.000    0.000    0.000 
#    0.000    0.000    0.000    0.000    0.000    0.000 
#
# Total GULP energy -297555.320376 kJ/mol
# GULP energy per Si atom -12398.138349 kJ/mol
# Density = 2.347904 g / cm^3
# Si number density = 23.532598 Si / 1000 Ang^3
#
#
#
# Elastic Constant Matrix: (Units=GPa)
#
#
# Indices 1 2 3 4 5 6 
#
# 1 67.9713 26.6704 46.4513 0.0000 0.0000 0.0000
# 2 26.6704 120.3508 35.9955 0.0000 0.0000 0.0000
# 3 46.4513 35.9955 120.3151 0.0000 0.0000 0.0000
# 4 0.0000 0.0000 0.0000 40.6684 0.0000 0.0000
# 5 0.0000 0.0000 0.0000 0.0000 31.4734 0.0000
# 6 0.0000 0.0000 0.0000 0.0000 0.0000 23.2680
#
#
#
# Elastic Compliance Matrix: (Units=1/GPa)
#
#
# Indices 1 2 3 4 5 6 
#
# 1 0.020598 -0.002401 -0.007234 0.000000 0.000000 0.000000
# 2 -0.002401 0.009405 -0.001887 0.000000 0.000000 0.000000
# 3 -0.007234 -0.001887 0.011669 0.000000 0.000000 0.000000
# 4 0.000000 0.000000 0.000000 0.024589 0.000000 0.000000
# 5 0.000000 0.000000 0.000000 0.000000 0.031773 0.000000
# 6 0.000000 0.000000 0.000000 0.000000 0.000000 0.042977
#
#
# Mechanical properties :
#
#
# Convention : Reuss Voigt Hill
#
# Bulk Modulus (GPa) = 53.68171 58.54130 56.11151
# Shear Modulus (GPa) = 29.36593 32.38331 30.87462
#
# Velocity S-wave (km/s) = 3.53637 3.71361 3.62608
# Velocity P-wave (km/s) = 6.28774 6.58169 6.43639
#
# Compressibility (1/GPa) = 0.01862832
#
# Stress axis : x y z
#
# Youngs Moduli (GPa) = 48.54851 106.32113 85.69716
#
# Poissons Ratio (x) = 0.25527 0.61995
# Poissons Ratio (y) = 0.11656 0.16171
# Poissons Ratio (z) = 0.35121 0.20062
#
# Static dielectric constant tensor:
#      x y z
#    x 3.778060 0.000000 0.000000 
#    y 0.000000 4.186980 0.000000 
#    z 0.000000 0.000000 4.412800 
# 
# 
# High freq. dielectric constant tensor:
#      x y z
#    x 1.893190 0.000000 0.000000 
#    y 0.000000 1.939640 0.000000 
#    z 0.000000 0.000000 1.941450 
# 
# From -- ./inp_files/6621.got.cif
#   From: 2010.03.12/outbox.cif.g09.slc.cpg/sg33_4_cif.got.tgz:6621.got - 2010.04.14 01:49:19.
