data_PCOD8171210
_publ_section_title
;
Structure prediction by ZEFSAII (Michael W. Deem and Ramdas Pophale) SiO2 
 PCOD8171210
Probable space group: P N A 21
;
_chemical_formula_sum "Si O2"
_cell_formula_units_Z 24
_cell_length_a 23.382313
_cell_length_b 9.211098
_cell_length_c 5.191139
_cell_angle_alpha 90.000000
_cell_angle_beta 90.000000
_cell_angle_gamma 90.000000
_cell_volume 1118.050784
_symmetry_space_group_name_H-M "P N A 21"
_symmetry_group_IT_number 33
_symmetry_cell_setting 'orthorhombic'
loop_
_space_group_symop_operation_xyz
x,y,z
-x,-y,1/2+z
1/2-x,1/2+y,1/2+z
1/2+x,1/2-y,z
loop_
_atom_site_type_symbol
_atom_site_label
_atom_site_fract_x
_atom_site_fract_y
_atom_site_fract_z
Si Si1 0.548717 0.361120 0.791700
Si Si2 0.575790 0.500855 0.289213
Si Si3 0.870710 0.284567 0.953025
Si Si4 0.230813 0.568052 0.242698
Si Si5 0.991759 0.416765 0.962506
Si Si6 0.761952 0.266762 0.234762
O O1 0.582662 0.387770 0.526122
O O2 0.488768 0.443287 0.788397
O O3 0.537599 0.191734 0.836108
O O4 0.588624 0.419805 0.022330
O O5 0.620974 0.630698 0.311561
O O6 0.837245 0.394323 0.761172
O O7 0.931620 0.345451 0.040657
O O8 0.831303 0.257904 0.206469
O O9 0.256074 0.640144 0.983920
O O10 0.236708 0.394998 0.246821
O O11 0.262776 0.645603 0.485455
O O12 0.981886 0.532769 0.734799
#
# Coordination Sequence:
#
# PCOD8171210 Si02
#       6
#     4   4   4   4   4   4
#     4   9  18  32  52  77 113 148 194 238 287 357
#     4   9  17  32  54  81 106 149 193 242 291 356
#     4   9  24  36  68  84 127 162 216 256 339 379
#     4  10  22  41  68  94 127 168 214 270 334 394
#     4  11  23  38  58  86 127 169 207 260 319 389
#     4  10  22  41  68  94 128 166 214 270 332 395
#
# _framework density 21.465931999999999
#
# number of rings (size 3 to 8) (size 9 to 14) (size 15 to 20)
#    1.000    1.333    0.000    2.000    4.667    2.667 
#    0.000    5.000    0.000    0.000    0.000    0.000 
#    0.000    0.000    0.000    0.000    0.000    0.000 
#
# Total GULP energy -297408.733455 kJ/mol
# GULP energy per Si atom -12392.030561 kJ/mol
# Density = 2.141707 g / cm^3
# Si number density = 21.465932 Si / 1000 Ang^3
#
#
#
# Elastic Constant Matrix: (Units=GPa)
#
#
# Indices 1 2 3 4 5 6 
#
# 1 26.5114 7.4897 -11.6455 0.0000 0.0000 0.0000
# 2 7.4897 80.8482 17.0770 0.0000 0.0000 0.0000
# 3 -11.6455 17.0770 104.2921 0.0000 0.0000 0.0000
# 4 0.0000 0.0000 0.0000 38.3439 0.0000 0.0000
# 5 0.0000 0.0000 0.0000 0.0000 15.3218 0.0000
# 6 0.0000 0.0000 0.0000 0.0000 0.0000 27.5801
#
#
#
# Elastic Compliance Matrix: (Units=1/GPa)
#
#
# Indices 1 2 3 4 5 6 
#
# 1 0.041529 -0.005000 0.005456 0.000000 0.000000 0.000000
# 2 -0.005000 0.013414 -0.002755 0.000000 0.000000 0.000000
# 3 0.005456 -0.002755 0.010649 0.000000 0.000000 0.000000
# 4 0.000000 0.000000 0.000000 0.026080 0.000000 0.000000
# 5 0.000000 0.000000 0.000000 0.000000 0.065266 0.000000
# 6 0.000000 0.000000 0.000000 0.000000 0.000000 0.036258
#
#
# Mechanical properties :
#
#
# Convention : Reuss Voigt Hill
#
# Bulk Modulus (GPa) = 16.39496 26.38824 21.39160
# Shear Modulus (GPa) = 22.92278 29.49787 26.21032
#
# Velocity S-wave (km/s) = 3.27137 3.71100 3.49810
# Velocity P-wave (km/s) = 4.68224 5.53912 5.12861
#
# Compressibility (1/GPa) = 0.06099435
#
# Stress axis : x y z
#
# Youngs Moduli (GPa) = 24.07976 74.54975 93.90805
#
# Poissons Ratio (x) = 0.37272 -0.51234
# Poissons Ratio (y) = 0.12039 0.25869
# Poissons Ratio (z) = -0.13137 0.20536
#
# Static dielectric constant tensor:
#      x y z
#    x 3.386640 0.000000 0.000000 
#    y 0.000000 3.805870 0.000000 
#    z 0.000000 0.000000 4.003200 
# 
# 
# High freq. dielectric constant tensor:
#      x y z
#    x 1.803410 0.000000 0.000000 
#    y 0.000000 1.842630 0.000000 
#    z 0.000000 0.000000 1.851060 
# 
# From -- ./inp_files/2184.got.cif
#   From: 2010.03.12/outbox.cif.g09.slc.cpg/sg33_2_cif.got.tgz:2184.got - 2010.04.14 01:49:19.
