data_PCOD8171853
_publ_section_title
;
Structure prediction by ZEFSAII (Michael W. Deem and Ramdas Pophale) SiO2 
 PCOD8171853
Probable space group: P N N 2
;
_chemical_formula_sum "Si O2"
_cell_formula_units_Z 26
_cell_length_a 10.292021
_cell_length_b 8.403387
_cell_length_c 15.783466
_cell_angle_alpha 90.000000
_cell_angle_beta 90.000000
_cell_angle_gamma 90.000000
_cell_volume 1365.077811
_symmetry_space_group_name_H-M "P N N 2"
_symmetry_group_IT_number 34
_symmetry_cell_setting 'orthorhombic'
loop_
_space_group_symop_operation_xyz
x,y,z
-x,-y,z
1/2-x,1/2+y,1/2+z
1/2+x,1/2-y,1/2+z
loop_
_atom_site_type_symbol
_atom_site_label
_atom_site_fract_x
_atom_site_fract_y
_atom_site_fract_z
Si Si1 0.096573 0.857129 0.304420
Si Si2 0.947986 0.676869 0.172562
Si Si3 0.000000 0.000000 0.865014
Si Si4 0.366687 0.742758 0.488039
Si Si5 0.880574 0.416191 0.435158
Si Si6 0.647751 0.998066 0.355993
Si Si7 0.756498 0.158654 0.815331
O O1 0.070338 0.726808 0.376163
O O2 0.249309 0.903392 0.298322
O O3 0.059096 0.786540 0.213327
O O4 0.000000 0.000000 0.328356
O O5 0.927032 0.747321 0.080034
O O6 0.814003 0.689074 0.225842
O O7 0.000000 0.500000 0.167304
O O8 0.886276 0.054266 0.801589
O O9 0.040077 0.147028 0.924685
O O10 0.229812 0.649236 0.497752
O O11 0.350722 0.920307 0.449241
O O12 0.835034 0.560121 0.376295
O O13 0.000000 0.500000 0.486389
O O14 0.500000 0.000000 0.318214
O O15 0.703272 0.821018 0.362445
#
# Coordination Sequence:
#
# PCOD8171853 Si02
#       7
#     4   4   2   4   4   4   4
#     4  11  20  35  63  96 118 159 214 253 303 377
#     4  12  23  39  62  92 125 155 210 269 316 364
#     4  10  22  38  62  84 124 164 214 242 316 386
#     4  10  24  36  61  92 124 159 207 263 316 363
#     4  10  18  39  61  88 117 166 207 250 305 383
#     4  11  21  37  60  94 124 162 211 258 303 377
#     4  11  20  37  63  87 117 169 206 256 305 383
#
# _framework density 19.046534000000001
#
# number of rings (size 3 to 8) (size 9 to 14) (size 15 to 20)
#    0.000    1.231    6.154    0.462    1.077    0.000 
#    0.000    0.769   10.154    0.000    0.000    0.000 
#    0.000    0.000    0.000    0.000    0.000    0.000 
#
# Total GULP energy -322244.825508 kJ/mol
# GULP energy per Si atom -12394.031750 kJ/mol
# Density = 1.900318 g / cm^3
# Si number density = 19.046534 Si / 1000 Ang^3
#
#
#
# Elastic Constant Matrix: (Units=GPa)
#
#
# Indices 1 2 3 4 5 6 
#
# 1 143.3031 35.7324 37.3029 0.0000 0.0000 0.0000
# 2 35.7324 104.1102 22.4177 0.0000 0.0000 0.0000
# 3 37.3029 22.4177 76.1827 0.0000 0.0000 0.0000
# 4 0.0000 0.0000 0.0000 17.6193 0.0000 0.0000
# 5 0.0000 0.0000 0.0000 0.0000 23.3334 0.0000
# 6 0.0000 0.0000 0.0000 0.0000 0.0000 47.0338
#
#
#
# Elastic Compliance Matrix: (Units=1/GPa)
#
#
# Indices 1 2 3 4 5 6 
#
# 1 0.008421 -0.002138 -0.003494 0.000000 0.000000 0.000000
# 2 -0.002138 0.010798 -0.002131 0.000000 0.000000 0.000000
# 3 -0.003494 -0.002131 0.015464 0.000000 0.000000 0.000000
# 4 0.000000 0.000000 0.000000 0.056756 0.000000 0.000000
# 5 0.000000 0.000000 0.000000 0.000000 0.042857 0.000000
# 6 0.000000 0.000000 0.000000 0.000000 0.000000 0.021261
#
#
# Mechanical properties :
#
#
# Convention : Reuss Voigt Hill
#
# Bulk Modulus (GPa) = 52.19855 57.16690 54.68273
# Shear Modulus (GPa) = 28.17406 32.80683 30.49045
#
# Velocity S-wave (km/s) = 3.85024 4.15475 4.00539
# Velocity P-wave (km/s) = 6.87249 7.28666 7.08260
#
# Compressibility (1/GPa) = 0.01915762
#
# Stress axis : x y z
#
# Youngs Moduli (GPa) = 118.75311 92.61233 64.66539
#
# Poissons Ratio (x) = 0.19798 0.22595
# Poissons Ratio (y) = 0.25387 0.13778
# Poissons Ratio (z) = 0.41495 0.19732
#
# Static dielectric constant tensor:
#      x y z
#    x 3.983270 0.000000 0.000000 
#    y 0.000000 3.875930 0.000000 
#    z 0.000000 0.000000 3.030870 
# 
# 
# High freq. dielectric constant tensor:
#      x y z
#    x 1.762490 0.000000 0.000000 
#    y 0.000000 1.769700 0.000000 
#    z 0.000000 0.000000 1.682860 
# 
# From -- ./inp_files/6746.got.cif
#   From: 2010.03.12/outbox.cif.g09.slc.cpg/sg34_4_cif.got.tgz:6746.got - 2010.04.14 01:56:33.
