data_PCOD8171796
_publ_section_title
;
Structure prediction by ZEFSAII (Michael W. Deem and Ramdas Pophale) SiO2 
 PCOD8171796
Probable space group: P N A 21
;
_chemical_formula_sum "Si O2"
_cell_formula_units_Z 20
_cell_length_a 14.962083
_cell_length_b 9.143700
_cell_length_c 5.658622
_cell_angle_alpha 90.000000
_cell_angle_beta 90.000000
_cell_angle_gamma 90.000000
_cell_volume 774.149276
_symmetry_space_group_name_H-M "P N A 21"
_symmetry_group_IT_number 33
_symmetry_cell_setting 'orthorhombic'
loop_
_space_group_symop_operation_xyz
x,y,z
-x,-y,1/2+z
1/2-x,1/2+y,1/2+z
1/2+x,1/2-y,z
loop_
_atom_site_type_symbol
_atom_site_label
_atom_site_fract_x
_atom_site_fract_y
_atom_site_fract_z
Si Si1 0.417129 0.324166 0.375000
Si Si2 0.476140 0.927657 0.703301
Si Si3 0.184023 0.341712 0.964110
Si Si4 0.754248 0.356351 0.322877
Si Si5 0.910116 0.872383 0.146437
O O1 0.470696 0.226050 0.185300
O O2 0.331047 0.231236 0.471540
O O3 0.484817 0.370167 0.584885
O O4 0.381808 0.472139 0.254658
O O5 0.368750 0.912718 0.686093
O O6 0.506640 0.018947 0.472470
O O7 0.226159 0.470319 0.804077
O O8 0.105701 0.260907 0.822688
O O9 0.254900 0.222060 0.063426
O O10 0.655404 0.341164 0.427594
#
# Coordination Sequence:
#
# PCOD8171796 Si02
#       5
#     4   4   4   4   4
#     4  12  27  51  82 118 162 223 274 364 420 520
#     4  12  26  49  82 119 161 215 279 341 425 507
#     4  12  28  51  78 118 165 215 281 349 433 519
#     4  12  28  49  79 121 159 224 276 357 429 518
#     4  12  29  52  79 118 169 213 294 345 439 510
#
# _framework density 25.834809
#
# number of rings (size 3 to 8) (size 9 to 14) (size 15 to 20)
#    0.000    0.000    6.000    2.400    2.800    1.600 
#    0.000    0.000    0.000    0.000    0.000    0.000 
#    0.000    0.000    0.000    0.000    0.000    0.000 
#
# Total GULP energy -247821.367162 kJ/mol
# GULP energy per Si atom -12391.068358 kJ/mol
# Density = 2.577601 g / cm^3
# Si number density = 25.834809 Si / 1000 Ang^3
#
#
#
# Elastic Constant Matrix: (Units=GPa)
#
#
# Indices 1 2 3 4 5 6 
#
# 1 88.6783 32.2330 10.7136 0.0000 0.0000 0.0000
# 2 32.2330 174.6284 59.6395 0.0000 0.0000 0.0000
# 3 10.7136 59.6395 93.0732 0.0000 0.0000 0.0000
# 4 0.0000 0.0000 0.0000 47.1742 0.0000 0.0000
# 5 0.0000 0.0000 0.0000 0.0000 25.9212 0.0000
# 6 0.0000 0.0000 0.0000 0.0000 0.0000 51.4234
#
#
#
# Elastic Compliance Matrix: (Units=1/GPa)
#
#
# Indices 1 2 3 4 5 6 
#
# 1 0.012088 -0.002248 0.000049 0.000000 0.000000 0.000000
# 2 -0.002248 0.007749 -0.004706 0.000000 0.000000 0.000000
# 3 0.000049 -0.004706 0.013754 0.000000 0.000000 0.000000
# 4 0.000000 0.000000 0.000000 0.021198 0.000000 0.000000
# 5 0.000000 0.000000 0.000000 0.000000 0.038578 0.000000
# 6 0.000000 0.000000 0.000000 0.000000 0.000000 0.019446
#
#
# Mechanical properties :
#
#
# Convention : Reuss Voigt Hill
#
# Bulk Modulus (GPa) = 50.55555 62.39466 56.47511
# Shear Modulus (GPa) = 37.53242 41.82335 39.67789
#
# Velocity S-wave (km/s) = 3.81568 4.02789 3.92322
# Velocity P-wave (km/s) = 6.24690 6.77021 6.51381
#
# Compressibility (1/GPa) = 0.01978022
#
# Stress axis : x y z
#
# Youngs Moduli (GPa) = 82.72748 129.05335 72.70397
#
# Poissons Ratio (x) = 0.29010 -0.00356
# Poissons Ratio (y) = 0.18596 0.34218
# Poissons Ratio (z) = -0.00405 0.60739
#
# Static dielectric constant tensor:
#      x y z
#    x 4.702790 0.000000 0.000000 
#    y 0.000000 5.010360 0.000000 
#    z 0.000000 0.000000 4.273160 
# 
# 
# High freq. dielectric constant tensor:
#      x y z
#    x 2.042510 0.000000 0.000000 
#    y 0.000000 2.060270 0.000000 
#    z 0.000000 0.000000 2.003150 
# 
# From -- ./inp_files/1650.got.cif
#   From: 2010.03.12/outbox.cif.g09.slc.cpg/sg33_1_cif.got.tgz:1650.got - 2010.04.14 01:49:19.
