data_PCOD8171580
_publ_section_title
;
Structure prediction by ZEFSAII (Michael W. Deem and Ramdas Pophale) SiO2 
 PCOD8171580
Probable space group: P N A 21
;
_chemical_formula_sum "Si O2"
_cell_formula_units_Z 32
_cell_length_a 9.012307
_cell_length_b 5.218359
_cell_length_c 29.053419
_cell_angle_alpha 90.000000
_cell_angle_beta 90.000000
_cell_angle_gamma 90.000000
_cell_volume 1366.366413
_symmetry_space_group_name_H-M "P N A 21"
_symmetry_group_IT_number 33
_symmetry_cell_setting 'orthorhombic'
loop_
_space_group_symop_operation_xyz
x,y,z
-x,-y,1/2+z
1/2-x,1/2+y,1/2+z
1/2+x,1/2-y,z
loop_
_atom_site_type_symbol
_atom_site_label
_atom_site_fract_x
_atom_site_fract_y
_atom_site_fract_z
Si Si1 0.843280 0.539820 0.338210
Si Si2 0.678501 0.040483 0.305453
Si Si3 0.637164 0.265706 0.035059
Si Si4 0.969073 0.854942 0.986040
Si Si5 0.855424 0.565458 0.167391
Si Si6 0.688207 0.059343 0.199177
Si Si7 0.312986 0.975549 0.442834
Si Si8 0.107958 0.451074 0.565078
O O1 0.751807 0.275156 0.333428
O O2 0.845225 0.619146 0.391643
O O3 0.009998 0.500380 0.321060
O O4 0.768643 0.775674 0.311205
O O5 0.680120 0.127457 0.252722
O O6 0.793139 0.291146 0.060166
O O7 0.564461 0.031949 0.063014
O O8 0.535655 0.517606 0.033281
O O9 0.634735 0.234071 0.979377
O O10 0.864272 0.001502 0.950060
O O11 0.093129 0.729281 0.953958
O O12 0.851861 0.686308 0.016509
O O13 0.755187 0.310282 0.173828
O O14 0.854145 0.667225 0.114521
O O15 0.023222 0.500405 0.181485
O O16 0.791674 0.807586 0.194985
#
# Coordination Sequence:
#
# PCOD8171580 Si02
#       8
#     4   4   4   4   4   4   4   4
#     4  12  28  45  79 105 144 186 242 298 347 444
#     4  12  26  49  73 106 140 184 232 302 373 425
#     4  11  23  40  63  92 137 181 218 281 329 402
#     4  11  23  40  63  92 137 181 218 281 329 402
#     4  12  28  45  79 105 144 186 242 298 347 444
#     4  12  26  49  73 106 140 184 232 302 373 425
#     4  11  25  41  66  97 134 181 234 273 343 399
#     4  11  25  41  66  97 134 181 234 273 343 399
#
# _framework density 23.419777
#
# number of rings (size 3 to 8) (size 9 to 14) (size 15 to 20)
#    0.000    0.500    2.500    5.250    7.000    0.000 
#    0.000    0.000    0.000    0.000    0.000    0.000 
#    0.000    0.000    0.000    0.000    0.000    0.000 
#
# Total GULP energy -396454.365325 kJ/mol
# GULP energy per Si atom -12389.198916 kJ/mol
# Density = 2.336647 g / cm^3
# Si number density = 23.419777 Si / 1000 Ang^3
#
#
#
# Elastic Constant Matrix: (Units=GPa)
#
#
# Indices 1 2 3 4 5 6 
#
# 1 111.1812 14.2729 5.0920 0.0000 0.0000 0.0000
# 2 14.2729 77.2237 -10.7946 0.0000 0.0000 0.0000
# 3 5.0920 -10.7946 91.8839 0.0000 0.0000 0.0000
# 4 0.0000 0.0000 0.0000 28.7760 0.0000 0.0000
# 5 0.0000 0.0000 0.0000 0.0000 24.0775 0.0000
# 6 0.0000 0.0000 0.0000 0.0000 0.0000 29.5106
#
#
#
# Elastic Compliance Matrix: (Units=1/GPa)
#
#
# Indices 1 2 3 4 5 6 
#
# 1 0.009260 -0.001813 -0.000726 0.000000 0.000000 0.000000
# 2 -0.001813 0.013521 0.001689 0.000000 0.000000 0.000000
# 3 -0.000726 0.001689 0.011122 0.000000 0.000000 0.000000
# 4 0.000000 0.000000 0.000000 0.034751 0.000000 0.000000
# 5 0.000000 0.000000 0.000000 0.000000 0.041533 0.000000
# 6 0.000000 0.000000 0.000000 0.000000 0.000000 0.033886
#
#
# Mechanical properties :
#
#
# Convention : Reuss Voigt Hill
#
# Bulk Modulus (GPa) = 31.05384 33.04772 32.05078
# Shear Modulus (GPa) = 31.94735 34.58739 33.26737
#
# Velocity S-wave (km/s) = 3.69740 3.84714 3.77302
# Velocity P-wave (km/s) = 5.61393 5.82028 5.71804
#
# Compressibility (1/GPa) = 0.03220214
#
# Stress axis : x y z
#
# Youngs Moduli (GPa) = 107.98748 73.96143 89.91225
#
# Poissons Ratio (x) = 0.13410 0.06529
# Poissons Ratio (y) = 0.19579 -0.15185
# Poissons Ratio (z) = 0.07842 -0.12491
#
# Static dielectric constant tensor:
#      x y z
#    x 4.346390 0.000000 0.000000 
#    y 0.000000 4.222360 0.000000 
#    z 0.000000 0.000000 4.330730 
# 
# 
# High freq. dielectric constant tensor:
#      x y z
#    x 1.950490 0.000000 0.000000 
#    y 0.000000 1.930740 0.000000 
#    z 0.000000 0.000000 1.927760 
# 
# From -- ./inp_files/9376.got.cif
#   From: 2010.03.12/outbox.cif.g09.slc.cpg/sg33_5_cif.got.tgz:9376.got - 2010.04.14 01:49:19.
