data_PCOD8171164
_publ_section_title
;
Structure prediction by ZEFSAII (Michael W. Deem and Ramdas Pophale) SiO2 
 PCOD8171164
Probable space group: P N A 21
;
_chemical_formula_sum "Si O2"
_cell_formula_units_Z 28
_cell_length_a 13.281757
_cell_length_b 5.196236
_cell_length_c 18.796517
_cell_angle_alpha 90.000000
_cell_angle_beta 90.000000
_cell_angle_gamma 90.000000
_cell_volume 1297.244325
_symmetry_space_group_name_H-M "P N A 21"
_symmetry_group_IT_number 33
_symmetry_cell_setting 'orthorhombic'
loop_
_space_group_symop_operation_xyz
x,y,z
-x,-y,1/2+z
1/2-x,1/2+y,1/2+z
1/2+x,1/2-y,z
loop_
_atom_site_type_symbol
_atom_site_label
_atom_site_fract_x
_atom_site_fract_y
_atom_site_fract_z
Si Si1 0.177245 0.572802 0.014660
Si Si2 0.251400 0.064892 0.076044
Si Si3 0.938160 0.164899 0.629157
Si Si4 0.141006 0.427505 0.856445
Si Si5 0.459611 0.000548 0.762783
Si Si6 0.234928 0.930973 0.793277
Si Si7 0.102187 0.827631 0.669722
O O1 0.245747 0.332136 0.034544
O O2 0.082024 0.617604 0.068257
O O3 0.251694 0.823302 0.020862
O O4 0.132559 0.520120 0.937471
O O5 0.351125 0.086984 0.125422
O O6 0.152964 0.042125 0.126410
O O7 0.936759 0.273564 0.708144
O O8 0.046051 0.026194 0.616300
O O9 0.198391 0.648647 0.814269
O O10 0.028072 0.391664 0.826993
O O11 0.198647 0.155858 0.846854
O O12 0.354711 0.909203 0.795365
O O13 0.517057 0.768082 0.724136
O O14 0.190127 0.979642 0.713381
#
# Coordination Sequence:
#
# PCOD8171164 Si02
#       7
#     4   4   4   4   4   4   4
#     4  10  23  46  66  96 144 184 229 291 336 431
#     4  10  24  41  69  94 143 175 230 283 353 405
#     4  10  22  39  69 102 136 175 227 291 349 400
#     4  11  25  47  69  96 143 188 232 278 358 412
#     4  11  25  42  70 106 134 177 236 289 347 409
#     4  11  25  41  70  99 137 180 227 293 340 423
#     4  11  22  40  67 107 133 177 227 297 357 402
#
# _framework density 21.584212999999998
#
# number of rings (size 3 to 8) (size 9 to 14) (size 15 to 20)
#    0.857    0.571    1.429    3.429    8.000    0.000 
#    2.571    2.857    0.000    0.000    0.000    0.000 
#    0.000    0.000    0.000    0.000    0.000    0.000 
#
# Total GULP energy -347059.494082 kJ/mol
# GULP energy per Si atom -12394.981932 kJ/mol
# Density = 2.153509 g / cm^3
# Si number density = 21.584213 Si / 1000 Ang^3
#
#
#
# Elastic Constant Matrix: (Units=GPa)
#
#
# Indices 1 2 3 4 5 6 
#
# 1 121.5196 24.4425 34.9064 0.0000 0.0000 0.0000
# 2 24.4425 109.8200 19.1648 0.0000 0.0000 0.0000
# 3 34.9064 19.1648 80.7762 0.0000 0.0000 0.0000
# 4 0.0000 0.0000 0.0000 33.9032 0.0000 0.0000
# 5 0.0000 0.0000 0.0000 0.0000 16.6683 0.0000
# 6 0.0000 0.0000 0.0000 0.0000 0.0000 24.6063
#
#
#
# Elastic Compliance Matrix: (Units=1/GPa)
#
#
# Indices 1 2 3 4 5 6 
#
# 1 0.009620 -0.001477 -0.003807 0.000000 0.000000 0.000000
# 2 -0.001477 0.009726 -0.001669 0.000000 0.000000 0.000000
# 3 -0.003807 -0.001669 0.014421 0.000000 0.000000 0.000000
# 4 0.000000 0.000000 0.000000 0.029496 0.000000 0.000000
# 5 0.000000 0.000000 0.000000 0.000000 0.059994 0.000000
# 6 0.000000 0.000000 0.000000 0.000000 0.000000 0.040640
#
#
# Mechanical properties :
#
#
# Convention : Reuss Voigt Hill
#
# Bulk Modulus (GPa) = 50.35021 52.12704 51.23862
# Shear Modulus (GPa) = 27.11172 30.60903 28.86037
#
# Velocity S-wave (km/s) = 3.54798 3.76988 3.66061
# Velocity P-wave (km/s) = 6.33737 6.56904 6.45424
#
# Compressibility (1/GPa) = 0.01986089
#
# Stress axis : x y z
#
# Youngs Moduli (GPa) = 103.95436 102.81926 69.34362
#
# Poissons Ratio (x) = 0.15184 0.26397
# Poissons Ratio (y) = 0.15351 0.11576
# Poissons Ratio (z) = 0.39572 0.17164
#
# Static dielectric constant tensor:
#      x y z
#    x 3.939280 0.000000 0.000000 
#    y 0.000000 3.855830 0.000000 
#    z 0.000000 0.000000 3.826140 
# 
# 
# High freq. dielectric constant tensor:
#      x y z
#    x 1.844370 0.000000 0.000000 
#    y 0.000000 1.856690 0.000000 
#    z 0.000000 0.000000 1.824100 
# 
# From -- ./inp_files/9072.got.cif
#   From: 2010.03.12/outbox.cif.g09.slc.cpg/sg33_5_cif.got.tgz:9072.got - 2010.04.14 01:49:19.
