data_PCOD8171088
_publ_section_title
;
Structure prediction by ZEFSAII (Michael W. Deem and Ramdas Pophale) SiO2 
 PCOD8171088
Probable space group: P N A 21
;
_chemical_formula_sum "Si O2"
_cell_formula_units_Z 28
_cell_length_a 9.485411
_cell_length_b 17.490929
_cell_length_c 8.316513
_cell_angle_alpha 90.000000
_cell_angle_beta 90.000000
_cell_angle_gamma 90.000000
_cell_volume 1379.781447
_symmetry_space_group_name_H-M "P N A 21"
_symmetry_group_IT_number 33
_symmetry_cell_setting 'orthorhombic'
loop_
_space_group_symop_operation_xyz
x,y,z
-x,-y,1/2+z
1/2-x,1/2+y,1/2+z
1/2+x,1/2-y,z
loop_
_atom_site_type_symbol
_atom_site_label
_atom_site_fract_x
_atom_site_fract_y
_atom_site_fract_z
Si Si1 0.092767 0.849386 0.629510
Si Si2 0.626996 0.080266 0.200021
Si Si3 0.219963 0.120830 0.131635
Si Si4 0.439683 0.201593 0.320158
Si Si5 0.939824 0.680850 0.171806
Si Si6 0.305440 0.240563 0.866243
Si Si7 0.094173 0.481132 0.553314
O O1 0.208839 0.914145 0.662618
O O2 0.098448 0.786741 0.769898
O O3 0.124139 0.813325 0.454732
O O4 0.945616 0.892625 0.649368
O O5 0.554693 0.164954 0.195570
O O6 0.597363 0.046640 0.373229
O O7 0.555037 0.024447 0.071538
O O8 0.296938 0.150288 0.296397
O O9 0.277758 0.037955 0.086222
O O10 0.233675 0.185080 0.994522
O O11 0.505302 0.205711 0.496570
O O12 0.807097 0.731244 0.232258
O O13 0.894880 0.591912 0.171766
O O14 0.071494 0.690868 0.288301
#
# Coordination Sequence:
#
# PCOD8171088 Si02
#       7
#     4   4   4   4   4   4   4
#     4  11  22  39  63  94 121 171 215 271 322 395
#     4  10  22  40  65  86 125 168 211 259 322 402
#     4  10  21  42  63  92 129 173 215 263 336 410
#     4   9  21  38  65  90 125 164 212 262 327 394
#     4  11  24  40  65  98 127 165 218 282 329 385
#     4  11  23  40  66  96 128 167 222 280 329 398
#     4  10  23  43  63  90 127 174 211 261 333 412
#
# _framework density 20.29307
#
# number of rings (size 3 to 8) (size 9 to 14) (size 15 to 20)
#    0.000    1.714    1.429    2.571   12.000    0.000 
#    2.571    0.000    0.000    0.000    0.000    0.000 
#    0.000    0.000    0.000    0.000    0.000    0.000 
#
# Total GULP energy -347133.144631 kJ/mol
# GULP energy per Si atom -12397.612308 kJ/mol
# Density = 2.024688 g / cm^3
# Si number density = 20.293070 Si / 1000 Ang^3
#
#
#
# Elastic Constant Matrix: (Units=GPa)
#
#
# Indices 1 2 3 4 5 6 
#
# 1 172.1262 56.6637 40.4425 0.0000 0.0000 0.0000
# 2 56.6637 101.0525 33.1341 0.0000 0.0000 0.0000
# 3 40.4425 33.1341 87.9511 0.0000 0.0000 0.0000
# 4 0.0000 0.0000 0.0000 27.6531 0.0000 0.0000
# 5 0.0000 0.0000 0.0000 0.0000 32.8809 0.0000
# 6 0.0000 0.0000 0.0000 0.0000 0.0000 29.1934
#
#
#
# Elastic Compliance Matrix: (Units=1/GPa)
#
#
# Indices 1 2 3 4 5 6 
#
# 1 0.007454 -0.003487 -0.002114 0.000000 0.000000 0.000000
# 2 -0.003487 0.012921 -0.003265 0.000000 0.000000 0.000000
# 3 -0.002114 -0.003265 0.013572 0.000000 0.000000 0.000000
# 4 0.000000 0.000000 0.000000 0.036162 0.000000 0.000000
# 5 0.000000 0.000000 0.000000 0.000000 0.030413 0.000000
# 6 0.000000 0.000000 0.000000 0.000000 0.000000 0.034254
#
#
# Mechanical properties :
#
#
# Convention : Reuss Voigt Hill
#
# Bulk Modulus (GPa) = 61.66470 69.06782 65.36626
# Shear Modulus (GPa) = 31.66290 33.33810 32.50050
#
# Velocity S-wave (km/s) = 3.95432 4.05758 4.00629
# Velocity P-wave (km/s) = 7.16254 7.48739 7.32677
#
# Compressibility (1/GPa) = 0.01621673
#
# Stress axis : x y z
#
# Youngs Moduli (GPa) = 134.15215 77.39112 73.68111
#
# Poissons Ratio (x) = 0.26983 0.15577
# Poissons Ratio (y) = 0.46774 0.24054
# Poissons Ratio (z) = 0.28362 0.25266
#
# Static dielectric constant tensor:
#      x y z
#    x 3.852450 0.000000 0.000000 
#    y 0.000000 3.763100 0.000000 
#    z 0.000000 0.000000 3.642460 
# 
# 
# High freq. dielectric constant tensor:
#      x y z
#    x 1.798050 0.000000 0.000000 
#    y 0.000000 1.787490 0.000000 
#    z 0.000000 0.000000 1.788240 
# 
# From -- ./inp_files/3304.got.cif
#   From: 2010.03.12/outbox.cif.g09.slc.cpg/sg33_2_cif.got.tgz:3304.got - 2010.04.14 01:49:19.
