data_PCOD8171146
_publ_section_title
;
Structure prediction by ZEFSAII (Michael W. Deem and Ramdas Pophale) SiO2 
 PCOD8171146
Probable space group: P N A 21
;
_chemical_formula_sum "Si O2"
_cell_formula_units_Z 32
_cell_length_a 8.542431
_cell_length_b 11.235419
_cell_length_c 14.721441
_cell_angle_alpha 90.000000
_cell_angle_beta 90.000000
_cell_angle_gamma 90.000000
_cell_volume 1412.931396
_symmetry_space_group_name_H-M "P N A 21"
_symmetry_group_IT_number 33
_symmetry_cell_setting 'orthorhombic'
loop_
_space_group_symop_operation_xyz
x,y,z
-x,-y,1/2+z
1/2-x,1/2+y,1/2+z
1/2+x,1/2-y,z
loop_
_atom_site_type_symbol
_atom_site_label
_atom_site_fract_x
_atom_site_fract_y
_atom_site_fract_z
Si Si1 0.845997 0.425753 0.953200
Si Si2 0.270269 0.081789 0.648062
Si Si3 0.803039 0.989357 0.635690
Si Si4 0.462816 0.717980 0.400762
Si Si5 0.879873 0.115394 0.061742
Si Si6 0.815017 0.598962 0.797299
Si Si7 0.370888 0.204894 0.220558
Si Si8 0.528806 0.711378 0.188278
O O1 0.709435 0.331949 0.922937
O O2 0.851227 0.549620 0.896916
O O3 0.009647 0.353438 0.938853
O O4 0.822751 0.473305 0.054921
O O5 0.430028 0.157618 0.648604
O O6 0.125765 0.171908 0.635726
O O7 0.265461 0.978436 0.570660
O O8 0.250838 0.015902 0.744329
O O9 0.742895 0.909789 0.720108
O O10 0.973641 0.947792 0.607829
O O11 0.821916 0.125197 0.669340
O O12 0.589817 0.638288 0.455893
O O13 0.500509 0.715256 0.295434
O O14 0.853214 0.236659 0.119191
O O15 0.680560 0.700507 0.798186
O O16 0.957564 0.659571 0.743832
#
# Coordination Sequence:
#
# PCOD8171146 Si02
#       8
#     4   4   4   4   4   4   4   4
#     4  11  23  41  62  97 129 165 212 273 317 381
#     4  10  22  38  60  90 127 161 207 257 321 377
#     4  10  22  39  63  91 130 168 209 260 317 386
#     4  11  20  37  66  91 128 163 219 266 315 374
#     4   9  20  39  61  94 122 162 213 267 310 375
#     4  11  23  39  63  92 126 160 213 267 312 383
#     4  11  21  38  65  89 121 167 214 256 321 376
#     4  11  21  39  60  94 127 168 205 260 325 380
#
# _framework density 22.647948
#
# number of rings (size 3 to 8) (size 9 to 14) (size 15 to 20)
#    0.000    1.500    5.000    0.000    1.750    1.000 
#    0.000    5.000    0.000    0.000    0.000    0.000 
#    0.000    0.000    0.000    0.000    0.000    0.000 
#
# Total GULP energy -396582.694805 kJ/mol
# GULP energy per Si atom -12393.209213 kJ/mol
# Density = 2.259640 g / cm^3
# Si number density = 22.647948 Si / 1000 Ang^3
#
#
#
# Elastic Constant Matrix: (Units=GPa)
#
#
# Indices 1 2 3 4 5 6 
#
# 1 42.2003 25.0178 -2.5930 0.0000 0.0000 0.0000
# 2 25.0178 81.6039 8.5764 0.0000 0.0000 0.0000
# 3 -2.5930 8.5764 30.0658 0.0000 0.0000 0.0000
# 4 0.0000 0.0000 0.0000 27.0494 0.0000 0.0000
# 5 0.0000 0.0000 0.0000 0.0000 15.7468 0.0000
# 6 0.0000 0.0000 0.0000 0.0000 0.0000 44.7175
#
#
#
# Elastic Compliance Matrix: (Units=1/GPa)
#
#
# Indices 1 2 3 4 5 6 
#
# 1 0.029766 -0.009686 0.005330 0.000000 0.000000 0.000000
# 2 -0.009686 0.015785 -0.005338 0.000000 0.000000 0.000000
# 3 0.005330 -0.005338 0.035243 0.000000 0.000000 0.000000
# 4 0.000000 0.000000 0.000000 0.036969 0.000000 0.000000
# 5 0.000000 0.000000 0.000000 0.000000 0.063505 0.000000
# 6 0.000000 0.000000 0.000000 0.000000 0.000000 0.022363
#
#
# Mechanical properties :
#
#
# Convention : Reuss Voigt Hill
#
# Bulk Modulus (GPa) = 16.28501 23.98581 20.13541
# Shear Modulus (GPa) = 20.53500 25.69398 23.11449
#
# Velocity S-wave (km/s) = 3.01442 3.37188 3.19815
# Velocity P-wave (km/s) = 4.39565 5.07673 4.74842
#
# Compressibility (1/GPa) = 0.06140618
#
# Stress axis : x y z
#
# Youngs Moduli (GPa) = 33.59536 63.35234 28.37460
#
# Poissons Ratio (x) = 0.61361 -0.15124
# Poissons Ratio (y) = 0.32540 0.15146
# Poissons Ratio (z) = -0.17906 0.33817
#
# Static dielectric constant tensor:
#      x y z
#    x 4.074030 0.000000 0.000000 
#    y 0.000000 4.526700 0.000000 
#    z 0.000000 0.000000 3.791260 
# 
# 
# High freq. dielectric constant tensor:
#      x y z
#    x 1.890530 0.000000 0.000000 
#    y 0.000000 1.907830 0.000000 
#    z 0.000000 0.000000 1.859250 
# 
# From -- ./inp_files/7636.got.cif
#   From: 2010.03.12/outbox.cif.g09.slc.cpg/sg33_4_cif.got.tgz:7636.got - 2010.04.14 01:49:19.
