data_PCOD8171192
_publ_section_title
;
Structure prediction by ZEFSAII (Michael W. Deem and Ramdas Pophale) SiO2 
 PCOD8171192
Probable space group: P N A 21
;
_chemical_formula_sum "Si O2"
_cell_formula_units_Z 28
_cell_length_a 18.408171
_cell_length_b 8.079473
_cell_length_c 8.766139
_cell_angle_alpha 90.000000
_cell_angle_beta 90.000000
_cell_angle_gamma 90.000000
_cell_volume 1303.773131
_symmetry_space_group_name_H-M "P N A 21"
_symmetry_group_IT_number 33
_symmetry_cell_setting 'orthorhombic'
loop_
_space_group_symop_operation_xyz
x,y,z
-x,-y,1/2+z
1/2-x,1/2+y,1/2+z
1/2+x,1/2-y,z
loop_
_atom_site_type_symbol
_atom_site_label
_atom_site_fract_x
_atom_site_fract_y
_atom_site_fract_z
Si Si1 0.626706 0.275686 0.281190
Si Si2 0.853002 0.432325 0.614253
Si Si3 0.847573 0.962272 0.480302
Si Si4 0.014601 0.774507 0.240272
Si Si5 0.227067 0.294367 0.548815
Si Si6 0.869524 0.625501 0.317543
Si Si7 0.002947 0.066043 0.438731
O O1 0.641453 0.419713 0.159014
O O2 0.678523 0.303999 0.426356
O O3 0.542826 0.294279 0.335833
O O4 0.640710 0.094583 0.215888
O O5 0.914865 0.306461 0.667097
O O6 0.775971 0.341253 0.637734
O O7 0.860444 0.474266 0.434735
O O8 0.838444 0.794291 0.388060
O O9 0.776879 0.074262 0.459108
O O10 0.915866 0.066774 0.415486
O O11 0.955352 0.635617 0.281886
O O12 0.033166 0.883262 0.390992
O O13 0.978845 0.899934 0.116064
O O14 0.176826 0.400995 0.664030
#
# Coordination Sequence:
#
# PCOD8171192 Si02
#       7
#     4   4   4   4   4   4   4
#     4  11  23  39  63  90 123 158 206 256 304 364
#     4  11  25  41  61  95 126 155 202 266 305 353
#     4  10  22  41  60  87 122 161 202 247 304 370
#     4  11  23  41  66  88 123 165 209 253 310 363
#     4  12  21  40  63  85 124 166 203 239 310 371
#     4  10  24  40  62  92 123 156 203 256 303 361
#     4  11  20  42  63  87 119 169 207 249 306 374
#
# _framework density 21.476127999999999
#
# number of rings (size 3 to 8) (size 9 to 14) (size 15 to 20)
#    0.000    1.143    4.286    1.714    2.000    0.000 
#    0.000    1.429    0.000    0.000    0.000    0.000 
#    0.000    0.000    0.000    0.000    0.000    0.000 
#
# Total GULP energy -347173.587655 kJ/mol
# GULP energy per Si atom -12399.056702 kJ/mol
# Density = 2.142725 g / cm^3
# Si number density = 21.476128 Si / 1000 Ang^3
#
#
#
# Elastic Constant Matrix: (Units=GPa)
#
#
# Indices 1 2 3 4 5 6 
#
# 1 106.9598 35.7516 48.9794 0.0000 0.0000 0.0000
# 2 35.7516 71.8942 16.1161 0.0000 0.0000 0.0000
# 3 48.9794 16.1161 75.6021 0.0000 0.0000 0.0000
# 4 0.0000 0.0000 0.0000 39.3515 0.0000 0.0000
# 5 0.0000 0.0000 0.0000 0.0000 38.7932 0.0000
# 6 0.0000 0.0000 0.0000 0.0000 0.0000 27.1996
#
#
#
# Elastic Compliance Matrix: (Units=1/GPa)
#
#
# Indices 1 2 3 4 5 6 
#
# 1 0.015181 -0.005613 -0.008639 0.000000 0.000000 0.000000
# 2 -0.005613 0.016683 0.000080 0.000000 0.000000 0.000000
# 3 -0.008639 0.000080 0.018807 0.000000 0.000000 0.000000
# 4 0.000000 0.000000 0.000000 0.025412 0.000000 0.000000
# 5 0.000000 0.000000 0.000000 0.000000 0.025778 0.000000
# 6 0.000000 0.000000 0.000000 0.000000 0.000000 0.036765
#
#
# Mechanical properties :
#
#
# Convention : Reuss Voigt Hill
#
# Bulk Modulus (GPa) = 44.78783 50.68336 47.73560
# Shear Modulus (GPa) = 28.66785 31.30945 29.98865
#
# Velocity S-wave (km/s) = 3.65755 3.82235 3.74086
# Velocity P-wave (km/s) = 6.22390 6.56746 6.39799
#
# Compressibility (1/GPa) = 0.02232749
#
# Stress axis : x y z
#
# Youngs Moduli (GPa) = 65.87034 59.94288 53.17227
#
# Poissons Ratio (x) = 0.33645 0.45935
# Poissons Ratio (y) = 0.36972 -0.00426
# Poissons Ratio (z) = 0.56904 -0.00480
#
# Static dielectric constant tensor:
#      x y z
#    x 3.846880 0.000000 0.000000 
#    y 0.000000 3.741910 0.000000 
#    z 0.000000 0.000000 4.047700 
# 
# 
# High freq. dielectric constant tensor:
#      x y z
#    x 1.843690 0.000000 0.000000 
#    y 0.000000 1.831010 0.000000 
#    z 0.000000 0.000000 1.846490 
# 
# From -- ./inp_files/4698.got.cif
#   From: 2010.03.12/outbox.cif.g09.slc.cpg/sg33_3_cif.got.tgz:4698.got - 2010.04.14 01:49:19.
