data_PCOD8171751
_publ_section_title
;
Structure prediction by ZEFSAII (Michael W. Deem and Ramdas Pophale) SiO2 
 PCOD8171751
Probable space group: P N A 21
;
_chemical_formula_sum "Si O2"
_cell_formula_units_Z 28
_cell_length_a 10.012588
_cell_length_b 6.693613
_cell_length_c 19.064104
_cell_angle_alpha 90.000000
_cell_angle_beta 90.000000
_cell_angle_gamma 90.000000
_cell_volume 1277.683670
_symmetry_space_group_name_H-M "P N A 21"
_symmetry_group_IT_number 33
_symmetry_cell_setting 'orthorhombic'
loop_
_space_group_symop_operation_xyz
x,y,z
-x,-y,1/2+z
1/2-x,1/2+y,1/2+z
1/2+x,1/2-y,z
loop_
_atom_site_type_symbol
_atom_site_label
_atom_site_fract_x
_atom_site_fract_y
_atom_site_fract_z
Si Si1 0.795525 0.824125 0.268040
Si Si2 0.351758 0.954346 0.014942
Si Si3 0.303732 0.324777 0.915106
Si Si4 0.883440 0.681924 0.734975
Si Si5 0.657121 0.948714 0.674274
Si Si6 0.990576 0.088249 0.349591
Si Si7 0.132546 0.670659 0.964411
O O1 0.743771 0.710963 0.336200
O O2 0.838323 0.668504 0.208263
O O3 0.678303 0.961434 0.237167
O O4 0.923317 0.956970 0.288606
O O5 0.231247 0.797239 0.013121
O O6 0.489247 0.838654 0.001117
O O7 0.331185 0.122035 0.955973
O O8 0.356770 0.047838 0.091198
O O9 0.440133 0.451862 0.909167
O O10 0.189848 0.448087 0.955424
O O11 0.791919 0.829395 0.690229
O O12 0.030369 0.673230 0.702043
O O13 0.898681 0.768936 0.813850
O O14 0.879800 0.223154 0.388363
#
# Coordination Sequence:
#
# PCOD8171751 Si02
#       7
#     4   4   4   4   4   4   4
#     4  12  24  45  75 108 144 190 246 301 368 432
#     4  12  30  47  74 107 151 199 243 301 373 446
#     4  12  24  45  75 108 144 190 246 301 368 432
#     4  12  26  49  72 110 147 189 246 306 362 443
#     4  12  30  47  74 107 151 199 243 301 373 446
#     4  12  22  46  76 112 146 186 246 314 366 428
#     4  12  26  49  72 110 147 189 246 306 362 443
#
# _framework density 21.914656999999998
#
# number of rings (size 3 to 8) (size 9 to 14) (size 15 to 20)
#    0.000    0.000    5.714    4.286    4.000    0.000 
#    0.000    0.000    0.000    0.000    0.000    0.000 
#    0.000    0.000    0.000    0.000    0.000    0.000 
#
# Total GULP energy -347424.875814 kJ/mol
# GULP energy per Si atom -12408.031279 kJ/mol
# Density = 2.186478 g / cm^3
# Si number density = 21.914657 Si / 1000 Ang^3
#
#
#
# Elastic Constant Matrix: (Units=GPa)
#
#
# Indices 1 2 3 4 5 6 
#
# 1 126.8802 47.1424 19.6878 0.0000 0.0000 0.0000
# 2 47.1424 93.9320 16.3828 0.0000 0.0000 0.0000
# 3 19.6878 16.3828 74.0609 0.0000 0.0000 0.0000
# 4 0.0000 0.0000 0.0000 25.6132 0.0000 0.0000
# 5 0.0000 0.0000 0.0000 0.0000 23.2840 0.0000
# 6 0.0000 0.0000 0.0000 0.0000 0.0000 44.3011
#
#
#
# Elastic Compliance Matrix: (Units=1/GPa)
#
#
# Indices 1 2 3 4 5 6 
#
# 1 0.009864 -0.004674 -0.001588 0.000000 0.000000 0.000000
# 2 -0.004674 0.013288 -0.001697 0.000000 0.000000 0.000000
# 3 -0.001588 -0.001697 0.014300 0.000000 0.000000 0.000000
# 4 0.000000 0.000000 0.000000 0.039042 0.000000 0.000000
# 5 0.000000 0.000000 0.000000 0.000000 0.042948 0.000000
# 6 0.000000 0.000000 0.000000 0.000000 0.000000 0.022573
#
#
# Mechanical properties :
#
#
# Convention : Reuss Voigt Hill
#
# Bulk Modulus (GPa) = 46.43819 51.25545 48.84682
# Shear Modulus (GPa) = 30.28264 32.75035 31.51649
#
# Velocity S-wave (km/s) = 3.72135 3.87000 3.79640
# Velocity P-wave (km/s) = 6.30088 6.58853 6.44631
#
# Compressibility (1/GPa) = 0.02153400
#
# Stress axis : x y z
#
# Youngs Moduli (GPa) = 101.37420 75.25825 69.92996
#
# Poissons Ratio (x) = 0.35173 0.11108
# Poissons Ratio (y) = 0.47379 0.11866
# Poissons Ratio (z) = 0.16103 0.12770
#
# Static dielectric constant tensor:
#      x y z
#    x 4.092820 0.000000 0.000000 
#    y 0.000000 4.100910 0.000000 
#    z 0.000000 0.000000 3.747790 
# 
# 
# High freq. dielectric constant tensor:
#      x y z
#    x 1.880170 0.000000 0.000000 
#    y 0.000000 1.877530 0.000000 
#    z 0.000000 0.000000 1.846920 
# 
# From -- ./inp_files/9051.got.cif
#   From: 2010.03.12/outbox.cif.g09.slc.cpg/sg33_5_cif.got.tgz:9051.got - 2010.04.14 01:49:19.
