data_PCOD8171429
_publ_section_title
;
Structure prediction by ZEFSAII (Michael W. Deem and Ramdas Pophale) SiO2 
 PCOD8171429
Probable space group: P N A 21
;
_chemical_formula_sum "Si O2"
_cell_formula_units_Z 28
_cell_length_a 9.029680
_cell_length_b 5.015571
_cell_length_c 26.068756
_cell_angle_alpha 90.000000
_cell_angle_beta 90.000000
_cell_angle_gamma 90.000000
_cell_volume 1180.627920
_symmetry_space_group_name_H-M "P N A 21"
_symmetry_group_IT_number 33
_symmetry_cell_setting 'orthorhombic'
loop_
_space_group_symop_operation_xyz
x,y,z
-x,-y,1/2+z
1/2-x,1/2+y,1/2+z
1/2+x,1/2-y,z
loop_
_atom_site_type_symbol
_atom_site_label
_atom_site_fract_x
_atom_site_fract_y
_atom_site_fract_z
Si Si1 0.848445 0.495052 0.508240
Si Si2 0.697185 0.044248 0.666179
Si Si3 0.681044 0.993987 0.546067
Si Si4 0.972727 0.040613 0.205583
Si Si5 0.886195 0.028765 0.319478
Si Si6 0.881788 0.661082 0.866913
Si Si7 0.724018 0.177301 0.899696
O O1 0.774713 0.203624 0.512328
O O2 0.868099 0.589970 0.449610
O O3 0.007856 0.487304 0.534311
O O4 0.738363 0.697076 0.536384
O O5 0.706121 0.045205 0.605526
O O6 0.640583 0.335521 0.680629
O O7 0.860060 0.998726 0.688229
O O8 0.582127 0.832924 0.689678
O O9 0.970724 0.993299 0.266724
O O10 0.711122 0.095724 0.314040
O O11 0.947322 0.290658 0.351677
O O12 0.896163 0.759492 0.354975
O O13 0.834057 0.436873 0.908778
O O14 0.838621 0.951466 0.886079
#
# Coordination Sequence:
#
# PCOD8171429 Si02
#       7
#     4   4   4   4   4   4   4
#     4  12  26  47  75 107 138 196 233 308 359 450
#     4  12  26  48  71 112 140 194 238 317 351 451
#     4  12  26  48  77 104 149 182 252 299 381 413
#     4  12  26  43  76 102 150 186 251 284 385 420
#     4  10  26  42  69  97 143 184 233 288 348 430
#     4  10  24  41  66  94 142 179 227 287 341 408
#     4  10  26  41  68  98 142 177 240 281 353 424
#
# _framework density 23.716191999999999
#
# number of rings (size 3 to 8) (size 9 to 14) (size 15 to 20)
#    0.857    0.000    0.000    6.000    8.000    1.143 
#    0.000    0.000    0.000    0.000    0.000    0.000 
#    0.000    0.000    0.000    0.000    0.000    0.000 
#
# Total GULP energy -346978.187545 kJ/mol
# GULP energy per Si atom -12392.078127 kJ/mol
# Density = 2.366221 g / cm^3
# Si number density = 23.716192 Si / 1000 Ang^3
#
#
#
# Elastic Constant Matrix: (Units=GPa)
#
#
# Indices 1 2 3 4 5 6 
#
# 1 121.2185 12.2527 12.2565 0.0000 0.0000 0.0000
# 2 12.2527 99.9332 23.4009 0.0000 0.0000 0.0000
# 3 12.2565 23.4009 136.5831 0.0000 0.0000 0.0000
# 4 0.0000 0.0000 0.0000 -2.2300 0.0000 0.0000
# 5 0.0000 0.0000 0.0000 0.0000 24.4899 0.0000
# 6 0.0000 0.0000 0.0000 0.0000 0.0000 32.4325
#
#
#
# Elastic Compliance Matrix: (Units=1/GPa)
#
#
# Indices 1 2 3 4 5 6 
#
# 1 0.008400 -0.000889 -0.000601 0.000000 0.000000 0.000000
# 2 -0.000889 0.010519 -0.001722 0.000000 0.000000 0.000000
# 3 -0.000601 -0.001722 0.007671 0.000000 0.000000 0.000000
# 4 0.000000 0.000000 0.000000 -0.448433 0.000000 0.000000
# 5 0.000000 0.000000 0.000000 0.000000 0.040833 0.000000
# 6 0.000000 0.000000 0.000000 0.000000 0.000000 0.030833
#
#
# Mechanical properties :
#
#
# Convention : Reuss Voigt Hill
#
# Bulk Modulus (GPa) = 49.59367 50.39500 49.99433
# Shear Modulus (GPa) = -14.83552 31.59348 8.37898
#
# Velocity S-wave (km/s) = -2.50380 3.65382 1.88167
# Velocity P-wave (km/s) = 3.54937 6.25267 5.08399
#
# Compressibility (1/GPa) = 0.02016386
#
# Stress axis : x y z
#
# Youngs Moduli (GPa) = 119.04403 95.06580 130.36735
#
# Poissons Ratio (x) = 0.08452 0.07841
# Poissons Ratio (y) = 0.10584 0.22455
# Poissons Ratio (z) = 0.07160 0.16375
#
# Static dielectric constant tensor:
#      x y z
#    x 4.275720 0.000000 0.000000 
#    y 0.000000 4.591110 0.000000 
#    z 0.000000 0.000000 4.338490 
# 
# 
# High freq. dielectric constant tensor:
#      x y z
#    x 1.956220 0.000000 0.000000 
#    y 0.000000 1.966530 0.000000 
#    z 0.000000 0.000000 1.929110 
# 
# From -- ./inp_files/9343.got.cif
#   From: 2010.03.12/outbox.cif.g09.slc.cpg/sg33_5_cif.got.tgz:9343.got - 2010.04.14 01:49:19.
