data_PCOD8171228
_publ_section_title
;
Structure prediction by ZEFSAII (Michael W. Deem and Ramdas Pophale) SiO2 
 PCOD8171228
Probable space group: P N A 21
;
_chemical_formula_sum "Si O2"
_cell_formula_units_Z 32
_cell_length_a 8.805261
_cell_length_b 11.843193
_cell_length_c 14.699927
_cell_angle_alpha 90.000000
_cell_angle_beta 90.000000
_cell_angle_gamma 90.000000
_cell_volume 1532.943747
_symmetry_space_group_name_H-M "P N A 21"
_symmetry_group_IT_number 33
_symmetry_cell_setting 'orthorhombic'
loop_
_space_group_symop_operation_xyz
x,y,z
-x,-y,1/2+z
1/2-x,1/2+y,1/2+z
1/2+x,1/2-y,z
loop_
_atom_site_type_symbol
_atom_site_label
_atom_site_fract_x
_atom_site_fract_y
_atom_site_fract_z
Si Si1 0.407484 0.347541 0.033750
Si Si2 0.821272 0.133807 0.833045
Si Si3 0.107064 0.608271 0.618629
Si Si4 0.195303 0.026789 0.967517
Si Si5 0.710391 0.040804 0.181295
Si Si6 0.338565 0.652934 0.285399
Si Si7 0.630153 0.667562 0.841753
Si Si8 0.285123 0.618328 0.796307
O O1 0.446844 0.230253 0.083003
O O2 0.558179 0.421211 0.025267
O O3 0.284795 0.419624 0.087895
O O4 0.337886 0.320792 0.935202
O O5 0.703673 0.214901 0.780424
O O6 0.981046 0.135804 0.779998
O O7 0.757244 0.007130 0.834361
O O8 0.159696 0.530061 0.534018
O O9 0.244897 0.624153 0.689635
O O10 0.970564 0.545829 0.670101
O O11 0.227803 0.100915 0.878386
O O12 0.155663 0.898939 0.936633
O O13 0.758513 0.120128 0.264515
O O14 0.761356 0.912122 0.201158
O O15 0.458717 0.655763 0.807633
O O16 0.675112 0.798730 0.854524
#
# Coordination Sequence:
#
# PCOD8171228 Si02
#       8
#     4   4   4   4   4   4   4   4
#     4  11  21  41  68  99 135 174 225 291 340 399
#     4  11  24  44  70  97 134 185 226 283 343 416
#     4  12  24  37  71 108 132 175 234 289 339 420
#     4  10  22  42  66  96 135 173 226 287 340 401
#     4  11  23  40  64 102 136 169 223 288 344 400
#     4  10  23  43  67  96 136 179 224 276 346 413
#     4  11  23  45  65  98 137 183 224 285 350 417
#     4  12  24  44  69  98 137 184 230 289 352 406
#
# _framework density 20.874867999999999
#
# number of rings (size 3 to 8) (size 9 to 14) (size 15 to 20)
#    0.000    1.000    6.250    2.250    3.500    0.000 
#    4.500    1.250    0.000    0.000    0.000    0.000 
#    0.000    0.000    0.000    0.000    0.000    0.000 
#
# Total GULP energy -396896.226676 kJ/mol
# GULP energy per Si atom -12403.007084 kJ/mol
# Density = 2.082736 g / cm^3
# Si number density = 20.874868 Si / 1000 Ang^3
#
#
#
# Elastic Constant Matrix: (Units=GPa)
#
#
# Indices 1 2 3 4 5 6 
#
# 1 100.7184 52.0064 44.7324 0.0000 0.0000 0.0000
# 2 52.0064 148.6657 26.1187 0.0000 0.0000 0.0000
# 3 44.7324 26.1187 57.0516 0.0000 0.0000 0.0000
# 4 0.0000 0.0000 0.0000 37.7547 0.0000 0.0000
# 5 0.0000 0.0000 0.0000 0.0000 27.4277 0.0000
# 6 0.0000 0.0000 0.0000 0.0000 0.0000 33.3292
#
#
#
# Elastic Compliance Matrix: (Units=1/GPa)
#
#
# Indices 1 2 3 4 5 6 
#
# 1 0.017131 -0.003951 -0.011623 0.000000 0.000000 0.000000
# 2 -0.003951 0.008226 -0.000668 0.000000 0.000000 0.000000
# 3 -0.011623 -0.000668 0.026947 0.000000 0.000000 0.000000
# 4 0.000000 0.000000 0.000000 0.026487 0.000000 0.000000
# 5 0.000000 0.000000 0.000000 0.000000 0.036459 0.000000
# 6 0.000000 0.000000 0.000000 0.000000 0.000000 0.030004
#
#
# Mechanical properties :
#
#
# Convention : Reuss Voigt Hill
#
# Bulk Modulus (GPa) = 50.45440 61.35009 55.90225
# Shear Modulus (GPa) = 27.12308 31.94088 29.53198
#
# Velocity S-wave (km/s) = 3.60852 3.91591 3.76535
# Velocity P-wave (km/s) = 6.44858 7.06392 6.76326
#
# Compressibility (1/GPa) = 0.01981988
#
# Stress axis : x y z
#
# Youngs Moduli (GPa) = 58.37420 121.56651 37.10948
#
# Poissons Ratio (x) = 0.48027 0.43133
# Poissons Ratio (y) = 0.23062 0.02480
# Poissons Ratio (z) = 0.67849 0.08124
#
# Static dielectric constant tensor:
#      x y z
#    x 3.716820 0.000000 0.000000 
#    y 0.000000 3.953770 0.000000 
#    z 0.000000 0.000000 3.718660 
# 
# 
# High freq. dielectric constant tensor:
#      x y z
#    x 1.819190 0.000000 0.000000 
#    y 0.000000 1.815340 0.000000 
#    z 0.000000 0.000000 1.802090 
# 
# From -- ./inp_files/7703.got.cif
#   From: 2010.03.12/outbox.cif.g09.slc.cpg/sg33_4_cif.got.tgz:7703.got - 2010.04.14 01:49:19.
