data_PCOD8171880
_publ_section_title
;
Structure prediction by ZEFSAII (Michael W. Deem and Ramdas Pophale) SiO2 
 PCOD8171880
Probable space group: P N N 2
;
_chemical_formula_sum "Si O2"
_cell_formula_units_Z 32
_cell_length_a 11.625741
_cell_length_b 17.992686
_cell_length_c 7.872998
_cell_angle_alpha 90.000000
_cell_angle_beta 90.000000
_cell_angle_gamma 90.000000
_cell_volume 1646.860395
_symmetry_space_group_name_H-M "P N N 2"
_symmetry_group_IT_number 34
_symmetry_cell_setting 'orthorhombic'
loop_
_space_group_symop_operation_xyz
x,y,z
-x,-y,z
1/2-x,1/2+y,1/2+z
1/2+x,1/2-y,1/2+z
loop_
_atom_site_type_symbol
_atom_site_label
_atom_site_fract_x
_atom_site_fract_y
_atom_site_fract_z
Si Si1 0.556775 0.077282 0.520520
Si Si2 0.143021 0.218943 0.333479
Si Si3 0.046881 0.231223 0.677798
Si Si4 0.207597 0.358857 0.724204
Si Si5 0.797762 0.618216 0.323865
Si Si6 0.947920 0.153384 0.132593
Si Si7 0.458413 0.420047 0.307447
Si Si8 0.387319 0.201295 0.426291
O O1 0.646594 0.091958 0.367661
O O2 0.612180 0.071883 0.709187
O O3 0.457019 0.139294 0.527962
O O4 0.500000 0.000000 0.474163
O O5 0.187064 0.296925 0.259816
O O6 0.254955 0.174897 0.403948
O O7 0.045720 0.232080 0.475263
O O8 0.075552 0.170873 0.195990
O O9 0.041076 0.145688 0.737796
O O10 0.941695 0.282830 0.740666
O O11 0.164336 0.273005 0.739704
O O12 0.184012 0.389183 0.528960
O O13 0.345062 0.363550 0.766061
O O14 0.673856 0.591845 0.257142
O O15 0.966561 0.082272 0.012140
O O16 0.893464 0.220511 0.023090
O O17 0.500000 0.500000 0.238744
#
# Coordination Sequence:
#
# PCOD8171880 Si02
#       8
#     4   4   4   4   4   4   4   4
#     4  11  24  39  62  88 126 165 195 244 314 365
#     4  11  19  35  62  88 114 148 207 262 298 347
#     4   9  18  34  59  86 111 152 198 251 294 342
#     4   9  20  39  62  88 118 155 208 253 293 359
#     4  10  20  39  62  83 119 160 197 255 307 347
#     4  10  19  37  62  83 116 156 201 253 304 355
#     4  10  21  39  56  84 126 159 193 244 306 373
#     4  10  19  38  57  86 119 148 208 254 286 365
#
# _framework density 19.430911999999999
#
# number of rings (size 3 to 8) (size 9 to 14) (size 15 to 20)
#    0.000    2.000    6.250    0.000    1.750    1.500 
#    4.500    0.625    0.000    0.000    0.000    0.000 
#    0.000    0.000    0.000    0.000    0.000    0.000 
#
# Total GULP energy -396466.500925 kJ/mol
# GULP energy per Si atom -12389.578154 kJ/mol
# Density = 1.938669 g / cm^3
# Si number density = 19.430912 Si / 1000 Ang^3
#
#
#
# Elastic Constant Matrix: (Units=GPa)
#
#
# Indices 1 2 3 4 5 6 
#
# 1 118.0524 32.0870 46.1873 0.0000 0.0000 0.0000
# 2 32.0870 90.3066 19.3642 0.0000 0.0000 0.0000
# 3 46.1873 19.3642 65.3415 0.0000 0.0000 0.0000
# 4 0.0000 0.0000 0.0000 17.4299 0.0000 0.0000
# 5 0.0000 0.0000 0.0000 0.0000 29.9756 0.0000
# 6 0.0000 0.0000 0.0000 0.0000 0.0000 24.8135
#
#
#
# Elastic Compliance Matrix: (Units=1/GPa)
#
#
# Indices 1 2 3 4 5 6 
#
# 1 0.012285 -0.002673 -0.007892 0.000000 0.000000 0.000000
# 2 -0.002673 0.012406 -0.001787 0.000000 0.000000 0.000000
# 3 -0.007892 -0.001787 0.021412 0.000000 0.000000 0.000000
# 4 0.000000 0.000000 0.000000 0.057373 0.000000 0.000000
# 5 0.000000 0.000000 0.000000 0.000000 0.033360 0.000000
# 6 0.000000 0.000000 0.000000 0.000000 0.000000 0.040301
#
#
# Mechanical properties :
#
#
# Convention : Reuss Voigt Hill
#
# Bulk Modulus (GPa) = 46.72933 52.10862 49.41897
# Shear Modulus (GPa) = 23.92644 26.18127 25.05385
#
# Velocity S-wave (km/s) = 3.51288 3.67468 3.59469
# Velocity P-wave (km/s) = 6.36828 6.69925 6.53586
#
# Compressibility (1/GPa) = 0.02139984
#
# Stress axis : x y z
#
# Youngs Moduli (GPa) = 81.40142 80.60412 46.70245
#
# Poissons Ratio (x) = 0.21544 0.36856
# Poissons Ratio (y) = 0.21757 0.08348
# Poissons Ratio (z) = 0.64238 0.14407
#
# Static dielectric constant tensor:
#      x y z
#    x 3.739040 0.000000 0.000000 
#    y 0.000000 3.309300 0.000000 
#    z 0.000000 0.000000 3.550740 
# 
# 
# High freq. dielectric constant tensor:
#      x y z
#    x 1.764380 0.000000 0.000000 
#    y 0.000000 1.725130 0.000000 
#    z 0.000000 0.000000 1.746260 
# 
# From -- ./inp_files/3337.got.cif
#   From: 2010.03.12/outbox.cif.g09.slc.cpg/sg34_2_cif.got.tgz:3337.got - 2010.04.14 01:56:33.
