data_PCOD8171579
_publ_section_title
;
Structure prediction by ZEFSAII (Michael W. Deem and Ramdas Pophale) SiO2 
 PCOD8171579
Probable space group: P N A 21
;
_chemical_formula_sum "Si O2"
_cell_formula_units_Z 32
_cell_length_a 23.117590
_cell_length_b 11.724067
_cell_length_c 5.094359
_cell_angle_alpha 90.000000
_cell_angle_beta 90.000000
_cell_angle_gamma 90.000000
_cell_volume 1380.735195
_symmetry_space_group_name_H-M "P N A 21"
_symmetry_group_IT_number 33
_symmetry_cell_setting 'orthorhombic'
loop_
_space_group_symop_operation_xyz
x,y,z
-x,-y,1/2+z
1/2-x,1/2+y,1/2+z
1/2+x,1/2-y,z
loop_
_atom_site_type_symbol
_atom_site_label
_atom_site_fract_x
_atom_site_fract_y
_atom_site_fract_z
Si Si1 0.957789 0.832524 0.072850
Si Si2 0.051130 0.725872 0.796357
Si Si3 0.200661 0.409883 0.007074
Si Si4 0.536571 0.977057 0.460091
Si Si5 0.167008 0.669834 0.954137
Si Si6 0.864645 0.657138 0.015439
Si Si7 0.439676 0.414496 0.938598
Si Si8 0.319076 0.310343 0.928476
O O1 0.003072 0.858385 0.306069
O O2 0.895632 0.774228 0.119662
O O3 0.986232 0.727435 0.908577
O O4 0.945688 0.950010 0.920486
O O5 0.052235 0.653776 0.526938
O O6 0.097416 0.677361 0.007094
O O7 0.062245 0.861303 0.733505
O O8 0.187810 0.543094 0.006310
O O9 0.184929 0.359536 0.726667
O O10 0.269808 0.395546 0.033399
O O11 0.166390 0.338335 0.230965
O O12 0.514217 0.984803 0.162761
O O13 0.593628 0.048726 0.515282
O O14 0.172011 0.715597 0.655909
O O15 0.201545 0.745362 0.165486
O O16 0.376369 0.379426 0.831868
#
# Coordination Sequence:
#
# PCOD8171579 Si02
#       8
#     4   4   4   4   4   4   4   4
#     4  12  24  43  70 104 148 181 239 305 367 435
#     4  11  23  39  68  97 139 182 231 280 364 438
#     4  12  27  49  71 106 145 190 246 302 362 427
#     4  12  24  39  66 104 141 184 227 286 366 444
#     4  11  24  45  74 103 136 189 234 304 350 440
#     4  12  27  43  71 109 148 183 234 307 373 424
#     4  11  25  43  68 102 137 196 237 300 355 438
#     4  11  26  47  74  99 138 193 252 284 361 428
#
# _framework density 23.176061000000001
#
# number of rings (size 3 to 8) (size 9 to 14) (size 15 to 20)
#    0.000    0.500    5.000    3.000    3.500    2.000 
#    0.000    1.250    0.000    0.000    0.000    0.000 
#    0.000    0.000    0.000    0.000    0.000    0.000 
#
# Total GULP energy -396432.375031 kJ/mol
# GULP energy per Si atom -12388.511720 kJ/mol
# Density = 2.312331 g / cm^3
# Si number density = 23.176061 Si / 1000 Ang^3
#
#
#
# Elastic Constant Matrix: (Units=GPa)
#
#
# Indices 1 2 3 4 5 6 
#
# 1 117.8563 54.9166 23.6858 0.0000 0.0000 0.0000
# 2 54.9166 116.0911 21.3462 0.0000 0.0000 0.0000
# 3 23.6858 21.3462 75.2112 0.0000 0.0000 0.0000
# 4 0.0000 0.0000 0.0000 33.2464 0.0000 0.0000
# 5 0.0000 0.0000 0.0000 0.0000 36.2470 0.0000
# 6 0.0000 0.0000 0.0000 0.0000 0.0000 29.8369
#
#
#
# Elastic Compliance Matrix: (Units=1/GPa)
#
#
# Indices 1 2 3 4 5 6 
#
# 1 0.011200 -0.004905 -0.002135 0.000000 0.000000 0.000000
# 2 -0.004905 0.011237 -0.001644 0.000000 0.000000 0.000000
# 3 -0.002135 -0.001644 0.014435 0.000000 0.000000 0.000000
# 4 0.000000 0.000000 0.000000 0.030078 0.000000 0.000000
# 5 0.000000 0.000000 0.000000 0.000000 0.027588 0.000000
# 6 0.000000 0.000000 0.000000 0.000000 0.000000 0.033516
#
#
# Mechanical properties :
#
#
# Convention : Reuss Voigt Hill
#
# Bulk Modulus (GPa) = 51.27633 56.56176 53.91905
# Shear Modulus (GPa) = 32.91124 33.81340 33.36232
#
# Velocity S-wave (km/s) = 3.77245 3.82380 3.79821
# Velocity P-wave (km/s) = 6.41466 6.62975 6.52309
#
# Compressibility (1/GPa) = 0.01950217
#
# Stress axis : x y z
#
# Youngs Moduli (GPa) = 89.28812 88.99333 69.27661
#
# Poissons Ratio (x) = 0.43655 0.14789
# Poissons Ratio (y) = 0.43800 0.11391
# Poissons Ratio (z) = 0.19061 0.14634
#
# Static dielectric constant tensor:
#      x y z
#    x 4.249090 0.000000 0.000000 
#    y 0.000000 4.209220 0.000000 
#    z 0.000000 0.000000 4.119030 
# 
# 
# High freq. dielectric constant tensor:
#      x y z
#    x 1.917820 0.000000 0.000000 
#    y 0.000000 1.922530 0.000000 
#    z 0.000000 0.000000 1.912770 
# 
# From -- ./inp_files/2291.got.cif
#   From: 2010.03.12/outbox.cif.g09.slc.cpg/sg33_2_cif.got.tgz:2291.got - 2010.04.14 01:49:19.
