data_PCOD8171085
_publ_section_title
;
Structure prediction by ZEFSAII (Michael W. Deem and Ramdas Pophale) SiO2 
 PCOD8171085
Probable space group: P N A 21
;
_chemical_formula_sum "Si O2"
_cell_formula_units_Z 24
_cell_length_a 25.312805
_cell_length_b 5.243539
_cell_length_c 6.956865
_cell_angle_alpha 90.000000
_cell_angle_beta 90.000000
_cell_angle_gamma 90.000000
_cell_volume 923.375510
_symmetry_space_group_name_H-M "P N A 21"
_symmetry_group_IT_number 33
_symmetry_cell_setting 'orthorhombic'
loop_
_space_group_symop_operation_xyz
x,y,z
-x,-y,1/2+z
1/2-x,1/2+y,1/2+z
1/2+x,1/2-y,z
loop_
_atom_site_type_symbol
_atom_site_label
_atom_site_fract_x
_atom_site_fract_y
_atom_site_fract_z
Si Si1 0.811192 0.024356 0.296820
Si Si2 0.966657 0.846506 0.813881
Si Si3 0.148255 0.005498 0.370443
Si Si4 0.472872 0.851665 0.396242
Si Si5 0.811274 0.499596 0.851970
Si Si6 0.861011 0.529275 0.274449
O O1 0.751270 0.985918 0.360915
O O2 0.836839 0.282790 0.383186
O O3 0.842188 0.783653 0.384640
O O4 0.817975 0.036059 0.065946
O O5 0.988678 0.597809 0.928315
O O6 0.953570 0.742344 0.603140
O O7 0.913553 0.951945 0.915447
O O8 0.003933 0.097259 0.792904
O O9 0.161366 0.746367 0.251477
O O10 0.171876 0.239094 0.244101
O O11 0.424540 0.968804 0.273795
O O12 0.838813 0.540034 0.059185
#
# Coordination Sequence:
#
# PCOD8171085 Si02
#       6
#     4   4   4   4   4   4
#     4  10  21  41  72 100 138 192 245 305 375 449
#     4  12  28  48  78 110 153 203 261 320 392 466
#     4  10  23  43  68 104 142 189 245 311 375 451
#     4  12  28  48  78 110 153 203 261 320 392 466
#     4  10  21  41  72 100 138 192 245 305 375 449
#     4  10  23  43  68 104 142 189 245 311 375 451
#
# _framework density 25.991591
#
# number of rings (size 3 to 8) (size 9 to 14) (size 15 to 20)
#    0.000    1.333    0.000    4.000   14.000    0.000 
#   18.000    0.000    0.000    0.000    0.000    0.000 
#    0.000    0.000    0.000    0.000    0.000    0.000 
#
# Total GULP energy -297378.606893 kJ/mol
# GULP energy per Si atom -12390.775287 kJ/mol
# Density = 2.593243 g / cm^3
# Si number density = 25.991591 Si / 1000 Ang^3
#
#
#
# Elastic Constant Matrix: (Units=GPa)
#
#
# Indices 1 2 3 4 5 6 
#
# 1 173.0506 71.1801 16.1460 0.0000 0.0000 0.0000
# 2 71.1801 277.5350 -9.0320 0.0000 0.0000 0.0000
# 3 16.1460 -9.0320 59.0415 0.0000 0.0000 0.0000
# 4 0.0000 0.0000 0.0000 5.0405 0.0000 0.0000
# 5 0.0000 0.0000 0.0000 0.0000 34.6318 0.0000
# 6 0.0000 0.0000 0.0000 0.0000 0.0000 61.4995
#
#
#
# Elastic Compliance Matrix: (Units=1/GPa)
#
#
# Indices 1 2 3 4 5 6 
#
# 1 0.006712 -0.001790 -0.002109 0.000000 0.000000 0.000000
# 2 -0.001790 0.004099 0.001117 0.000000 0.000000 0.000000
# 3 -0.002109 0.001117 0.017685 0.000000 0.000000 0.000000
# 4 0.000000 0.000000 0.000000 0.198392 0.000000 0.000000
# 5 0.000000 0.000000 0.000000 0.000000 0.028875 0.000000
# 6 0.000000 0.000000 0.000000 0.000000 0.000000 0.016260
#
#
# Mechanical properties :
#
#
# Convention : Reuss Voigt Hill
#
# Bulk Modulus (GPa) = 43.61177 74.02391 58.81784
# Shear Modulus (GPa) = 17.52964 48.98990 33.25977
#
# Velocity S-wave (km/s) = 2.59981 4.34618 3.58108
# Velocity P-wave (km/s) = 5.08209 7.32990 6.30694
#
# Compressibility (1/GPa) = 0.02292959
#
# Stress axis : x y z
#
# Youngs Moduli (GPa) = 148.99273 243.98728 56.54550
#
# Poissons Ratio (x) = 0.43674 0.11927
# Poissons Ratio (y) = 0.26670 -0.06313
# Poissons Ratio (z) = 0.31427 -0.27241
#
# Static dielectric constant tensor:
#      x y z
#    x 4.444780 0.000000 0.000000 
#    y 0.000000 8.143080 0.000000 
#    z 0.000000 0.000000 4.098650 
# 
# 
# High freq. dielectric constant tensor:
#      x y z
#    x 2.033470 0.000000 0.000000 
#    y 0.000000 2.087360 0.000000 
#    z 0.000000 0.000000 2.017360 
# 
# From -- ./inp_files/5126.got.cif
#   From: 2010.03.12/outbox.cif.g09.slc.cpg/sg33_3_cif.got.tgz:5126.got - 2010.04.14 01:49:19.
