data_PCOD8171704
_publ_section_title
;
Structure prediction by ZEFSAII (Michael W. Deem and Ramdas Pophale) SiO2 
 PCOD8171704
Probable space group: P N A 21
;
_chemical_formula_sum "Si O2"
_cell_formula_units_Z 28
_cell_length_a 8.348236
_cell_length_b 24.098174
_cell_length_c 5.303599
_cell_angle_alpha 90.000000
_cell_angle_beta 90.000000
_cell_angle_gamma 90.000000
_cell_volume 1066.963429
_symmetry_space_group_name_H-M "P N A 21"
_symmetry_group_IT_number 33
_symmetry_cell_setting 'orthorhombic'
loop_
_space_group_symop_operation_xyz
x,y,z
-x,-y,1/2+z
1/2-x,1/2+y,1/2+z
1/2+x,1/2-y,z
loop_
_atom_site_type_symbol
_atom_site_label
_atom_site_fract_x
_atom_site_fract_y
_atom_site_fract_z
Si Si1 0.109182 0.738592 0.254100
Si Si2 0.964764 0.659561 0.599851
Si Si3 0.470223 0.582491 0.746647
Si Si4 0.733148 0.501248 0.957801
Si Si5 0.799464 0.361861 0.493910
Si Si6 0.027600 0.439218 0.771453
Si Si7 0.146208 0.805947 0.753298
O O1 0.957587 0.701672 0.356113
O O2 0.239547 0.690671 0.176079
O O3 0.163697 0.771805 0.496934
O O4 0.072966 0.775632 0.001621
O O5 0.936750 0.595394 0.524167
O O6 0.828921 0.675379 0.806302
O O7 0.142272 0.664439 0.725937
O O8 0.357879 0.555642 0.531315
O O9 0.539879 0.641695 0.667010
O O10 0.608658 0.539380 0.810596
O O11 0.353210 0.597144 0.982243
O O12 0.800101 0.534885 0.199091
O O13 0.893339 0.487355 0.800414
O O14 0.956426 0.396634 0.569299
#
# Coordination Sequence:
#
# PCOD8171704 Si02
#       7
#     4   4   4   4   4   4   4
#     4  11  28  49  80 116 163 214 268 329 415 483
#     4  11  26  51  80 117 154 220 266 331 403 512
#     4  12  29  47  80 121 165 200 280 342 413 463
#     4  12  27  50  79 117 160 220 265 347 407 484
#     4  11  24  52  77 119 158 208 267 339 401 498
#     4  11  26  48  83 108 161 214 278 316 416 497
#     4  12  30  47  81 118 165 212 270 336 407 499
#
# _framework density 26.242702000000001
#
# number of rings (size 3 to 8) (size 9 to 14) (size 15 to 20)
#    0.000    0.571    2.857    2.571   14.000    1.143 
#    0.000    0.000    0.000    0.000    0.000    0.000 
#    0.000    0.000    0.000    0.000    0.000    0.000 
#
# Total GULP energy -346867.983468 kJ/mol
# GULP energy per Si atom -12388.142267 kJ/mol
# Density = 2.618297 g / cm^3
# Si number density = 26.242702 Si / 1000 Ang^3
#
#
#
# Elastic Constant Matrix: (Units=GPa)
#
#
# Indices 1 2 3 4 5 6 
#
# 1 93.6745 23.2333 10.1678 0.0000 0.0000 0.0000
# 2 23.2333 121.2038 26.6126 0.0000 0.0000 0.0000
# 3 10.1678 26.6126 96.7355 0.0000 0.0000 0.0000
# 4 0.0000 0.0000 0.0000 34.9525 0.0000 0.0000
# 5 0.0000 0.0000 0.0000 0.0000 27.9162 0.0000
# 6 0.0000 0.0000 0.0000 0.0000 0.0000 28.2848
#
#
#
# Elastic Compliance Matrix: (Units=1/GPa)
#
#
# Indices 1 2 3 4 5 6 
#
# 1 0.011244 -0.002018 -0.000627 0.000000 0.000000 0.000000
# 2 -0.002018 0.009143 -0.002303 0.000000 0.000000 0.000000
# 3 -0.000627 -0.002303 0.011037 0.000000 0.000000 0.000000
# 4 0.000000 0.000000 0.000000 0.028610 0.000000 0.000000
# 5 0.000000 0.000000 0.000000 0.000000 0.035822 0.000000
# 6 0.000000 0.000000 0.000000 0.000000 0.000000 0.035355
#
#
# Mechanical properties :
#
#
# Convention : Reuss Voigt Hill
#
# Bulk Modulus (GPa) = 46.45019 47.96014 47.20516
# Shear Modulus (GPa) = 33.71963 35.00406 34.36184
#
# Velocity S-wave (km/s) = 3.58846 3.65617 3.62247
# Velocity P-wave (km/s) = 5.90830 6.01155 5.96015
#
# Compressibility (1/GPa) = 0.02152844
#
# Stress axis : x y z
#
# Youngs Moduli (GPa) = 88.93858 109.37269 90.60449
#
# Poissons Ratio (x) = 0.22068 0.05679
# Poissons Ratio (y) = 0.17945 0.20868
# Poissons Ratio (z) = 0.05574 0.25191
#
# Static dielectric constant tensor:
#      x y z
#    x 4.603370 0.000000 0.000000 
#    y 0.000000 5.191080 0.000000 
#    z 0.000000 0.000000 4.546020 
# 
# 
# High freq. dielectric constant tensor:
#      x y z
#    x 2.040360 0.000000 0.000000 
#    y 0.000000 2.078580 0.000000 
#    z 0.000000 0.000000 2.040050 
# 
# From -- ./inp_files/475.got.cif
#   From: 2010.03.12/outbox.cif.g09.slc.cpg/sg33_1_cif.got.tgz:475.got - 2010.04.14 01:49:19.
