data_PCOD8171101
_publ_section_title
;
Structure prediction by ZEFSAII (Michael W. Deem and Ramdas Pophale) SiO2 
 PCOD8171101
Probable space group: P N A 21
;
_chemical_formula_sum "Si O2"
_cell_formula_units_Z 28
_cell_length_a 9.624502
_cell_length_b 11.492835
_cell_length_c 10.728938
_cell_angle_alpha 90.000000
_cell_angle_beta 90.000000
_cell_angle_gamma 90.000000
_cell_volume 1186.758017
_symmetry_space_group_name_H-M "P N A 21"
_symmetry_group_IT_number 33
_symmetry_cell_setting 'orthorhombic'
loop_
_space_group_symop_operation_xyz
x,y,z
-x,-y,1/2+z
1/2-x,1/2+y,1/2+z
1/2+x,1/2-y,z
loop_
_atom_site_type_symbol
_atom_site_label
_atom_site_fract_x
_atom_site_fract_y
_atom_site_fract_z
Si Si1 0.970714 0.676823 0.163390
Si Si2 0.639656 0.452995 0.002677
Si Si3 0.752777 0.271473 0.193407
Si Si4 0.172041 0.899158 0.470415
Si Si5 0.743881 0.801803 0.293332
Si Si6 0.396318 0.029318 0.321439
Si Si7 0.152608 0.373791 0.422295
O O1 0.897827 0.779698 0.240550
O O2 0.890531 0.560024 0.206969
O O3 0.135861 0.664946 0.184590
O O4 0.941041 0.700002 0.018888
O O5 0.659821 0.370669 0.124071
O O6 0.475746 0.464066 0.979302
O O7 0.729203 0.404346 0.888464
O O8 0.709729 0.581977 0.999519
O O9 0.875783 0.342554 0.261127
O O10 0.674130 0.208128 0.304471
O O11 0.798812 0.169080 0.099632
O O12 0.169386 0.805480 0.361217
O O13 0.287117 0.995778 0.432374
O O14 0.550139 0.020928 0.380588
#
# Coordination Sequence:
#
# PCOD8171101 Si02
#       7
#     4   4   4   4   4   4   4
#     4  11  23  44  69 103 139 183 231 296 352 434
#     4  11  22  45  72 101 137 185 236 294 356 428
#     4  11  26  47  70 105 147 188 244 304 353 442
#     4  10  24  43  75 101 137 188 236 294 363 420
#     4  10  21  42  71 100 136 177 232 290 357 420
#     4  11  25  46  71 103 139 181 241 294 356 433
#     4  12  27  43  72 101 141 192 234 290 375 421
#
# _framework density 23.593689999999999
#
# number of rings (size 3 to 8) (size 9 to 14) (size 15 to 20)
#    0.000    1.143    4.286    0.857    4.000    2.286 
#    0.000    0.000    0.000    0.000    0.000    0.000 
#    0.000    0.000    0.000    0.000    0.000    0.000 
#
# Total GULP energy -346911.853346 kJ/mol
# GULP energy per Si atom -12389.709048 kJ/mol
# Density = 2.353999 g / cm^3
# Si number density = 23.593690 Si / 1000 Ang^3
#
#
#
# Elastic Constant Matrix: (Units=GPa)
#
#
# Indices 1 2 3 4 5 6 
#
# 1 92.7541 11.5266 22.9183 0.0000 0.0000 0.0000
# 2 11.5266 53.8694 28.1251 0.0000 0.0000 0.0000
# 3 22.9183 28.1251 121.5851 0.0000 0.0000 0.0000
# 4 0.0000 0.0000 0.0000 40.7988 0.0000 0.0000
# 5 0.0000 0.0000 0.0000 0.0000 30.5580 0.0000
# 6 0.0000 0.0000 0.0000 0.0000 0.0000 14.5288
#
#
#
# Elastic Compliance Matrix: (Units=1/GPa)
#
#
# Indices 1 2 3 4 5 6 
#
# 1 0.011413 -0.001500 -0.001804 0.000000 0.000000 0.000000
# 2 -0.001500 0.021310 -0.004647 0.000000 0.000000 0.000000
# 3 -0.001804 -0.004647 0.009640 0.000000 0.000000 0.000000
# 4 0.000000 0.000000 0.000000 0.024511 0.000000 0.000000
# 5 0.000000 0.000000 0.000000 0.000000 0.032725 0.000000
# 6 0.000000 0.000000 0.000000 0.000000 0.000000 0.068829
#
#
# Mechanical properties :
#
#
# Convention : Reuss Voigt Hill
#
# Bulk Modulus (GPa) = 37.79135 43.70539 40.74837
# Shear Modulus (GPa) = 25.88654 30.88636 28.38645
#
# Velocity S-wave (km/s) = 3.31597 3.62207 3.47239
# Velocity P-wave (km/s) = 5.54195 6.00474 5.77798
#
# Compressibility (1/GPa) = 0.02646108
#
# Stress axis : x y z
#
# Youngs Moduli (GPa) = 87.61592 46.92534 103.73764
#
# Poissons Ratio (x) = 0.07039 0.18718
# Poissons Ratio (y) = 0.13143 0.48204
# Poissons Ratio (z) = 0.15809 0.21805
#
# Static dielectric constant tensor:
#      x y z
#    x 4.062330 0.000000 0.000000 
#    y 0.000000 3.979640 0.000000 
#    z 0.000000 0.000000 4.302140 
# 
# 
# High freq. dielectric constant tensor:
#      x y z
#    x 1.937260 0.000000 0.000000 
#    y 0.000000 1.917690 0.000000 
#    z 0.000000 0.000000 1.940780 
# 
# From -- ./inp_files/5829.got.cif
#   From: 2010.03.12/outbox.cif.g09.slc.cpg/sg33_3_cif.got.tgz:5829.got - 2010.04.14 01:49:19.
