data_PCOD8171663
_publ_section_title
;
Structure prediction by ZEFSAII (Michael W. Deem and Ramdas Pophale) SiO2 
 PCOD8171663
Probable space group: P N A 21
;
_chemical_formula_sum "Si O2"
_cell_formula_units_Z 32
_cell_length_a 13.162332
_cell_length_b 6.675202
_cell_length_c 17.100583
_cell_angle_alpha 90.000000
_cell_angle_beta 90.000000
_cell_angle_gamma 90.000000
_cell_volume 1502.478169
_symmetry_space_group_name_H-M "P N A 21"
_symmetry_group_IT_number 33
_symmetry_cell_setting 'orthorhombic'
loop_
_space_group_symop_operation_xyz
x,y,z
-x,-y,1/2+z
1/2-x,1/2+y,1/2+z
1/2+x,1/2-y,z
loop_
_atom_site_type_symbol
_atom_site_label
_atom_site_fract_x
_atom_site_fract_y
_atom_site_fract_z
Si Si1 0.339201 0.541612 0.153060
Si Si2 0.650174 0.219121 0.136719
Si Si3 0.959547 0.264920 0.240454
Si Si4 0.789807 0.249778 0.868586
Si Si5 0.224298 0.444892 0.712066
Si Si6 0.094834 0.250473 0.960121
Si Si7 0.451871 0.914325 0.895994
Si Si8 0.589964 0.471733 0.480050
O O1 0.228154 0.448582 0.166184
O O2 0.416176 0.455840 0.219409
O O3 0.330116 0.779384 0.158485
O O4 0.383173 0.481844 0.069219
O O5 0.541434 0.172298 0.174969
O O6 0.692087 0.437219 0.161611
O O7 0.643635 0.207386 0.043830
O O8 0.865470 0.415490 0.242243
O O9 0.011530 0.271070 0.325253
O O10 0.784220 0.160221 0.782258
O O11 0.861612 0.443269 0.866779
O O12 0.679437 0.317538 0.898055
O O13 0.826929 0.075643 0.925870
O O14 0.019697 0.063831 0.963372
O O15 0.042482 0.454082 0.930704
O O16 0.411337 0.765884 0.963369
#
# Coordination Sequence:
#
# PCOD8171663 Si02
#       8
#     4   4   4   4   4   4   4   4
#     4  11  25  41  68 100 133 177 229 272 337 408
#     4  11  24  44  66  95 141 175 222 284 328 398
#     4  11  24  46  65  98 134 175 223 282 330 403
#     4  11  24  47  67 100 135 172 231 282 333 405
#     4  11  26  43  70  96 133 183 223 274 343 400
#     4  11  24  44  66 102 138 174 225 288 329 400
#     4  11  26  42  73  97 135 179 223 279 344 400
#     4  11  25  43  69 100 133 181 224 277 344 402
#
# _framework density 21.298145000000002
#
# number of rings (size 3 to 8) (size 9 to 14) (size 15 to 20)
#    0.000    1.000    3.750    1.500    5.250    5.000 
#    0.000    0.000    0.000    0.000    0.000    0.000 
#    0.000    0.000    0.000    0.000    0.000    0.000 
#
# Total GULP energy -396985.292442 kJ/mol
# GULP energy per Si atom -12405.790389 kJ/mol
# Density = 2.124967 g / cm^3
# Si number density = 21.298145 Si / 1000 Ang^3
#
#
#
# Elastic Constant Matrix: (Units=GPa)
#
#
# Indices 1 2 3 4 5 6 
#
# 1 100.5328 32.4043 26.9749 0.0000 0.0000 0.0000
# 2 32.4043 94.8047 29.5573 0.0000 0.0000 0.0000
# 3 26.9749 29.5573 96.2496 0.0000 0.0000 0.0000
# 4 0.0000 0.0000 0.0000 32.3174 0.0000 0.0000
# 5 0.0000 0.0000 0.0000 0.0000 37.1456 0.0000
# 6 0.0000 0.0000 0.0000 0.0000 0.0000 17.8510
#
#
#
# Elastic Compliance Matrix: (Units=1/GPa)
#
#
# Indices 1 2 3 4 5 6 
#
# 1 0.011603 -0.003265 -0.002249 0.000000 0.000000 0.000000
# 2 -0.003265 0.012583 -0.002949 0.000000 0.000000 0.000000
# 3 -0.002249 -0.002949 0.011926 0.000000 0.000000 0.000000
# 4 0.000000 0.000000 0.000000 0.030943 0.000000 0.000000
# 5 0.000000 0.000000 0.000000 0.000000 0.026921 0.000000
# 6 0.000000 0.000000 0.000000 0.000000 0.000000 0.056019
#
#
# Mechanical properties :
#
#
# Convention : Reuss Voigt Hill
#
# Bulk Modulus (GPa) = 52.12250 52.16222 52.14236
# Shear Modulus (GPa) = 28.84892 30.97285 29.91089
#
# Velocity S-wave (km/s) = 3.68438 3.81760 3.75158
# Velocity P-wave (km/s) = 6.52882 6.63149 6.58036
#
# Compressibility (1/GPa) = 0.01918557
#
# Stress axis : x y z
#
# Youngs Moduli (GPa) = 86.18621 79.47021 83.85233
#
# Poissons Ratio (x) = 0.25944 0.18861
# Poissons Ratio (y) = 0.28136 0.24730
# Poissons Ratio (z) = 0.19386 0.23438
#
# Static dielectric constant tensor:
#      x y z
#    x 3.988490 0.000000 0.000000 
#    y 0.000000 3.772790 0.000000 
#    z 0.000000 0.000000 3.846430 
# 
# 
# High freq. dielectric constant tensor:
#      x y z
#    x 1.850030 0.000000 0.000000 
#    y 0.000000 1.832590 0.000000 
#    z 0.000000 0.000000 1.844080 
# 
# From -- ./inp_files/8761.got.cif
#   From: 2010.03.12/outbox.cif.g09.slc.cpg/sg33_5_cif.got.tgz:8761.got - 2010.04.14 01:49:19.
