data_PCOD8171187
_publ_section_title
;
Structure prediction by ZEFSAII (Michael W. Deem and Ramdas Pophale) SiO2 
 PCOD8171187
Probable space group: P N A 21
;
_chemical_formula_sum "Si O2"
_cell_formula_units_Z 32
_cell_length_a 14.663904
_cell_length_b 11.181322
_cell_length_c 8.840616
_cell_angle_alpha 90.000000
_cell_angle_beta 90.000000
_cell_angle_gamma 90.000000
_cell_volume 1449.523599
_symmetry_space_group_name_H-M "P N A 21"
_symmetry_group_IT_number 33
_symmetry_cell_setting 'orthorhombic'
loop_
_space_group_symop_operation_xyz
x,y,z
-x,-y,1/2+z
1/2-x,1/2+y,1/2+z
1/2+x,1/2-y,z
loop_
_atom_site_type_symbol
_atom_site_label
_atom_site_fract_x
_atom_site_fract_y
_atom_site_fract_z
Si Si1 0.865844 0.893305 0.365530
Si Si2 0.855146 0.313457 0.257773
Si Si3 0.842818 0.798007 0.703826
Si Si4 0.986466 0.752537 0.174410
Si Si5 0.926290 0.356261 0.942959
Si Si6 0.186999 0.482274 0.249519
Si Si7 0.060432 0.541639 0.001738
Si Si8 0.977243 0.117318 0.383181
O O1 0.843678 0.840393 0.529884
O O2 0.889123 0.782724 0.252939
O O3 0.787089 0.973297 0.291984
O O4 0.956596 0.976578 0.369380
O O5 0.749214 0.348786 0.282366
O O6 0.917260 0.417784 0.330560
O O7 0.886475 0.189166 0.332798
O O8 0.872426 0.296369 0.079292
O O9 0.826252 0.657178 0.721671
O O10 0.933060 0.843903 0.788870
O O11 0.061156 0.741557 0.310556
O O12 0.984678 0.629141 0.079052
O O13 0.010815 0.860218 0.061784
O O14 0.877604 0.477158 0.886817
O O15 0.024602 0.405132 0.000263
O O16 0.153968 0.549174 0.096993
#
# Coordination Sequence:
#
# PCOD8171187 Si02
#       8
#     4   4   4   4   4   4   4   4
#     4  12  24  44  66  99 142 181 228 287 354 414
#     4  11  22  41  68 100 134 177 233 288 349 420
#     4  12  25  44  69  99 137 188 230 292 357 417
#     4  10  23  40  67  96 128 179 222 282 342 411
#     4  11  21  44  69  98 134 178 232 285 349 413
#     4  11  23  42  68  98 134 178 233 287 342 420
#     4  10  22  40  67  98 130 175 228 285 345 413
#     4  11  24  45  68  96 139 184 234 284 348 420
#
# _framework density 22.076218000000001
#
# number of rings (size 3 to 8) (size 9 to 14) (size 15 to 20)
#    0.000    1.000    2.500    6.000    1.750    0.000 
#    0.000    1.250    2.750    0.000    0.000    0.000 
#    0.000    0.000    0.000    0.000    0.000    0.000 
#
# Total GULP energy -396552.315478 kJ/mol
# GULP energy per Si atom -12392.259859 kJ/mol
# Density = 2.202597 g / cm^3
# Si number density = 22.076218 Si / 1000 Ang^3
#
#
#
# Elastic Constant Matrix: (Units=GPa)
#
#
# Indices 1 2 3 4 5 6 
#
# 1 128.5059 41.5733 49.5514 0.0000 0.0000 0.0000
# 2 41.5733 71.7063 27.1468 0.0000 0.0000 0.0000
# 3 49.5514 27.1468 123.6522 0.0000 0.0000 0.0000
# 4 0.0000 0.0000 0.0000 25.5844 0.0000 0.0000
# 5 0.0000 0.0000 0.0000 0.0000 29.1155 0.0000
# 6 0.0000 0.0000 0.0000 0.0000 0.0000 33.2564
#
#
#
# Elastic Compliance Matrix: (Units=1/GPa)
#
#
# Indices 1 2 3 4 5 6 
#
# 1 0.010602 -0.004950 -0.003162 0.000000 0.000000 0.000000
# 2 -0.004950 0.017521 -0.001863 0.000000 0.000000 0.000000
# 3 -0.003162 -0.001863 0.009763 0.000000 0.000000 0.000000
# 4 0.000000 0.000000 0.000000 0.039086 0.000000 0.000000
# 5 0.000000 0.000000 0.000000 0.000000 0.034346 0.000000
# 6 0.000000 0.000000 0.000000 0.000000 0.000000 0.030069
#
#
# Mechanical properties :
#
#
# Convention : Reuss Voigt Hill
#
# Bulk Modulus (GPa) = 55.75124 62.26750 59.00937
# Shear Modulus (GPa) = 29.88343 31.29746 30.59045
#
# Velocity S-wave (km/s) = 3.68319 3.76932 3.72650
# Velocity P-wave (km/s) = 6.58761 6.87100 6.73080
#
# Compressibility (1/GPa) = 0.01793682
#
# Stress axis : x y z
#
# Youngs Moduli (GPa) = 94.31886 57.07481 102.42422
#
# Poissons Ratio (x) = 0.28251 0.32386
# Poissons Ratio (y) = 0.46686 0.19082
# Poissons Ratio (z) = 0.29824 0.10633
#
# Static dielectric constant tensor:
#      x y z
#    x 4.126330 0.000000 0.000000 
#    y 0.000000 3.816850 0.000000 
#    z 0.000000 0.000000 4.153690 
# 
# 
# High freq. dielectric constant tensor:
#      x y z
#    x 1.859730 0.000000 0.000000 
#    y 0.000000 1.860960 0.000000 
#    z 0.000000 0.000000 1.884760 
# 
# From -- ./inp_files/4385.got.cif
#   From: 2010.03.12/outbox.cif.g09.slc.cpg/sg33_3_cif.got.tgz:4385.got - 2010.04.14 01:49:19.
