data_PCOD8171102
_publ_section_title
;
Structure prediction by ZEFSAII (Michael W. Deem and Ramdas Pophale) SiO2 
 PCOD8171102
Probable space group: P N A 21
;
_chemical_formula_sum "Si O2"
_cell_formula_units_Z 28
_cell_length_a 13.842872
_cell_length_b 5.599373
_cell_length_c 16.709592
_cell_angle_alpha 90.000000
_cell_angle_beta 90.000000
_cell_angle_gamma 90.000000
_cell_volume 1295.183931
_symmetry_space_group_name_H-M "P N A 21"
_symmetry_group_IT_number 33
_symmetry_cell_setting 'orthorhombic'
loop_
_space_group_symop_operation_xyz
x,y,z
-x,-y,1/2+z
1/2-x,1/2+y,1/2+z
1/2+x,1/2-y,z
loop_
_atom_site_type_symbol
_atom_site_label
_atom_site_fract_x
_atom_site_fract_y
_atom_site_fract_z
Si Si1 0.304565 0.865150 0.307750
Si Si2 0.876624 0.662643 0.026704
Si Si3 0.998903 0.859230 0.294250
Si Si4 0.610904 0.747450 0.715594
Si Si5 0.348336 0.341653 0.933756
Si Si6 0.743936 0.382484 0.653303
Si Si7 0.039230 0.599979 0.139112
O O1 0.419491 0.834400 0.319638
O O2 0.258003 0.849910 0.395018
O O3 0.253453 0.676227 0.248074
O O4 0.301406 0.116102 0.260785
O O5 0.800204 0.661224 0.101304
O O6 0.987575 0.684630 0.057203
O O7 0.862067 0.412913 0.978700
O O8 0.856604 0.912356 0.982075
O O9 0.079802 0.864720 0.360159
O O10 0.043007 0.805376 0.206427
O O11 0.943486 0.108289 0.286757
O O12 0.664212 0.592812 0.646441
O O13 0.526725 0.885058 0.669414
O O14 0.848923 0.467254 0.621400
#
# Coordination Sequence:
#
# PCOD8171102 Si02
#       7
#     4   4   4   4   4   4   4
#     4  10  23  42  73 101 137 188 251 293 356 443
#     4  12  28  48  66 114 155 178 244 310 371 438
#     4  10  23  42  73 103 136 189 252 293 352 446
#     4  10  21  42  74 107 134 179 272 307 327 450
#     4  12  29  46  72 106 155 187 228 317 378 421
#     4  11  23  44  74 103 141 198 248 302 365 442
#     4  11  23  44  74 102 140 199 247 300 365 440
#
# _framework density 21.618551
#
# number of rings (size 3 to 8) (size 9 to 14) (size 15 to 20)
#    0.000    1.143    5.714    0.857   10.000    2.286 
#    0.000    0.000    0.000    0.000    0.000    0.000 
#    0.000    0.000    0.000    0.000    0.000    0.000 
#
# Total GULP energy -346878.944955 kJ/mol
# GULP energy per Si atom -12388.533748 kJ/mol
# Density = 2.156935 g / cm^3
# Si number density = 21.618551 Si / 1000 Ang^3
#
#
#
# Elastic Constant Matrix: (Units=GPa)
#
#
# Indices 1 2 3 4 5 6 
#
# 1 106.1017 18.3143 10.1334 0.0000 0.0000 0.0000
# 2 18.3143 110.8060 27.3726 0.0000 0.0000 0.0000
# 3 10.1334 27.3726 67.9281 0.0000 0.0000 0.0000
# 4 0.0000 0.0000 0.0000 29.0207 0.0000 0.0000
# 5 0.0000 0.0000 0.0000 0.0000 47.0906 0.0000
# 6 0.0000 0.0000 0.0000 0.0000 0.0000 19.2142
#
#
#
# Elastic Compliance Matrix: (Units=1/GPa)
#
#
# Indices 1 2 3 4 5 6 
#
# 1 0.009750 -0.001391 -0.000894 0.000000 0.000000 0.000000
# 2 -0.001391 0.010221 -0.003911 0.000000 0.000000 0.000000
# 3 -0.000894 -0.003911 0.016431 0.000000 0.000000 0.000000
# 4 0.000000 0.000000 0.000000 0.034458 0.000000 0.000000
# 5 0.000000 0.000000 0.000000 0.000000 0.021236 0.000000
# 6 0.000000 0.000000 0.000000 0.000000 0.000000 0.052045
#
#
# Mechanical properties :
#
#
# Convention : Reuss Voigt Hill
#
# Bulk Modulus (GPa) = 41.64916 44.05294 42.85105
# Shear Modulus (GPa) = 30.38848 34.33280 32.36064
#
# Velocity S-wave (km/s) = 3.75329 3.98944 3.87317
# Velocity P-wave (km/s) = 6.17173 6.45310 6.31398
#
# Compressibility (1/GPa) = 0.02401009
#
# Stress axis : x y z
#
# Youngs Moduli (GPa) = 102.56023 97.83956 60.86096
#
# Poissons Ratio (x) = 0.13606 0.05442
# Poissons Ratio (y) = 0.14263 0.23804
# Poissons Ratio (z) = 0.09170 0.38267
#
# Static dielectric constant tensor:
#      x y z
#    x 3.897560 0.000000 0.000000 
#    y 0.000000 4.117170 0.000000 
#    z 0.000000 0.000000 3.914740 
# 
# 
# High freq. dielectric constant tensor:
#      x y z
#    x 1.852120 0.000000 0.000000 
#    y 0.000000 1.852500 0.000000 
#    z 0.000000 0.000000 1.840060 
# 
# From -- ./inp_files/8757.got.cif
#   From: 2010.03.12/outbox.cif.g09.slc.cpg/sg33_5_cif.got.tgz:8757.got - 2010.04.14 01:49:19.
