data_PCOD8171471
_publ_section_title
;
Structure prediction by ZEFSAII (Michael W. Deem and Ramdas Pophale) SiO2 
 PCOD8171471
Probable space group: P N A 21
;
_chemical_formula_sum "Si O2"
_cell_formula_units_Z 20
_cell_length_a 17.864524
_cell_length_b 5.205348
_cell_length_c 8.251695
_cell_angle_alpha 90.000000
_cell_angle_beta 90.000000
_cell_angle_gamma 90.000000
_cell_volume 767.333900
_symmetry_space_group_name_H-M "P N A 21"
_symmetry_group_IT_number 33
_symmetry_cell_setting 'orthorhombic'
loop_
_space_group_symop_operation_xyz
x,y,z
-x,-y,1/2+z
1/2-x,1/2+y,1/2+z
1/2+x,1/2-y,z
loop_
_atom_site_type_symbol
_atom_site_label
_atom_site_fract_x
_atom_site_fract_y
_atom_site_fract_z
Si Si1 0.835889 0.009725 0.132850
Si Si2 0.250028 0.645005 0.408839
Si Si3 0.875170 0.195058 0.451675
Si Si4 0.398677 0.004678 0.753725
Si Si5 0.463928 0.521770 0.897043
O O1 0.796347 0.787432 0.242353
O O2 0.855372 0.244844 0.260707
O O3 0.912603 0.914989 0.053612
O O4 0.776293 0.097772 0.997183
O O5 0.306414 0.479641 0.524075
O O6 0.177243 0.475163 0.358667
O O7 0.881696 0.450024 0.561815
O O8 0.951456 0.029613 0.457893
O O9 0.445542 0.247238 0.820183
O O10 0.447854 0.748180 0.766905
#
# Coordination Sequence:
#
# PCOD8171471 Si02
#       5
#     4   4   4   4   4
#     4   9  22  46  76 103 155 191 258 304 385 445
#     4   9  23  45  71 110 144 200 248 311 375 446
#     4  10  24  46  77 110 152 202 252 320 377 455
#     4  11  26  45  75 109 152 195 255 309 380 454
#     4  11  25  50  73 112 151 200 251 314 383 452
#
# _framework density 26.064274000000001
#
# number of rings (size 3 to 8) (size 9 to 14) (size 15 to 20)
#    1.200    0.800    0.000    1.200    5.600    4.800 
#    3.600    4.000    0.000    0.000    0.000    0.000 
#    0.000    0.000    0.000    0.000    0.000    0.000 
#
# Total GULP energy -247769.722745 kJ/mol
# GULP energy per Si atom -12388.486137 kJ/mol
# Density = 2.600495 g / cm^3
# Si number density = 26.064274 Si / 1000 Ang^3
#
#
#
# Elastic Constant Matrix: (Units=GPa)
#
#
# Indices 1 2 3 4 5 6 
#
# 1 154.4034 38.8710 33.1564 0.0000 0.0000 0.0000
# 2 38.8710 79.1693 18.1734 0.0000 0.0000 0.0000
# 3 33.1564 18.1734 123.7197 0.0000 0.0000 0.0000
# 4 0.0000 0.0000 0.0000 21.9320 0.0000 0.0000
# 5 0.0000 0.0000 0.0000 0.0000 37.9412 0.0000
# 6 0.0000 0.0000 0.0000 0.0000 0.0000 27.2843
#
#
#
# Elastic Compliance Matrix: (Units=1/GPa)
#
#
# Indices 1 2 3 4 5 6 
#
# 1 0.007668 -0.003408 -0.001554 0.000000 0.000000 0.000000
# 2 -0.003408 0.014587 -0.001229 0.000000 0.000000 0.000000
# 3 -0.001554 -0.001229 0.008680 0.000000 0.000000 0.000000
# 4 0.000000 0.000000 0.000000 0.045596 0.000000 0.000000
# 5 0.000000 0.000000 0.000000 0.000000 0.026357 0.000000
# 6 0.000000 0.000000 0.000000 0.000000 0.000000 0.036651
#
#
# Mechanical properties :
#
#
# Convention : Reuss Voigt Hill
#
# Bulk Modulus (GPa) = 53.90511 59.74379 56.82445
# Shear Modulus (GPa) = 31.62439 35.23761 33.43100
#
# Velocity S-wave (km/s) = 3.48706 3.68088 3.58528
# Velocity P-wave (km/s) = 6.07777 6.40598 6.24403
#
# Compressibility (1/GPa) = 0.01855112
#
# Stress axis : x y z
#
# Youngs Moduli (GPa) = 130.40597 68.55543 115.20810
#
# Poissons Ratio (x) = 0.23365 0.17909
# Poissons Ratio (y) = 0.44445 0.14162
# Poissons Ratio (z) = 0.20271 0.08427
#
# Static dielectric constant tensor:
#      x y z
#    x 4.987820 0.000000 0.000000 
#    y 0.000000 3.872980 0.000000 
#    z 0.000000 0.000000 4.846300 
# 
# 
# High freq. dielectric constant tensor:
#      x y z
#    x 2.066730 0.000000 0.000000 
#    y 0.000000 1.989090 0.000000 
#    z 0.000000 0.000000 2.049100 
# 
# From -- ./inp_files/4612.got.cif
#   From: 2010.03.12/outbox.cif.g09.slc.cpg/sg33_3_cif.got.tgz:4612.got - 2010.04.14 01:49:19.
