data_PCOD8171007
_publ_section_title
;
Structure prediction by ZEFSAII (Michael W. Deem and Ramdas Pophale) SiO2 
 PCOD8171007
Probable space group: P N A 21
;
_chemical_formula_sum "Si O2"
_cell_formula_units_Z 28
_cell_length_a 9.303585
_cell_length_b 17.933194
_cell_length_c 8.433151
_cell_angle_alpha 90.000000
_cell_angle_beta 90.000000
_cell_angle_gamma 90.000000
_cell_volume 1407.012168
_symmetry_space_group_name_H-M "P N A 21"
_symmetry_group_IT_number 33
_symmetry_cell_setting 'orthorhombic'
loop_
_space_group_symop_operation_xyz
x,y,z
-x,-y,1/2+z
1/2-x,1/2+y,1/2+z
1/2+x,1/2-y,z
loop_
_atom_site_type_symbol
_atom_site_label
_atom_site_fract_x
_atom_site_fract_y
_atom_site_fract_z
Si Si1 0.903932 0.267542 0.756370
Si Si2 0.556197 0.292030 0.448864
Si Si3 0.939409 0.521537 0.504202
Si Si4 0.276778 0.312755 0.285791
Si Si5 0.742761 0.404005 0.610638
Si Si6 0.171940 0.324722 0.929040
Si Si7 0.809935 0.527613 0.818181
O O1 0.812048 0.341197 0.722470
O O2 0.798428 0.201003 0.811054
O O3 0.980532 0.247578 0.594295
O O4 0.023463 0.281383 0.892202
O O5 0.446896 0.296636 0.300891
O O6 0.694092 0.245254 0.396564
O O7 0.609769 0.373275 0.508737
O O8 0.855997 0.441893 0.487077
O O9 0.859048 0.586982 0.404241
O O10 0.936265 0.545824 0.689059
O O11 0.107258 0.511353 0.463365
O O12 0.262304 0.394829 0.364269
O O13 0.224231 0.306269 0.106464
O O14 0.696070 0.469963 0.735676
#
# Coordination Sequence:
#
# PCOD8171007 Si02
#       7
#     4   4   4   4   4   4   4
#     4  12  21  39  67  90 122 164 213 257 312 378
#     4  12  23  42  65  92 125 167 216 253 311 387
#     4   9  19  37  62  86 125 157 206 249 312 381
#     4  11  24  40  64  95 129 163 208 269 316 365
#     4  10  21  39  62  89 122 163 211 253 305 385
#     4  11  22  40  61  95 124 160 206 268 315 369
#     4   9  20  37  61  87 125 160 202 253 313 371
#
# _framework density 19.900327000000001
#
# number of rings (size 3 to 8) (size 9 to 14) (size 15 to 20)
#    0.857    0.571    4.286    1.714    0.000    1.143 
#    2.571    0.000    0.000    0.000    0.000    0.000 
#    0.000    0.000    0.000    0.000    0.000    0.000 
#
# Total GULP energy -346918.238801 kJ/mol
# GULP energy per Si atom -12389.937100 kJ/mol
# Density = 1.985503 g / cm^3
# Si number density = 19.900327 Si / 1000 Ang^3
#
#
#
# Elastic Constant Matrix: (Units=GPa)
#
#
# Indices 1 2 3 4 5 6 
#
# 1 86.1842 24.8796 23.2492 0.0000 0.0000 0.0000
# 2 24.8796 88.4343 10.3189 0.0000 0.0000 0.0000
# 3 23.2492 10.3189 51.9724 0.0000 0.0000 0.0000
# 4 0.0000 0.0000 0.0000 32.9087 0.0000 0.0000
# 5 0.0000 0.0000 0.0000 0.0000 29.2045 0.0000
# 6 0.0000 0.0000 0.0000 0.0000 0.0000 35.2362
#
#
#
# Elastic Compliance Matrix: (Units=1/GPa)
#
#
# Indices 1 2 3 4 5 6 
#
# 1 0.014078 -0.003302 -0.005642 0.000000 0.000000 0.000000
# 2 -0.003302 0.012351 -0.000975 0.000000 0.000000 0.000000
# 3 -0.005642 -0.000975 0.021958 0.000000 0.000000 0.000000
# 4 0.000000 0.000000 0.000000 0.030387 0.000000 0.000000
# 5 0.000000 0.000000 0.000000 0.000000 0.034241 0.000000
# 6 0.000000 0.000000 0.000000 0.000000 0.000000 0.028380
#
#
# Mechanical properties :
#
#
# Convention : Reuss Voigt Hill
#
# Bulk Modulus (GPa) = 35.02782 38.16514 36.59648
# Shear Modulus (GPa) = 29.28243 30.67945 29.98094
#
# Velocity S-wave (km/s) = 3.84012 3.93065 3.88565
# Velocity P-wave (km/s) = 6.10752 6.31029 6.20974
#
# Compressibility (1/GPa) = 0.02854874
#
# Stress axis : x y z
#
# Youngs Moduli (GPa) = 71.03066 80.96738 45.54050
#
# Poissons Ratio (x) = 0.26739 0.25695
# Poissons Ratio (y) = 0.23457 0.04440
# Poissons Ratio (z) = 0.40077 0.07893
#
# Static dielectric constant tensor:
#      x y z
#    x 3.560990 0.000000 0.000000 
#    y 0.000000 3.760700 0.000000 
#    z 0.000000 0.000000 3.513560 
# 
# 
# High freq. dielectric constant tensor:
#      x y z
#    x 1.756480 0.000000 0.000000 
#    y 0.000000 1.783680 0.000000 
#    z 0.000000 0.000000 1.767800 
# 
# From -- ./inp_files/3376.got.cif
#   From: 2010.03.12/outbox.cif.g09.slc.cpg/sg33_2_cif.got.tgz:3376.got - 2010.04.14 01:49:19.
