data_PCOD8171718
_publ_section_title
;
Structure prediction by ZEFSAII (Michael W. Deem and Ramdas Pophale) SiO2 
 PCOD8171718
Probable space group: P N A 21
;
_chemical_formula_sum "Si O2"
_cell_formula_units_Z 32
_cell_length_a 11.083755
_cell_length_b 15.800484
_cell_length_c 8.479216
_cell_angle_alpha 90.000000
_cell_angle_beta 90.000000
_cell_angle_gamma 90.000000
_cell_volume 1484.954020
_symmetry_space_group_name_H-M "P N A 21"
_symmetry_group_IT_number 33
_symmetry_cell_setting 'orthorhombic'
loop_
_space_group_symop_operation_xyz
x,y,z
-x,-y,1/2+z
1/2-x,1/2+y,1/2+z
1/2+x,1/2-y,z
loop_
_atom_site_type_symbol
_atom_site_label
_atom_site_fract_x
_atom_site_fract_y
_atom_site_fract_z
Si Si1 0.700758 0.201769 0.620900
Si Si2 0.844834 0.863787 0.926421
Si Si3 0.621511 0.407579 0.068629
Si Si4 0.657264 0.998804 0.020368
Si Si5 0.859365 0.129959 0.107058
Si Si6 0.603765 0.592558 0.974515
Si Si7 0.999218 0.591593 0.266459
Si Si8 0.692517 0.790047 0.416557
O O1 0.662832 0.267443 0.484944
O O2 0.827754 0.163551 0.570194
O O3 0.594802 0.132677 0.642229
O O4 0.729622 0.241792 0.787662
O O5 0.863115 0.868239 0.740662
O O6 0.724020 0.913547 0.967725
O O7 0.961309 0.904318 0.011842
O O8 0.483110 0.392832 0.014885
O O9 0.653223 0.505578 0.046603
O O10 0.718240 0.364780 0.958581
O O11 0.564320 0.030555 0.890650
O O12 0.587760 0.973343 0.178394
O O13 0.750945 0.074304 0.042118
O O14 0.871124 0.109127 0.290812
O O15 0.833801 0.228551 0.065945
O O16 0.069256 0.668618 0.352087
#
# Coordination Sequence:
#
# PCOD8171718 Si02
#       8
#     4   4   4   4   4   4   4   4
#     4  12  25  47  71 102 143 187 238 290 357 420
#     4  11  25  46  71 104 141 180 235 294 349 424
#     4  11  25  45  74 103 136 185 232 290 356 417
#     4  12  26  48  68 108 140 186 234 294 358 426
#     4  11  25  46  71 104 141 180 235 294 349 424
#     4  11  25  45  74 103 136 185 232 290 356 417
#     4  12  28  46  72 104 146 196 230 302 360 436
#     4  12  25  47  71 102 143 187 238 290 357 420
#
# _framework density 21.549489999999999
#
# number of rings (size 3 to 8) (size 9 to 14) (size 15 to 20)
#    0.000    0.500    3.750    3.750    5.250    0.000 
#    0.000    0.000    0.000    0.000    0.000    0.000 
#    0.000    0.000    0.000    0.000    0.000    0.000 
#
# Total GULP energy -396842.771424 kJ/mol
# GULP energy per Si atom -12401.336607 kJ/mol
# Density = 2.150044 g / cm^3
# Si number density = 21.549490 Si / 1000 Ang^3
#
#
#
# Elastic Constant Matrix: (Units=GPa)
#
#
# Indices 1 2 3 4 5 6 
#
# 1 108.1036 23.8523 27.6704 0.0000 0.0000 0.0000
# 2 23.8523 100.4607 31.9485 0.0000 0.0000 0.0000
# 3 27.6704 31.9485 72.0281 0.0000 0.0000 0.0000
# 4 0.0000 0.0000 0.0000 43.0870 0.0000 0.0000
# 5 0.0000 0.0000 0.0000 0.0000 38.3945 0.0000
# 6 0.0000 0.0000 0.0000 0.0000 0.0000 48.0384
#
#
#
# Elastic Compliance Matrix: (Units=1/GPa)
#
#
# Indices 1 2 3 4 5 6 
#
# 1 0.010425 -0.001399 -0.003385 0.000000 0.000000 0.000000
# 2 -0.001399 0.011777 -0.004686 0.000000 0.000000 0.000000
# 3 -0.003385 -0.004686 0.017262 0.000000 0.000000 0.000000
# 4 0.000000 0.000000 0.000000 0.023209 0.000000 0.000000
# 5 0.000000 0.000000 0.000000 0.000000 0.026045 0.000000
# 6 0.000000 0.000000 0.000000 0.000000 0.000000 0.020817
#
#
# Mechanical properties :
#
#
# Convention : Reuss Voigt Hill
#
# Bulk Modulus (GPa) = 48.72117 49.72611 49.22364
# Shear Modulus (GPa) = 36.95056 39.04541 37.99799
#
# Velocity S-wave (km/s) = 4.14537 4.26125 4.20371
# Velocity P-wave (km/s) = 6.75057 6.88015 6.81566
#
# Compressibility (1/GPa) = 0.02052496
#
# Stress axis : x y z
#
# Youngs Moduli (GPa) = 95.91998 84.91434 57.92992
#
# Poissons Ratio (x) = 0.11879 0.19606
# Poissons Ratio (y) = 0.13419 0.27147
# Poissons Ratio (z) = 0.32464 0.39792
#
# Static dielectric constant tensor:
#      x y z
#    x 4.286990 0.000000 0.000000 
#    y 0.000000 3.986170 0.000000 
#    z 0.000000 0.000000 4.087730 
# 
# 
# High freq. dielectric constant tensor:
#      x y z
#    x 1.868120 0.000000 0.000000 
#    y 0.000000 1.856300 0.000000 
#    z 0.000000 0.000000 1.845140 
# 
# From -- ./inp_files/3995.got.cif
#   From: 2010.03.12/outbox.cif.g09.slc.cpg/sg33_2_cif.got.tgz:3995.got - 2010.04.14 01:49:19.
