data_PCOD8172735
_publ_section_title
;
Structure prediction by ZEFSAII (Michael W. Deem and Ramdas Pophale) SiO2 
 PCOD8172735
Probable space group: C M M 2
;
_chemical_formula_sum "Si O2"
_cell_formula_units_Z 44
_cell_length_a 13.112083
_cell_length_b 13.460080
_cell_length_c 13.707541
_cell_angle_alpha 90.000000
_cell_angle_beta 90.000000
_cell_angle_gamma 90.000000
_cell_volume 2419.239609
_symmetry_space_group_name_H-M "C M M 2"
_symmetry_group_IT_number 35
_symmetry_cell_setting 'orthorhombic'
loop_
_space_group_symop_operation_xyz
x,y,z
-x,-y,z
-x,y,z
x,-y,z
1/2+x,1/2+y,z
1/2-x,1/2-y,z
1/2-x,1/2+y,z
1/2+x,1/2-y,z
loop_
_atom_site_type_symbol
_atom_site_label
_atom_site_fract_x
_atom_site_fract_y
_atom_site_fract_z
Si Si1 0.879540 0.890650 0.348060
Si Si2 0.882732 0.882650 0.563141
Si Si3 0.304860 0.887522 0.058943
Si Si4 0.250000 0.250000 0.703793
Si Si5 0.615615 0.700167 0.149476
Si Si6 0.119052 0.614150 0.843226
O O1 0.842428 0.853432 0.454353
O O2 0.847487 0.816651 0.261082
O O3 0.000000 0.900020 0.355075
O O4 0.833751 0.000000 0.324626
O O5 0.813685 0.826114 0.639679
O O6 0.000000 0.850129 0.577970
O O7 0.870902 0.000000 0.579580
O O8 0.373193 0.817039 0.127746
O O9 0.185408 0.863518 0.075760
O O10 0.331060 0.000000 0.087934
O O11 0.329016 0.866500 0.947006
O O12 0.171137 0.313018 0.767084
O O13 0.500000 0.664264 0.133916
O O14 0.134762 0.500000 0.810517
O O15 0.000000 0.640495 0.850797
#
# Coordination Sequence:
#
# PCOD8172735 Si02
#       6
#     8   8   8   4   8   8
#     4   8  15  30  51  74 104 139 166 195 247 306
#     4   9  19  35  53  76 106 135 164 203 253 304
#     4  10  21  35  51  73 102 135 170 208 253 302
#     4  12  20  32  58  84  96 122 174 224 250 284
#     4  10  19  32  53  78 102 132 172 210 243 290
#     4  10  22  39  54  71 102 139 168 202 258 316
#
# _framework density 18.187533999999999
#
# number of rings (size 3 to 8) (size 9 to 14) (size 15 to 20)
#    0.000    2.364    0.000    4.364    0.000    3.636 
#    0.000    0.909    0.000    3.273    0.000    5.091 
#    0.000    0.000    0.000    0.000    0.000    0.000 
#
# Total GULP energy -272721.636013 kJ/mol
# GULP energy per Si atom -12396.438001 kJ/mol
# Density = 1.814614 g / cm^3
# Si number density = 18.187534 Si / 1000 Ang^3
#
#
#
# Elastic Constant Matrix: (Units=GPa)
#
#
# Indices 1 2 3 4 5 6 
#
# 1 99.5954 30.8865 63.9664 0.0000 0.0000 0.0000
# 2 30.8865 92.0955 74.1858 0.0000 0.0000 0.0000
# 3 63.9664 74.1858 136.2745 0.0000 0.0000 0.0000
# 4 0.0000 0.0000 0.0000 65.1919 0.0000 0.0000
# 5 0.0000 0.0000 0.0000 0.0000 22.7515 0.0000
# 6 0.0000 0.0000 0.0000 0.0000 0.0000 26.0376
#
#
#
# Elastic Compliance Matrix: (Units=1/GPa)
#
#
# Indices 1 2 3 4 5 6 
#
# 1 0.014436 0.001099 -0.007374 0.000000 0.000000 0.000000
# 2 0.001099 0.019422 -0.011089 0.000000 0.000000 0.000000
# 3 -0.007374 -0.011089 0.016836 0.000000 0.000000 0.000000
# 4 0.000000 0.000000 0.000000 0.015339 0.000000 0.000000
# 5 0.000000 0.000000 0.000000 0.000000 0.043953 0.000000
# 6 0.000000 0.000000 0.000000 0.000000 0.000000 0.038406
#
#
# Mechanical properties :
#
#
# Convention : Reuss Voigt Hill
#
# Bulk Modulus (GPa) = 62.63474 74.00478 68.31976
# Shear Modulus (GPa) = 26.53304 33.39132 29.96218
#
# Velocity S-wave (km/s) = 3.82364 4.28944 4.06322
# Velocity P-wave (km/s) = 7.34893 8.08150 7.72390
#
# Compressibility (1/GPa) = 0.01596558
#
# Stress axis : x y z
#
# Youngs Moduli (GPa) = 69.27042 51.48722 59.39545
#
# Poissons Ratio (x) = -0.05657 0.43801
# Poissons Ratio (y) = -0.07611 0.65863
# Poissons Ratio (z) = 0.51083 0.57094
#
# Static dielectric constant tensor:
#      x y z
#    x 3.304730 0.000000 0.000000 
#    y 0.000000 3.256640 0.000000 
#    z 0.000000 0.000000 3.502190 
# 
# 
# High freq. dielectric constant tensor:
#      x y z
#    x 1.695400 0.000000 0.000000 
#    y 0.000000 1.704300 0.000000 
#    z 0.000000 0.000000 1.709960 
# 
# From -- ./inp_files/12823.got.cif
#   From: 2010.03.12/outbox.cif.g09.slc.cpg/sg35_7_cif.got.tgz:12823.got - 2010.04.14 02:02:04.
