data_PCOD8172749
_publ_section_title
;
Structure prediction by ZEFSAII (Michael W. Deem and Ramdas Pophale) SiO2 
 PCOD8172749
Probable space group: C M M 2
;
_chemical_formula_sum "Si O2"
_cell_formula_units_Z 64
_cell_length_a 9.296740
_cell_length_b 29.167801
_cell_length_c 12.308684
_cell_angle_alpha 90.000000
_cell_angle_beta 90.000000
_cell_angle_gamma 90.000000
_cell_volume 3337.689987
_symmetry_space_group_name_H-M "C M M 2"
_symmetry_group_IT_number 35
_symmetry_cell_setting 'orthorhombic'
loop_
_space_group_symop_operation_xyz
x,y,z
-x,-y,z
-x,y,z
x,-y,z
1/2+x,1/2+y,z
1/2-x,1/2-y,z
1/2-x,1/2+y,z
1/2+x,1/2-y,z
loop_
_atom_site_type_symbol
_atom_site_label
_atom_site_fract_x
_atom_site_fract_y
_atom_site_fract_z
Si Si1 0.337128 0.049546 0.063350
Si Si2 0.167471 0.207254 0.150982
Si Si3 0.833491 0.108113 0.221630
Si Si4 0.665459 0.679744 0.917003
Si Si5 0.841169 0.595654 0.853821
Si Si6 0.670509 0.704838 0.675597
Si Si7 0.330824 0.445948 0.436049
Si Si8 0.669268 0.888273 0.615781
O O1 0.500000 0.055621 0.104120
O O2 0.244150 0.089049 0.116071
O O3 0.276759 0.000000 0.098553
O O4 0.331524 0.051403 0.931405
O O5 0.250000 0.250000 0.205423
O O6 0.200526 0.162436 0.224818
O O7 0.000000 0.218656 0.152020
O O8 0.227606 0.202835 0.026650
O O9 0.781367 0.081162 0.328236
O O10 0.000000 0.099222 0.203248
O O11 0.500000 0.671377 0.939078
O O12 0.730251 0.630196 0.904838
O O13 0.693603 0.707590 0.805969
O O14 0.807554 0.584290 0.728703
O O15 0.000000 0.618255 0.859495
O O16 0.500000 0.704467 0.646507
O O17 0.750000 0.750000 0.627667
O O18 0.746871 0.660373 0.622399
O O19 0.500000 0.439112 0.458937
O O20 0.293028 0.500000 0.425853
O O21 0.238924 0.422469 0.529909
O O22 0.500000 0.879737 0.590353
#
# Coordination Sequence:
#
# PCOD8172749 Si02
#       8
#     8   8   8   8   8   8   8   8
#     4  10  20  33  52  81 114 146 180 223 280 342
#     4  10  20  33  52  80 112 147 185 225 271 328
#     4  10  21  39  60  81 110 146 188 234 281 336
#     4   9  17  30  49  76 111 150 189 229 268 321
#     4   9  18  32  51  77 112 150 182 222 276 334
#     4  10  19  32  53  82 118 156 193 234 279 332
#     4  10  22  41  63  84 107 142 189 240 293 344
#     4  10  21  37  58  84 113 148 191 237 287 340
#
# _framework density 19.174938000000001
#
# number of rings (size 3 to 8) (size 9 to 14) (size 15 to 20)
#    0.000    2.250    1.250    1.500    0.000    4.000 
#    0.000    1.875    0.000    1.500    0.000    0.000 
#    0.000    0.000    0.000    0.000    0.000    0.000 
#
# Total GULP energy -396549.288954 kJ/mol
# GULP energy per Si atom -12392.165280 kJ/mol
# Density = 1.913130 g / cm^3
# Si number density = 19.174938 Si / 1000 Ang^3
#
#
#
# Elastic Constant Matrix: (Units=GPa)
#
#
# Indices 1 2 3 4 5 6 
#
# 1 61.0576 58.2564 42.9207 0.0000 0.0000 0.0000
# 2 58.2564 127.1813 60.6405 0.0000 0.0000 0.0000
# 3 42.9207 60.6405 93.5595 0.0000 0.0000 0.0000
# 4 0.0000 0.0000 0.0000 21.5488 0.0000 0.0000
# 5 0.0000 0.0000 0.0000 0.0000 24.2684 0.0000
# 6 0.0000 0.0000 0.0000 0.0000 0.0000 31.8603
#
#
#
# Elastic Compliance Matrix: (Units=1/GPa)
#
#
# Indices 1 2 3 4 5 6 
#
# 1 0.032441 -0.011236 -0.007600 0.000000 0.000000 0.000000
# 2 -0.011236 0.015271 -0.004743 0.000000 0.000000 0.000000
# 3 -0.007600 -0.004743 0.017249 0.000000 0.000000 0.000000
# 4 0.000000 0.000000 0.000000 0.046406 0.000000 0.000000
# 5 0.000000 0.000000 0.000000 0.000000 0.041206 0.000000
# 6 0.000000 0.000000 0.000000 0.000000 0.000000 0.031387
#
#
# Mechanical properties :
#
#
# Convention : Reuss Voigt Hill
#
# Bulk Modulus (GPa) = 56.17080 67.27039 61.72060
# Shear Modulus (GPa) = 21.09230 23.53425 22.31327
#
# Velocity S-wave (km/s) = 3.32021 3.50715 3.41496
# Velocity P-wave (km/s) = 6.63746 7.18044 6.91428
#
# Compressibility (1/GPa) = 0.01780284
#
# Stress axis : x y z
#
# Youngs Moduli (GPa) = 30.82522 65.48207 57.97392
#
# Poissons Ratio (x) = 0.73578 0.44058
# Poissons Ratio (y) = 0.34636 0.27499
# Poissons Ratio (z) = 0.23426 0.31061
#
# Static dielectric constant tensor:
#      x y z
#    x 3.503220 0.000000 0.000000 
#    y 0.000000 3.483910 0.000000 
#    z 0.000000 0.000000 3.476110 
# 
# 
# High freq. dielectric constant tensor:
#      x y z
#    x 1.746320 0.000000 0.000000 
#    y 0.000000 1.744210 0.000000 
#    z 0.000000 0.000000 1.731250 
# 
# From -- ./inp_files/12007.got.cif
#   From: 2010.03.12/outbox.cif.g09.slc.cpg/sg35_7_cif.got.tgz:12007.got - 2010.04.14 02:02:04.
