data_PCOD8172044
_publ_section_title
;
Structure prediction by ZEFSAII (Michael W. Deem and Ramdas Pophale) SiO2 
 PCOD8172044
Probable space group: P N N 2
;
_chemical_formula_sum "Si O2"
_cell_formula_units_Z 26
_cell_length_a 20.607204
_cell_length_b 8.807644
_cell_length_c 6.136683
_cell_angle_alpha 90.000000
_cell_angle_beta 90.000000
_cell_angle_gamma 90.000000
_cell_volume 1113.813590
_symmetry_space_group_name_H-M "P N N 2"
_symmetry_group_IT_number 34
_symmetry_cell_setting 'orthorhombic'
loop_
_space_group_symop_operation_xyz
x,y,z
-x,-y,z
1/2-x,1/2+y,1/2+z
1/2+x,1/2-y,1/2+z
loop_
_atom_site_type_symbol
_atom_site_label
_atom_site_fract_x
_atom_site_fract_y
_atom_site_fract_z
Si Si1 0.731946 0.071336 0.897300
Si Si2 0.000000 0.500000 0.491931
Si Si3 0.302040 0.596436 0.751247
Si Si4 0.044320 0.747392 0.832321
Si Si5 0.110677 0.522293 0.143033
Si Si6 0.640483 0.517149 0.152718
Si Si7 0.906458 0.779605 0.930743
O O1 0.682409 0.972237 0.748760
O O2 0.804279 0.065413 0.815987
O O3 0.715491 0.251110 0.890514
O O4 0.739273 0.982632 0.131789
O O5 0.012373 0.639479 0.651560
O O6 0.061897 0.473832 0.336131
O O7 0.363974 0.629092 0.603438
O O8 0.329494 0.468606 0.913554
O O9 0.983002 0.814305 0.966397
O O10 0.080301 0.872403 0.690535
O O11 0.091700 0.675505 0.016276
O O12 0.108287 0.398430 0.949485
O O13 0.616181 0.343679 0.195419
#
# Coordination Sequence:
#
# PCOD8172044 Si02
#       7
#     4   2   4   4   4   4   4
#     4  10  26  46  75 103 144 197 244 308 363 447
#     4  12  24  40  74 108 142 194 242 300 356 424
#     4  10  25  49  75 107 146 194 248 301 379 438
#     4  12  25  46  72 111 145 188 249 297 366 441
#     4  11  24  46  76 104 146 191 252 300 357 442
#     4  11  27  45  72 107 145 191 236 305 370 434
#     4  10  22  48  68 104 147 189 233 299 361 440
#
# _framework density 23.343226000000001
#
# number of rings (size 3 to 8) (size 9 to 14) (size 15 to 20)
#    0.000    1.231    3.077    0.462    8.615    6.154 
#    2.769    0.000    0.000    0.000    0.000    0.000 
#    0.000    0.000    0.000    0.000    0.000    0.000 
#
# Total GULP energy -322129.241233 kJ/mol
# GULP energy per Si atom -12389.586201 kJ/mol
# Density = 2.329010 g / cm^3
# Si number density = 23.343226 Si / 1000 Ang^3
#
#
#
# Elastic Constant Matrix: (Units=GPa)
#
#
# Indices 1 2 3 4 5 6 
#
# 1 117.7475 63.1366 31.0409 0.0000 0.0000 0.0000
# 2 63.1366 91.3126 61.7071 0.0000 0.0000 0.0000
# 3 31.0409 61.7071 90.9920 0.0000 0.0000 0.0000
# 4 0.0000 0.0000 0.0000 19.9768 0.0000 0.0000
# 5 0.0000 0.0000 0.0000 0.0000 46.9520 0.0000
# 6 0.0000 0.0000 0.0000 0.0000 0.0000 38.4311
#
#
#
# Elastic Compliance Matrix: (Units=1/GPa)
#
#
# Indices 1 2 3 4 5 6 
#
# 1 0.014015 -0.011924 0.003306 0.000000 0.000000 0.000000
# 2 -0.011924 0.030362 -0.016522 0.000000 0.000000 0.000000
# 3 0.003306 -0.016522 0.021067 0.000000 0.000000 0.000000
# 4 0.000000 0.000000 0.000000 0.050058 0.000000 0.000000
# 5 0.000000 0.000000 0.000000 0.000000 0.021298 0.000000
# 6 0.000000 0.000000 0.000000 0.000000 0.000000 0.026021
#
#
# Mechanical properties :
#
#
# Convention : Reuss Voigt Hill
#
# Bulk Modulus (GPa) = 65.95536 67.98015 66.96775
# Shear Modulus (GPa) = 22.91927 30.68315 26.80121
#
# Velocity S-wave (km/s) = 3.13683 3.62945 3.39209
# Velocity P-wave (km/s) = 6.43704 6.83733 6.64020
#
# Compressibility (1/GPa) = 0.01516177
#
# Stress axis : x y z
#
# Youngs Moduli (GPa) = 71.35089 32.93625 47.46755
#
# Poissons Ratio (x) = 0.39275 -0.15690
# Poissons Ratio (y) = 0.85082 0.78427
# Poissons Ratio (z) = -0.23585 0.54418
#
# Static dielectric constant tensor:
#      x y z
#    x 4.460890 0.000000 0.000000 
#    y 0.000000 4.303650 0.000000 
#    z 0.000000 0.000000 4.399720 
# 
# 
# High freq. dielectric constant tensor:
#      x y z
#    x 1.941140 0.000000 0.000000 
#    y 0.000000 1.913920 0.000000 
#    z 0.000000 0.000000 1.919400 
# 
# From -- ./inp_files/1672.got.cif
#   From: 2010.03.12/outbox.cif.g09.slc.cpg/sg34_1_cif.got.tgz:1672.got - 2010.04.14 01:56:33.
