data_PCOD8172143
_publ_section_title
;
Structure prediction by ZEFSAII (Michael W. Deem and Ramdas Pophale) SiO2 
 PCOD8172143
Probable space group: P N N 2
;
_chemical_formula_sum "Si O2"
_cell_formula_units_Z 10
_cell_length_a 13.562891
_cell_length_b 4.816580
_cell_length_c 5.782725
_cell_angle_alpha 90.000000
_cell_angle_beta 90.000000
_cell_angle_gamma 90.000000
_cell_volume 377.766628
_symmetry_space_group_name_H-M "P N N 2"
_symmetry_group_IT_number 34
_symmetry_cell_setting 'orthorhombic'
loop_
_space_group_symop_operation_xyz
x,y,z
-x,-y,z
1/2-x,1/2+y,1/2+z
1/2+x,1/2-y,1/2+z
loop_
_atom_site_type_symbol
_atom_site_label
_atom_site_fract_x
_atom_site_fract_y
_atom_site_fract_z
Si Si1 0.851472 0.848020 0.838350
Si Si2 0.000000 0.000000 0.207772
Si Si3 0.636264 0.840660 0.028176
O O1 0.881462 0.655143 0.617853
O O2 0.864628 0.165100 0.763491
O O3 0.739378 0.786074 0.901511
O O4 0.922652 0.816212 0.058537
O O5 0.051292 0.761308 0.358439
#
# Coordination Sequence:
#
# PCOD8172143 Si02
#       3
#     4   2   4
#     4  12  28  53  81 116 162 212 269 333 401 475
#     4  12  30  50  84 120 166 214 270 334 404 482
#     4  12  28  53  81 116 162 212 269 333 401 475
#
# _framework density 26.471368999999999
#
# number of rings (size 3 to 8) (size 9 to 14) (size 15 to 20)
#    0.000    0.000    4.000    3.600    0.000    9.600 
#    0.000    0.000    0.000    0.000    0.000    0.000 
#    0.000    0.000    0.000    0.000    0.000    0.000 
#
# Total GULP energy -124083.482074 kJ/mol
# GULP energy per Si atom -12408.348207 kJ/mol
# Density = 2.641112 g / cm^3
# Si number density = 26.471369 Si / 1000 Ang^3
#
#
#
# Elastic Constant Matrix: (Units=GPa)
#
#
# Indices 1 2 3 4 5 6 
#
# 1 141.8738 17.2795 42.8290 0.0000 0.0000 0.0000
# 2 17.2795 84.5236 8.0801 0.0000 0.0000 0.0000
# 3 42.8290 8.0801 97.6814 0.0000 0.0000 0.0000
# 4 0.0000 0.0000 0.0000 48.8669 0.0000 0.0000
# 5 0.0000 0.0000 0.0000 0.0000 32.9423 0.0000
# 6 0.0000 0.0000 0.0000 0.0000 0.0000 38.9979
#
#
#
# Elastic Compliance Matrix: (Units=1/GPa)
#
#
# Indices 1 2 3 4 5 6 
#
# 1 0.008275 -0.001356 -0.003516 0.000000 0.000000 0.000000
# 2 -0.001356 0.012147 -0.000410 0.000000 0.000000 0.000000
# 3 -0.003516 -0.000410 0.011813 0.000000 0.000000 0.000000
# 4 0.000000 0.000000 0.000000 0.020464 0.000000 0.000000
# 5 0.000000 0.000000 0.000000 0.000000 0.030356 0.000000
# 6 0.000000 0.000000 0.000000 0.000000 0.000000 0.025642
#
#
# Mechanical properties :
#
#
# Convention : Reuss Voigt Hill
#
# Bulk Modulus (GPa) = 46.14436 51.16177 48.65307
# Shear Modulus (GPa) = 39.53016 41.22077 40.37547
#
# Velocity S-wave (km/s) = 3.86854 3.95040 3.90968
# Velocity P-wave (km/s) = 6.11750 6.33851 6.22898
#
# Compressibility (1/GPa) = 0.02167112
#
# Stress axis : x y z
#
# Youngs Moduli (GPa) = 120.84482 82.32227 84.65261
#
# Poissons Ratio (x) = 0.11159 0.29765
# Poissons Ratio (y) = 0.16381 0.03475
# Poissons Ratio (z) = 0.42491 0.03379
#
# Static dielectric constant tensor:
#      x y z
#    x 5.011790 0.000000 0.000000 
#    y 0.000000 4.574800 0.000000 
#    z 0.000000 0.000000 4.785540 
# 
# 
# High freq. dielectric constant tensor:
#      x y z
#    x 2.086300 0.000000 0.000000 
#    y 0.000000 2.064210 0.000000 
#    z 0.000000 0.000000 2.075480 
# 
# From -- ./inp_files/55.got.cif
#   From: 2010.03.12/outbox.cif.g09.slc.cpg/sg34_1_cif.got.tgz:55.got - 2010.04.14 01:56:33.
