data_PCOD8172499
_publ_section_title
;
Structure prediction by ZEFSAII (Michael W. Deem and Ramdas Pophale) SiO2 
 PCOD8172499
Probable space group: C M M 2
;
_chemical_formula_sum "Si O2"
_cell_formula_units_Z 56
_cell_length_a 9.079512
_cell_length_b 30.409181
_cell_length_c 12.539934
_cell_angle_alpha 90.000000
_cell_angle_beta 90.000000
_cell_angle_gamma 90.000000
_cell_volume 3462.282346
_symmetry_space_group_name_H-M "C M M 2"
_symmetry_group_IT_number 35
_symmetry_cell_setting 'orthorhombic'
loop_
_space_group_symop_operation_xyz
x,y,z
-x,-y,z
-x,y,z
x,-y,z
1/2+x,1/2+y,z
1/2-x,1/2-y,z
1/2-x,1/2+y,z
1/2+x,1/2-y,z
loop_
_atom_site_type_symbol
_atom_site_label
_atom_site_fract_x
_atom_site_fract_y
_atom_site_fract_z
Si Si1 0.670558 0.051738 0.967940
Si Si2 0.673100 0.618662 0.117207
Si Si3 0.834621 0.292189 0.365171
Si Si4 0.175196 0.048728 0.526682
Si Si5 0.163487 0.052180 0.760232
Si Si6 0.172407 0.121012 0.364038
Si Si7 0.166761 0.707030 0.111359
O O1 0.500000 0.063807 0.979195
O O2 0.725244 0.068145 0.851898
O O3 0.699126 0.000000 0.983021
O O4 0.762587 0.076403 0.058101
O O5 0.500000 0.622550 0.096306
O O6 0.709190 0.611226 0.241324
O O7 0.748863 0.663133 0.073512
O O8 0.750000 0.250000 0.411870
O O9 0.753569 0.335660 0.406129
O O10 0.833470 0.290724 0.238128
O O11 0.000000 0.291803 0.409866
O O12 0.222442 0.067227 0.643567
O O13 0.234136 0.080679 0.434201
O O14 0.000000 0.045990 0.523524
O O15 0.241553 0.000000 0.506141
O O16 0.000000 0.071532 0.783415
O O17 0.153431 0.000000 0.757981
O O18 0.000000 0.128600 0.381138
O O19 0.250000 0.750000 0.065089
O O20 0.000000 0.706177 0.066973
#
# Coordination Sequence:
#
# PCOD8172499 Si02
#       7
#     8   8   8   8   8   8   8
#     4  10  20  32  45  62  87 118 150 186 226 263
#     4  10  19  29  43  65  92 121 152 182 215 261
#     4   9  16  26  41  60  84 114 147 182 218 255
#     4   8  14  26  45  67  89 114 145 181 218 256
#     4   8  14  27  47  66  82 105 143 187 224 259
#     4   9  17  28  43  65  92 119 147 178 214 259
#     4   9  16  27  43  62  86 115 147 183 221 259
#
# _framework density 16.174302000000001
#
# number of rings (size 3 to 8) (size 9 to 14) (size 15 to 20)
#    0.000    3.000    0.000    2.571    0.000    5.429 
#    0.000    2.143    0.000    1.286    0.000    1.000 
#    0.000    2.286    0.000    0.000    0.000    0.000 
#
# Total GULP energy -347105.483043 kJ/mol
# GULP energy per Si atom -12396.624394 kJ/mol
# Density = 1.613749 g / cm^3
# Si number density = 16.174302 Si / 1000 Ang^3
#
#
#
# Elastic Constant Matrix: (Units=GPa)
#
#
# Indices 1 2 3 4 5 6 
#
# 1 90.8504 52.0464 39.0378 0.0000 0.0000 0.0000
# 2 52.0464 103.2607 51.1524 0.0000 0.0000 0.0000
# 3 39.0378 51.1524 68.3825 0.0000 0.0000 0.0000
# 4 0.0000 0.0000 0.0000 2.6641 0.0000 0.0000
# 5 0.0000 0.0000 0.0000 0.0000 13.3240 0.0000
# 6 0.0000 0.0000 0.0000 0.0000 0.0000 28.3107
#
#
#
# Elastic Compliance Matrix: (Units=1/GPa)
#
#
# Indices 1 2 3 4 5 6 
#
# 1 0.016519 -0.005806 -0.005087 0.000000 0.000000 0.000000
# 2 -0.005806 0.017426 -0.009721 0.000000 0.000000 0.000000
# 3 -0.005087 -0.009721 0.024799 0.000000 0.000000 0.000000
# 4 0.000000 0.000000 0.000000 0.375367 0.000000 0.000000
# 5 0.000000 0.000000 0.000000 0.000000 0.075052 0.000000
# 6 0.000000 0.000000 0.000000 0.000000 0.000000 0.035322
#
#
# Mechanical properties :
#
#
# Convention : Reuss Voigt Hill
#
# Bulk Modulus (GPa) = 57.08939 60.77407 58.93173
# Shear Modulus (GPa) = 8.45233 16.87690 12.66462
#
# Velocity S-wave (km/s) = 2.28848 3.23374 2.80126
# Velocity P-wave (km/s) = 6.50813 7.18323 6.85400
#
# Compressibility (1/GPa) = 0.01751639
#
# Stress axis : x y z
#
# Youngs Moduli (GPa) = 60.53533 57.38549 40.32395
#
# Poissons Ratio (x) = 0.33319 0.20514
# Poissons Ratio (y) = 0.35148 0.39198
# Poissons Ratio (z) = 0.30796 0.55782
#
# Static dielectric constant tensor:
#      x y z
#    x 3.090200 0.000000 0.000000 
#    y 0.000000 3.108700 0.000000 
#    z 0.000000 0.000000 2.959480 
# 
# 
# High freq. dielectric constant tensor:
#      x y z
#    x 1.620350 0.000000 0.000000 
#    y 0.000000 1.612980 0.000000 
#    z 0.000000 0.000000 1.585750 
# 
# From -- ./inp_files/16046.got.cif
#   From: 2010.03.12/outbox.cif.g09.slc.cpg/sg35_9_cif.got.tgz:16046.got - 2010.04.14 02:02:04.
