data_PCOD8172387
_publ_section_title
;
Structure prediction by ZEFSAII (Michael W. Deem and Ramdas Pophale) SiO2 
 PCOD8172387
Probable space group: C M M 2
;
_chemical_formula_sum "Si O2"
_cell_formula_units_Z 64
_cell_length_a 9.059086
_cell_length_b 29.030400
_cell_length_c 12.290825
_cell_angle_alpha 90.000000
_cell_angle_beta 90.000000
_cell_angle_gamma 90.000000
_cell_volume 3232.350427
_symmetry_space_group_name_H-M "C M M 2"
_symmetry_group_IT_number 35
_symmetry_cell_setting 'orthorhombic'
loop_
_space_group_symop_operation_xyz
x,y,z
-x,-y,z
-x,y,z
x,-y,z
1/2+x,1/2+y,z
1/2-x,1/2-y,z
1/2-x,1/2+y,z
1/2+x,1/2-y,z
loop_
_atom_site_type_symbol
_atom_site_label
_atom_site_fract_x
_atom_site_fract_y
_atom_site_fract_z
Si Si1 0.165881 0.431761 0.473340
Si Si2 0.827209 0.147948 0.766633
Si Si3 0.170451 0.706167 0.333541
Si Si4 0.168884 0.950020 0.688857
Si Si5 0.664504 0.169055 0.555708
Si Si6 0.672842 0.134784 0.160195
Si Si7 0.175064 0.700249 0.961263
Si Si8 0.330316 0.551852 0.249958
O O1 0.236853 0.454090 0.579956
O O2 0.164775 0.377433 0.486877
O O3 0.255003 0.445754 0.367243
O O4 0.000000 0.450828 0.460843
O O5 0.782677 0.093295 0.764859
O O6 0.786320 0.170104 0.649931
O O7 0.731356 0.174613 0.854066
O O8 0.000000 0.155478 0.789479
O O9 0.250000 0.750000 0.281113
O O10 0.205710 0.705760 0.462650
O O11 0.222266 0.660329 0.271010
O O12 0.000000 0.713062 0.308940
O O13 0.000000 0.941120 0.654479
O O14 0.185802 0.000000 0.749574
O O15 0.500000 0.177767 0.604644
O O16 0.500000 0.123912 0.156175
O O17 0.757223 0.085989 0.160987
O O18 0.720790 0.167008 0.060054
O O19 0.250000 0.750000 0.974652
O O20 0.000000 0.707471 0.953921
O O21 0.500000 0.565769 0.264220
O O22 0.313922 0.500000 0.204041
#
# Coordination Sequence:
#
# PCOD8172387 Si02
#       8
#     8   8   8   8   8   8   8   8
#     4  10  18  31  52  79 115 159 200 240 285 337
#     4  10  21  37  59  86 118 154 197 242 292 346
#     4  10  20  35  55  83 115 148 185 231 288 350
#     4   9  18  33  53  81 118 158 199 241 286 341
#     4   9  18  34  54  78 117 157 192 237 288 343
#     4  10  22  42  63  85 115 150 192 242 292 345
#     4  11  24  43  68  91 114 146 192 246 297 351
#     4  11  23  36  54  84 120 157 197 240 286 341
#
# _framework density 19.799833
#
# number of rings (size 3 to 8) (size 9 to 14) (size 15 to 20)
#    0.000    2.000    1.250    2.250    0.000    6.250 
#    0.000    1.875    0.000    2.250    0.000    0.000 
#    0.000    0.000    0.000    0.000    0.000    0.000 
#
# Total GULP energy -396662.883651 kJ/mol
# GULP energy per Si atom -12395.715114 kJ/mol
# Density = 1.975477 g / cm^3
# Si number density = 19.799833 Si / 1000 Ang^3
#
#
#
# Elastic Constant Matrix: (Units=GPa)
#
#
# Indices 1 2 3 4 5 6 
#
# 1 89.4335 58.6955 44.0231 0.0000 0.0000 0.0000
# 2 58.6955 125.4067 50.6376 0.0000 0.0000 0.0000
# 3 44.0231 50.6376 83.6095 0.0000 0.0000 0.0000
# 4 0.0000 0.0000 0.0000 14.3671 0.0000 0.0000
# 5 0.0000 0.0000 0.0000 0.0000 21.5043 0.0000
# 6 0.0000 0.0000 0.0000 0.0000 0.0000 29.8910
#
#
#
# Elastic Compliance Matrix: (Units=1/GPa)
#
#
# Indices 1 2 3 4 5 6 
#
# 1 0.018043 -0.006101 -0.005805 0.000000 0.000000 0.000000
# 2 -0.006101 0.012618 -0.004430 0.000000 0.000000 0.000000
# 3 -0.005805 -0.004430 0.017700 0.000000 0.000000 0.000000
# 4 0.000000 0.000000 0.000000 0.069604 0.000000 0.000000
# 5 0.000000 0.000000 0.000000 0.000000 0.046502 0.000000
# 6 0.000000 0.000000 0.000000 0.000000 0.000000 0.033455
#
#
# Mechanical properties :
#
#
# Convention : Reuss Voigt Hill
#
# Bulk Modulus (GPa) = 63.73792 67.24022 65.48907
# Shear Modulus (GPa) = 21.20226 22.82538 22.01382
#
# Velocity S-wave (km/s) = 3.27590 3.39898 3.33801
# Velocity P-wave (km/s) = 6.82420 7.03121 6.92848
#
# Compressibility (1/GPa) = 0.01568925
#
# Stress axis : x y z
#
# Youngs Moduli (GPa) = 55.42274 79.25066 56.49710
#
# Poissons Ratio (x) = 0.48349 0.32799
# Poissons Ratio (y) = 0.33812 0.25027
# Poissons Ratio (z) = 0.32175 0.35107
#
# Static dielectric constant tensor:
#      x y z
#    x 3.620620 0.000000 0.000000 
#    y 0.000000 3.847850 0.000000 
#    z 0.000000 0.000000 3.389140 
# 
# 
# High freq. dielectric constant tensor:
#      x y z
#    x 1.773820 0.000000 0.000000 
#    y 0.000000 1.785630 0.000000 
#    z 0.000000 0.000000 1.746590 
# 
# From -- ./inp_files/11911.got.cif
#   From: 2010.03.12/outbox.cif.g09.slc.cpg/sg35_6_cif.got.tgz:11911.got - 2010.04.14 02:02:04.
