data_PCOD8172002
_publ_section_title
;
Structure prediction by ZEFSAII (Michael W. Deem and Ramdas Pophale) SiO2 
 PCOD8172002
Probable space group: P N N 2
;
_chemical_formula_sum "Si O2"
_cell_formula_units_Z 20
_cell_length_a 8.034058
_cell_length_b 9.998448
_cell_length_c 11.820802
_cell_angle_alpha 90.000000
_cell_angle_beta 90.000000
_cell_angle_gamma 90.000000
_cell_volume 949.542697
_symmetry_space_group_name_H-M "P N N 2"
_symmetry_group_IT_number 34
_symmetry_cell_setting 'orthorhombic'
loop_
_space_group_symop_operation_xyz
x,y,z
-x,-y,z
1/2-x,1/2+y,1/2+z
1/2+x,1/2-y,1/2+z
loop_
_atom_site_type_symbol
_atom_site_label
_atom_site_fract_x
_atom_site_fract_y
_atom_site_fract_z
Si Si1 0.304875 0.005287 0.600380
Si Si2 0.078944 0.363126 0.744834
Si Si3 0.384958 0.376958 0.900451
Si Si4 0.341012 0.780957 0.011872
Si Si5 0.132796 0.888819 0.813464
O O1 0.216781 0.906937 0.513296
O O2 0.264530 0.951212 0.725467
O O3 0.500000 0.000000 0.579794
O O4 0.234074 0.152759 0.577653
O O5 0.257268 0.334845 0.802641
O O6 0.105086 0.381853 0.610719
O O7 0.000000 0.500000 0.794376
O O8 0.949863 0.244053 0.763723
O O9 0.500000 0.500000 0.858951
O O10 0.504926 0.253695 0.929738
O O11 0.209210 0.854928 0.934294
O O12 0.000000 0.000000 0.841481
#
# Coordination Sequence:
#
# PCOD8172002 Si02
#       5
#     4   4   4   4   4
#     4  11  22  45  73  98 137 193 235 286 362 420
#     4  12  25  45  68 102 145 183 236 302 347 421
#     4  10  21  44  70  97 138 187 231 288 354 426
#     4  11  25  43  70 106 141 180 239 292 353 424
#     4  12  25  47  72 102 146 187 235 294 353 423
#
# _framework density 21.062771000000001
#
# number of rings (size 3 to 8) (size 9 to 14) (size 15 to 20)
#    0.000    0.800    4.000    4.800    2.800    3.200 
#    3.600    0.000    0.000    0.000    0.000    0.000 
#    0.000    0.000    0.000    0.000    0.000    0.000 
#
# Total GULP energy -248067.658510 kJ/mol
# GULP energy per Si atom -12403.382925 kJ/mol
# Density = 2.101483 g / cm^3
# Si number density = 21.062771 Si / 1000 Ang^3
#
#
#
# Elastic Constant Matrix: (Units=GPa)
#
#
# Indices 1 2 3 4 5 6 
#
# 1 81.2371 27.8532 -7.1412 0.0000 0.0000 0.0000
# 2 27.8532 88.4301 28.8437 0.0000 0.0000 0.0000
# 3 -7.1412 28.8437 70.9142 0.0000 0.0000 0.0000
# 4 0.0000 0.0000 0.0000 28.2434 0.0000 0.0000
# 5 0.0000 0.0000 0.0000 0.0000 55.4870 0.0000
# 6 0.0000 0.0000 0.0000 0.0000 0.0000 34.5926
#
#
#
# Elastic Compliance Matrix: (Units=1/GPa)
#
#
# Indices 1 2 3 4 5 6 
#
# 1 0.014666 -0.005882 0.003869 0.000000 0.000000 0.000000
# 2 -0.005882 0.015397 -0.006855 0.000000 0.000000 0.000000
# 3 0.003869 -0.006855 0.017279 0.000000 0.000000 0.000000
# 4 0.000000 0.000000 0.000000 0.035407 0.000000 0.000000
# 5 0.000000 0.000000 0.000000 0.000000 0.018022 0.000000
# 6 0.000000 0.000000 0.000000 0.000000 0.000000 0.028908
#
#
# Mechanical properties :
#
#
# Convention : Reuss Voigt Hill
#
# Bulk Modulus (GPa) = 33.77453 37.74367 35.75910
# Shear Modulus (GPa) = 31.78989 36.39965 34.09477
#
# Velocity S-wave (km/s) = 3.88918 4.16161 4.02770
# Velocity P-wave (km/s) = 6.01977 6.40707 6.21644
#
# Compressibility (1/GPa) = 0.02960811
#
# Stress axis : x y z
#
# Youngs Moduli (GPa) = 68.18336 64.94871 57.87273
#
# Poissons Ratio (x) = 0.38200 -0.22392
# Poissons Ratio (y) = 0.40102 0.39670
# Poissons Ratio (z) = -0.26381 0.44521
#
# Static dielectric constant tensor:
#      x y z
#    x 4.020960 0.000000 0.000000 
#    y 0.000000 3.693520 0.000000 
#    z 0.000000 0.000000 3.885890 
# 
# 
# High freq. dielectric constant tensor:
#      x y z
#    x 1.836870 0.000000 0.000000 
#    y 0.000000 1.821330 0.000000 
#    z 0.000000 0.000000 1.832070 
# 
# From -- ./inp_files/4767.got.cif
#   From: 2010.03.12/outbox.cif.g09.slc.cpg/sg34_3_cif.got.tgz:4767.got - 2010.04.14 01:56:33.
