data_PCOD8172686
_publ_section_title
;
Structure prediction by ZEFSAII (Michael W. Deem and Ramdas Pophale) SiO2 
 PCOD8172686
Probable space group: C M M 2
;
_chemical_formula_sum "Si O2"
_cell_formula_units_Z 56
_cell_length_a 8.563042
_cell_length_b 19.229147
_cell_length_c 17.936456
_cell_angle_alpha 90.000000
_cell_angle_beta 90.000000
_cell_angle_gamma 90.000000
_cell_volume 2953.416726
_symmetry_space_group_name_H-M "C M M 2"
_symmetry_group_IT_number 35
_symmetry_cell_setting 'orthorhombic'
loop_
_space_group_symop_operation_xyz
x,y,z
-x,-y,z
-x,y,z
x,-y,z
1/2+x,1/2+y,z
1/2-x,1/2-y,z
1/2-x,1/2+y,z
1/2+x,1/2-y,z
loop_
_atom_site_type_symbol
_atom_site_label
_atom_site_fract_x
_atom_site_fract_y
_atom_site_fract_z
Si Si1 0.683663 0.579732 0.093240
Si Si2 0.817613 0.825026 0.377115
Si Si3 0.820288 0.580986 0.252689
Si Si4 0.185136 0.325957 0.532721
Si Si5 0.814349 0.327483 0.961883
Si Si6 0.685637 0.077588 0.663071
Si Si7 0.314513 0.921993 0.828209
O O1 0.500000 0.590717 0.101306
O O2 0.724183 0.500000 0.071704
O O3 0.764473 0.600650 0.170367
O O4 0.752022 0.631341 0.032636
O O5 0.750000 0.750000 0.355760
O O6 0.784869 0.878038 0.310997
O O7 0.741148 0.854792 0.452887
O O8 0.000000 0.816975 0.390535
O O9 0.794749 0.500000 0.268313
O O10 0.000000 0.602856 0.261928
O O11 0.250000 0.250000 0.546785
O O12 0.255359 0.373142 0.599041
O O13 0.000000 0.325213 0.534023
O O14 0.750000 0.250000 0.961602
O O15 0.749787 0.367252 0.888477
O O16 0.000000 0.325708 0.964191
O O17 0.500000 0.078751 0.660103
O O18 0.741642 0.101667 0.745605
O O19 0.747407 0.000000 0.647524
O O20 0.500000 0.923590 0.831297
O O21 0.251627 0.000000 0.845903
#
# Coordination Sequence:
#
# PCOD8172686 Si02
#       7
#     8   8   8   8   8   8   8
#     4  10  21  38  59  82 109 140 175 217 266 318
#     4  11  22  37  56  78 108 144 182 222 267 318
#     4  10  21  38  60  85 111 139 175 217 262 316
#     4  10  19  32  51  75 104 139 177 217 265 319
#     4  11  22  35  53  79 110 143 181 223 267 315
#     4   8  15  29  50  76 103 133 174 221 265 312
#     4   8  15  30  52  76 102 135 176 220 266 318
#
# _framework density 18.961089000000001
#
# number of rings (size 3 to 8) (size 9 to 14) (size 15 to 20)
#    0.000    2.286    0.000    5.143    0.000    4.000 
#    0.000    4.286    0.000    3.857    0.000    8.000 
#    0.000    0.000    0.000    0.000    0.000    0.000 
#
# Total GULP energy -347185.513476 kJ/mol
# GULP energy per Si atom -12399.482624 kJ/mol
# Density = 1.891793 g / cm^3
# Si number density = 18.961089 Si / 1000 Ang^3
#
#
#
# Elastic Constant Matrix: (Units=GPa)
#
#
# Indices 1 2 3 4 5 6 
#
# 1 56.0615 21.5329 17.9635 0.0000 0.0000 0.0000
# 2 21.5329 104.9281 85.9956 0.0000 0.0000 0.0000
# 3 17.9635 85.9956 141.6033 0.0000 0.0000 0.0000
# 4 0.0000 0.0000 0.0000 25.6160 0.0000 0.0000
# 5 0.0000 0.0000 0.0000 0.0000 20.2691 0.0000
# 6 0.0000 0.0000 0.0000 0.0000 0.0000 15.9299
#
#
#
# Elastic Compliance Matrix: (Units=1/GPa)
#
#
# Indices 1 2 3 4 5 6 
#
# 1 0.019364 -0.003903 -0.000086 0.000000 0.000000 0.000000
# 2 -0.003903 0.019761 -0.011506 0.000000 0.000000 0.000000
# 3 -0.000086 -0.011506 0.014060 0.000000 0.000000 0.000000
# 4 0.000000 0.000000 0.000000 0.039038 0.000000 0.000000
# 5 0.000000 0.000000 0.000000 0.000000 0.049336 0.000000
# 6 0.000000 0.000000 0.000000 0.000000 0.000000 0.062775
#
#
# Mechanical properties :
#
#
# Convention : Reuss Voigt Hill
#
# Bulk Modulus (GPa) = 45.05407 61.50856 53.28132
# Shear Modulus (GPa) = 20.59952 24.16971 22.38462
#
# Velocity S-wave (km/s) = 3.29965 3.57417 3.43965
# Velocity P-wave (km/s) = 6.19111 7.03866 6.62844
#
# Compressibility (1/GPa) = 0.02219555
#
# Stress axis : x y z
#
# Youngs Moduli (GPa) = 51.64115 50.60446 71.12218
#
# Poissons Ratio (x) = 0.19753 0.00612
# Poissons Ratio (y) = 0.20158 0.81831
# Poissons Ratio (z) = 0.00444 0.58224
#
# Static dielectric constant tensor:
#      x y z
#    x 3.313840 0.000000 0.000000 
#    y 0.000000 3.560820 0.000000 
#    z 0.000000 0.000000 3.797710 
# 
# 
# High freq. dielectric constant tensor:
#      x y z
#    x 1.723200 0.000000 0.000000 
#    y 0.000000 1.733690 0.000000 
#    z 0.000000 0.000000 1.751980 
# 
# From -- ./inp_files/15612.got.cif
#   From: 2010.03.12/outbox.cif.g09.slc.cpg/sg35_8_cif.got.tgz:15612.got - 2010.04.14 02:02:04.
