data_PCOD8172708
_publ_section_title
;
Structure prediction by ZEFSAII (Michael W. Deem and Ramdas Pophale) SiO2 
 PCOD8172708
Probable space group: C M M 2
;
_chemical_formula_sum "Si O2"
_cell_formula_units_Z 64
_cell_length_a 32.434708
_cell_length_b 9.374059
_cell_length_c 11.177366
_cell_angle_alpha 90.000000
_cell_angle_beta 90.000000
_cell_angle_gamma 90.000000
_cell_volume 3398.420753
_symmetry_space_group_name_H-M "C M M 2"
_symmetry_group_IT_number 35
_symmetry_cell_setting 'orthorhombic'
loop_
_space_group_symop_operation_xyz
x,y,z
-x,-y,z
-x,y,z
x,-y,z
1/2+x,1/2+y,z
1/2-x,1/2-y,z
1/2-x,1/2+y,z
1/2+x,1/2-y,z
loop_
_atom_site_type_symbol
_atom_site_label
_atom_site_fract_x
_atom_site_fract_y
_atom_site_fract_z
Si Si1 0.287274 0.659467 0.591380
Si Si2 0.376996 0.668462 0.967275
Si Si3 0.150668 0.340527 0.457931
Si Si4 0.374881 0.666942 0.242285
Si Si5 0.451773 0.168554 0.841985
Si Si6 0.456386 0.341296 0.362260
Si Si7 0.788813 0.159390 0.873830
Si Si8 0.938482 0.657170 0.572192
O O1 0.286866 0.500000 0.537647
O O2 0.250000 0.750000 0.535342
O O3 0.327755 0.742594 0.555262
O O4 0.284276 0.653526 0.732814
O O5 0.384488 0.500000 0.947140
O O6 0.418431 0.749562 0.924771
O O7 0.334597 0.721406 0.903131
O O8 0.368152 0.705780 0.105168
O O9 0.169564 0.500000 0.445827
O O10 0.153680 0.263337 0.328393
O O11 0.106219 0.349746 0.515031
O O12 0.366216 0.500000 0.266675
O O13 0.421629 0.715133 0.272908
O O14 0.500000 0.208340 0.871291
O O15 0.440637 0.217123 0.707001
O O16 0.444872 0.000000 0.860017
O O17 0.500000 0.337160 0.291666
O O18 0.444225 0.500000 0.402631
O O19 0.464142 0.255934 0.484289
O O20 0.750000 0.250000 0.926835
O O21 0.785344 0.000000 0.928609
O O22 0.958477 0.500000 0.574243
#
# Coordination Sequence:
#
# PCOD8172708 Si02
#       8
#     8   8   8   8   8   8   8   8
#     4  10  19  32  52  78 108 135 161 201 253 310
#     4  10  21  37  56  77 103 139 183 225 264 310
#     4  10  19  32  52  77 102 131 170 211 256 310
#     4   9  19  35  52  70  98 136 174 213 256 303
#     4  10  21  35  51  75 108 143 177 215 264 320
#     4   9  17  29  47  71  96 125 166 214 259 302
#     4   9  19  35  56  83 109 135 171 215 264 318
#     4   9  18  32  50  72 100 133 167 207 258 316
#
# _framework density 18.832277000000001
#
# number of rings (size 3 to 8) (size 9 to 14) (size 15 to 20)
#    0.000    2.500    0.000    1.875    0.000    4.000 
#    0.000    1.875    0.000    1.500    0.000    0.000 
#    0.000    0.000    0.000    0.000    0.000    0.000 
#
# Total GULP energy -396458.915268 kJ/mol
# GULP energy per Si atom -12389.341102 kJ/mol
# Density = 1.878941 g / cm^3
# Si number density = 18.832277 Si / 1000 Ang^3
#
#
#
# Elastic Constant Matrix: (Units=GPa)
#
#
# Indices 1 2 3 4 5 6 
#
# 1 89.1330 43.8690 19.3569 0.0000 0.0000 0.0000
# 2 43.8690 89.6815 26.2000 0.0000 0.0000 0.0000
# 3 19.3569 26.2000 42.9357 0.0000 0.0000 0.0000
# 4 0.0000 0.0000 0.0000 24.6706 0.0000 0.0000
# 5 0.0000 0.0000 0.0000 0.0000 14.1288 0.0000
# 6 0.0000 0.0000 0.0000 0.0000 0.0000 79.2257
#
#
#
# Elastic Compliance Matrix: (Units=1/GPa)
#
#
# Indices 1 2 3 4 5 6 
#
# 1 0.015046 -0.006545 -0.002789 0.000000 0.000000 0.000000
# 2 -0.006545 0.016417 -0.007067 0.000000 0.000000 0.000000
# 3 -0.002789 -0.007067 0.028861 0.000000 0.000000 0.000000
# 4 0.000000 0.000000 0.000000 0.040534 0.000000 0.000000
# 5 0.000000 0.000000 0.000000 0.000000 0.070778 0.000000
# 6 0.000000 0.000000 0.000000 0.000000 0.000000 0.012622
#
#
# Mechanical properties :
#
#
# Convention : Reuss Voigt Hill
#
# Bulk Modulus (GPa) = 36.33653 44.51135 40.42394
# Shear Modulus (GPa) = 22.10096 32.42664 27.26380
#
# Velocity S-wave (km/s) = 3.42945 4.15404 3.80901
# Velocity P-wave (km/s) = 5.91762 6.83338 6.39192
#
# Compressibility (1/GPa) = 0.02752052
#
# Stress axis : x y z
#
# Youngs Moduli (GPa) = 66.46125 60.91293 34.64929
#
# Poissons Ratio (x) = 0.39869 0.09665
# Poissons Ratio (y) = 0.43500 0.24487
# Poissons Ratio (z) = 0.18539 0.43047
#
# Static dielectric constant tensor:
#      x y z
#    x 3.546640 0.000000 0.000000 
#    y 0.000000 3.742860 0.000000 
#    z 0.000000 0.000000 3.247300 
# 
# 
# High freq. dielectric constant tensor:
#      x y z
#    x 1.737170 0.000000 0.000000 
#    y 0.000000 1.731030 0.000000 
#    z 0.000000 0.000000 1.709610 
# 
# From -- ./inp_files/14588.got.cif
#   From: 2010.03.12/outbox.cif.g09.slc.cpg/sg35_8_cif.got.tgz:14588.got - 2010.04.14 02:02:04.
