data_PCOD8172993
_publ_section_title
;
Structure prediction by ZEFSAII (Michael W. Deem and Ramdas Pophale) SiO2 
 PCOD8172993
Probable space group: C M M 2
;
_chemical_formula_sum "Si O2"
_cell_formula_units_Z 64
_cell_length_a 30.056851
_cell_length_b 9.049005
_cell_length_c 15.369823
_cell_angle_alpha 90.000000
_cell_angle_beta 90.000000
_cell_angle_gamma 90.000000
_cell_volume 4180.355084
_symmetry_space_group_name_H-M "C M M 2"
_symmetry_group_IT_number 35
_symmetry_cell_setting 'orthorhombic'
loop_
_space_group_symop_operation_xyz
x,y,z
-x,-y,z
-x,y,z
x,-y,z
1/2+x,1/2+y,z
1/2-x,1/2-y,z
1/2-x,1/2+y,z
1/2+x,1/2-y,z
loop_
_atom_site_type_symbol
_atom_site_label
_atom_site_fract_x
_atom_site_fract_y
_atom_site_fract_z
Si Si1 0.112203 0.323634 0.777760
Si Si2 0.448972 0.327586 0.102571
Si Si3 0.447467 0.170355 0.462253
Si Si4 0.207057 0.333867 0.585053
Si Si5 0.052846 0.164895 0.292174
Si Si6 0.949214 0.326608 0.934709
Si Si7 0.615670 0.676329 0.595496
Si Si8 0.290934 0.838745 0.791089
O O1 0.112112 0.500000 0.759060
O O2 0.076494 0.273613 0.848829
O O3 0.101341 0.238640 0.689190
O O4 0.160629 0.272105 0.813659
O O5 0.500000 0.277097 0.102955
O O6 0.443743 0.500000 0.085776
O O7 0.427949 0.285830 0.197125
O O8 0.426444 0.243161 0.021180
O O9 0.500000 0.194050 0.474459
O O10 0.432143 0.219346 0.365516
O O11 0.423055 0.274791 0.530483
O O12 0.434006 0.000000 0.476062
O O13 0.203737 0.500000 0.545900
O O14 0.250000 0.250000 0.544491
O O15 0.162473 0.243200 0.562505
O O16 0.213384 0.344711 0.687683
O O17 0.000000 0.158791 0.283909
O O18 0.070258 0.000000 0.315896
O O19 0.945340 0.500000 0.945149
O O20 0.000000 0.273850 0.922679
O O21 0.619430 0.500000 0.598842
O O22 0.250000 0.750000 0.832943
O O23 0.287013 0.000000 0.832493
#
# Coordination Sequence:
#
# PCOD8172993 Si02
#       8
#     8   8   8   8   8   8   8   8
#     4   9  18  31  42  56  82 113 143 177 213 245
#     4   8  14  25  41  60  82 106 131 165 210 252
#     4  10  20  32  45  61  83 113 147 182 217 253
#     4   9  16  28  45  64  85 108 137 174 216 258
#     4   8  14  26  43  61  81 105 133 168 211 255
#     4   9  17  28  42  59  80 109 143 174 204 244
#     4  11  21  31  44  62  85 115 149 182 216 255
#     4   8  14  24  39  56  75  99 128 166 209 248
#
# _framework density 15.309704999999999
#
# number of rings (size 3 to 8) (size 9 to 14) (size 15 to 20)
#    0.000    3.000    0.000    3.375    0.000    5.250 
#    0.000    3.750    0.000    0.000    0.000    0.000 
#    0.000    1.000    0.000    5.250    0.000    4.875 
#
# Total GULP energy -396553.606307 kJ/mol
# GULP energy per Si atom -12392.300197 kJ/mol
# Density = 1.527486 g / cm^3
# Si number density = 15.309705 Si / 1000 Ang^3
#
#
#
# Elastic Constant Matrix: (Units=GPa)
#
#
# Indices 1 2 3 4 5 6 
#
# 1 62.4718 33.9644 44.3943 0.0000 0.0000 0.0000
# 2 33.9644 77.3555 44.5021 0.0000 0.0000 0.0000
# 3 44.3943 44.5021 89.6600 0.0000 0.0000 0.0000
# 4 0.0000 0.0000 0.0000 24.1829 0.0000 0.0000
# 5 0.0000 0.0000 0.0000 0.0000 0.4508 0.0000
# 6 0.0000 0.0000 0.0000 0.0000 0.0000 21.8120
#
#
#
# Elastic Compliance Matrix: (Units=1/GPa)
#
#
# Indices 1 2 3 4 5 6 
#
# 1 0.026375 -0.005693 -0.010233 0.000000 0.000000 0.000000
# 2 -0.005693 0.019323 -0.006772 0.000000 0.000000 0.000000
# 3 -0.010233 -0.006772 0.019581 0.000000 0.000000 0.000000
# 4 0.000000 0.000000 0.000000 0.041351 0.000000 0.000000
# 5 0.000000 0.000000 0.000000 0.000000 2.218228 0.000000
# 6 0.000000 0.000000 0.000000 0.000000 0.000000 0.045846
#
#
# Mechanical properties :
#
#
# Convention : Reuss Voigt Hill
#
# Bulk Modulus (GPa) = 50.29656 52.80102 51.54879
# Shear Modulus (GPa) = 2.06379 16.39758 9.23069
#
# Velocity S-wave (km/s) = 1.16230 3.27625 2.45813
# Velocity P-wave (km/s) = 5.89282 6.99108 6.46531
#
# Compressibility (1/GPa) = 0.01988208
#
# Stress axis : x y z
#
# Youngs Moduli (GPa) = 37.91532 51.75238 51.06890
#
# Poissons Ratio (x) = 0.29463 0.52261
# Poissons Ratio (y) = 0.21585 0.34583
# Poissons Ratio (z) = 0.38800 0.35046
#
# Static dielectric constant tensor:
#      x y z
#    x 2.860950 0.000000 0.000000 
#    y 0.000000 3.036010 0.000000 
#    z 0.000000 0.000000 2.928770 
# 
# 
# High freq. dielectric constant tensor:
#      x y z
#    x 1.557200 0.000000 0.000000 
#    y 0.000000 1.592420 0.000000 
#    z 0.000000 0.000000 1.561270 
# 
# From -- ./inp_files/17762.got.cif
#   From: 2010.03.12/outbox.cif.g09.slc.cpg/sg35_9_cif.got.tgz:17762.got - 2010.04.14 02:02:04.
