data_PCOD8172441
_publ_section_title
;
Structure prediction by ZEFSAII (Michael W. Deem and Ramdas Pophale) SiO2 
 PCOD8172441
Probable space group: C M M 2
;
_chemical_formula_sum "Si O2"
_cell_formula_units_Z 64
_cell_length_a 15.309408
_cell_length_b 25.860588
_cell_length_c 8.681998
_cell_angle_alpha 90.000000
_cell_angle_beta 90.000000
_cell_angle_gamma 90.000000
_cell_volume 3437.292370
_symmetry_space_group_name_H-M "C M M 2"
_symmetry_group_IT_number 35
_symmetry_cell_setting 'orthorhombic'
loop_
_space_group_symop_operation_xyz
x,y,z
-x,-y,z
-x,y,z
x,-y,z
1/2+x,1/2+y,z
1/2-x,1/2-y,z
1/2-x,1/2+y,z
1/2+x,1/2-y,z
loop_
_atom_site_type_symbol
_atom_site_label
_atom_site_fract_x
_atom_site_fract_y
_atom_site_fract_z
Si Si1 0.814321 0.711161 0.794430
Si Si2 0.100291 0.240346 0.081953
Si Si3 0.599043 0.863822 0.569728
Si Si4 0.099430 0.059691 0.481801
Si Si5 0.100864 0.871845 0.183351
Si Si6 0.740471 0.886209 0.985229
Si Si7 0.900238 0.348694 0.212790
Si Si8 0.238234 0.558253 0.686505
O O1 0.750000 0.750000 0.701516
O O2 0.881789 0.687102 0.672504
O O3 0.762829 0.665732 0.883242
O O4 0.855696 0.751019 0.916898
O O5 0.128074 0.189138 0.178683
O O6 0.123628 0.289105 0.186776
O O7 0.000000 0.236231 0.042514
O O8 0.500000 0.880379 0.604472
O O9 0.614926 0.854445 0.391732
O O10 0.662452 0.910054 0.606941
O O11 0.118683 0.100966 0.346696
O O12 0.165811 0.073389 0.620348
O O13 0.000000 0.067098 0.541573
O O14 0.112434 0.000000 0.424667
O O15 0.000000 0.880301 0.134375
O O16 0.165409 0.897136 0.060028
O O17 0.731350 0.934298 0.869883
O O18 0.663231 0.885675 0.112988
O O19 0.000000 0.361396 0.163055
O O20 0.217071 0.500000 0.644569
#
# Coordination Sequence:
#
# PCOD8172441 Si02
#       8
#     8   8   8   8   8   8   8   8
#     4  10  18  33  51  78 112 153 191 219 265 326
#     4   9  17  31  51  76 109 147 184 223 267 320
#     4  10  21  38  58  83 115 151 190 234 282 335
#     4   9  19  37  58  79 110 149 186 231 289 345
#     4  10  19  32  52  80 111 146 187 228 272 329
#     4  10  20  34  54  79 109 142 183 233 283 328
#     4   9  19  36  56  79 109 147 186 224 277 336
#     4  10  22  39  59  82 108 144 190 238 292 347
#
# _framework density 18.619306999999999
#
# number of rings (size 3 to 8) (size 9 to 14) (size 15 to 20)
#    0.000    2.375    1.250    1.125    0.000    4.250 
#    6.750    0.625    0.000    0.750    0.000    0.000 
#    0.000    0.000    0.000    0.000    0.000    0.000 
#
# Total GULP energy -396520.737150 kJ/mol
# GULP energy per Si atom -12391.273036 kJ/mol
# Density = 1.857693 g / cm^3
# Si number density = 18.619307 Si / 1000 Ang^3
#
#
#
# Elastic Constant Matrix: (Units=GPa)
#
#
# Indices 1 2 3 4 5 6 
#
# 1 115.8476 50.7770 65.2050 0.0000 0.0000 0.0000
# 2 50.7770 78.3034 46.1383 0.0000 0.0000 0.0000
# 3 65.2050 46.1383 105.3127 0.0000 0.0000 0.0000
# 4 0.0000 0.0000 0.0000 23.3315 0.0000 0.0000
# 5 0.0000 0.0000 0.0000 0.0000 31.5623 0.0000
# 6 0.0000 0.0000 0.0000 0.0000 0.0000 25.1449
#
#
#
# Elastic Compliance Matrix: (Units=1/GPa)
#
#
# Indices 1 2 3 4 5 6 
#
# 1 0.014929 -0.005708 -0.006743 0.000000 0.000000 0.000000
# 2 -0.005708 0.019397 -0.004964 0.000000 0.000000 0.000000
# 3 -0.006743 -0.004964 0.015845 0.000000 0.000000 0.000000
# 4 0.000000 0.000000 0.000000 0.042860 0.000000 0.000000
# 5 0.000000 0.000000 0.000000 0.000000 0.031683 0.000000
# 6 0.000000 0.000000 0.000000 0.000000 0.000000 0.039770
#
#
# Mechanical properties :
#
#
# Convention : Reuss Voigt Hill
#
# Bulk Modulus (GPa) = 65.18037 69.30048 67.24043
# Shear Modulus (GPa) = 24.45853 25.16397 24.81125
#
# Velocity S-wave (km/s) = 3.62831 3.68026 3.65438
# Velocity P-wave (km/s) = 7.25505 7.44040 7.34831
#
# Compressibility (1/GPa) = 0.01534204
#
# Stress axis : x y z
#
# Youngs Moduli (GPa) = 66.98366 51.55407 63.11131
#
# Poissons Ratio (x) = 0.29427 0.42554
# Poissons Ratio (y) = 0.38234 0.31328
# Poissons Ratio (z) = 0.45165 0.25591
#
# Static dielectric constant tensor:
#      x y z
#    x 3.607590 0.000000 0.000000 
#    y 0.000000 3.449820 0.000000 
#    z 0.000000 0.000000 3.392550 
# 
# 
# High freq. dielectric constant tensor:
#      x y z
#    x 1.735710 0.000000 0.000000 
#    y 0.000000 1.712160 0.000000 
#    z 0.000000 0.000000 1.713100 
# 
# From -- ./inp_files/7865.got.cif
#   From: 2010.03.12/outbox.cif.g09.slc.cpg/sg35_4_cif.got.tgz:7865.got - 2010.04.14 02:02:04.
