data_PCOD8172712
_publ_section_title
;
Structure prediction by ZEFSAII (Michael W. Deem and Ramdas Pophale) SiO2 
 PCOD8172712
Probable space group: C M M 2
;
_chemical_formula_sum "Si O2"
_cell_formula_units_Z 64
_cell_length_a 8.867337
_cell_length_b 18.899149
_cell_length_c 20.806720
_cell_angle_alpha 90.000000
_cell_angle_beta 90.000000
_cell_angle_gamma 90.000000
_cell_volume 3486.896735
_symmetry_space_group_name_H-M "C M M 2"
_symmetry_group_IT_number 35
_symmetry_cell_setting 'orthorhombic'
loop_
_space_group_symop_operation_xyz
x,y,z
-x,-y,z
-x,y,z
x,-y,z
1/2+x,1/2+y,z
1/2-x,1/2-y,z
1/2-x,1/2+y,z
1/2+x,1/2-y,z
loop_
_atom_site_type_symbol
_atom_site_label
_atom_site_fract_x
_atom_site_fract_y
_atom_site_fract_z
Si Si1 0.321674 0.919719 0.373050
Si Si2 0.326874 0.417459 0.877543
Si Si3 0.678339 0.172607 0.767294
Si Si4 0.176910 0.418040 0.010816
Si Si5 0.177943 0.326542 0.489565
Si Si6 0.674198 0.824505 0.627894
Si Si7 0.322337 0.580690 0.242290
Si Si8 0.321111 0.327106 0.121697
O O1 0.500000 0.913894 0.368253
O O2 0.256822 0.876367 0.433603
O O3 0.252393 0.889265 0.307220
O O4 0.267902 0.000000 0.382866
O O5 0.500000 0.394509 0.887337
O O6 0.312800 0.500000 0.863392
O O7 0.255925 0.378436 0.817391
O O8 0.233043 0.396146 0.940386
O O9 0.500000 0.177389 0.780440
O O10 0.750000 0.250000 0.773474
O O11 0.713287 0.138056 0.696094
O O12 0.215428 0.500000 0.025096
O O13 0.000000 0.403090 0.015950
O O14 0.265604 0.369257 0.059929
O O15 0.250000 0.250000 0.482238
O O16 0.218089 0.362283 0.559892
O O17 0.000000 0.318460 0.481401
O O18 0.500000 0.807783 0.626746
O O19 0.750000 0.750000 0.627993
O O20 0.500000 0.584514 0.250486
O O21 0.269423 0.500000 0.228668
O O22 0.266514 0.629768 0.184184
O O23 0.500000 0.320416 0.118733
O O24 0.250000 0.250000 0.123706
#
# Coordination Sequence:
#
# PCOD8172712 Si02
#       8
#     8   8   8   8   8   8   8   8
#     4   9  18  32  50  72  99 131 167 208 251 298
#     4  10  21  37  56  78 106 139 173 211 256 305
#     4  10  19  32  52  77 104 135 174 217 261 309
#     4  10  21  38  60  83 106 135 172 211 252 304
#     4   9  17  30  48  71  98 129 167 208 253 302
#     4   8  15  28  46  69  97 130 167 207 251 301
#     4   9  19  36  56  75  98 133 173 209 249 302
#     4  11  23  38  56  80 110 139 170 211 258 304
#
# _framework density 18.354430000000001
#
# number of rings (size 3 to 8) (size 9 to 14) (size 15 to 20)
#    0.000    2.500    0.000    1.875    0.000    5.000 
#    0.000    6.875    0.000    2.250    0.000    1.750 
#    0.000    0.000    0.000    0.000    0.000    0.000 
#
# Total GULP energy -396597.162004 kJ/mol
# GULP energy per Si atom -12393.661313 kJ/mol
# Density = 1.831265 g / cm^3
# Si number density = 18.354430 Si / 1000 Ang^3
#
#
#
# Elastic Constant Matrix: (Units=GPa)
#
#
# Indices 1 2 3 4 5 6 
#
# 1 49.5828 33.5432 42.6485 0.0000 0.0000 0.0000
# 2 33.5432 75.7898 79.2629 0.0000 0.0000 0.0000
# 3 42.6485 79.2629 176.9967 0.0000 0.0000 0.0000
# 4 0.0000 0.0000 0.0000 31.5479 0.0000 0.0000
# 5 0.0000 0.0000 0.0000 0.0000 34.7128 0.0000
# 6 0.0000 0.0000 0.0000 0.0000 0.0000 24.7039
#
#
#
# Elastic Compliance Matrix: (Units=1/GPa)
#
#
# Indices 1 2 3 4 5 6 
#
# 1 0.029301 -0.010504 -0.002357 0.000000 0.000000 0.000000
# 2 -0.010504 0.028583 -0.010269 0.000000 0.000000 0.000000
# 3 -0.002357 -0.010269 0.010816 0.000000 0.000000 0.000000
# 4 0.000000 0.000000 0.000000 0.031698 0.000000 0.000000
# 5 0.000000 0.000000 0.000000 0.000000 0.028808 0.000000
# 6 0.000000 0.000000 0.000000 0.000000 0.000000 0.040479
#
#
# Mechanical properties :
#
#
# Convention : Reuss Voigt Hill
#
# Bulk Modulus (GPa) = 44.55982 68.14207 56.35094
# Shear Modulus (GPa) = 22.37898 27.98724 25.18311
#
# Velocity S-wave (km/s) = 3.49559 3.90913 3.70813
# Velocity P-wave (km/s) = 6.37357 7.58824 7.00727
#
# Compressibility (1/GPa) = 0.02244174
#
# Stress axis : x y z
#
# Youngs Moduli (GPa) = 34.12855 34.98621 92.45258
#
# Poissons Ratio (x) = 0.36748 0.21787
# Poissons Ratio (y) = 0.35847 0.94940
# Poissons Ratio (z) = 0.08043 0.35928
#
# Static dielectric constant tensor:
#      x y z
#    x 3.163470 0.000000 0.000000 
#    y 0.000000 3.231350 0.000000 
#    z 0.000000 0.000000 3.939330 
# 
# 
# High freq. dielectric constant tensor:
#      x y z
#    x 1.715570 0.000000 0.000000 
#    y 0.000000 1.685930 0.000000 
#    z 0.000000 0.000000 1.735750 
# 
# From -- ./inp_files/18341.got.cif
#   From: 2010.03.12/outbox.cif.g09.slc.cpg/sg35_10_cif.got.tgz:18341.got - 2010.04.14 02:02:04.
