data_PCOD8172064
_publ_section_title
;
Structure prediction by ZEFSAII (Michael W. Deem and Ramdas Pophale) SiO2 
 PCOD8172064
Probable space group: P N N 2
;
_chemical_formula_sum "Si O2"
_cell_formula_units_Z 30
_cell_length_a 11.443055
_cell_length_b 8.801497
_cell_length_c 13.804628
_cell_angle_alpha 90.000000
_cell_angle_beta 90.000000
_cell_angle_gamma 90.000000
_cell_volume 1390.347110
_symmetry_space_group_name_H-M "P N N 2"
_symmetry_group_IT_number 34
_symmetry_cell_setting 'orthorhombic'
loop_
_space_group_symop_operation_xyz
x,y,z
-x,-y,z
1/2-x,1/2+y,1/2+z
1/2+x,1/2-y,1/2+z
loop_
_atom_site_type_symbol
_atom_site_label
_atom_site_fract_x
_atom_site_fract_y
_atom_site_fract_z
Si Si1 0.425051 0.804483 0.704520
Si Si2 0.232349 0.029238 0.173148
Si Si3 0.706953 0.070987 0.521655
Si Si4 0.405057 0.211514 0.036689
Si Si5 0.572618 0.348020 0.177943
Si Si6 0.000000 0.500000 0.373530
Si Si7 0.322097 0.211208 0.616023
Si Si8 0.602141 0.115921 0.327388
O O1 0.376409 0.631609 0.710669
O O2 0.349665 0.888304 0.624110
O O3 0.561097 0.813370 0.677414
O O4 0.415609 0.893064 0.807331
O O5 0.190609 0.892353 0.101763
O O6 0.289358 0.952329 0.267164
O O7 0.325034 0.125083 0.113720
O O8 0.842219 0.125695 0.515595
O O9 0.643334 0.158497 0.434978
O O10 0.684480 0.886693 0.514837
O O11 0.529606 0.243418 0.087466
O O12 0.421892 0.111419 0.940510
O O13 0.500000 0.500000 0.180674
O O14 0.711874 0.367439 0.171522
O O15 0.547694 0.265263 0.279283
O O16 0.500000 0.000000 0.336071
#
# Coordination Sequence:
#
# PCOD8172064 Si02
#       8
#     4   4   4   4   4   2   4   4
#     4  11  24  45  66 101 140 190 221 289 358 417
#     4  10  24  42  70  95 144 178 232 288 350 419
#     4  11  24  43  69  97 140 174 233 287 351 418
#     4  11  24  46  64 103 132 184 233 286 348 418
#     4  11  23  43  72  99 136 181 233 295 348 416
#     4  12  24  40  72  96 144 182 240 284 350 428
#     4  11  21  41  69  96 137 183 223 286 354 412
#     4  11  22  40  67 102 134 179 229 289 351 425
#
# _framework density 21.577345000000001
#
# number of rings (size 3 to 8) (size 9 to 14) (size 15 to 20)
#    0.000    1.067    4.000    2.800    3.733    2.133 
#    0.000    5.333    0.000    0.000    0.000    0.000 
#    0.000    0.000    0.000    0.000    0.000    0.000 
#
# Total GULP energy -371755.052150 kJ/mol
# GULP energy per Si atom -12391.835072 kJ/mol
# Density = 2.152823 g / cm^3
# Si number density = 21.577345 Si / 1000 Ang^3
#
#
#
# Elastic Constant Matrix: (Units=GPa)
#
#
# Indices 1 2 3 4 5 6 
#
# 1 119.1467 39.5163 39.6961 0.0000 0.0000 0.0000
# 2 39.5163 109.8069 57.6710 0.0000 0.0000 0.0000
# 3 39.6961 57.6710 112.8801 0.0000 0.0000 0.0000
# 4 0.0000 0.0000 0.0000 -81.0676 0.0000 0.0000
# 5 0.0000 0.0000 0.0000 0.0000 19.4610 0.0000
# 6 0.0000 0.0000 0.0000 0.0000 0.0000 41.4001
#
#
#
# Elastic Compliance Matrix: (Units=1/GPa)
#
#
# Indices 1 2 3 4 5 6 
#
# 1 0.009942 -0.002380 -0.002280 0.000000 0.000000 0.000000
# 2 -0.002380 0.013017 -0.005813 0.000000 0.000000 0.000000
# 3 -0.002280 -0.005813 0.012631 0.000000 0.000000 0.000000
# 4 0.000000 0.000000 0.000000 -0.012335 0.000000 0.000000
# 5 0.000000 0.000000 0.000000 0.000000 0.051385 0.000000
# 6 0.000000 0.000000 0.000000 0.000000 0.000000 0.024155
#
#
# Mechanical properties :
#
#
# Convention : Reuss Voigt Hill
#
# Bulk Modulus (GPa) = 68.29582 68.40005 68.34793
# Shear Modulus (GPa) = 40.12148 9.62207 24.87177
#
# Velocity S-wave (km/s) = 4.31678 2.11401 3.39880
# Velocity P-wave (km/s) = 7.52107 6.14227 6.86637
#
# Compressibility (1/GPa) = 0.01464218
#
# Stress axis : x y z
#
# Youngs Moduli (GPa) = 100.58170 76.82500 79.17155
#
# Poissons Ratio (x) = 0.18287 0.18053
# Poissons Ratio (y) = 0.23942 0.46024
# Poissons Ratio (z) = 0.22935 0.44660
#
# Static dielectric constant tensor:
#      x y z
#    x 4.073510 0.000000 0.000000 
#    y 0.000000 4.712580 0.000000 
#    z 0.000000 0.000000 4.649820 
# 
# 
# High freq. dielectric constant tensor:
#      x y z
#    x 1.854060 0.000000 0.000000 
#    y 0.000000 1.862650 0.000000 
#    z 0.000000 0.000000 1.826550 
# 
# From -- ./inp_files/6796.got.cif
#   From: 2010.03.12/outbox.cif.g09.slc.cpg/sg34_4_cif.got.tgz:6796.got - 2010.04.14 01:56:33.
