data_PCOD8172196
_publ_section_title
;
Structure prediction by ZEFSAII (Michael W. Deem and Ramdas Pophale) SiO2 
 PCOD8172196
Probable space group: C M M 2
;
_chemical_formula_sum "Si O2"
_cell_formula_units_Z 64
_cell_length_a 8.922870
_cell_length_b 30.475221
_cell_length_c 15.188262
_cell_angle_alpha 90.000000
_cell_angle_beta 90.000000
_cell_angle_gamma 90.000000
_cell_volume 4130.089943
_symmetry_space_group_name_H-M "C M M 2"
_symmetry_group_IT_number 35
_symmetry_cell_setting 'orthorhombic'
loop_
_space_group_symop_operation_xyz
x,y,z
-x,-y,z
-x,y,z
x,-y,z
1/2+x,1/2+y,z
1/2-x,1/2-y,z
1/2-x,1/2+y,z
1/2+x,1/2-y,z
loop_
_atom_site_type_symbol
_atom_site_label
_atom_site_fract_x
_atom_site_fract_y
_atom_site_fract_z
Si Si1 0.829971 0.387070 0.671070
Si Si2 0.673909 0.209446 0.683304
Si Si3 0.832939 0.447854 0.177546
Si Si4 0.823636 0.618200 0.875134
Si Si5 0.821991 0.793429 0.872335
Si Si6 0.322554 0.451270 0.539869
Si Si7 0.833305 0.052190 0.347305
Si Si8 0.826333 0.948509 0.001284
O O1 0.811675 0.337210 0.634039
O O2 0.782224 0.389126 0.772949
O O3 0.724706 0.418432 0.615816
O O4 0.000000 0.403125 0.659439
O O5 0.500000 0.219006 0.705724
O O6 0.750000 0.250000 0.628289
O O7 0.771160 0.206549 0.771431
O O8 0.835048 0.500000 0.182708
O O9 0.769320 0.428407 0.269232
O O10 0.000000 0.429260 0.163314
O O11 0.729249 0.432437 0.096909
O O12 0.741832 0.661507 0.914357
O O13 0.768026 0.575590 0.926446
O O14 0.000000 0.624735 0.886938
O O15 0.750000 0.750000 0.918737
O O16 0.000000 0.792189 0.882072
O O17 0.500000 0.453264 0.535933
O O18 0.259133 0.500000 0.560842
O O19 0.265482 0.435067 0.443379
O O20 0.000000 0.071789 0.335269
O O21 0.841413 0.000000 0.341086
O O22 0.000000 0.936535 0.991983
O O23 0.797147 0.000000 0.988644
#
# Coordination Sequence:
#
# PCOD8172196 Si02
#       8
#     8   8   8   8   8   8   8   8
#     4   9  19  31  42  59  84 113 144 178 214 251
#     4   9  16  27  42  61  82 105 136 174 217 260
#     4   9  16  26  42  63  83 105 135 172 215 259
#     4  10  20  33  45  60  85 116 150 185 218 253
#     4  10  17  27  44  64  84 107 137 174 218 262
#     4   9  18  30  43  60  83 113 148 181 211 247
#     4   8  14  26  42  59  80 105 134 172 215 253
#     4  10  20  32  45  62  85 115 149 182 216 255
#
# _framework density 15.496031
#
# number of rings (size 3 to 8) (size 9 to 14) (size 15 to 20)
#    0.000    2.750    0.000    4.875    0.000    6.500 
#    0.000    3.750    0.000    0.000    0.000    0.000 
#    0.000    1.000    0.000    7.000    0.000    6.375 
#
# Total GULP energy -396566.720045 kJ/mol
# GULP energy per Si atom -12392.710001 kJ/mol
# Density = 1.546076 g / cm^3
# Si number density = 15.496031 Si / 1000 Ang^3
#
#
#
# Elastic Constant Matrix: (Units=GPa)
#
#
# Indices 1 2 3 4 5 6 
#
# 1 88.7081 37.1851 37.0357 0.0000 0.0000 0.0000
# 2 37.1851 70.3120 41.3924 0.0000 0.0000 0.0000
# 3 37.0357 41.3924 73.0664 0.0000 0.0000 0.0000
# 4 0.0000 0.0000 0.0000 0.1570 0.0000 0.0000
# 5 0.0000 0.0000 0.0000 0.0000 22.3718 0.0000
# 6 0.0000 0.0000 0.0000 0.0000 0.0000 26.0524
#
#
#
# Elastic Compliance Matrix: (Units=1/GPa)
#
#
# Indices 1 2 3 4 5 6 
#
# 1 0.015544 -0.005375 -0.004834 0.000000 0.000000 0.000000
# 2 -0.005375 0.023197 -0.010417 0.000000 0.000000 0.000000
# 3 -0.004834 -0.010417 0.022038 0.000000 0.000000 0.000000
# 4 0.000000 0.000000 0.000000 6.370384 0.000000 0.000000
# 5 0.000000 0.000000 0.000000 0.000000 0.044699 0.000000
# 6 0.000000 0.000000 0.000000 0.000000 0.000000 0.038384
#
#
# Mechanical properties :
#
#
# Convention : Reuss Voigt Hill
#
# Bulk Modulus (GPa) = 51.21021 51.47919 51.34470
# Shear Modulus (GPa) = 0.76196 17.48113 9.12154
#
# Velocity S-wave (km/s) = 0.70198 3.36237 2.42882
# Velocity P-wave (km/s) = 5.81172 6.95464 6.40871
#
# Compressibility (1/GPa) = 0.01952736
#
# Stress axis : x y z
#
# Youngs Moduli (GPa) = 64.33249 43.10849 45.37667
#
# Poissons Ratio (x) = 0.23170 0.21936
# Poissons Ratio (y) = 0.34578 0.47269
# Poissons Ratio (z) = 0.31099 0.44906
#
# Static dielectric constant tensor:
#      x y z
#    x 3.077530 0.000000 0.000000 
#    y 0.000000 3.154930 0.000000 
#    z 0.000000 0.000000 2.835290 
# 
# 
# High freq. dielectric constant tensor:
#      x y z
#    x 1.606980 0.000000 0.000000 
#    y 0.000000 1.571210 0.000000 
#    z 0.000000 0.000000 1.560890 
# 
# From -- ./inp_files/16163.got.cif
#   From: 2010.03.12/outbox.cif.g09.slc.cpg/sg35_9_cif.got.tgz:16163.got - 2010.04.14 02:02:04.
