data_PCOD8172630
_publ_section_title
;
Structure prediction by ZEFSAII (Michael W. Deem and Ramdas Pophale) SiO2 
 PCOD8172630
Probable space group: C M M 2
;
_chemical_formula_sum "Si O2"
_cell_formula_units_Z 56
_cell_length_a 15.770319
_cell_length_b 18.526722
_cell_length_c 9.853982
_cell_angle_alpha 90.000000
_cell_angle_beta 90.000000
_cell_angle_gamma 90.000000
_cell_volume 2879.060742
_symmetry_space_group_name_H-M "C M M 2"
_symmetry_group_IT_number 35
_symmetry_cell_setting 'orthorhombic'
loop_
_space_group_symop_operation_xyz
x,y,z
-x,-y,z
-x,y,z
x,-y,z
1/2+x,1/2+y,z
1/2-x,1/2-y,z
1/2-x,1/2+y,z
1/2+x,1/2-y,z
loop_
_atom_site_type_symbol
_atom_site_label
_atom_site_fract_x
_atom_site_fract_y
_atom_site_fract_z
Si Si1 0.870686 0.079441 0.986110
Si Si2 0.596432 0.843865 0.820873
Si Si3 0.256247 0.832939 0.321283
Si Si4 0.817720 0.585389 0.066732
Si Si5 0.092854 0.080758 0.291651
Si Si6 0.239139 0.333172 0.626348
Si Si7 0.908456 0.178442 0.753419
O O1 0.771933 0.099997 0.997254
O O2 0.918503 0.133726 0.889975
O O3 0.879816 0.000000 0.923660
O O4 0.915159 0.083618 0.130418
O O5 0.500000 0.866396 0.780622
O O6 0.612962 0.874740 0.972577
O O7 0.667872 0.874976 0.716523
O O8 0.609164 0.758539 0.809250
O O9 0.250000 0.750000 0.273425
O O10 0.160917 0.861692 0.340351
O O11 0.294075 0.841296 0.472297
O O12 0.314386 0.878412 0.217009
O O13 0.837949 0.500000 0.082260
O O14 0.000000 0.099417 0.352425
O O15 0.121549 0.000000 0.336151
O O16 0.250000 0.250000 0.664883
O O17 0.335606 0.359474 0.659690
O O18 0.000000 0.176055 0.676440
#
# Coordination Sequence:
#
# PCOD8172630 Si02
#       7
#     8   8   8   8   8   8   8
#     4   9  17  30  50  79 114 148 178 217 273 331
#     4  10  21  37  61  83 105 147 197 243 289 337
#     4  10  21  35  57  83 114 155 191 231 285 345
#     4  10  21  37  57  82 112 147 186 238 290 335
#     4   9  18  33  53  78 114 153 185 223 274 340
#     4   9  19  37  55  80 118 152 186 233 285 341
#     4  10  19  31  55  86 116 147 184 230 280 334
#
# _framework density 19.450786999999998
#
# number of rings (size 3 to 8) (size 9 to 14) (size 15 to 20)
#    0.000    2.429    1.429    1.714    4.000    1.714 
#    0.000    5.714    0.000    0.000    0.000    0.000 
#    0.000    0.000    0.000    0.000    0.000    0.000 
#
# Total GULP energy -346870.882510 kJ/mol
# GULP energy per Si atom -12388.245804 kJ/mol
# Density = 1.940652 g / cm^3
# Si number density = 19.450787 Si / 1000 Ang^3
#
#
#
# Elastic Constant Matrix: (Units=GPa)
#
#
# Indices 1 2 3 4 5 6 
#
# 1 124.0002 32.4939 39.8629 0.0000 0.0000 0.0000
# 2 32.4939 65.0952 22.6313 0.0000 0.0000 0.0000
# 3 39.8629 22.6313 85.3867 0.0000 0.0000 0.0000
# 4 0.0000 0.0000 0.0000 -8.1122 0.0000 0.0000
# 5 0.0000 0.0000 0.0000 0.0000 10.3971 0.0000
# 6 0.0000 0.0000 0.0000 0.0000 0.0000 21.9047
#
#
#
# Elastic Compliance Matrix: (Units=1/GPa)
#
#
# Indices 1 2 3 4 5 6 
#
# 1 0.010282 -0.003815 -0.003789 0.000000 0.000000 0.000000
# 2 -0.003815 0.018337 -0.003079 0.000000 0.000000 0.000000
# 3 -0.003789 -0.003079 0.014296 0.000000 0.000000 0.000000
# 4 0.000000 0.000000 0.000000 -0.123271 0.000000 0.000000
# 5 0.000000 0.000000 0.000000 0.000000 0.096181 0.000000
# 6 0.000000 0.000000 0.000000 0.000000 0.000000 0.045652
#
#
# Mechanical properties :
#
#
# Convention : Reuss Voigt Hill
#
# Bulk Modulus (GPa) = 46.40568 51.60647 49.00608
# Shear Modulus (GPa) = 55.53820 16.80418 36.17119
#
# Velocity S-wave (km/s) = 5.34932 2.94246 4.31702
# Velocity P-wave (km/s) = 7.87803 6.17524 7.07803
#
# Compressibility (1/GPa) = 0.02154909
#
# Stress axis : x y z
#
# Youngs Moduli (GPa) = 97.25341 54.53425 69.94747
#
# Poissons Ratio (x) = 0.20807 0.26504
# Poissons Ratio (y) = 0.37106 0.21536
# Poissons Ratio (z) = 0.36850 0.16791
#
# Static dielectric constant tensor:
#      x y z
#    x 3.812960 0.000000 0.000000 
#    y 0.000000 3.442440 0.000000 
#    z 0.000000 0.000000 3.331050 
# 
# 
# High freq. dielectric constant tensor:
#      x y z
#    x 1.757530 0.000000 0.000000 
#    y 0.000000 1.741020 0.000000 
#    z 0.000000 0.000000 1.740810 
# 
# From -- ./inp_files/8671.got.cif
#   From: 2010.03.12/outbox.cif.g09.slc.cpg/sg35_5_cif.got.tgz:8671.got - 2010.04.14 02:02:04.
