data_PCOD8172683
_publ_section_title
;
Structure prediction by ZEFSAII (Michael W. Deem and Ramdas Pophale) SiO2 
 PCOD8172683
Probable space group: C M M 2
;
_chemical_formula_sum "Si O2"
_cell_formula_units_Z 40
_cell_length_a 25.967725
_cell_length_b 9.141078
_cell_length_c 9.309452
_cell_angle_alpha 90.000000
_cell_angle_beta 90.000000
_cell_angle_gamma 90.000000
_cell_volume 2209.812547
_symmetry_space_group_name_H-M "C M M 2"
_symmetry_group_IT_number 35
_symmetry_cell_setting 'orthorhombic'
loop_
_space_group_symop_operation_xyz
x,y,z
-x,-y,z
-x,y,z
x,-y,z
1/2+x,1/2+y,z
1/2-x,1/2-y,z
1/2-x,1/2+y,z
1/2+x,1/2-y,z
loop_
_atom_site_type_symbol
_atom_site_label
_atom_site_fract_x
_atom_site_fract_y
_atom_site_fract_z
Si Si1 0.700497 0.334856 0.825630
Si Si2 0.000000 0.668881 0.000879
Si Si3 0.703067 0.660041 0.484534
Si Si4 0.908891 0.825935 0.506429
Si Si5 0.596649 0.827012 0.804104
Si Si6 0.000000 0.828370 0.300344
O O1 0.697806 0.500000 0.888919
O O2 0.750000 0.250000 0.891331
O O3 0.706722 0.343132 0.655555
O O4 0.648594 0.247103 0.865313
O O5 0.000000 0.500000 0.041220
O O6 0.000000 0.757293 0.146516
O O7 0.050898 0.710297 0.912840
O O8 0.709287 0.500000 0.418364
O O9 0.750000 0.750000 0.415940
O O10 0.646857 0.723043 0.443581
O O11 0.920545 0.740529 0.652541
O O12 0.950105 0.777799 0.388804
O O13 0.909582 0.000000 0.539457
O O14 0.605747 0.000000 0.786261
O O15 0.000000 0.000000 0.278210
#
# Coordination Sequence:
#
# PCOD8172683 Si02
#       6
#     8   4   8   8   8   4
#     4   9  16  27  45  72 103 132 162 202 248 295
#     4  10  23  38  50  70 102 134 169 212 256 302
#     4   8  14  24  40  65  97 124 149 186 233 282
#     4   9  18  32  50  75 101 125 161 209 251 295
#     4  10  19  32  51  75 102 134 169 207 250 298
#     4  10  21  36  54  72  94 128 169 212 258 302
#
# _framework density 18.101084
#
# number of rings (size 3 to 8) (size 9 to 14) (size 15 to 20)
#    0.000    2.800    0.000    3.000    0.000    7.200 
#    0.000    0.000    0.000    1.200    0.000    5.600 
#    0.000    0.000    0.000    0.000    0.000    0.000 
#
# Total GULP energy -247918.570056 kJ/mol
# GULP energy per Si atom -12395.928503 kJ/mol
# Density = 1.805988 g / cm^3
# Si number density = 18.101084 Si / 1000 Ang^3
#
#
#
# Elastic Constant Matrix: (Units=GPa)
#
#
# Indices 1 2 3 4 5 6 
#
# 1 179.3216 69.8714 65.2677 0.0000 0.0000 0.0000
# 2 69.8714 90.9927 43.3530 0.0000 0.0000 0.0000
# 3 65.2677 43.3530 69.6011 0.0000 0.0000 0.0000
# 4 0.0000 0.0000 0.0000 22.7930 0.0000 0.0000
# 5 0.0000 0.0000 0.0000 0.0000 -1.3689 0.0000
# 6 0.0000 0.0000 0.0000 0.0000 0.0000 33.8684
#
#
#
# Elastic Compliance Matrix: (Units=1/GPa)
#
#
# Indices 1 2 3 4 5 6 
#
# 1 0.009544 -0.004358 -0.006235 0.000000 0.000000 0.000000
# 2 -0.004358 0.017617 -0.006887 0.000000 0.000000 0.000000
# 3 -0.006235 -0.006887 0.024505 0.000000 0.000000 0.000000
# 4 0.000000 0.000000 0.000000 0.043873 0.000000 0.000000
# 5 0.000000 0.000000 0.000000 0.000000 -0.730536 0.000000
# 6 0.000000 0.000000 0.000000 0.000000 0.000000 0.029526
#
#
# Mechanical properties :
#
#
# Convention : Reuss Voigt Hill
#
# Bulk Modulus (GPa) = 59.86047 77.43328 68.64688
# Shear Modulus (GPa) = -8.85047 21.82006 6.48479
#
# Velocity S-wave (km/s) = -2.21361 3.47573 1.89481
# Velocity P-wave (km/s) = 5.15834 7.67976 6.54168
#
# Compressibility (1/GPa) = 0.01670552
#
# Stress axis : x y z
#
# Youngs Moduli (GPa) = 104.77665 56.76189 40.80872
#
# Poissons Ratio (x) = 0.24736 0.25446
# Poissons Ratio (y) = 0.45660 0.28105
# Poissons Ratio (z) = 0.65333 0.39092
#
# Static dielectric constant tensor:
#      x y z
#    x 3.760170 0.000000 0.000000 
#    y 0.000000 3.487150 0.000000 
#    z 0.000000 0.000000 2.796890 
# 
# 
# High freq. dielectric constant tensor:
#      x y z
#    x 1.725750 0.000000 0.000000 
#    y 0.000000 1.705030 0.000000 
#    z 0.000000 0.000000 1.642750 
# 
# From -- ./inp_files/5008.got.cif
#   From: 2010.03.12/outbox.cif.g09.slc.cpg/sg35_3_cif.got.tgz:5008.got - 2010.04.14 02:02:04.
