data_PCOD8172555
_publ_section_title
;
Structure prediction by ZEFSAII (Michael W. Deem and Ramdas Pophale) SiO2 
 PCOD8172555
Probable space group: C M M 2
;
_chemical_formula_sum "Si O2"
_cell_formula_units_Z 64
_cell_length_a 8.882353
_cell_length_b 31.316836
_cell_length_c 12.096615
_cell_angle_alpha 90.000000
_cell_angle_beta 90.000000
_cell_angle_gamma 90.000000
_cell_volume 3364.881430
_symmetry_space_group_name_H-M "C M M 2"
_symmetry_group_IT_number 35
_symmetry_cell_setting 'orthorhombic'
loop_
_space_group_symop_operation_xyz
x,y,z
-x,-y,z
-x,y,z
x,-y,z
1/2+x,1/2+y,z
1/2-x,1/2-y,z
1/2-x,1/2+y,z
1/2+x,1/2-y,z
loop_
_atom_site_type_symbol
_atom_site_label
_atom_site_fract_x
_atom_site_fract_y
_atom_site_fract_z
Si Si1 0.821444 0.206484 0.650590
Si Si2 0.320792 0.452811 0.648067
Si Si3 0.820792 0.047189 0.182312
Si Si4 0.320542 0.579721 0.415189
Si Si5 0.678556 0.293516 0.179789
Si Si6 0.320601 0.625680 0.039710
Si Si7 0.321289 0.675580 0.415189
Si Si8 0.820601 0.125680 0.790669
O O1 0.750000 0.250000 0.697123
O O2 0.763962 0.199637 0.524863
O O3 0.762796 0.167342 0.725408
O O4 0.000000 0.209895 0.656522
O O5 0.500000 0.450386 0.647509
O O6 0.266482 0.500000 0.685777
O O7 0.260082 0.444125 0.524295
O O8 0.256911 0.417070 0.731816
O O9 0.760081 0.055875 0.306083
O O10 0.756911 0.082930 0.098562
O O11 0.000000 0.049614 0.182870
O O12 0.766482 0.000000 0.144602
O O13 0.500000 0.580387 0.415190
O O14 0.256385 0.627722 0.415189
O O15 0.500000 0.290105 0.173858
O O16 0.750000 0.250000 0.133255
O O17 0.737203 0.332658 0.104971
O O18 0.736040 0.300363 0.305516
O O19 0.500000 0.624838 0.040359
O O20 0.257399 0.627150 0.915189
O O21 0.500000 0.673155 0.415188
O O22 0.000000 0.124838 0.790019
#
# Coordination Sequence:
#
# PCOD8172555 Si02
#       8
#     8   8   8   8   8   8   8   8
#     4  10  19  31  47  66  88 116 149 183 221 262
#     4   9  15  22  35  56  82 113 146 177 212 259
#     4   9  15  22  35  56  82 113 146 177 212 259
#     4   9  13  21  36  55  80 111 144 175 213 261
#     4  10  19  31  47  66  88 116 149 183 221 262
#     4   9  17  28  40  56  82 116 149 179 216 262
#     4   9  15  26  44  62  84 115 146 177 218 266
#     4   9  17  28  40  56  82 116 149 179 216 262
#
# _framework density 19.019985999999999
#
# number of rings (size 3 to 8) (size 9 to 14) (size 15 to 20)
#    0.000    2.750    2.500    0.750    0.000    2.500 
#    0.000    2.500    0.000    0.000    0.000    0.000 
#    0.000    1.000    0.000    4.500    0.000    5.000 
#
# Total GULP energy -396664.726580 kJ/mol
# GULP energy per Si atom -12395.772706 kJ/mol
# Density = 1.897670 g / cm^3
# Si number density = 19.019986 Si / 1000 Ang^3
#
#
#
# Elastic Constant Matrix: (Units=GPa)
#
#
# Indices 1 2 3 4 5 6 
#
# 1 4.4811 12.8146 9.2050 0.0000 0.0000 0.0000
# 2 12.8146 199.8772 90.2901 0.0000 0.0000 0.0000
# 3 9.2050 90.2901 165.3119 0.0000 0.0000 0.0000
# 4 0.0000 0.0000 0.0000 19.0965 0.0000 0.0000
# 5 0.0000 0.0000 0.0000 0.0000 4.6217 0.0000
# 6 0.0000 0.0000 0.0000 0.0000 0.0000 16.6638
#
#
#
# Elastic Compliance Matrix: (Units=1/GPa)
#
#
# Indices 1 2 3 4 5 6 
#
# 1 0.280438 -0.014504 -0.007694 0.000000 0.000000 0.000000
# 2 -0.014504 0.007392 -0.003230 0.000000 0.000000 0.000000
# 3 -0.007694 -0.003230 0.008242 0.000000 0.000000 0.000000
# 4 0.000000 0.000000 0.000000 0.052366 0.000000 0.000000
# 5 0.000000 0.000000 0.000000 0.000000 0.216372 0.000000
# 6 0.000000 0.000000 0.000000 0.000000 0.000000 0.060010
#
#
# Mechanical properties :
#
#
# Convention : Reuss Voigt Hill
#
# Bulk Modulus (GPa) = 4.07803 66.03221 35.05512
# Shear Modulus (GPa) = 6.60142 25.23377 15.91759
#
# Velocity S-wave (km/s) = 1.86502 3.64634 2.89604
# Velocity P-wave (km/s) = 2.60509 7.24709 5.44549
#
# Compressibility (1/GPa) = 0.24521674
#
# Stress axis : x y z
#
# Youngs Moduli (GPa) = 3.56585 135.28294 121.33624
#
# Poissons Ratio (x) = 1.96217 0.93351
# Poissons Ratio (y) = 0.05172 0.39188
# Poissons Ratio (z) = 0.02743 0.43692
#
# Static dielectric constant tensor:
#      x y z
#    x 2.564380 0.000000 0.000000 
#    y 0.000000 3.730080 0.000000 
#    z 0.000000 0.000000 3.714000 
# 
# 
# High freq. dielectric constant tensor:
#      x y z
#    x 1.642450 0.000000 0.000000 
#    y 0.000000 1.759030 0.000000 
#    z 0.000000 0.000000 1.743410 
# 
# From -- ./inp_files/12605.got.cif
#   From: 2010.03.12/outbox.cif.g09.slc.cpg/sg35_7_cif.got.tgz:12605.got - 2010.04.14 02:02:04.
