data_PCOD8172873
_publ_section_title
;
Structure prediction by ZEFSAII (Michael W. Deem and Ramdas Pophale) SiO2 
 PCOD8172873
Probable space group: C M M 2
;
_chemical_formula_sum "Si O2"
_cell_formula_units_Z 40
_cell_length_a 8.558632
_cell_length_b 25.759353
_cell_length_c 9.248516
_cell_angle_alpha 90.000000
_cell_angle_beta 90.000000
_cell_angle_gamma 90.000000
_cell_volume 2038.972442
_symmetry_space_group_name_H-M "C M M 2"
_symmetry_group_IT_number 35
_symmetry_cell_setting 'orthorhombic'
loop_
_space_group_symop_operation_xyz
x,y,z
-x,-y,z
-x,y,z
x,-y,z
1/2+x,1/2+y,z
1/2-x,1/2-y,z
1/2-x,1/2+y,z
1/2+x,1/2-y,z
loop_
_atom_site_type_symbol
_atom_site_label
_atom_site_fract_x
_atom_site_fract_y
_atom_site_fract_z
Si Si1 0.815811 0.194741 0.464530
Si Si2 0.685548 0.000000 0.459478
Si Si3 0.685303 0.901524 0.960439
Si Si4 0.314894 0.805277 0.776715
Si Si5 0.314214 0.101108 0.289121
Si Si6 0.313267 0.000000 0.786174
O O1 0.750000 0.250000 0.411996
O O2 0.745575 0.178945 0.619022
O O3 0.767982 0.152279 0.347987
O O4 0.000000 0.198922 0.478936
O O5 0.746336 0.948758 0.377765
O O6 0.751401 0.000000 0.622490
O O7 0.500000 0.000000 0.458513
O O8 0.500000 0.903539 0.954743
O O9 0.745812 0.847992 0.890322
O O10 0.753048 0.949563 0.868533
O O11 0.742898 0.905911 0.124723
O O12 0.500000 0.802738 0.770458
O O13 0.250000 0.750000 0.828371
O O14 0.500000 0.107606 0.300596
O O15 0.500000 0.000000 0.785010
#
# Coordination Sequence:
#
# PCOD8172873 Si02
#       6
#     8   4   8   8   8   4
#     4  11  22  37  56  79 105 140 180 224 269 318
#     4   9  17  29  54  83 110 143 180 218 260 309
#     4   9  18  30  50  78 110 140 173 216 264 312
#     4  10  19  34  54  78 105 138 177 221 264 314
#     4  10  19  34  54  81 112 144 178 218 265 317
#     4   9  15  27  47  77 108 137 174 218 260 305
#
# _framework density 19.617726000000001
#
# number of rings (size 3 to 8) (size 9 to 14) (size 15 to 20)
#    0.000    2.200    0.000    5.400    0.000    6.400 
#    0.000    4.500    0.000    0.000    0.000    4.900 
#    0.000    0.000    0.000    0.000    0.000    0.000 
#
# Total GULP energy -248035.366240 kJ/mol
# GULP energy per Si atom -12401.768312 kJ/mol
# Density = 1.957307 g / cm^3
# Si number density = 19.617726 Si / 1000 Ang^3
#
#
#
# Elastic Constant Matrix: (Units=GPa)
#
#
# Indices 1 2 3 4 5 6 
#
# 1 58.2684 31.4050 22.2155 0.0000 0.0000 0.0000
# 2 31.4050 174.2843 114.0224 0.0000 0.0000 0.0000
# 3 22.2155 114.0224 172.5256 0.0000 0.0000 0.0000
# 4 0.0000 0.0000 0.0000 36.5924 0.0000 0.0000
# 5 0.0000 0.0000 0.0000 0.0000 17.0931 0.0000
# 6 0.0000 0.0000 0.0000 0.0000 0.0000 25.1185
#
#
#
# Elastic Compliance Matrix: (Units=1/GPa)
#
#
# Indices 1 2 3 4 5 6 
#
# 1 0.019018 -0.003215 -0.000324 0.000000 0.000000 0.000000
# 2 -0.003215 0.010652 -0.006626 0.000000 0.000000 0.000000
# 3 -0.000324 -0.006626 0.010217 0.000000 0.000000 0.000000
# 4 0.000000 0.000000 0.000000 0.027328 0.000000 0.000000
# 5 0.000000 0.000000 0.000000 0.000000 0.058503 0.000000
# 6 0.000000 0.000000 0.000000 0.000000 0.000000 0.039811
#
#
# Mechanical properties :
#
#
# Convention : Reuss Voigt Hill
#
# Bulk Modulus (GPa) = 51.13181 82.26269 66.69725
# Shear Modulus (GPa) = 25.99039 31.58984 28.79011
#
# Velocity S-wave (km/s) = 3.64379 4.01717 3.83503
# Velocity P-wave (km/s) = 6.61994 7.97125 7.32681
#
# Compressibility (1/GPa) = 0.01955730
#
# Stress axis : x y z
#
# Youngs Moduli (GPa) = 52.58100 93.87963 97.87543
#
# Poissons Ratio (x) = 0.30181 0.03173
# Poissons Ratio (y) = 0.16904 0.64851
# Poissons Ratio (z) = 0.01705 0.62204
#
# Static dielectric constant tensor:
#      x y z
#    x 3.152250 0.000000 0.000000 
#    y 0.000000 3.817120 0.000000 
#    z 0.000000 0.000000 3.734740 
# 
# 
# High freq. dielectric constant tensor:
#      x y z
#    x 1.724090 0.000000 0.000000 
#    y 0.000000 1.782000 0.000000 
#    z 0.000000 0.000000 1.770710 
# 
# From -- ./inp_files/5018.got.cif
#   From: 2010.03.12/outbox.cif.g09.slc.cpg/sg35_3_cif.got.tgz:5018.got - 2010.04.14 02:02:04.
