data_PCOD8172260
_publ_section_title
;
Structure prediction by ZEFSAII (Michael W. Deem and Ramdas Pophale) SiO2 
 PCOD8172260
Probable space group: C M M 2
;
_chemical_formula_sum "Si O2"
_cell_formula_units_Z 44
_cell_length_a 9.830560
_cell_length_b 23.269311
_cell_length_c 11.617218
_cell_angle_alpha 90.000000
_cell_angle_beta 90.000000
_cell_angle_gamma 90.000000
_cell_volume 2657.442776
_symmetry_space_group_name_H-M "C M M 2"
_symmetry_group_IT_number 35
_symmetry_cell_setting 'orthorhombic'
loop_
_space_group_symop_operation_xyz
x,y,z
-x,-y,z
-x,y,z
x,-y,z
1/2+x,1/2+y,z
1/2-x,1/2-y,z
1/2-x,1/2+y,z
1/2+x,1/2-y,z
loop_
_atom_site_type_symbol
_atom_site_label
_atom_site_fract_x
_atom_site_fract_y
_atom_site_fract_z
Si Si1 0.847895 0.646878 0.368920
Si Si2 0.345281 0.434703 0.498790
Si Si3 0.250000 0.250000 0.519187
Si Si4 0.659276 0.193188 0.875598
Si Si5 0.849417 0.844433 0.688541
Si Si6 0.347272 0.802875 0.130487
O O1 0.745484 0.597609 0.405846
O O2 0.834529 0.707535 0.436314
O O3 0.819430 0.652667 0.232622
O O4 0.000000 0.624639 0.391118
O O5 0.500000 0.431827 0.454443
O O6 0.295184 0.500000 0.512608
O O7 0.330772 0.403833 0.621183
O O8 0.158353 0.210237 0.602198
O O9 0.500000 0.204135 0.844111
O O10 0.750000 0.250000 0.865866
O O11 0.729235 0.151383 0.783006
O O12 0.673236 0.167607 0.004839
O O13 0.000000 0.841915 0.745590
O O14 0.500000 0.778338 0.139212
O O15 0.250000 0.750000 0.147439
#
# Coordination Sequence:
#
# PCOD8172260 Si02
#       6
#     8   8   4   8   8   8
#     4  10  19  31  50  74 100 129 162 200 240 290
#     4   9  20  37  53  71  96 127 163 204 249 291
#     4  10  18  28  46  70 104 126 158 188 244 288
#     4  10  19  30  46  68  99 132 162 195 234 283
#     4  10  19  30  48  71  97 128 160 197 241 289
#     4   9  18  31  46  69  99 131 162 194 233 282
#
# _framework density 16.557271
#
# number of rings (size 3 to 8) (size 9 to 14) (size 15 to 20)
#    0.000    2.364    1.818    1.091    0.000    5.455 
#    0.000    0.000    0.000    1.091    0.000    5.091 
#    0.000    0.000    0.000    0.000    0.000    0.000 
#
# Total GULP energy -272635.401758 kJ/mol
# GULP energy per Si atom -12392.518262 kJ/mol
# Density = 1.651959 g / cm^3
# Si number density = 16.557271 Si / 1000 Ang^3
#
#
#
# Elastic Constant Matrix: (Units=GPa)
#
#
# Indices 1 2 3 4 5 6 
#
# 1 122.4218 48.8062 71.3902 0.0000 0.0000 0.0000
# 2 48.8062 98.5414 44.5894 0.0000 0.0000 0.0000
# 3 71.3902 44.5894 111.4996 0.0000 0.0000 0.0000
# 4 0.0000 0.0000 0.0000 10.1389 0.0000 0.0000
# 5 0.0000 0.0000 0.0000 0.0000 27.3259 0.0000
# 6 0.0000 0.0000 0.0000 0.0000 0.0000 20.1593
#
#
#
# Elastic Compliance Matrix: (Units=1/GPa)
#
#
# Indices 1 2 3 4 5 6 
#
# 1 0.013961 -0.003504 -0.007538 0.000000 0.000000 0.000000
# 2 -0.003504 0.013269 -0.003063 0.000000 0.000000 0.000000
# 3 -0.007538 -0.003063 0.015020 0.000000 0.000000 0.000000
# 4 0.000000 0.000000 0.000000 0.098631 0.000000 0.000000
# 5 0.000000 0.000000 0.000000 0.000000 0.036595 0.000000
# 6 0.000000 0.000000 0.000000 0.000000 0.000000 0.049605
#
#
# Mechanical properties :
#
#
# Convention : Reuss Voigt Hill
#
# Bulk Modulus (GPa) = 71.22026 73.55937 72.38982
# Shear Modulus (GPa) = 19.23297 22.70328 20.96813
#
# Velocity S-wave (km/s) = 3.41193 3.70699 3.56251
# Velocity P-wave (km/s) = 7.65699 7.92755 7.79344
#
# Compressibility (1/GPa) = 0.01404095
#
# Stress axis : x y z
#
# Youngs Moduli (GPa) = 71.62848 75.36083 66.57940
#
# Poissons Ratio (x) = 0.26406 0.50185
# Poissons Ratio (y) = 0.25098 0.20394
# Poissons Ratio (z) = 0.53990 0.23083
#
# Static dielectric constant tensor:
#      x y z
#    x 3.284550 0.000000 0.000000 
#    y 0.000000 2.816120 0.000000 
#    z 0.000000 0.000000 3.393990 
# 
# 
# High freq. dielectric constant tensor:
#      x y z
#    x 1.652310 0.000000 0.000000 
#    y 0.000000 1.593550 0.000000 
#    z 0.000000 0.000000 1.644000 
# 
# From -- ./inp_files/11408.got.cif
#   From: 2010.03.12/outbox.cif.g09.slc.cpg/sg35_6_cif.got.tgz:11408.got - 2010.04.14 02:02:04.
