data_PCOD8172132
_publ_section_title
;
Structure prediction by ZEFSAII (Michael W. Deem and Ramdas Pophale) SiO2 
 PCOD8172132
Probable space group: P N N 2
;
_chemical_formula_sum "Si O2"
_cell_formula_units_Z 20
_cell_length_a 15.072557
_cell_length_b 4.767709
_cell_length_c 11.626255
_cell_angle_alpha 90.000000
_cell_angle_beta 90.000000
_cell_angle_gamma 90.000000
_cell_volume 835.480887
_symmetry_space_group_name_H-M "P N N 2"
_symmetry_group_IT_number 34
_symmetry_cell_setting 'orthorhombic'
loop_
_space_group_symop_operation_xyz
x,y,z
-x,-y,z
1/2-x,1/2+y,1/2+z
1/2+x,1/2-y,1/2+z
loop_
_atom_site_type_symbol
_atom_site_label
_atom_site_fract_x
_atom_site_fract_y
_atom_site_fract_z
Si Si1 0.396857 0.441088 0.419960
Si Si2 0.500000 0.000000 0.104512
Si Si3 0.170538 0.813332 0.158553
Si Si4 0.582015 0.191720 0.756063
Si Si5 0.000000 0.000000 0.457807
Si Si6 0.352542 0.936073 0.270984
O O1 0.500000 0.500000 0.451098
O O2 0.338379 0.289566 0.520588
O O3 0.386867 0.238976 0.310843
O O4 0.351085 0.731712 0.381434
O O5 0.453712 0.251649 0.030590
O O6 0.424879 0.839028 0.177268
O O7 0.163747 0.519584 0.229325
O O8 0.089576 0.029556 0.180514
O O9 0.259309 0.958291 0.205195
O O10 0.500000 0.000000 0.717531
O O11 0.573206 0.321727 0.884454
#
# Coordination Sequence:
#
# PCOD8172132 Si02
#       6
#     4   2   4   4   2   4
#     4  12  24  49  77 107 146 209 243 300 383 452
#     4  12  24  46  72 102 146 206 244 296 378 446
#     4  12  27  43  77 109 149 186 249 314 361 438
#     4  12  22  47  67 111 143 189 234 305 370 451
#     4  12  24  42  76 100 142 190 240 300 364 450
#     4  12  27  48  72 109 148 192 259 305 359 457
#
# _framework density 23.938309
#
# number of rings (size 3 to 8) (size 9 to 14) (size 15 to 20)
#    0.000    0.000    5.000    4.800    0.000    4.800 
#    0.000    0.000    0.000    0.000    0.000    0.000 
#    0.000    0.000    0.000    0.000    0.000    0.000 
#
# Total GULP energy -247789.652394 kJ/mol
# GULP energy per Si atom -12389.482620 kJ/mol
# Density = 2.388382 g / cm^3
# Si number density = 23.938309 Si / 1000 Ang^3
#
#
#
# Elastic Constant Matrix: (Units=GPa)
#
#
# Indices 1 2 3 4 5 6 
#
# 1 79.9006 17.6311 58.8400 0.0000 0.0000 0.0000
# 2 17.6311 148.9962 52.9239 0.0000 0.0000 0.0000
# 3 58.8400 52.9239 115.7742 0.0000 0.0000 0.0000
# 4 0.0000 0.0000 0.0000 37.8029 0.0000 0.0000
# 5 0.0000 0.0000 0.0000 0.0000 32.7887 0.0000
# 6 0.0000 0.0000 0.0000 0.0000 0.0000 30.9135
#
#
#
# Elastic Compliance Matrix: (Units=1/GPa)
#
#
# Indices 1 2 3 4 5 6 
#
# 1 0.020281 0.001506 -0.010996 0.000000 0.000000 0.000000
# 2 0.001506 0.008124 -0.004479 0.000000 0.000000 0.000000
# 3 -0.010996 -0.004479 0.016273 0.000000 0.000000 0.000000
# 4 0.000000 0.000000 0.000000 0.026453 0.000000 0.000000
# 5 0.000000 0.000000 0.000000 0.000000 0.030498 0.000000
# 6 0.000000 0.000000 0.000000 0.000000 0.000000 0.032348
#
#
# Mechanical properties :
#
#
# Convention : Reuss Voigt Hill
#
# Bulk Modulus (GPa) = 59.73565 67.05124 63.39345
# Shear Modulus (GPa) = 29.85144 34.65275 32.25209
#
# Velocity S-wave (km/s) = 3.53514 3.80884 3.67454
# Velocity P-wave (km/s) = 6.45532 6.88577 6.67402
#
# Compressibility (1/GPa) = 0.01674042
#
# Stress axis : x y z
#
# Youngs Moduli (GPa) = 49.30825 123.08558 61.45004
#
# Poissons Ratio (x) = -0.18534 0.67568
# Poissons Ratio (y) = -0.07425 0.27525
# Poissons Ratio (z) = 0.54217 0.55133
#
# Static dielectric constant tensor:
#      x y z
#    x 3.987820 0.000000 0.000000 
#    y 0.000000 4.559390 0.000000 
#    z 0.000000 0.000000 4.464090 
# 
# 
# High freq. dielectric constant tensor:
#      x y z
#    x 1.918190 0.000000 0.000000 
#    y 0.000000 1.975240 0.000000 
#    z 0.000000 0.000000 1.952320 
# 
# From -- ./inp_files/5577.got.cif
#   From: 2010.03.12/outbox.cif.g09.slc.cpg/sg34_3_cif.got.tgz:5577.got - 2010.04.14 01:56:33.
