data_PCOD8172922
_publ_section_title
;
Structure prediction by ZEFSAII (Michael W. Deem and Ramdas Pophale) SiO2 
 PCOD8172922
Probable space group: C M M 2
;
_chemical_formula_sum "Si O2"
_cell_formula_units_Z 48
_cell_length_a 8.499850
_cell_length_b 15.322561
_cell_length_c 18.967684
_cell_angle_alpha 90.000000
_cell_angle_beta 90.000000
_cell_angle_gamma 90.000000
_cell_volume 2470.341113
_symmetry_space_group_name_H-M "C M M 2"
_symmetry_group_IT_number 35
_symmetry_cell_setting 'orthorhombic'
loop_
_space_group_symop_operation_xyz
x,y,z
-x,-y,z
-x,y,z
x,-y,z
1/2+x,1/2+y,z
1/2-x,1/2-y,z
1/2-x,1/2+y,z
1/2+x,1/2-y,z
loop_
_atom_site_type_symbol
_atom_site_label
_atom_site_fract_x
_atom_site_fract_y
_atom_site_fract_z
Si Si1 0.686514 0.156835 0.628920
Si Si2 0.313486 0.656835 0.782233
Si Si3 0.686452 0.655571 0.281936
Si Si4 0.312988 0.500000 0.037754
Si Si5 0.186518 0.000000 0.877702
Si Si6 0.312988 0.000000 0.373399
Si Si7 0.813548 0.344429 0.129217
Si Si8 0.313482 0.000000 0.533451
O O1 0.500000 0.159823 0.632475
O O2 0.750000 0.250000 0.603434
O O3 0.750000 0.131363 0.705576
O O4 0.749670 0.085823 0.573331
O O5 0.500000 0.659823 0.778678
O O6 0.250000 0.750000 0.807719
O O7 0.250330 0.585823 0.837822
O O8 0.500000 0.657875 0.279109
O O9 0.750000 0.750000 0.304709
O O10 0.744751 0.586368 0.338357
O O11 0.750000 0.627869 0.205576
O O12 0.500000 0.500000 0.043878
O O13 0.244751 0.586368 0.072796
O O14 0.252139 0.500000 0.957504
O O15 0.000000 0.000000 0.876426
O O16 0.500000 0.000000 0.367274
O O17 0.252139 0.000000 0.453649
O O18 0.750000 0.250000 0.106444
O O19 0.000000 0.342125 0.132043
O O20 0.500000 0.000000 0.534727
#
# Coordination Sequence:
#
# PCOD8172922 Si02
#       8
#     8   8   8   4   4   4   8   4
#     4  10  19  35  56  81 107 140 181 226 272 322
#     4  10  19  35  56  81 107 140 181 226 272 322
#     4  11  22  39  61  87 113 146 188 233 279 331
#     4  11  22  39  58  82 116 153 186 229 280 334
#     4   9  21  37  55  78 111 147 182 221 272 326
#     4  11  22  39  58  82 116 153 186 229 280 334
#     4  11  22  39  61  87 113 146 188 233 279 331
#     4   9  21  37  55  78 111 147 182 221 272 326
#
# _framework density 19.430516000000001
#
# number of rings (size 3 to 8) (size 9 to 14) (size 15 to 20)
#    0.000    1.667    0.000    7.500    0.000    1.333 
#    0.000   12.500    0.000    0.000    0.000    0.000 
#    0.000    0.000    0.000    0.000    0.000    0.000 
#
# Total GULP energy -297681.134401 kJ/mol
# GULP energy per Si atom -12403.380600 kJ/mol
# Density = 1.938629 g / cm^3
# Si number density = 19.430516 Si / 1000 Ang^3
#
#
#
# Elastic Constant Matrix: (Units=GPa)
#
#
# Indices 1 2 3 4 5 6 
#
# 1 128.5447 54.1146 52.8584 0.0000 0.0000 0.0000
# 2 54.1146 176.3291 128.0581 0.0000 0.0000 0.0000
# 3 52.8584 128.0581 169.7953 0.0000 0.0000 0.0000
# 4 0.0000 0.0000 0.0000 6.5590 0.0000 0.0000
# 5 0.0000 0.0000 0.0000 0.0000 24.5976 0.0000
# 6 0.0000 0.0000 0.0000 0.0000 0.0000 26.9474
#
#
#
# Elastic Compliance Matrix: (Units=1/GPa)
#
#
# Indices 1 2 3 4 5 6 
#
# 1 0.009129 -0.001631 -0.001612 0.000000 0.000000 0.000000
# 2 -0.001631 0.012831 -0.009169 0.000000 0.000000 0.000000
# 3 -0.001612 -0.009169 0.013306 0.000000 0.000000 0.000000
# 4 0.000000 0.000000 0.000000 0.152461 0.000000 0.000000
# 5 0.000000 0.000000 0.000000 0.000000 0.040654 0.000000
# 6 0.000000 0.000000 0.000000 0.000000 0.000000 0.037109
#
#
# Mechanical properties :
#
#
# Convention : Reuss Voigt Hill
#
# Bulk Modulus (GPa) = 95.76497 104.97015 100.36756
# Shear Modulus (GPa) = 17.01863 27.59667 22.30765
#
# Velocity S-wave (km/s) = 2.96272 3.77274 3.39200
# Velocity P-wave (km/s) = 7.81642 8.55095 8.19192
#
# Compressibility (1/GPa) = 0.01044223
#
# Stress axis : x y z
#
# Youngs Moduli (GPa) = 109.54351 77.93740 75.15162
#
# Poissons Ratio (x) = 0.12712 0.12112
# Poissons Ratio (y) = 0.17868 0.68907
# Poissons Ratio (z) = 0.17655 0.71462
#
# Static dielectric constant tensor:
#      x y z
#    x 3.559460 0.000000 0.000000 
#    y 0.000000 3.817590 0.000000 
#    z 0.000000 0.000000 3.697370 
# 
# 
# High freq. dielectric constant tensor:
#      x y z
#    x 1.761360 0.000000 0.000000 
#    y 0.000000 1.773830 0.000000 
#    z 0.000000 0.000000 1.754160 
# 
# From -- ./inp_files/17957.got.cif
#   From: 2010.03.12/outbox.cif.g09.slc.cpg/sg35_9_cif.got.tgz:17957.got - 2010.04.14 02:02:04.
