data_PCOD8172845
_publ_section_title
;
Structure prediction by ZEFSAII (Michael W. Deem and Ramdas Pophale) SiO2 
 PCOD8172845
Probable space group: C M M 2
;
_chemical_formula_sum "Si O2"
_cell_formula_units_Z 64
_cell_length_a 8.695798
_cell_length_b 18.525882
_cell_length_c 20.410376
_cell_angle_alpha 90.000000
_cell_angle_beta 90.000000
_cell_angle_gamma 90.000000
_cell_volume 3288.057030
_symmetry_space_group_name_H-M "C M M 2"
_symmetry_group_IT_number 35
_symmetry_cell_setting 'orthorhombic'
loop_
_space_group_symop_operation_xyz
x,y,z
-x,-y,z
-x,y,z
x,-y,z
1/2+x,1/2+y,z
1/2-x,1/2-y,z
1/2-x,1/2+y,z
1/2+x,1/2-y,z
loop_
_atom_site_type_symbol
_atom_site_label
_atom_site_fract_x
_atom_site_fract_y
_atom_site_fract_z
Si Si1 0.680426 0.825797 0.137660
Si Si2 0.676553 0.915928 0.263294
Si Si3 0.681002 0.327009 0.999609
Si Si4 0.817673 0.327626 0.512258
Si Si5 0.681933 0.170759 0.758708
Si Si6 0.182793 0.419030 0.635441
Si Si7 0.319768 0.326774 0.375204
Si Si8 0.179273 0.583748 0.886510
O O1 0.500000 0.816636 0.126357
O O2 0.750000 0.750000 0.161066
O O3 0.720337 0.884094 0.192746
O O4 0.755684 0.851818 0.070002
O O5 0.500000 0.898089 0.280997
O O6 0.785891 0.883864 0.318732
O O7 0.708484 0.000000 0.259428
O O8 0.500000 0.318549 0.003627
O O9 0.750000 0.250000 0.977920
O O10 0.725118 0.388277 0.948120
O O11 0.750000 0.250000 0.530657
O O12 0.762949 0.383931 0.567247
O O13 0.754038 0.355160 0.442741
O O14 0.000000 0.321613 0.508482
O O15 0.500000 0.176818 0.754853
O O16 0.750000 0.250000 0.761448
O O17 0.747506 0.128530 0.695452
O O18 0.734450 0.126722 0.822498
O O19 0.250433 0.500000 0.639820
O O20 0.000000 0.421689 0.639282
O O21 0.500000 0.317662 0.385346
O O22 0.250000 0.250000 0.354477
O O23 0.216211 0.500000 0.875163
O O24 0.000000 0.596568 0.900395
#
# Coordination Sequence:
#
# PCOD8172845 Si02
#       8
#     8   8   8   8   8   8   8   8
#     4  10  20  36  59  84 110 144 185 228 273 323
#     4  10  22  39  58  82 113 147 182 223 274 330
#     4  11  22  37  58  83 112 146 185 228 272 322
#     4  10  19  33  55  80 107 141 180 224 272 323
#     4  10  20  35  57  82 108 141 182 227 272 322
#     4   9  18  33  54  80 108 140 180 223 269 324
#     4  11  22  37  58  82 110 145 186 230 274 324
#     4  10  21  37  57  81 111 147 184 225 276 331
#
# _framework density 19.464383000000002
#
# number of rings (size 3 to 8) (size 9 to 14) (size 15 to 20)
#    0.000    1.875    0.000    6.000    0.000    6.500 
#    0.000    3.125    0.000    3.750    0.000    0.000 
#    0.000    0.000    0.000    0.000    0.000    0.000 
#
# Total GULP energy -396926.070298 kJ/mol
# GULP energy per Si atom -12403.939697 kJ/mol
# Density = 1.942008 g / cm^3
# Si number density = 19.464383 Si / 1000 Ang^3
#
#
#
# Elastic Constant Matrix: (Units=GPa)
#
#
# Indices 1 2 3 4 5 6 
#
# 1 90.1510 43.3704 53.8901 0.0000 0.0000 0.0000
# 2 43.3704 138.3781 93.3483 0.0000 0.0000 0.0000
# 3 53.8901 93.3483 148.9403 0.0000 0.0000 0.0000
# 4 0.0000 0.0000 0.0000 21.1315 0.0000 0.0000
# 5 0.0000 0.0000 0.0000 0.0000 -10.5295 0.0000
# 6 0.0000 0.0000 0.0000 0.0000 0.0000 27.2204
#
#
#
# Elastic Compliance Matrix: (Units=1/GPa)
#
#
# Indices 1 2 3 4 5 6 
#
# 1 0.014389 -0.001728 -0.004123 0.000000 0.000000 0.000000
# 2 -0.001728 0.012728 -0.007352 0.000000 0.000000 0.000000
# 3 -0.004123 -0.007352 0.012813 0.000000 0.000000 0.000000
# 4 0.000000 0.000000 0.000000 0.047323 0.000000 0.000000
# 5 0.000000 0.000000 0.000000 0.000000 -0.094971 0.000000
# 6 0.000000 0.000000 0.000000 0.000000 0.000000 0.036737
#
#
# Mechanical properties :
#
#
# Convention : Reuss Voigt Hill
#
# Bulk Modulus (GPa) = 73.94350 84.29857 79.12103
# Shear Modulus (GPa) = 83.42747 20.02186 51.72466
#
# Velocity S-wave (km/s) = 6.55398 3.21072 5.16059
# Velocity P-wave (km/s) = 9.76445 7.55964 8.73191
#
# Compressibility (1/GPa) = 0.01352384
#
# Stress axis : x y z
#
# Youngs Moduli (GPa) = 69.49971 78.56907 78.04289
#
# Poissons Ratio (x) = 0.13580 0.32175
# Poissons Ratio (y) = 0.12013 0.57374
# Poissons Ratio (z) = 0.28653 0.57761
#
# Static dielectric constant tensor:
#      x y z
#    x 3.447890 0.000000 0.000000 
#    y 0.000000 3.561690 0.000000 
#    z 0.000000 0.000000 3.720630 
# 
# 
# High freq. dielectric constant tensor:
#      x y z
#    x 1.747730 0.000000 0.000000 
#    y 0.000000 1.758500 0.000000 
#    z 0.000000 0.000000 1.773420 
# 
# From -- ./inp_files/18379.got.cif
#   From: 2010.03.12/outbox.cif.g09.slc.cpg/sg35_10_cif.got.tgz:18379.got - 2010.04.14 02:02:04.
