data_PCOD8172264
_publ_section_title
;
Structure prediction by ZEFSAII (Michael W. Deem and Ramdas Pophale) SiO2 
 PCOD8172264
Probable space group: C M M 2
;
_chemical_formula_sum "Si O2"
_cell_formula_units_Z 64
_cell_length_a 10.371818
_cell_length_b 18.224048
_cell_length_c 19.340223
_cell_angle_alpha 90.000000
_cell_angle_beta 90.000000
_cell_angle_gamma 90.000000
_cell_volume 3655.621436
_symmetry_space_group_name_H-M "C M M 2"
_symmetry_group_IT_number 35
_symmetry_cell_setting 'orthorhombic'
loop_
_space_group_symop_operation_xyz
x,y,z
-x,-y,z
-x,y,z
x,-y,z
1/2+x,1/2+y,z
1/2-x,1/2-y,z
1/2-x,1/2+y,z
1/2+x,1/2-y,z
loop_
_atom_site_type_symbol
_atom_site_label
_atom_site_fract_x
_atom_site_fract_y
_atom_site_fract_z
Si Si1 0.362135 0.172221 0.082040
Si Si2 0.645697 0.085067 0.548099
Si Si3 0.361712 0.328295 0.160255
Si Si4 0.650798 0.816890 0.682582
Si Si5 0.645355 0.693776 0.318865
Si Si6 0.352344 0.808586 0.922069
Si Si7 0.149612 0.581025 0.806174
Si Si8 0.855305 0.084707 0.438742
O O1 0.500000 0.131576 0.088375
O O2 0.370703 0.249773 0.121994
O O3 0.249488 0.125463 0.120214
O O4 0.324601 0.180458 0.002536
O O5 0.500000 0.094900 0.518979
O O6 0.664792 0.131654 0.616540
O O7 0.748793 0.115038 0.492236
O O8 0.672774 0.000000 0.566090
O O9 0.500000 0.368447 0.154081
O O10 0.320898 0.322812 0.239677
O O11 0.500000 0.791311 0.691433
O O12 0.750000 0.750000 0.674245
O O13 0.702337 0.863767 0.747863
O O14 0.500000 0.726168 0.324676
O O15 0.750000 0.750000 0.348838
O O16 0.660251 0.620996 0.363953
O O17 0.500000 0.781380 0.909608
O O18 0.250000 0.750000 0.892550
O O19 0.326717 0.884578 0.881993
O O20 0.215730 0.500000 0.803190
O O21 0.000000 0.570692 0.791136
O O22 0.000000 0.099157 0.468411
O O23 0.829801 0.000000 0.425216
#
# Coordination Sequence:
#
# PCOD8172264 Si02
#       8
#     8   8   8   8   8   8   8   8
#     4   9  15  24  40  65  92 119 152 194 242 289
#     4   9  18  34  55  75  96 129 170 204 239 288
#     4   9  15  25  41  64  91 120 153 194 241 288
#     4  10  20  34  54  79 105 131 163 204 246 286
#     4  10  19  30  47  71  96 124 161 203 247 291
#     4  10  18  28  47  74  98 124 160 203 248 290
#     4   9  18  33  52  73  99 133 171 205 238 284
#     4   9  19  35  52  71  98 131 166 203 243 291
#
# _framework density 17.507282
#
# number of rings (size 3 to 8) (size 9 to 14) (size 15 to 20)
#    0.000    2.625    2.500    0.750    0.000    3.000 
#    0.000    2.500    0.000    3.000    0.000    0.000 
#    0.000    0.000    0.000    0.000    0.000    0.000 
#
# Total GULP energy -396442.393792 kJ/mol
# GULP energy per Si atom -12388.824806 kJ/mol
# Density = 1.746744 g / cm^3
# Si number density = 17.507282 Si / 1000 Ang^3
#
#
#
# Elastic Constant Matrix: (Units=GPa)
#
#
# Indices 1 2 3 4 5 6 
#
# 1 118.2592 42.7928 49.0416 0.0000 0.0000 0.0000
# 2 42.7928 60.0647 40.7269 0.0000 0.0000 0.0000
# 3 49.0416 40.7269 115.1103 0.0000 0.0000 0.0000
# 4 0.0000 0.0000 0.0000 15.1714 0.0000 0.0000
# 5 0.0000 0.0000 0.0000 0.0000 22.9035 0.0000
# 6 0.0000 0.0000 0.0000 0.0000 0.0000 12.0592
#
#
#
# Elastic Compliance Matrix: (Units=1/GPa)
#
#
# Indices 1 2 3 4 5 6 
#
# 1 0.012021 -0.006699 -0.002751 0.000000 0.000000 0.000000
# 2 -0.006699 0.025636 -0.006216 0.000000 0.000000 0.000000
# 3 -0.002751 -0.006216 0.012059 0.000000 0.000000 0.000000
# 4 0.000000 0.000000 0.000000 0.065914 0.000000 0.000000
# 5 0.000000 0.000000 0.000000 0.000000 0.043661 0.000000
# 6 0.000000 0.000000 0.000000 0.000000 0.000000 0.082924
#
#
# Mechanical properties :
#
#
# Convention : Reuss Voigt Hill
#
# Bulk Modulus (GPa) = 54.39750 62.06186 58.22968
# Shear Modulus (GPa) = 17.87787 20.75170 19.31478
#
# Velocity S-wave (km/s) = 3.19904 3.44658 3.32511
# Velocity P-wave (km/s) = 6.69208 7.16692 6.93356
#
# Compressibility (1/GPa) = 0.01838320
#
# Stress axis : x y z
#
# Youngs Moduli (GPa) = 83.18818 39.00736 82.92636
#
# Poissons Ratio (x) = 0.26130 0.22816
# Poissons Ratio (y) = 0.55725 0.51550
# Poissons Ratio (z) = 0.22888 0.24248
#
# Static dielectric constant tensor:
#      x y z
#    x 4.435480 0.000000 0.000000 
#    y 0.000000 2.988770 0.000000 
#    z 0.000000 0.000000 3.303470 
# 
# 
# High freq. dielectric constant tensor:
#      x y z
#    x 1.685640 0.000000 0.000000 
#    y 0.000000 1.630980 0.000000 
#    z 0.000000 0.000000 1.685610 
# 
# From -- ./inp_files/18644.got.cif
#   From: 2010.03.12/outbox.cif.g09.slc.cpg/sg35_10_cif.got.tgz:18644.got - 2010.04.14 02:02:04.
