data_PCOD8172903
_publ_section_title
;
Structure prediction by ZEFSAII (Michael W. Deem and Ramdas Pophale) SiO2 
 PCOD8172903
Probable space group: C M M 2
;
_chemical_formula_sum "Si O2"
_cell_formula_units_Z 64
_cell_length_a 17.706195
_cell_length_b 17.670802
_cell_length_c 10.377396
_cell_angle_alpha 90.000000
_cell_angle_beta 90.000000
_cell_angle_gamma 90.000000
_cell_volume 3246.907327
_symmetry_space_group_name_H-M "C M M 2"
_symmetry_group_IT_number 35
_symmetry_cell_setting 'orthorhombic'
loop_
_space_group_symop_operation_xyz
x,y,z
-x,-y,z
-x,y,z
x,-y,z
1/2+x,1/2+y,z
1/2-x,1/2-y,z
1/2-x,1/2+y,z
1/2+x,1/2-y,z
loop_
_atom_site_type_symbol
_atom_site_label
_atom_site_fract_x
_atom_site_fract_y
_atom_site_fract_z
Si Si1 0.668009 0.273312 0.247830
Si Si2 0.916563 0.294699 0.017663
Si Si3 0.911201 0.289214 0.490858
Si Si4 0.181179 0.914421 0.079788
Si Si5 0.693850 0.088162 0.590878
Si Si6 0.812371 0.810244 0.662828
Si Si7 0.916673 0.857770 0.872796
Si Si8 0.319243 0.086479 0.897448
O O1 0.750000 0.250000 0.299272
O O2 0.645022 0.222831 0.126063
O O3 0.608154 0.253433 0.358129
O O4 0.671313 0.361543 0.205786
O O5 0.000000 0.305439 0.078702
O O6 0.918111 0.229543 0.911962
O O7 0.893547 0.370296 0.943581
O O8 0.873938 0.372699 0.510462
O O9 0.881886 0.234903 0.602693
O O10 0.000000 0.300447 0.502093
O O11 0.193749 0.000000 0.128926
O O12 0.104648 0.909705 0.995355
O O13 0.248009 0.886372 0.983845
O O14 0.771053 0.134506 0.557538
O O15 0.690135 0.100400 0.745251
O O16 0.697222 0.000000 0.551731
O O17 0.750000 0.750000 0.718115
O O18 0.850710 0.865842 0.767031
O O19 0.000000 0.883062 0.823575
O O20 0.335432 0.000000 0.926091
#
# Coordination Sequence:
#
# PCOD8172903 Si02
#       8
#     8   8   8   8   8   8   8   8
#     4  11  21  39  63  84 113 159 207 248 296 351
#     4  10  20  33  52  83 119 156 197 247 301 354
#     4  11  24  41  60  87 122 161 210 257 297 351
#     4  10  21  37  60  88 120 154 195 245 300 365
#     4  10  21  38  63  90 121 160 202 248 304 367
#     4  10  19  34  58  84 116 157 202 250 300 354
#     4  10  20  31  53  87 120 154 193 245 307 360
#     4  10  19  34  58  89 121 158 195 241 302 363
#
# _framework density 19.711065000000001
#
# number of rings (size 3 to 8) (size 9 to 14) (size 15 to 20)
#    0.000    1.750    2.500    3.375    0.000    2.750 
#    0.000    4.375    0.000    3.375    0.000    0.000 
#    0.000    0.000    0.000    0.000    0.000    0.000 
#
# Total GULP energy -396613.029762 kJ/mol
# GULP energy per Si atom -12394.157180 kJ/mol
# Density = 1.966620 g / cm^3
# Si number density = 19.711065 Si / 1000 Ang^3
#
#
#
# Elastic Constant Matrix: (Units=GPa)
#
#
# Indices 1 2 3 4 5 6 
#
# 1 125.7959 33.7981 17.1367 0.0000 0.0000 0.0000
# 2 33.7981 101.0997 21.5579 0.0000 0.0000 0.0000
# 3 17.1367 21.5579 48.8947 0.0000 0.0000 0.0000
# 4 0.0000 0.0000 0.0000 22.4088 0.0000 0.0000
# 5 0.0000 0.0000 0.0000 0.0000 31.4060 0.0000
# 6 0.0000 0.0000 0.0000 0.0000 0.0000 18.1384
#
#
#
# Elastic Compliance Matrix: (Units=1/GPa)
#
#
# Indices 1 2 3 4 5 6 
#
# 1 0.008907 -0.002552 -0.001997 0.000000 0.000000 0.000000
# 2 -0.002552 0.011649 -0.004242 0.000000 0.000000 0.000000
# 3 -0.001997 -0.004242 0.023022 0.000000 0.000000 0.000000
# 4 0.000000 0.000000 0.000000 0.044625 0.000000 0.000000
# 5 0.000000 0.000000 0.000000 0.000000 0.031841 0.000000
# 6 0.000000 0.000000 0.000000 0.000000 0.000000 0.055132
#
#
# Mechanical properties :
#
#
# Convention : Reuss Voigt Hill
#
# Bulk Modulus (GPa) = 38.46510 46.75287 42.60899
# Shear Modulus (GPa) = 24.82349 27.94380 26.38364
#
# Velocity S-wave (km/s) = 3.55261 3.76928 3.66255
# Velocity P-wave (km/s) = 6.03199 6.53559 6.28883
#
# Compressibility (1/GPa) = 0.02599759
#
# Stress axis : x y z
#
# Youngs Moduli (GPa) = 112.27116 85.84575 43.43663
#
# Poissons Ratio (x) = 0.21907 0.08673
# Poissons Ratio (y) = 0.28651 0.18424
# Poissons Ratio (z) = 0.22416 0.36413
#
# Static dielectric constant tensor:
#      x y z
#    x 3.696820 0.000000 0.000000 
#    y 0.000000 3.565440 0.000000 
#    z 0.000000 0.000000 3.366640 
# 
# 
# High freq. dielectric constant tensor:
#      x y z
#    x 1.772080 0.000000 0.000000 
#    y 0.000000 1.762250 0.000000 
#    z 0.000000 0.000000 1.746420 
# 
# From -- ./inp_files/13678.got.cif
#   From: 2010.03.12/outbox.cif.g09.slc.cpg/sg35_7_cif.got.tgz:13678.got - 2010.04.14 02:02:04.
