data_PCOD8172136
_publ_section_title
;
Structure prediction by ZEFSAII (Michael W. Deem and Ramdas Pophale) SiO2 
 PCOD8172136
Probable space group: P N N 2
;
_chemical_formula_sum "Si O2"
_cell_formula_units_Z 16
_cell_length_a 14.473293
_cell_length_b 9.072590
_cell_length_c 4.733980
_cell_angle_alpha 90.000000
_cell_angle_beta 90.000000
_cell_angle_gamma 90.000000
_cell_volume 621.620113
_symmetry_space_group_name_H-M "P N N 2"
_symmetry_group_IT_number 34
_symmetry_cell_setting 'orthorhombic'
loop_
_space_group_symop_operation_xyz
x,y,z
-x,-y,z
1/2-x,1/2+y,1/2+z
1/2+x,1/2-y,1/2+z
loop_
_atom_site_type_symbol
_atom_site_label
_atom_site_fract_x
_atom_site_fract_y
_atom_site_fract_z
Si Si1 0.698672 0.986287 0.138430
Si Si2 0.588475 0.079202 0.649648
Si Si3 0.025578 0.838291 0.321684
Si Si4 0.653718 0.685312 0.347560
O O1 0.670261 0.086903 0.412346
O O2 0.718858 0.819117 0.240702
O O3 0.614744 0.978242 0.918287
O O4 0.784685 0.049875 0.960783
O O5 0.566762 0.238572 0.794275
O O6 0.500000 0.000000 0.505818
O O7 0.075052 0.861248 0.623572
O O8 0.098185 0.756896 0.117154
O O9 0.000000 0.000000 0.208103
#
# Coordination Sequence:
#
# PCOD8172136 Si02
#       4
#     4   4   4   4
#     4  12  26  46  77 109 151 201 256 318 400 465
#     4  12  23  48  78 103 144 204 255 316 379 466
#     4  12  27  48  75 109 152 196 262 322 384 464
#     4  12  26  49  72 111 155 198 253 323 391 473
#
# _framework density 25.739196
#
# number of rings (size 3 to 8) (size 9 to 14) (size 15 to 20)
#    0.000    0.000    5.000    4.500    3.500    0.000 
#    0.000    0.000    0.000    0.000    0.000    0.000 
#    0.000    0.000    0.000    0.000    0.000    0.000 
#
# Total GULP energy -198283.024668 kJ/mol
# GULP energy per Si atom -12392.689042 kJ/mol
# Density = 2.568061 g / cm^3
# Si number density = 25.739196 Si / 1000 Ang^3
#
#
#
# Elastic Constant Matrix: (Units=GPa)
#
#
# Indices 1 2 3 4 5 6 
#
# 1 60.5201 19.5790 27.8666 0.0000 0.0000 0.0000
# 2 19.5790 119.4450 26.0977 0.0000 0.0000 0.0000
# 3 27.8666 26.0977 137.8086 0.0000 0.0000 0.0000
# 4 0.0000 0.0000 0.0000 39.9507 0.0000 0.0000
# 5 0.0000 0.0000 0.0000 0.0000 48.4705 0.0000
# 6 0.0000 0.0000 0.0000 0.0000 0.0000 16.1137
#
#
#
# Elastic Compliance Matrix: (Units=1/GPa)
#
#
# Indices 1 2 3 4 5 6 
#
# 1 0.018833 -0.002352 -0.003363 0.000000 0.000000 0.000000
# 2 -0.002352 0.009027 -0.001234 0.000000 0.000000 0.000000
# 3 -0.003363 -0.001234 0.008170 0.000000 0.000000 0.000000
# 4 0.000000 0.000000 0.000000 0.025031 0.000000 0.000000
# 5 0.000000 0.000000 0.000000 0.000000 0.020631 0.000000
# 6 0.000000 0.000000 0.000000 0.000000 0.000000 0.062059
#
#
# Mechanical properties :
#
#
# Convention : Reuss Voigt Hill
#
# Bulk Modulus (GPa) = 45.18286 51.65116 48.41701
# Shear Modulus (GPa) = 30.29817 37.18899 33.74358
#
# Velocity S-wave (km/s) = 3.43464 3.80523 3.62467
# Velocity P-wave (km/s) = 5.77246 6.27830 6.03068
#
# Compressibility (1/GPa) = 0.02213229
#
# Stress axis : x y z
#
# Youngs Moduli (GPa) = 53.09883 110.77602 122.39749
#
# Poissons Ratio (x) = 0.26058 0.41159
# Poissons Ratio (y) = 0.12490 0.15102
# Poissons Ratio (z) = 0.17856 0.13668
#
# Static dielectric constant tensor:
#      x y z
#    x 5.132090 0.000000 0.000000 
#    y 0.000000 4.382540 0.000000 
#    z 0.000000 0.000000 4.851190 
# 
# 
# High freq. dielectric constant tensor:
#      x y z
#    x 2.016720 0.000000 0.000000 
#    y 0.000000 2.031930 0.000000 
#    z 0.000000 0.000000 2.046080 
# 
# From -- ./inp_files/1127.got.cif
#   From: 2010.03.12/outbox.cif.g09.slc.cpg/sg34_1_cif.got.tgz:1127.got - 2010.04.14 01:56:33.
