data_PCOD8172377
_publ_section_title
;
Structure prediction by ZEFSAII (Michael W. Deem and Ramdas Pophale) SiO2 
 PCOD8172377
Probable space group: C M M 2
;
_chemical_formula_sum "Si O2"
_cell_formula_units_Z 64
_cell_length_a 8.582588
_cell_length_b 18.882402
_cell_length_c 20.664560
_cell_angle_alpha 90.000000
_cell_angle_beta 90.000000
_cell_angle_gamma 90.000000
_cell_volume 3348.896048
_symmetry_space_group_name_H-M "C M M 2"
_symmetry_group_IT_number 35
_symmetry_cell_setting 'orthorhombic'
loop_
_space_group_symop_operation_xyz
x,y,z
-x,-y,z
-x,y,z
x,-y,z
1/2+x,1/2+y,z
1/2-x,1/2-y,z
1/2-x,1/2+y,z
1/2+x,1/2-y,z
loop_
_atom_site_type_symbol
_atom_site_label
_atom_site_fract_x
_atom_site_fract_y
_atom_site_fract_z
Si Si1 0.184341 0.671309 0.507710
Si Si2 0.182568 0.827628 0.638677
Si Si3 0.821579 0.083535 0.887812
Si Si4 0.185234 0.920548 0.255712
Si Si5 0.315317 0.671429 0.375852
Si Si6 0.184713 0.826551 0.137316
Si Si7 0.679917 0.916771 0.751919
Si Si8 0.683331 0.173971 0.999925
O O1 0.250000 0.750000 0.510367
O O2 0.242224 0.635501 0.574496
O O3 0.253960 0.635806 0.442776
O O4 0.000000 0.670159 0.503926
O O5 0.250000 0.750000 0.652671
O O6 0.218135 0.877944 0.698496
O O7 0.000000 0.820628 0.627882
O O8 0.741822 0.108452 0.821439
O O9 0.727047 0.117189 0.946294
O O10 0.000000 0.109407 0.888501
O O11 0.809556 0.000000 0.896074
O O12 0.246921 0.877671 0.317895
O O13 0.244336 0.882239 0.190674
O O14 0.000000 0.922599 0.256804
O O15 0.253950 0.000000 0.257325
O O16 0.500000 0.675687 0.377566
O O17 0.250000 0.750000 0.365812
O O18 0.250000 0.750000 0.156257
O O19 0.000000 0.822130 0.135110
O O20 0.246306 0.852092 0.067922
O O21 0.500000 0.895045 0.745100
O O22 0.704867 0.000000 0.742990
O O23 0.500000 0.180301 0.007278
O O24 0.750000 0.250000 0.979572
#
# Coordination Sequence:
#
# PCOD8172377 Si02
#       8
#     8   8   8   8   8   8   8   8
#     4  10  18  31  51  76 106 137 174 219 267 317
#     4  11  21  35  56  82 111 142 181 225 271 320
#     4  10  21  38  59  82 109 143 182 221 265 320
#     4   9  19  34  52  76 105 137 174 216 261 310
#     4  10  18  31  53  77 102 134 173 216 261 314
#     4  10  19  34  56  79 105 138 176 217 263 316
#     4  10  21  38  58  81 111 145 181 222 268 318
#     4  11  22  37  57  82 112 142 178 223 271 319
#
# _framework density 19.110775
#
# number of rings (size 3 to 8) (size 9 to 14) (size 15 to 20)
#    0.000    1.875    0.000    7.500    0.000    2.500 
#    0.000    6.250    0.000    7.875    0.000    0.000 
#    0.000    0.000    0.000    0.000    0.000    0.000 
#
# Total GULP energy -396833.881066 kJ/mol
# GULP energy per Si atom -12401.058783 kJ/mol
# Density = 1.906728 g / cm^3
# Si number density = 19.110775 Si / 1000 Ang^3
#
#
#
# Elastic Constant Matrix: (Units=GPa)
#
#
# Indices 1 2 3 4 5 6 
#
# 1 113.8783 27.5527 42.8602 0.0000 0.0000 0.0000
# 2 27.5527 68.6551 67.1618 0.0000 0.0000 0.0000
# 3 42.8602 67.1618 166.0058 0.0000 0.0000 0.0000
# 4 0.0000 0.0000 0.0000 3.2247 0.0000 0.0000
# 5 0.0000 0.0000 0.0000 0.0000 28.8137 0.0000
# 6 0.0000 0.0000 0.0000 0.0000 0.0000 24.2949
#
#
#
# Elastic Compliance Matrix: (Units=1/GPa)
#
#
# Indices 1 2 3 4 5 6 
#
# 1 0.009970 -0.002455 -0.001581 0.000000 0.000000 0.000000
# 2 -0.002455 0.024710 -0.009364 0.000000 0.000000 0.000000
# 3 -0.001581 -0.009364 0.010220 0.000000 0.000000 0.000000
# 4 0.000000 0.000000 0.000000 0.310110 0.000000 0.000000
# 5 0.000000 0.000000 0.000000 0.000000 0.034706 0.000000
# 6 0.000000 0.000000 0.000000 0.000000 0.000000 0.041161
#
#
# Mechanical properties :
#
#
# Convention : Reuss Voigt Hill
#
# Bulk Modulus (GPa) = 55.24031 69.29876 62.26953
# Shear Modulus (GPa) = 10.78259 25.33094 18.05677
#
# Velocity S-wave (km/s) = 2.37790 3.64466 3.07717
# Velocity P-wave (km/s) = 6.04213 7.35199 6.72901
#
# Compressibility (1/GPa) = 0.01810272
#
# Stress axis : x y z
#
# Youngs Moduli (GPa) = 100.29827 40.46865 97.84397
#
# Poissons Ratio (x) = 0.09933 0.15470
# Poissons Ratio (y) = 0.24619 0.91616
# Poissons Ratio (z) = 0.15858 0.37893
#
# Static dielectric constant tensor:
#      x y z
#    x 3.530000 0.000000 0.000000 
#    y 0.000000 3.335910 0.000000 
#    z 0.000000 0.000000 3.989380 
# 
# 
# High freq. dielectric constant tensor:
#      x y z
#    x 1.751070 0.000000 0.000000 
#    y 0.000000 1.717000 0.000000 
#    z 0.000000 0.000000 1.764770 
# 
# From -- ./inp_files/18323.got.cif
#   From: 2010.03.12/outbox.cif.g09.slc.cpg/sg35_10_cif.got.tgz:18323.got - 2010.04.14 02:02:04.
