data_PCOD8172898
_publ_section_title
;
Structure prediction by ZEFSAII (Michael W. Deem and Ramdas Pophale) SiO2 
 PCOD8172898
Probable space group: C M M 2
;
_chemical_formula_sum "Si O2"
_cell_formula_units_Z 48
_cell_length_a 27.864922
_cell_length_b 9.118962
_cell_length_c 10.110445
_cell_angle_alpha 90.000000
_cell_angle_beta 90.000000
_cell_angle_gamma 90.000000
_cell_volume 2569.055631
_symmetry_space_group_name_H-M "C M M 2"
_symmetry_group_IT_number 35
_symmetry_cell_setting 'orthorhombic'
loop_
_space_group_symop_operation_xyz
x,y,z
-x,-y,z
-x,y,z
x,-y,z
1/2+x,1/2+y,z
1/2-x,1/2-y,z
1/2-x,1/2+y,z
1/2+x,1/2-y,z
loop_
_atom_site_type_symbol
_atom_site_label
_atom_site_fract_x
_atom_site_fract_y
_atom_site_fract_z
Si Si1 0.554841 0.167447 0.789070
Si Si2 0.798625 0.172797 0.977580
Si Si3 0.055839 0.169903 0.283427
Si Si4 0.397135 0.672159 0.556895
Si Si5 0.202330 0.170723 0.670752
Si Si6 0.391453 0.826213 0.052116
O O1 0.500000 0.190404 0.830138
O O2 0.565869 0.260624 0.660072
O O3 0.566335 0.000000 0.754587
O O4 0.586320 0.220793 0.912163
O O5 0.750000 0.250000 0.025607
O O6 0.840806 0.243302 0.065162
O O7 0.795639 0.000000 0.004816
O O8 0.807776 0.208974 0.823639
O O9 0.086818 0.217668 0.410645
O O10 0.072508 0.272346 0.164653
O O11 0.000000 0.198840 0.313003
O O12 0.064889 0.000000 0.247568
O O13 0.399938 0.500000 0.578163
O O14 0.342890 0.727612 0.585060
O O15 0.250000 0.250000 0.618220
O O16 0.211148 0.000000 0.650922
O O17 0.384279 0.000000 0.064153
#
# Coordination Sequence:
#
# PCOD8172898 Si02
#       6
#     8   8   8   8   8   8
#     4  10  21  35  53  80 111 142 182 234 286 337
#     4  10  19  34  57  86 117 148 186 232 284 340
#     4  10  22  39  58  80 111 153 195 235 285 344
#     4  10  20  37  58  83 111 145 188 234 284 338
#     4   9  18  32  54  83 114 144 179 224 278 332
#     4  11  22  37  57  82 114 151 191 235 284 338
#
# _framework density 18.683907999999999
#
# number of rings (size 3 to 8) (size 9 to 14) (size 15 to 20)
#    0.000    2.000    1.667    2.000    0.000    4.667 
#    0.000    0.833    0.000    2.000    0.000    0.000 
#    0.000    0.000    0.000    0.000    0.000    0.000 
#
# Total GULP energy -297689.538391 kJ/mol
# GULP energy per Si atom -12403.730766 kJ/mol
# Density = 1.864138 g / cm^3
# Si number density = 18.683908 Si / 1000 Ang^3
#
#
#
# Elastic Constant Matrix: (Units=GPa)
#
#
# Indices 1 2 3 4 5 6 
#
# 1 111.5955 39.7327 32.2641 0.0000 0.0000 0.0000
# 2 39.7327 63.8686 36.9974 0.0000 0.0000 0.0000
# 3 32.2641 36.9974 67.7493 0.0000 0.0000 0.0000
# 4 0.0000 0.0000 0.0000 22.7560 0.0000 0.0000
# 5 0.0000 0.0000 0.0000 0.0000 34.6253 0.0000
# 6 0.0000 0.0000 0.0000 0.0000 0.0000 35.6305
#
#
#
# Elastic Compliance Matrix: (Units=1/GPa)
#
#
# Indices 1 2 3 4 5 6 
#
# 1 0.011760 -0.005956 -0.002348 0.000000 0.000000 0.000000
# 2 -0.005956 0.025918 -0.011317 0.000000 0.000000 0.000000
# 3 -0.002348 -0.011317 0.022059 0.000000 0.000000 0.000000
# 4 0.000000 0.000000 0.000000 0.043944 0.000000 0.000000
# 5 0.000000 0.000000 0.000000 0.000000 0.028881 0.000000
# 6 0.000000 0.000000 0.000000 0.000000 0.000000 0.028066
#
#
# Mechanical properties :
#
#
# Convention : Reuss Voigt Hill
#
# Bulk Modulus (GPa) = 48.79333 51.24465 50.01899
# Shear Modulus (GPa) = 24.18935 27.55033 25.86984
#
# Velocity S-wave (km/s) = 3.60204 3.84415 3.72507
# Velocity P-wave (km/s) = 6.59329 6.86950 6.73281
#
# Compressibility (1/GPa) = 0.02049460
#
# Stress axis : x y z
#
# Youngs Moduli (GPa) = 85.03126 38.58296 45.33329
#
# Poissons Ratio (x) = 0.22980 0.10645
# Poissons Ratio (y) = 0.50644 0.51305
# Poissons Ratio (z) = 0.19967 0.43666
#
# Static dielectric constant tensor:
#      x y z
#    x 3.595010 0.000000 0.000000 
#    y 0.000000 3.385870 0.000000 
#    z 0.000000 0.000000 3.267180 
# 
# 
# High freq. dielectric constant tensor:
#      x y z
#    x 1.741060 0.000000 0.000000 
#    y 0.000000 1.724500 0.000000 
#    z 0.000000 0.000000 1.704950 
# 
# From -- ./inp_files/5265.got.cif
#   From: 2010.03.12/outbox.cif.g09.slc.cpg/sg35_3_cif.got.tgz:5265.got - 2010.04.14 02:02:04.
