data_PCOD8172990
_publ_section_title
;
Structure prediction by ZEFSAII (Michael W. Deem and Ramdas Pophale) SiO2 
 PCOD8172990
Probable space group: C M M 2
;
_chemical_formula_sum "Si O2"
_cell_formula_units_Z 48
_cell_length_a 18.497557
_cell_length_b 7.907205
_cell_length_c 17.359434
_cell_angle_alpha 90.000000
_cell_angle_beta 90.000000
_cell_angle_gamma 90.000000
_cell_volume 2539.059824
_symmetry_space_group_name_H-M "C M M 2"
_symmetry_group_IT_number 35
_symmetry_cell_setting 'orthorhombic'
loop_
_space_group_symop_operation_xyz
x,y,z
-x,-y,z
-x,y,z
x,-y,z
1/2+x,1/2+y,z
1/2-x,1/2-y,z
1/2-x,1/2+y,z
1/2+x,1/2-y,z
loop_
_atom_site_type_symbol
_atom_site_label
_atom_site_fract_x
_atom_site_fract_y
_atom_site_fract_z
Si Si1 0.331052 0.809756 0.832870
Si Si2 0.413702 0.500000 0.405491
Si Si3 0.584917 0.196921 0.686418
Si Si4 0.417219 0.307113 0.975203
Si Si5 0.586461 0.810431 0.303830
Si Si6 0.919451 0.302217 0.135493
Si Si7 0.914600 0.000000 0.577911
O O1 0.250000 0.750000 0.841800
O O2 0.375266 0.727186 0.762252
O O3 0.371306 0.795727 0.913878
O O4 0.327864 0.000000 0.807166
O O5 0.500000 0.500000 0.404617
O O6 0.384680 0.330326 0.363205
O O7 0.381902 0.500000 0.491692
O O8 0.500000 0.213665 0.702445
O O9 0.610318 0.325251 0.618907
O O10 0.603687 0.000000 0.665216
O O11 0.500000 0.240307 0.974685
O O12 0.412945 0.500000 0.949783
O O13 0.381974 0.283535 0.060741
O O14 0.500000 0.810555 0.299209
O O15 0.617925 0.764279 0.218301
O O16 0.612266 0.000000 0.328529
O O17 0.920869 0.500000 0.120279
O O18 0.000000 0.226245 0.139367
O O19 0.000000 0.000000 0.572182
#
# Coordination Sequence:
#
# PCOD8172990 Si02
#       7
#     8   4   8   8   8   8   4
#     4  11  23  37  53  73  99 132 165 213 259 304
#     4   9  16  24  38  63  93 127 161 197 248 295
#     4   9  19  35  54  74  98 133 172 207 251 308
#     4  10  20  31  48  74 101 134 173 210 249 297
#     4   8  14  23  36  57  90 130 165 197 238 290
#     4   8  14  25  40  60  90 130 170 206 241 282
#     4   9  18  30  48  71  97 131 166 207 250 299
#
# _framework density 18.904636
#
# number of rings (size 3 to 8) (size 9 to 14) (size 15 to 20)
#    0.000    2.833    0.000    2.500    3.500    2.333 
#    0.000    3.333    0.000    0.000    0.000    0.000 
#    0.000    1.333    2.000    0.000    0.000    0.000 
#
# Total GULP energy -297336.454060 kJ/mol
# GULP energy per Si atom -12389.018919 kJ/mol
# Density = 1.886161 g / cm^3
# Si number density = 18.904636 Si / 1000 Ang^3
#
#
#
# Elastic Constant Matrix: (Units=GPa)
#
#
# Indices 1 2 3 4 5 6 
#
# 1 38.7820 19.4074 33.0431 0.0000 0.0000 0.0000
# 2 19.4074 97.5784 70.3451 0.0000 0.0000 0.0000
# 3 33.0431 70.3451 168.8084 0.0000 0.0000 0.0000
# 4 0.0000 0.0000 0.0000 35.1452 0.0000 0.0000
# 5 0.0000 0.0000 0.0000 0.0000 1.6373 0.0000
# 6 0.0000 0.0000 0.0000 0.0000 0.0000 9.5483
#
#
#
# Elastic Compliance Matrix: (Units=1/GPa)
#
#
# Indices 1 2 3 4 5 6 
#
# 1 0.031399 -0.002593 -0.005065 0.000000 0.000000 0.000000
# 2 -0.002593 0.014863 -0.005686 0.000000 0.000000 0.000000
# 3 -0.005065 -0.005686 0.009285 0.000000 0.000000 0.000000
# 4 0.000000 0.000000 0.000000 0.028453 0.000000 0.000000
# 5 0.000000 0.000000 0.000000 0.000000 0.610773 0.000000
# 6 0.000000 0.000000 0.000000 0.000000 0.000000 0.104731
#
#
# Mechanical properties :
#
#
# Convention : Reuss Voigt Hill
#
# Bulk Modulus (GPa) = 34.65336 61.19555 47.92445
# Shear Modulus (GPa) = 5.98221 21.42436 13.70328
#
# Velocity S-wave (km/s) = 1.78081 3.37008 2.69525
# Velocity P-wave (km/s) = 4.75382 6.89813 5.92381
#
# Compressibility (1/GPa) = 0.02885723
#
# Stress axis : x y z
#
# Youngs Moduli (GPa) = 31.84845 67.28088 107.70207
#
# Poissons Ratio (x) = 0.17447 0.54556
# Poissons Ratio (y) = 0.08259 0.61240
# Poissons Ratio (z) = 0.16133 0.38256
#
# Static dielectric constant tensor:
#      x y z
#    x 2.812040 0.000000 0.000000 
#    y 0.000000 3.576240 0.000000 
#    z 0.000000 0.000000 3.705770 
# 
# 
# High freq. dielectric constant tensor:
#      x y z
#    x 1.657830 0.000000 0.000000 
#    y 0.000000 1.743500 0.000000 
#    z 0.000000 0.000000 1.744210 
# 
# From -- ./inp_files/15268.got.cif
#   From: 2010.03.12/outbox.cif.g09.slc.cpg/sg35_8_cif.got.tgz:15268.got - 2010.04.14 02:02:04.
