data_PCOD8173828
_publ_section_title
;
Structure prediction by ZEFSAII (Michael W. Deem and Ramdas Pophale) SiO2 
 PCOD8173828
Probable space group: C M M 2
;
_chemical_formula_sum "Si O2"
_cell_formula_units_Z 64
_cell_length_a 29.428623
_cell_length_b 9.163628
_cell_length_c 12.260684
_cell_angle_alpha 90.000000
_cell_angle_beta 90.000000
_cell_angle_gamma 90.000000
_cell_volume 3306.374869
_symmetry_space_group_name_H-M "C M M 2"
_symmetry_group_IT_number 35
_symmetry_cell_setting 'orthorhombic'
loop_
_space_group_symop_operation_xyz
x,y,z
-x,-y,z
-x,y,z
x,-y,z
1/2+x,1/2+y,z
1/2-x,1/2-y,z
1/2-x,1/2+y,z
1/2+x,1/2-y,z
loop_
_atom_site_type_symbol
_atom_site_label
_atom_site_fract_x
_atom_site_fract_y
_atom_site_fract_z
Si Si1 0.553949 0.664157 0.694820
Si Si2 0.296036 0.333122 0.694820
Si Si3 0.946473 0.668842 0.480328
Si Si4 0.702293 0.670165 0.930902
Si Si5 0.617364 0.670639 0.321800
Si Si6 0.797707 0.829834 0.458737
Si Si7 0.946473 0.331158 0.909312
Si Si8 0.617365 0.670639 0.067840
O O1 0.500000 0.658113 0.694819
O O2 0.574566 0.500000 0.694820
O O3 0.571434 0.748604 0.588196
O O4 0.571433 0.748605 0.801444
O O5 0.282309 0.500000 0.694813
O O6 0.250000 0.250000 0.694832
O O7 0.320319 0.295723 0.810400
O O8 0.320317 0.295711 0.579240
O O9 0.933151 0.500000 0.491374
O O10 0.923367 0.738468 0.374610
O O11 0.000000 0.689261 0.465704
O O12 0.712432 0.500000 0.945274
O O13 0.750000 0.750000 0.950479
O O14 0.665517 0.723542 0.018773
O O15 0.609267 0.500000 0.345527
O O16 0.665517 0.723542 0.370867
O O17 0.617810 0.706453 0.194820
O O18 0.750000 0.750000 0.439158
O O19 0.787569 0.000000 0.444369
O O20 0.933150 0.500000 0.898266
O O21 0.000000 0.310739 0.923937
O O22 0.923367 0.261532 0.015029
O O23 0.609267 0.500000 0.044113
#
# Coordination Sequence:
#
# PCOD8173828 Si02
#       8
#     8   8   8   8   8   8   8   8
#     4   9  17  32  57  86 113 142 176 214 265 330
#     4   8  14  27  48  73 100 129 163 206 260 320
#     4  10  21  37  57  82 112 143 178 225 277 326
#     4   9  18  33  53  77 105 137 174 221 276 330
#     4  10  22  38  54  76 107 144 190 236 274 322
#     4   9  18  33  53  77 105 137 174 221 276 330
#     4  10  21  37  57  82 112 143 178 225 277 326
#     4  10  22  38  54  76 107 144 190 236 274 322
#
# _framework density 19.356546999999999
#
# number of rings (size 3 to 8) (size 9 to 14) (size 15 to 20)
#    0.000    2.625    0.000    1.125    0.000    6.500 
#    0.000    5.000    0.000    3.000    0.000    0.000 
#    0.000    0.000    0.000    0.000    0.000    0.000 
#
# Total GULP energy -396620.951635 kJ/mol
# GULP energy per Si atom -12394.404739 kJ/mol
# Density = 1.931249 g / cm^3
# Si number density = 19.356547 Si / 1000 Ang^3
#
#
#
# Elastic Constant Matrix: (Units=GPa)
#
#
# Indices 1 2 3 4 5 6 
#
# 1 68.6098 48.4365 62.3854 0.0000 0.0000 0.0000
# 2 48.4365 96.4856 75.7056 0.0000 0.0000 0.0000
# 3 62.3854 75.7056 171.1042 0.0000 0.0000 0.0000
# 4 0.0000 0.0000 0.0000 27.0520 0.0000 0.0000
# 5 0.0000 0.0000 0.0000 0.0000 24.1810 0.0000
# 6 0.0000 0.0000 0.0000 0.0000 0.0000 28.2096
#
#
#
# Elastic Compliance Matrix: (Units=1/GPa)
#
#
# Indices 1 2 3 4 5 6 
#
# 1 0.025659 -0.008487 -0.005600 0.000000 0.000000 0.000000
# 2 -0.008487 0.018683 -0.005172 0.000000 0.000000 0.000000
# 3 -0.005600 -0.005172 0.010175 0.000000 0.000000 0.000000
# 4 0.000000 0.000000 0.000000 0.036966 0.000000 0.000000
# 5 0.000000 0.000000 0.000000 0.000000 0.041355 0.000000
# 6 0.000000 0.000000 0.000000 0.000000 0.000000 0.035449
#
#
# Mechanical properties :
#
#
# Convention : Reuss Voigt Hill
#
# Bulk Modulus (GPa) = 62.50710 78.80606 70.65658
# Shear Modulus (GPa) = 23.56975 25.86667 24.71821
#
# Velocity S-wave (km/s) = 3.49329 3.65955 3.57738
# Velocity P-wave (km/s) = 6.97376 7.65883 7.32431
#
# Compressibility (1/GPa) = 0.01599818
#
# Stress axis : x y z
#
# Youngs Moduli (GPa) = 38.97292 53.52556 98.28355
#
# Poissons Ratio (x) = 0.45426 0.55042
# Poissons Ratio (y) = 0.33075 0.50831
# Poissons Ratio (z) = 0.21826 0.27683
#
# Static dielectric constant tensor:
#      x y z
#    x 3.239280 0.000000 0.000000 
#    y 0.000000 3.553780 0.000000 
#    z 0.000000 0.000000 8.384900 
# 
# 
# High freq. dielectric constant tensor:
#      x y z
#    x 1.737880 0.000000 0.000000 
#    y 0.000000 1.752370 0.000000 
#    z 0.000000 0.000000 1.762230 
# 
# From -- ./inp_files/14514.got.cif
#   From: 2010.03.12/outbox.cif.g09.slc.cpg/sg35_8_cif.got.tgz:14514.got - 2010.04.14 02:02:04.
