data_PCOD8173397
_publ_section_title
;
Structure prediction by ZEFSAII (Michael W. Deem and Ramdas Pophale) SiO2 
 PCOD8173397
Probable space group: C M M 2
;
_chemical_formula_sum "Si O2"
_cell_formula_units_Z 48
_cell_length_a 8.747689
_cell_length_b 30.570467
_cell_length_c 9.350757
_cell_angle_alpha 90.000000
_cell_angle_beta 90.000000
_cell_angle_gamma 90.000000
_cell_volume 2500.588207
_symmetry_space_group_name_H-M "C M M 2"
_symmetry_group_IT_number 35
_symmetry_cell_setting 'orthorhombic'
loop_
_space_group_symop_operation_xyz
x,y,z
-x,-y,z
-x,y,z
x,-y,z
1/2+x,1/2+y,z
1/2-x,1/2-y,z
1/2-x,1/2+y,z
1/2+x,1/2-y,z
loop_
_atom_site_type_symbol
_atom_site_label
_atom_site_fract_x
_atom_site_fract_y
_atom_site_fract_z
Si Si1 0.821858 0.868548 0.909250
Si Si2 0.675979 0.406983 0.208072
Si Si3 0.178453 0.500000 0.243596
Si Si4 0.173268 0.000000 0.541484
Si Si5 0.333282 0.928788 0.705412
Si Si6 0.817530 0.297670 0.707376
Si Si7 0.666400 0.858430 0.465902
O O1 0.736401 0.911616 0.852620
O O2 0.748438 0.825154 0.841659
O O3 0.000000 0.869577 0.868645
O O4 0.796745 0.872514 0.079843
O O5 0.500000 0.418873 0.227135
O O6 0.755986 0.454212 0.181367
O O7 0.725766 0.380876 0.349840
O O8 0.207639 0.500000 0.412440
O O9 0.000000 0.500000 0.212705
O O10 0.203413 0.040992 0.640595
O O11 0.000000 0.000000 0.483945
O O12 0.500000 0.951442 0.732600
O O13 0.360229 0.889417 0.599374
O O14 0.750000 0.250000 0.724608
O O15 0.766774 0.315496 0.548268
O O16 0.000000 0.297312 0.719228
O O17 0.500000 0.849013 0.394430
#
# Coordination Sequence:
#
# PCOD8173397 Si02
#       7
#     8   8   4   4   8   8   8
#     4  10  22  39  58  84 118 155 193 238 292 350
#     4  11  23  38  58  85 118 157 200 242 289 345
#     4  12  24  37  56  81 116 158 200 246 292 343
#     4  12  22  33  54  81 110 148 194 246 292 337
#     4  10  20  35  55  80 109 146 192 238 286 341
#     4  10  21  39  64  91 117 148 190 240 294 357
#     4   9  19  35  57  83 113 146 185 234 287 344
#
# _framework density 19.195482999999999
#
# number of rings (size 3 to 8) (size 9 to 14) (size 15 to 20)
#    0.000    1.667    1.667    4.500    0.000    6.667 
#    0.000    1.667    0.000    2.000    0.000    0.000 
#    0.000    0.000    0.000    0.000    0.000    0.000 
#
# Total GULP energy -297369.641913 kJ/mol
# GULP energy per Si atom -12390.401746 kJ/mol
# Density = 1.915179 g / cm^3
# Si number density = 19.195483 Si / 1000 Ang^3
#
#
#
# Elastic Constant Matrix: (Units=GPa)
#
#
# Indices 1 2 3 4 5 6 
#
# 1 126.9561 43.7479 46.8748 0.0000 0.0000 0.0000
# 2 43.7479 110.4477 41.3018 0.0000 0.0000 0.0000
# 3 46.8748 41.3018 88.9534 0.0000 0.0000 0.0000
# 4 0.0000 0.0000 0.0000 32.1690 0.0000 0.0000
# 5 0.0000 0.0000 0.0000 0.0000 26.6641 0.0000
# 6 0.0000 0.0000 0.0000 0.0000 0.0000 29.6499
#
#
#
# Elastic Compliance Matrix: (Units=1/GPa)
#
#
# Indices 1 2 3 4 5 6 
#
# 1 0.010314 -0.002484 -0.004281 0.000000 0.000000 0.000000
# 2 -0.002484 0.011555 -0.004056 0.000000 0.000000 0.000000
# 3 -0.004281 -0.004056 0.015381 0.000000 0.000000 0.000000
# 4 0.000000 0.000000 0.000000 0.031086 0.000000 0.000000
# 5 0.000000 0.000000 0.000000 0.000000 0.037504 0.000000
# 6 0.000000 0.000000 0.000000 0.000000 0.000000 0.033727
#
#
# Mechanical properties :
#
#
# Convention : Reuss Voigt Hill
#
# Bulk Modulus (GPa) = 64.07582 65.57847 64.82714
# Shear Modulus (GPa) = 30.04612 30.65878 30.35245
#
# Velocity S-wave (km/s) = 3.96064 4.00082 3.98078
# Velocity P-wave (km/s) = 7.37351 7.45518 7.41446
#
# Compressibility (1/GPa) = 0.01560651
#
# Stress axis : x y z
#
# Youngs Moduli (GPa) = 96.96010 86.54478 65.01459
#
# Poissons Ratio (x) = 0.21499 0.27835
# Poissons Ratio (y) = 0.24086 0.26369
# Poissons Ratio (z) = 0.41513 0.35102
#
# Static dielectric constant tensor:
#      x y z
#    x 3.727740 0.000000 0.000000 
#    y 0.000000 3.513160 0.000000 
#    z 0.000000 0.000000 3.421690 
# 
# 
# High freq. dielectric constant tensor:
#      x y z
#    x 1.761260 0.000000 0.000000 
#    y 0.000000 1.736610 0.000000 
#    z 0.000000 0.000000 1.736310 
# 
# From -- ./inp_files/5395.got.cif
#   From: 2010.03.12/outbox.cif.g09.slc.cpg/sg35_3_cif.got.tgz:5395.got - 2010.04.14 02:02:04.
