data_PCOD8173706
_publ_section_title
;
Structure prediction by ZEFSAII (Michael W. Deem and Ramdas Pophale) SiO2 
 PCOD8173706
Probable space group: C M M 2
;
_chemical_formula_sum "Si O2"
_cell_formula_units_Z 56
_cell_length_a 21.577322
_cell_length_b 14.121041
_cell_length_c 8.801351
_cell_angle_alpha 90.000000
_cell_angle_beta 90.000000
_cell_angle_gamma 90.000000
_cell_volume 2681.721030
_symmetry_space_group_name_H-M "C M M 2"
_symmetry_group_IT_number 35
_symmetry_cell_setting 'orthorhombic'
loop_
_space_group_symop_operation_xyz
x,y,z
-x,-y,z
-x,y,z
x,-y,z
1/2+x,1/2+y,z
1/2-x,1/2-y,z
1/2-x,1/2+y,z
1/2+x,1/2-y,z
loop_
_atom_site_type_symbol
_atom_site_label
_atom_site_fract_x
_atom_site_fract_y
_atom_site_fract_z
Si Si1 0.628250 0.895189 0.706870
Si Si2 0.881589 0.726358 0.208832
Si Si3 0.000000 0.387367 0.148116
Si Si4 0.816852 0.758475 0.509462
Si Si5 0.682929 0.392163 0.792318
Si Si6 0.071110 0.892470 0.001421
Si Si7 0.704989 0.892726 0.001519
Si Si8 0.500000 0.886743 0.803666
O O1 0.673882 0.837346 0.602882
O O2 0.650061 0.896299 0.880275
O O3 0.559694 0.849180 0.712404
O O4 0.626218 0.000000 0.637767
O O5 0.937661 0.651758 0.226707
O O6 0.866481 0.766486 0.376019
O O7 0.904022 0.820094 0.124930
O O8 0.820571 0.676388 0.134413
O O9 0.000000 0.500000 0.163094
O O10 0.000000 0.348852 0.975541
O O11 0.750000 0.750000 0.431418
O O12 0.816765 0.843880 0.628805
O O13 0.702814 0.500000 0.764078
O O14 0.732375 0.352237 0.918431
O O15 0.613067 0.380378 0.851933
O O16 0.000000 0.870398 0.957254
O O17 0.077752 0.000000 0.064673
O O18 0.716938 0.000000 0.065085
O O19 0.500000 0.000000 0.811356
#
# Coordination Sequence:
#
# PCOD8173706 Si02
#       8
#     8   8   4   8   8   8   8   4
#     4  10  20  38  64  93 127 168 211 257 316 382
#     4  12  25  39  64 101 133 172 213 261 330 393
#     4  11  22  41  64  96 137 173 211 262 322 390
#     4  12  27  41  59  93 135 172 207 263 328 390
#     4  10  23  45  71  95 123 167 220 275 327 378
#     4  10  23  45  70  96 124 165 226 282 320 367
#     4  10  20  39  69  98 126 164 213 264 322 388
#     4   9  18  35  65  98 121 161 214 254 301 376
#
# _framework density 20.882113
#
# number of rings (size 3 to 8) (size 9 to 14) (size 15 to 20)
#    0.000    1.429    3.571    1.286    2.000    2.286 
#    1.286    0.714    0.000    0.000    0.000    0.000 
#    0.000    0.000    0.000    0.000    0.000    0.000 
#
# Total GULP energy -347112.695552 kJ/mol
# GULP energy per Si atom -12396.881984 kJ/mol
# Density = 2.083458 g / cm^3
# Si number density = 20.882113 Si / 1000 Ang^3
#
#
#
# Elastic Constant Matrix: (Units=GPa)
#
#
# Indices 1 2 3 4 5 6 
#
# 1 120.9699 51.4093 51.1725 0.0000 0.0000 0.0000
# 2 51.4093 85.8711 43.0588 0.0000 0.0000 0.0000
# 3 51.1725 43.0588 86.6691 0.0000 0.0000 0.0000
# 4 0.0000 0.0000 0.0000 2.8059 0.0000 0.0000
# 5 0.0000 0.0000 0.0000 0.0000 30.3577 0.0000
# 6 0.0000 0.0000 0.0000 0.0000 0.0000 28.4985
#
#
#
# Elastic Compliance Matrix: (Units=1/GPa)
#
#
# Indices 1 2 3 4 5 6 
#
# 1 0.012456 -0.005020 -0.004860 0.000000 0.000000 0.000000
# 2 -0.005020 0.017532 -0.005746 0.000000 0.000000 0.000000
# 3 -0.004860 -0.005746 0.017263 0.000000 0.000000 0.000000
# 4 0.000000 0.000000 0.000000 0.356394 0.000000 0.000000
# 5 0.000000 0.000000 0.000000 0.000000 0.032941 0.000000
# 6 0.000000 0.000000 0.000000 0.000000 0.000000 0.035090
#
#
# Mechanical properties :
#
#
# Convention : Reuss Voigt Hill
#
# Bulk Modulus (GPa) = 62.50994 64.97680 63.74337
# Shear Modulus (GPa) = 9.83747 22.19038 16.01393
#
# Velocity S-wave (km/s) = 2.17283 3.26337 2.77225
# Velocity P-wave (km/s) = 6.02450 6.73669 6.39052
#
# Compressibility (1/GPa) = 0.01599746
#
# Stress axis : x y z
#
# Youngs Moduli (GPa) = 80.28311 57.03823 57.92815
#
# Poissons Ratio (x) = 0.28633 0.28156
# Poissons Ratio (y) = 0.40302 0.33287
# Poissons Ratio (z) = 0.39021 0.32776
#
# Static dielectric constant tensor:
#      x y z
#    x 4.169060 0.000000 0.000000 
#    y 0.000000 3.884860 0.000000 
#    z 0.000000 0.000000 3.427930 
# 
# 
# High freq. dielectric constant tensor:
#      x y z
#    x 1.837920 0.000000 0.000000 
#    y 0.000000 1.823220 0.000000 
#    z 0.000000 0.000000 1.781050 
# 
# From -- ./inp_files/9329.got.cif
#   From: 2010.03.12/outbox.cif.g09.slc.cpg/sg35_5_cif.got.tgz:9329.got - 2010.04.14 02:02:04.
