data_PCOD8173089
_publ_section_title
;
Structure prediction by ZEFSAII (Michael W. Deem and Ramdas Pophale) SiO2 
 PCOD8173089
Probable space group: C M M 2
;
_chemical_formula_sum "Si O2"
_cell_formula_units_Z 48
_cell_length_a 9.019274
_cell_length_b 19.653377
_cell_length_c 15.222002
_cell_angle_alpha 90.000000
_cell_angle_beta 90.000000
_cell_angle_gamma 90.000000
_cell_volume 2698.239778
_symmetry_space_group_name_H-M "C M M 2"
_symmetry_group_IT_number 35
_symmetry_cell_setting 'orthorhombic'
loop_
_space_group_symop_operation_xyz
x,y,z
-x,-y,z
-x,y,z
x,-y,z
1/2+x,1/2+y,z
1/2-x,1/2-y,z
1/2-x,1/2+y,z
1/2+x,1/2-y,z
loop_
_atom_site_type_symbol
_atom_site_label
_atom_site_fract_x
_atom_site_fract_y
_atom_site_fract_z
Si Si1 0.824667 0.679833 0.718780
Si Si2 0.172429 0.080019 0.849753
Si Si3 0.326195 0.077685 0.371552
Si Si4 0.167320 0.081073 0.196945
Si Si5 0.827007 0.681774 0.517839
Si Si6 0.667027 0.080906 0.025783
O O1 0.750000 0.750000 0.750680
O O2 0.759014 0.617112 0.772234
O O3 0.782142 0.665097 0.617731
O O4 0.000000 0.684738 0.733499
O O5 0.000000 0.099194 0.847303
O O6 0.197999 0.000000 0.836810
O O7 0.238756 0.105493 0.942197
O O8 0.500000 0.084395 0.353366
O O9 0.243251 0.107238 0.286215
O O10 0.274789 0.119675 0.456714
O O11 0.280496 0.000000 0.389939
O O12 0.256541 0.110574 0.113493
O O13 0.000000 0.108784 0.192963
O O14 0.170590 0.000000 0.194366
O O15 0.750000 0.750000 0.483823
O O16 0.000000 0.694242 0.509708
O O17 0.500000 0.109659 0.018817
O O18 0.664857 0.000000 0.029971
#
# Coordination Sequence:
#
# PCOD8173089 Si02
#       6
#     8   8   8   8   8   8
#     4  10  20  35  54  74  98 131 170 208 249 300
#     4  10  20  33  50  75 105 133 164 206 252 295
#     4   9  17  30  48  71  98 127 161 200 241 285
#     4   9  16  26  42  67  98 129 160 196 240 288
#     4   9  19  34  52  72  95 127 164 202 243 290
#     4   9  16  27  45  69  97 130 165 199 239 290
#
# _framework density 17.789376000000001
#
# number of rings (size 3 to 8) (size 9 to 14) (size 15 to 20)
#    0.000    2.667    0.000    2.000    0.000    7.000 
#    0.000    1.667    0.000    3.000    0.000    4.667 
#    0.000    0.000    0.000    0.000    0.000    0.000 
#
# Total GULP energy -297621.243730 kJ/mol
# GULP energy per Si atom -12400.885155 kJ/mol
# Density = 1.774889 g / cm^3
# Si number density = 17.789376 Si / 1000 Ang^3
#
#
#
# Elastic Constant Matrix: (Units=GPa)
#
#
# Indices 1 2 3 4 5 6 
#
# 1 103.9549 38.5226 62.1247 0.0000 0.0000 0.0000
# 2 38.5226 55.7344 55.6555 0.0000 0.0000 0.0000
# 3 62.1247 55.6555 131.0309 0.0000 0.0000 0.0000
# 4 0.0000 0.0000 0.0000 4.6494 0.0000 0.0000
# 5 0.0000 0.0000 0.0000 0.0000 31.6305 0.0000
# 6 0.0000 0.0000 0.0000 0.0000 0.0000 23.9724
#
#
#
# Elastic Compliance Matrix: (Units=1/GPa)
#
#
# Indices 1 2 3 4 5 6 
#
# 1 0.014304 -0.005408 -0.004485 0.000000 0.000000 0.000000
# 2 -0.005408 0.033203 -0.011539 0.000000 0.000000 0.000000
# 3 -0.004485 -0.011539 0.014659 0.000000 0.000000 0.000000
# 4 0.000000 0.000000 0.000000 0.215082 0.000000 0.000000
# 5 0.000000 0.000000 0.000000 0.000000 0.031615 0.000000
# 6 0.000000 0.000000 0.000000 0.000000 0.000000 0.041715
#
#
# Mechanical properties :
#
#
# Convention : Reuss Voigt Hill
#
# Bulk Modulus (GPa) = 51.80685 67.03619 59.42152
# Shear Modulus (GPa) = 12.50394 21.01163 16.75779
#
# Velocity S-wave (km/s) = 2.65408 3.44049 3.07255
# Velocity P-wave (km/s) = 6.21110 7.31763 6.78695
#
# Compressibility (1/GPa) = 0.01930247
#
# Stress axis : x y z
#
# Youngs Moduli (GPa) = 69.91185 30.11805 68.21715
#
# Poissons Ratio (x) = 0.16289 0.30592
# Poissons Ratio (y) = 0.37810 0.78714
# Poissons Ratio (z) = 0.31352 0.34752
#
# Static dielectric constant tensor:
#      x y z
#    x 3.419130 0.000000 0.000000 
#    y 0.000000 2.974860 0.000000 
#    z 0.000000 0.000000 3.482350 
# 
# 
# High freq. dielectric constant tensor:
#      x y z
#    x 1.699950 0.000000 0.000000 
#    y 0.000000 1.643950 0.000000 
#    z 0.000000 0.000000 1.698700 
# 
# From -- ./inp_files/11360.got.cif
#   From: 2010.03.12/outbox.cif.g09.slc.cpg/sg35_6_cif.got.tgz:11360.got - 2010.04.14 02:02:04.
