data_PCOD8173890
_publ_section_title
;
Structure prediction by ZEFSAII (Michael W. Deem and Ramdas Pophale) SiO2 
 PCOD8173890
Probable space group: C M M 2
;
_chemical_formula_sum "Si O2"
_cell_formula_units_Z 56
_cell_length_a 20.823146
_cell_length_b 8.822662
_cell_length_c 14.259292
_cell_angle_alpha 90.000000
_cell_angle_beta 90.000000
_cell_angle_gamma 90.000000
_cell_volume 2619.654085
_symmetry_space_group_name_H-M "C M M 2"
_symmetry_group_IT_number 35
_symmetry_cell_setting 'orthorhombic'
loop_
_space_group_symop_operation_xyz
x,y,z
-x,-y,z
-x,y,z
x,-y,z
1/2+x,1/2+y,z
1/2-x,1/2-y,z
1/2-x,1/2+y,z
1/2+x,1/2-y,z
loop_
_atom_site_type_symbol
_atom_site_label
_atom_site_fract_x
_atom_site_fract_y
_atom_site_fract_z
Si Si1 0.630638 0.320939 0.470460
Si Si2 0.500000 0.170104 0.466647
Si Si3 0.630638 0.679061 0.684991
Si Si4 0.186103 0.321810 0.298324
Si Si5 0.000000 0.329896 0.688804
Si Si6 0.927336 0.173958 0.187847
Si Si7 0.427336 0.326042 0.967605
Si Si8 0.186103 0.321810 0.857127
O O1 0.632651 0.500000 0.459388
O O2 0.562066 0.261864 0.432749
O O3 0.643606 0.271208 0.577726
O O4 0.683197 0.243465 0.404318
O O5 0.500000 0.161776 0.577726
O O6 0.500000 0.000000 0.424053
O O7 0.632651 0.500000 0.696063
O O8 0.562066 0.738136 0.722702
O O9 0.683197 0.756535 0.751133
O O10 0.193737 0.500000 0.301751
O O11 0.250000 0.250000 0.251093
O O12 0.123031 0.280161 0.239992
O O13 0.000000 0.500000 0.731398
O O14 0.000000 0.220077 0.216994
O O15 0.914112 0.000000 0.215873
O O16 0.918259 0.197091 0.077726
O O17 0.500000 0.279923 0.938457
O O18 0.414112 0.500000 0.939579
O O19 0.376969 0.219839 0.915459
O O20 0.193737 0.500000 0.853701
O O21 0.250000 0.250000 0.904358
#
# Coordination Sequence:
#
# PCOD8173890 Si02
#       8
#     8   4   8   8   4   8   8   8
#     4  10  21  38  60  86 120 164 211 259 312 369
#     4   9  17  31  53  83 116 151 198 253 305 357
#     4  10  21  38  60  86 120 164 211 259 312 369
#     4  12  26  42  62  90 127 168 212 260 313 373
#     4   9  17  31  53  83 116 151 198 253 305 357
#     4   9  20  42  71  99 127 161 202 251 310 375
#     4   9  20  42  71  99 127 161 202 251 310 375
#     4  12  26  42  62  90 127 168 212 260 313 373
#
# _framework density 21.376868000000002
#
# number of rings (size 3 to 8) (size 9 to 14) (size 15 to 20)
#    0.000    1.857    0.000    4.714    2.000    5.714 
#    0.000    1.429    0.000    0.000    0.000    0.000 
#    0.000    0.000    0.000    0.000    0.000    0.000 
#
# Total GULP energy -347257.953370 kJ/mol
# GULP energy per Si atom -12402.069763 kJ/mol
# Density = 2.132821 g / cm^3
# Si number density = 21.376868 Si / 1000 Ang^3
#
#
#
# Elastic Constant Matrix: (Units=GPa)
#
#
# Indices 1 2 3 4 5 6 
#
# 1 129.0715 62.7998 44.3997 0.0000 0.0000 0.0000
# 2 62.7998 151.8877 33.6385 0.0000 0.0000 0.0000
# 3 44.3997 33.6385 55.9131 0.0000 0.0000 0.0000
# 4 0.0000 0.0000 0.0000 31.7458 0.0000 0.0000
# 5 0.0000 0.0000 0.0000 0.0000 22.7028 0.0000
# 6 0.0000 0.0000 0.0000 0.0000 0.0000 41.0025
#
#
#
# Elastic Compliance Matrix: (Units=1/GPa)
#
#
# Indices 1 2 3 4 5 6 
#
# 1 0.011916 -0.003266 -0.007497 0.000000 0.000000 0.000000
# 2 -0.003266 0.008491 -0.002515 0.000000 0.000000 0.000000
# 3 -0.007497 -0.002515 0.025351 0.000000 0.000000 0.000000
# 4 0.000000 0.000000 0.000000 0.031500 0.000000 0.000000
# 5 0.000000 0.000000 0.000000 0.000000 0.044047 0.000000
# 6 0.000000 0.000000 0.000000 0.000000 0.000000 0.024389
#
#
# Mechanical properties :
#
#
# Convention : Reuss Voigt Hill
#
# Bulk Modulus (GPa) = 52.07829 68.72759 60.40294
# Shear Modulus (GPa) = 27.98744 32.15918 30.07331
#
# Velocity S-wave (km/s) = 3.62227 3.88286 3.75482
# Velocity P-wave (km/s) = 6.47374 7.23342 6.86410
#
# Compressibility (1/GPa) = 0.01920186
#
# Stress axis : x y z
#
# Youngs Moduli (GPa) = 83.92195 117.76782 39.44600
#
# Poissons Ratio (x) = 0.38467 0.29573
# Poissons Ratio (y) = 0.27412 0.09920
# Poissons Ratio (z) = 0.62917 0.29616
#
# Static dielectric constant tensor:
#      x y z
#    x 3.988710 0.000000 0.000000 
#    y 0.000000 3.772160 0.000000 
#    z 0.000000 0.000000 3.802090 
# 
# 
# High freq. dielectric constant tensor:
#      x y z
#    x 1.844330 0.000000 0.000000 
#    y 0.000000 1.839150 0.000000 
#    z 0.000000 0.000000 1.833700 
# 
# From -- ./inp_files/17445.got.cif
#   From: 2010.03.12/outbox.cif.g09.slc.cpg/sg35_9_cif.got.tgz:17445.got - 2010.04.14 02:02:04.
