data_PCOD8173330
_publ_section_title
;
Structure prediction by ZEFSAII (Michael W. Deem and Ramdas Pophale) SiO2 
 PCOD8173330
Probable space group: C M M 2
;
_chemical_formula_sum "Si O2"
_cell_formula_units_Z 56
_cell_length_a 21.699436
_cell_length_b 8.815741
_cell_length_c 14.726591
_cell_angle_alpha 90.000000
_cell_angle_beta 90.000000
_cell_angle_gamma 90.000000
_cell_volume 2817.146900
_symmetry_space_group_name_H-M "C M M 2"
_symmetry_group_IT_number 35
_symmetry_cell_setting 'orthorhombic'
loop_
_space_group_symop_operation_xyz
x,y,z
-x,-y,z
-x,y,z
x,-y,z
1/2+x,1/2+y,z
1/2-x,1/2-y,z
1/2-x,1/2+y,z
1/2+x,1/2-y,z
loop_
_atom_site_type_symbol
_atom_site_label
_atom_site_fract_x
_atom_site_fract_y
_atom_site_fract_z
Si Si1 0.685638 0.178985 0.027960
Si Si2 0.132191 0.677331 0.841152
Si Si3 0.000000 0.324578 0.817427
Si Si4 0.070390 0.822006 0.342292
Si Si5 0.880212 0.679673 0.514187
Si Si6 0.000000 0.319666 0.617920
Si Si7 0.187290 0.178932 0.671609
Si Si8 0.929789 0.321158 0.149550
O O1 0.750000 0.250000 0.064220
O O2 0.624226 0.234343 0.081198
O O3 0.691492 0.000000 0.037184
O O4 0.676842 0.228334 0.922714
O O5 0.141276 0.500000 0.818504
O O6 0.061796 0.712901 0.874055
O O7 0.139041 0.772081 0.748880
O O8 0.000000 0.500000 0.793094
O O9 0.000000 0.245761 0.718091
O O10 0.117609 0.742168 0.411769
O O11 0.085774 0.761734 0.242910
O O12 0.000000 0.779865 0.368015
O O13 0.081847 0.000000 0.344784
O O14 0.872865 0.500000 0.511938
O O15 0.940753 0.740277 0.564857
O O16 0.824692 0.751362 0.571889
O O17 0.000000 0.500000 0.617369
O O18 0.250000 0.250000 0.708685
O O19 0.190926 0.000000 0.663977
O O20 0.925643 0.500000 0.165059
O O21 0.000000 0.279031 0.116226
#
# Coordination Sequence:
#
# PCOD8173330 Si02
#       8
#     8   8   4   8   8   4   8   8
#     4  10  22  38  60  87 115 151 197 245 295 352
#     4  10  20  36  59  86 116 153 193 238 289 346
#     4   9  16  30  54  85 116 147 189 234 280 336
#     4  10  20  34  55  87 121 151 185 231 290 350
#     4  11  20  35  58  85 115 151 191 233 280 337
#     4   9  16  28  52  83 110 143 183 222 270 324
#     4  12  25  40  56  78 111 154 199 244 288 342
#     4   9  19  37  60  87 115 147 193 246 298 354
#
# _framework density 19.878266
#
# number of rings (size 3 to 8) (size 9 to 14) (size 15 to 20)
#    0.000    1.857    2.143    2.571    1.000    2.857 
#    0.000    1.786    0.000    1.714    0.000    0.000 
#    0.000    0.000    0.000    0.000    0.000    0.000 
#
# Total GULP energy -347066.107497 kJ/mol
# GULP energy per Si atom -12395.218125 kJ/mol
# Density = 1.983302 g / cm^3
# Si number density = 19.878266 Si / 1000 Ang^3
#
#
#
# Elastic Constant Matrix: (Units=GPa)
#
#
# Indices 1 2 3 4 5 6 
#
# 1 111.2080 34.9882 46.6659 0.0000 0.0000 0.0000
# 2 34.9882 82.0622 46.8838 0.0000 0.0000 0.0000
# 3 46.6659 46.8838 103.1628 0.0000 0.0000 0.0000
# 4 0.0000 0.0000 0.0000 24.2248 0.0000 0.0000
# 5 0.0000 0.0000 0.0000 0.0000 29.8050 0.0000
# 6 0.0000 0.0000 0.0000 0.0000 0.0000 26.1001
#
#
#
# Elastic Compliance Matrix: (Units=1/GPa)
#
#
# Indices 1 2 3 4 5 6 
#
# 1 0.011498 -0.002608 -0.004016 0.000000 0.000000 0.000000
# 2 -0.002608 0.017051 -0.006569 0.000000 0.000000 0.000000
# 3 -0.004016 -0.006569 0.014496 0.000000 0.000000 0.000000
# 4 0.000000 0.000000 0.000000 0.041280 0.000000 0.000000
# 5 0.000000 0.000000 0.000000 0.000000 0.033551 0.000000
# 6 0.000000 0.000000 0.000000 0.000000 0.000000 0.038314
#
#
# Mechanical properties :
#
#
# Convention : Reuss Voigt Hill
#
# Bulk Modulus (GPa) = 60.03091 61.50100 60.76595
# Shear Modulus (GPa) = 26.57754 27.21899 26.89826
#
# Velocity S-wave (km/s) = 3.66049 3.70440 3.68251
# Velocity P-wave (km/s) = 6.93761 7.02159 6.97973
#
# Compressibility (1/GPa) = 0.01665809
#
# Stress axis : x y z
#
# Youngs Moduli (GPa) = 86.97302 58.64757 68.98664
#
# Poissons Ratio (x) = 0.15295 0.27704
# Poissons Ratio (y) = 0.22682 0.45320
# Poissons Ratio (z) = 0.34927 0.38528
#
# Static dielectric constant tensor:
#      x y z
#    x 3.778060 0.000000 0.000000 
#    y 0.000000 3.334550 0.000000 
#    z 0.000000 0.000000 3.551560 
# 
# 
# High freq. dielectric constant tensor:
#      x y z
#    x 1.774250 0.000000 0.000000 
#    y 0.000000 1.753950 0.000000 
#    z 0.000000 0.000000 1.771380 
# 
# From -- ./inp_files/15666.got.cif
#   From: 2010.03.12/outbox.cif.g09.slc.cpg/sg35_8_cif.got.tgz:15666.got - 2010.04.14 02:02:04.
