data_PCOD8173702
_publ_section_title
;
Structure prediction by ZEFSAII (Michael W. Deem and Ramdas Pophale) SiO2 
 PCOD8173702
Probable space group: C M M 2
;
_chemical_formula_sum "Si O2"
_cell_formula_units_Z 64
_cell_length_a 30.626559
_cell_length_b 8.856762
_cell_length_c 11.815071
_cell_angle_alpha 90.000000
_cell_angle_beta 90.000000
_cell_angle_gamma 90.000000
_cell_volume 3204.863340
_symmetry_space_group_name_H-M "C M M 2"
_symmetry_group_IT_number 35
_symmetry_cell_setting 'orthorhombic'
loop_
_space_group_symop_operation_xyz
x,y,z
-x,-y,z
-x,y,z
x,-y,z
1/2+x,1/2+y,z
1/2-x,1/2-y,z
1/2-x,1/2+y,z
1/2+x,1/2-y,z
loop_
_atom_site_type_symbol
_atom_site_label
_atom_site_fract_x
_atom_site_fract_y
_atom_site_fract_z
Si Si1 0.705455 0.823358 0.089120
Si Si2 0.049715 0.327666 0.070858
Si Si3 0.205408 0.673170 0.608203
Si Si4 0.330025 0.173233 0.850499
Si Si5 0.375449 0.823684 0.243537
Si Si6 0.875704 0.822194 0.484479
Si Si7 0.078394 0.176850 0.844770
Si Si8 0.450519 0.172524 0.623729
O O1 0.750000 0.750000 0.133621
O O2 0.665808 0.772767 0.168841
O O3 0.712164 0.000000 0.093717
O O4 0.695587 0.769613 0.961191
O O5 0.058821 0.500000 0.032593
O O6 0.080505 0.285260 0.175607
O O7 0.000000 0.305184 0.111084
O O8 0.059837 0.219009 0.966852
O O9 0.206429 0.500000 0.569964
O O10 0.250000 0.750000 0.567225
O O11 0.201621 0.689176 0.743455
O O12 0.164983 0.751110 0.548451
O O13 0.371292 0.279359 0.831602
O O14 0.345826 0.000000 0.867014
O O15 0.375218 0.723339 0.354382
O O16 0.373187 0.000000 0.275684
O O17 0.920589 0.767624 0.539854
O O18 0.872549 0.000000 0.496524
O O19 0.050630 0.263389 0.750474
O O20 0.073094 0.000000 0.825180
O O21 0.500000 0.182402 0.578724
O O22 0.433813 0.000000 0.625056
#
# Coordination Sequence:
#
# PCOD8173702 Si02
#       8
#     8   8   8   8   8   8   8   8
#     4  10  21  38  62  91 123 159 201 250 300 358
#     4  10  21  40  66  91 120 162 208 251 301 367
#     4  11  23  40  66  94 127 166 208 255 308 371
#     4  10  20  38  63  90 124 165 203 246 303 370
#     4  10  22  42  64  87 120 163 212 258 303 360
#     4  12  26  43  64  92 126 162 207 262 318 371
#     4  12  23  35  60  95 131 164 198 249 310 369
#     4  11  24  43  67  92 122 164 210 254 307 375
#
# _framework density 19.969650000000001
#
# number of rings (size 3 to 8) (size 9 to 14) (size 15 to 20)
#    0.000    1.250    2.500    3.750    0.000    5.750 
#    0.000    2.500    0.000    0.000    0.000    0.000 
#    0.000    0.000    0.000    0.000    0.000    0.000 
#
# Total GULP energy -396988.629214 kJ/mol
# GULP energy per Si atom -12405.894663 kJ/mol
# Density = 1.992420 g / cm^3
# Si number density = 19.969650 Si / 1000 Ang^3
#
#
#
# Elastic Constant Matrix: (Units=GPa)
#
#
# Indices 1 2 3 4 5 6 
#
# 1 135.1636 56.2825 43.6456 0.0000 0.0000 0.0000
# 2 56.2825 119.6211 54.4228 0.0000 0.0000 0.0000
# 3 43.6456 54.4228 106.9903 0.0000 0.0000 0.0000
# 4 0.0000 0.0000 0.0000 25.9765 0.0000 0.0000
# 5 0.0000 0.0000 0.0000 0.0000 -3.7868 0.0000
# 6 0.0000 0.0000 0.0000 0.0000 0.0000 32.1232
#
#
#
# Elastic Compliance Matrix: (Units=1/GPa)
#
#
# Indices 1 2 3 4 5 6 
#
# 1 0.009549 -0.003540 -0.002095 0.000000 0.000000 0.000000
# 2 -0.003540 0.012189 -0.004756 0.000000 0.000000 0.000000
# 3 -0.002095 -0.004756 0.012621 0.000000 0.000000 0.000000
# 4 0.000000 0.000000 0.000000 0.038496 0.000000 0.000000
# 5 0.000000 0.000000 0.000000 0.000000 -0.264074 0.000000
# 6 0.000000 0.000000 0.000000 0.000000 0.000000 0.031130
#
#
# Mechanical properties :
#
#
# Convention : Reuss Voigt Hill
#
# Bulk Modulus (GPa) = 73.65423 74.49741 74.07582
# Shear Modulus (GPa) = -37.09686 24.69086 -6.20300
#
# Velocity S-wave (km/s) = -4.31474 3.52009 -1.76436
# Velocity P-wave (km/s) = 3.48433 7.34219 5.74666
#
# Compressibility (1/GPa) = 0.01357695
#
# Stress axis : x y z
#
# Youngs Moduli (GPa) = 104.72494 82.04062 79.23594
#
# Poissons Ratio (x) = 0.29040 0.16598
# Poissons Ratio (y) = 0.37070 0.37686
# Poissons Ratio (z) = 0.21938 0.39020
#
# Static dielectric constant tensor:
#      x y z
#    x 3.743610 0.000000 0.000000 
#    y 0.000000 3.602380 0.000000 
#    z 0.000000 0.000000 3.653070 
# 
# 
# High freq. dielectric constant tensor:
#      x y z
#    x 1.791810 0.000000 0.000000 
#    y 0.000000 1.776830 0.000000 
#    z 0.000000 0.000000 1.777270 
# 
# From -- ./inp_files/11917.got.cif
#   From: 2010.03.12/outbox.cif.g09.slc.cpg/sg35_6_cif.got.tgz:11917.got - 2010.04.14 02:02:04.
