data_PCOD8173624
_publ_section_title
;
Structure prediction by ZEFSAII (Michael W. Deem and Ramdas Pophale) SiO2 
 PCOD8173624
Probable space group: C M M 2
;
_chemical_formula_sum "Si O2"
_cell_formula_units_Z 56
_cell_length_a 22.224405
_cell_length_b 13.562925
_cell_length_c 8.780071
_cell_angle_alpha 90.000000
_cell_angle_beta 90.000000
_cell_angle_gamma 90.000000
_cell_volume 2646.558699
_symmetry_space_group_name_H-M "C M M 2"
_symmetry_group_IT_number 35
_symmetry_cell_setting 'orthorhombic'
loop_
_space_group_symop_operation_xyz
x,y,z
-x,-y,z
-x,y,z
x,-y,z
1/2+x,1/2+y,z
1/2-x,1/2-y,z
1/2-x,1/2+y,z
1/2+x,1/2-y,z
loop_
_atom_site_type_symbol
_atom_site_label
_atom_site_fract_x
_atom_site_fract_y
_atom_site_fract_z
Si Si1 0.150763 0.259284 0.262050
Si Si2 0.669941 0.387292 0.684763
Si Si3 0.401351 0.887912 0.692609
Si Si4 0.066457 0.788445 0.523086
Si Si5 0.350935 0.385801 0.019249
Si Si6 0.929821 0.710707 0.007677
Si Si7 0.784265 0.385422 0.506380
O O1 0.102982 0.201270 0.367565
O O2 0.198610 0.323600 0.355619
O O3 0.182769 0.172561 0.158974
O O4 0.110130 0.329194 0.151096
O O5 0.663495 0.500000 0.639577
O O6 0.605165 0.338425 0.657308
O O7 0.687766 0.376634 0.863120
O O8 0.721503 0.342028 0.573878
O O9 0.441863 0.825334 0.575160
O O10 0.409166 0.852519 0.864170
O O11 0.332083 0.872853 0.642380
O O12 0.422606 0.000000 0.678961
O O13 0.000000 0.836278 0.506848
O O14 0.362405 0.500000 0.061754
O O15 0.414329 0.327926 0.989947
O O16 0.000000 0.696523 0.039695
O O17 0.778917 0.500000 0.459631
#
# Coordination Sequence:
#
# PCOD8173624 Si02
#       7
#     8   8   8   8   8   8   8
#     4   9  21  37  59  91 120 168 203 254 319 383
#     4  10  21  40  65  92 123 165 217 269 322 379
#     4  10  21  37  59  88 122 170 221 271 324 373
#     4  11  21  37  58  88 128 163 212 269 322 387
#     4   9  20  39  61  92 126 166 212 259 316 379
#     4  10  20  37  58  91 129 169 218 263 312 383
#     4   9  20  41  65  90 126 166 214 269 321 383
#
# _framework density 21.159554
#
# number of rings (size 3 to 8) (size 9 to 14) (size 15 to 20)
#    0.857    1.429    1.429    0.857    0.000    5.143 
#    0.000    4.286    0.000    6.857    0.000    0.000 
#    0.000    0.000    0.000    0.000    0.000    0.000 
#
# Total GULP energy -346880.643286 kJ/mol
# GULP energy per Si atom -12388.594403 kJ/mol
# Density = 2.111139 g / cm^3
# Si number density = 21.159554 Si / 1000 Ang^3
#
#
#
# Elastic Constant Matrix: (Units=GPa)
#
#
# Indices 1 2 3 4 5 6 
#
# 1 106.6366 47.0124 42.5048 0.0000 0.0000 0.0000
# 2 47.0124 86.2081 52.7833 0.0000 0.0000 0.0000
# 3 42.5048 52.7833 132.5341 0.0000 0.0000 0.0000
# 4 0.0000 0.0000 0.0000 38.4939 0.0000 0.0000
# 5 0.0000 0.0000 0.0000 0.0000 22.4929 0.0000
# 6 0.0000 0.0000 0.0000 0.0000 0.0000 17.4342
#
#
#
# Elastic Compliance Matrix: (Units=1/GPa)
#
#
# Indices 1 2 3 4 5 6 
#
# 1 0.012639 -0.005833 -0.001730 0.000000 0.000000 0.000000
# 2 -0.005833 0.018033 -0.005311 0.000000 0.000000 0.000000
# 3 -0.001730 -0.005311 0.010215 0.000000 0.000000 0.000000
# 4 0.000000 0.000000 0.000000 0.025978 0.000000 0.000000
# 5 0.000000 0.000000 0.000000 0.000000 0.044458 0.000000
# 6 0.000000 0.000000 0.000000 0.000000 0.000000 0.057359
#
#
# Mechanical properties :
#
#
# Convention : Reuss Voigt Hill
#
# Bulk Modulus (GPa) = 66.05832 67.77554 66.91693
# Shear Modulus (GPa) = 25.06559 27.88943 26.47751
#
# Velocity S-wave (km/s) = 3.44553 3.63444 3.54125
# Velocity P-wave (km/s) = 6.86410 7.05070 6.95803
#
# Compressibility (1/GPa) = 0.01513814
#
# Stress axis : x y z
#
# Youngs Moduli (GPa) = 79.12067 55.45514 97.89203
#
# Poissons Ratio (x) = 0.32347 0.16939
# Poissons Ratio (y) = 0.46151 0.51990
# Poissons Ratio (z) = 0.13691 0.29452
#
# Static dielectric constant tensor:
#      x y z
#    x 3.679310 0.000000 0.000000 
#    y 0.000000 3.830070 0.000000 
#    z 0.000000 0.000000 3.948150 
# 
# 
# High freq. dielectric constant tensor:
#      x y z
#    x 1.810490 0.000000 0.000000 
#    y 0.000000 1.821110 0.000000 
#    z 0.000000 0.000000 1.840060 
# 
# From -- ./inp_files/9283.got.cif
#   From: 2010.03.12/outbox.cif.g09.slc.cpg/sg35_5_cif.got.tgz:9283.got - 2010.04.14 02:02:04.
