data_PCOD8173135
_publ_section_title
;
Structure prediction by ZEFSAII (Michael W. Deem and Ramdas Pophale) SiO2 
 PCOD8173135
Probable space group: C M M 2
;
_chemical_formula_sum "Si O2"
_cell_formula_units_Z 48
_cell_length_a 9.073142
_cell_length_b 18.697630
_cell_length_c 15.243945
_cell_angle_alpha 90.000000
_cell_angle_beta 90.000000
_cell_angle_gamma 90.000000
_cell_volume 2586.078136
_symmetry_space_group_name_H-M "C M M 2"
_symmetry_group_IT_number 35
_symmetry_cell_setting 'orthorhombic'
loop_
_space_group_symop_operation_xyz
x,y,z
-x,-y,z
-x,y,z
x,-y,z
1/2+x,1/2+y,z
1/2-x,1/2-y,z
1/2-x,1/2+y,z
1/2+x,1/2-y,z
loop_
_atom_site_type_symbol
_atom_site_label
_atom_site_fract_x
_atom_site_fract_y
_atom_site_fract_z
Si Si1 0.832738 0.584497 0.131610
Si Si2 0.173532 0.823489 0.270568
Si Si3 0.325074 0.579806 0.626409
Si Si4 0.671071 0.582509 0.956934
Si Si5 0.674084 0.326314 0.788389
Si Si6 0.827908 0.822390 0.470429
O O1 0.824859 0.500000 0.138369
O O2 0.736708 0.613647 0.211437
O O3 0.000000 0.612673 0.137868
O O4 0.764781 0.610180 0.039517
O O5 0.250000 0.750000 0.241932
O O6 0.213605 0.842905 0.370924
O O7 0.000000 0.816121 0.256238
O O8 0.500000 0.575071 0.632368
O O9 0.257434 0.500000 0.633048
O O10 0.265554 0.628603 0.705680
O O11 0.274903 0.613812 0.533785
O O12 0.500000 0.592506 0.980033
O O13 0.705771 0.500000 0.934191
O O14 0.719124 0.630215 0.874919
O O15 0.500000 0.315146 0.782268
O O16 0.750000 0.250000 0.789861
O O17 0.750000 0.750000 0.500762
O O18 0.000000 0.808315 0.480613
#
# Coordination Sequence:
#
# PCOD8173135 Si02
#       6
#     8   8   8   8   8   8
#     4  10  21  36  54  77 105 137 172 213 262 311
#     4  10  20  34  53  77 105 138 175 215 259 307
#     4   9  17  31  52  77 103 132 169 209 246 291
#     4   9  18  34  54  74  98 132 174 214 252 299
#     4  10  20  33  52  77 103 133 167 206 252 300
#     4   9  18  32  52  76 102 134 169 208 253 299
#
# _framework density 18.560924
#
# number of rings (size 3 to 8) (size 9 to 14) (size 15 to 20)
#    0.000    2.500    0.000    2.000    0.000    5.667 
#    0.000    3.333    0.000    3.000    0.000    0.000 
#    0.000    0.000    0.000    0.000    0.000    0.000 
#
# Total GULP energy -297642.558079 kJ/mol
# GULP energy per Si atom -12401.773253 kJ/mol
# Density = 1.851868 g / cm^3
# Si number density = 18.560924 Si / 1000 Ang^3
#
#
#
# Elastic Constant Matrix: (Units=GPa)
#
#
# Indices 1 2 3 4 5 6 
#
# 1 57.8689 38.1084 45.6856 0.0000 0.0000 0.0000
# 2 38.1084 115.4833 77.1960 0.0000 0.0000 0.0000
# 3 45.6856 77.1960 134.2636 0.0000 0.0000 0.0000
# 4 0.0000 0.0000 0.0000 36.0482 0.0000 0.0000
# 5 0.0000 0.0000 0.0000 0.0000 20.7365 0.0000
# 6 0.0000 0.0000 0.0000 0.0000 0.0000 30.8649
#
#
#
# Elastic Compliance Matrix: (Units=1/GPa)
#
#
# Indices 1 2 3 4 5 6 
#
# 1 0.024782 -0.004127 -0.006060 0.000000 0.000000 0.000000
# 2 -0.004127 0.014752 -0.007078 0.000000 0.000000 0.000000
# 3 -0.006060 -0.007078 0.013579 0.000000 0.000000 0.000000
# 4 0.000000 0.000000 0.000000 0.027741 0.000000 0.000000
# 5 0.000000 0.000000 0.000000 0.000000 0.048224 0.000000
# 6 0.000000 0.000000 0.000000 0.000000 0.000000 0.032399
#
#
# Mechanical properties :
#
#
# Convention : Reuss Voigt Hill
#
# Bulk Modulus (GPa) = 53.80723 69.95508 61.88116
# Shear Modulus (GPa) = 24.72778 27.30498 26.01638
#
# Velocity S-wave (km/s) = 3.65396 3.83965 3.74796
# Velocity P-wave (km/s) = 6.84502 7.57816 7.22090
#
# Compressibility (1/GPa) = 0.01858486
#
# Stress axis : x y z
#
# Youngs Moduli (GPa) = 40.35146 67.78595 73.64188
#
# Poissons Ratio (x) = 0.27977 0.44624
# Poissons Ratio (y) = 0.16654 0.52121
# Poissons Ratio (z) = 0.24451 0.47976
#
# Static dielectric constant tensor:
#      x y z
#    x 3.305360 0.000000 0.000000 
#    y 0.000000 3.432340 0.000000 
#    z 0.000000 0.000000 3.584780 
# 
# 
# High freq. dielectric constant tensor:
#      x y z
#    x 1.702120 0.000000 0.000000 
#    y 0.000000 1.719270 0.000000 
#    z 0.000000 0.000000 1.733140 
# 
# From -- ./inp_files/15074.got.cif
#   From: 2010.03.12/outbox.cif.g09.slc.cpg/sg35_8_cif.got.tgz:15074.got - 2010.04.14 02:02:04.
