data_PCOD8173014
_publ_section_title
;
Structure prediction by ZEFSAII (Michael W. Deem and Ramdas Pophale) SiO2 
 PCOD8173014
Probable space group: C M M 2
;
_chemical_formula_sum "Si O2"
_cell_formula_units_Z 56
_cell_length_a 9.309034
_cell_length_b 19.319051
_cell_length_c 17.709282
_cell_angle_alpha 90.000000
_cell_angle_beta 90.000000
_cell_angle_gamma 90.000000
_cell_volume 3184.867427
_symmetry_space_group_name_H-M "C M M 2"
_symmetry_group_IT_number 35
_symmetry_cell_setting 'orthorhombic'
loop_
_space_group_symop_operation_xyz
x,y,z
-x,-y,z
-x,y,z
x,-y,z
1/2+x,1/2+y,z
1/2-x,1/2-y,z
1/2-x,1/2+y,z
1/2+x,1/2-y,z
loop_
_atom_site_type_symbol
_atom_site_label
_atom_site_fract_x
_atom_site_fract_y
_atom_site_fract_z
Si Si1 0.165734 0.582074 0.735520
Si Si2 0.665835 0.681946 0.452683
Si Si3 0.834071 0.581203 0.349748
Si Si4 0.659124 0.082343 0.182203
Si Si5 0.838455 0.917815 0.878963
Si Si6 0.838981 0.082269 0.044785
Si Si7 0.332673 0.319110 0.629608
O O1 0.181882 0.500000 0.727570
O O2 0.228753 0.609320 0.815462
O O3 0.258594 0.615564 0.669076
O O4 0.000000 0.605022 0.729915
O O5 0.500000 0.690992 0.430876
O O6 0.750000 0.750000 0.426291
O O7 0.731494 0.616792 0.409939
O O8 0.685947 0.668549 0.541044
O O9 0.815156 0.500000 0.361349
O O10 0.783364 0.603409 0.265258
O O11 0.000000 0.602438 0.362691
O O12 0.500000 0.111967 0.171813
O O13 0.750619 0.115569 0.113986
O O14 0.657708 0.000000 0.176714
O O15 0.000000 0.889405 0.863573
O O16 0.843919 0.000000 0.877408
O O17 0.782605 0.893536 0.961967
O O18 0.000000 0.108893 0.054832
O O19 0.831702 0.000000 0.049803
O O20 0.500000 0.313446 0.652432
O O21 0.250000 0.250000 0.655706
#
# Coordination Sequence:
#
# PCOD8173014 Si02
#       7
#     8   8   8   8   8   8   8
#     4  10  20  32  48  73 102 130 162 199 239 284
#     4  10  21  36  54  74  95 123 160 200 241 288
#     4   9  18  32  49  71 101 133 162 197 242 286
#     4   8  14  24  38  59  89 124 158 191 231 278
#     4   8  14  25  40  60  90 126 160 195 237 281
#     4   8  13  21  35  57  86 121 158 194 233 275
#     4  10  21  37  55  73  95 124 159 199 242 289
#
# _framework density 17.583148999999999
#
# number of rings (size 3 to 8) (size 9 to 14) (size 15 to 20)
#    0.000    3.000    0.000    3.000    0.000    4.571 
#    0.000    7.143    0.000    0.000    0.000    1.000 
#    0.000    2.286    0.000    0.000    0.000    0.000 
#
# Total GULP energy -347042.966043 kJ/mol
# GULP energy per Si atom -12394.391644 kJ/mol
# Density = 1.754313 g / cm^3
# Si number density = 17.583149 Si / 1000 Ang^3
#
#
#
# Elastic Constant Matrix: (Units=GPa)
#
#
# Indices 1 2 3 4 5 6 
#
# 1 123.5604 38.8461 69.8994 0.0000 0.0000 0.0000
# 2 38.8461 34.9761 36.7835 0.0000 0.0000 0.0000
# 3 69.8994 36.7835 96.1517 0.0000 0.0000 0.0000
# 4 0.0000 0.0000 0.0000 2.0117 0.0000 0.0000
# 5 0.0000 0.0000 0.0000 0.0000 37.8864 0.0000
# 6 0.0000 0.0000 0.0000 0.0000 0.0000 23.8853
#
#
#
# Elastic Compliance Matrix: (Units=1/GPa)
#
#
# Indices 1 2 3 4 5 6 
#
# 1 0.015213 -0.008809 -0.007689 0.000000 0.000000 0.000000
# 2 -0.008809 0.052939 -0.013848 0.000000 0.000000 0.000000
# 3 -0.007689 -0.013848 0.021287 0.000000 0.000000 0.000000
# 4 0.000000 0.000000 0.000000 0.497082 0.000000 0.000000
# 5 0.000000 0.000000 0.000000 0.000000 0.026395 0.000000
# 6 0.000000 0.000000 0.000000 0.000000 0.000000 0.041867
#
#
# Mechanical properties :
#
#
# Convention : Reuss Voigt Hill
#
# Bulk Modulus (GPa) = 34.78729 60.63848 47.71289
# Shear Modulus (GPa) = 6.89602 20.03398 13.46500
#
# Velocity S-wave (km/s) = 1.98254 3.37914 2.77029
# Velocity P-wave (km/s) = 5.00680 7.05594 6.11778
#
# Compressibility (1/GPa) = 0.02874613
#
# Stress axis : x y z
#
# Youngs Moduli (GPa) = 65.73535 18.88980 46.97611
#
# Poissons Ratio (x) = 0.16641 0.36120
# Poissons Ratio (y) = 0.57909 0.65052
# Poissons Ratio (z) = 0.50543 0.26158
#
# Static dielectric constant tensor:
#      x y z
#    x 3.453640 0.000000 0.000000 
#    y 0.000000 2.757000 0.000000 
#    z 0.000000 0.000000 3.567210 
# 
# 
# High freq. dielectric constant tensor:
#      x y z
#    x 1.684820 0.000000 0.000000 
#    y 0.000000 1.624530 0.000000 
#    z 0.000000 0.000000 1.692420 
# 
# From -- ./inp_files/18233.got.cif
#   From: 2010.03.12/outbox.cif.g09.slc.cpg/sg35_10_cif.got.tgz:18233.got - 2010.04.14 02:02:04.
