data_PCOD8173759
_publ_section_title
;
Structure prediction by ZEFSAII (Michael W. Deem and Ramdas Pophale) SiO2 
 PCOD8173759
Probable space group: C M M 2
;
_chemical_formula_sum "Si O2"
_cell_formula_units_Z 64
_cell_length_a 18.608532
_cell_length_b 19.929450
_cell_length_c 9.490305
_cell_angle_alpha 90.000000
_cell_angle_beta 90.000000
_cell_angle_gamma 90.000000
_cell_volume 3519.553710
_symmetry_space_group_name_H-M "C M M 2"
_symmetry_group_IT_number 35
_symmetry_cell_setting 'orthorhombic'
loop_
_space_group_symop_operation_xyz
x,y,z
-x,-y,z
-x,y,z
x,-y,z
1/2+x,1/2+y,z
1/2-x,1/2-y,z
1/2-x,1/2+y,z
1/2+x,1/2-y,z
loop_
_atom_site_type_symbol
_atom_site_label
_atom_site_fract_x
_atom_site_fract_y
_atom_site_fract_z
Si Si1 0.701380 0.071396 0.346520
Si Si2 0.665284 0.420692 0.006870
Si Si3 0.671340 0.217806 0.319157
Si Si4 0.585544 0.199552 0.032330
Si Si5 0.584052 0.319283 0.826329
Si Si6 0.324420 0.073663 0.017047
Si Si7 0.918225 0.186884 0.507866
Si Si8 0.863891 0.925577 0.320174
O O1 0.669594 0.143330 0.391313
O O2 0.688862 0.066602 0.181554
O O3 0.784831 0.072328 0.386827
O O4 0.669164 0.000000 0.410747
O O5 0.654296 0.500000 0.001841
O O6 0.746779 0.401980 0.960461
O O7 0.642995 0.394157 0.162875
O O8 0.614520 0.386104 0.895132
O O9 0.750000 0.250000 0.290921
O O10 0.627169 0.219705 0.174047
O O11 0.631989 0.259882 0.435302
O O12 0.500000 0.196652 0.060135
O O13 0.613305 0.126759 0.979127
O O14 0.606687 0.252559 0.911485
O O15 0.500000 0.327797 0.829066
O O16 0.611838 0.318086 0.666285
O O17 0.346203 0.000000 0.955997
O O18 0.914675 0.117499 0.421566
O O19 0.000000 0.212418 0.507882
O O20 0.897485 0.000000 0.313547
#
# Coordination Sequence:
#
# PCOD8173759 Si02
#       8
#     8   8   8   8   8   8   8   8
#     4   8  15  30  52  78 109 134 165 218 273 317
#     4   9  18  34  56  81 108 140 183 231 274 320
#     4  11  20  34  58  85 107 139 185 227 272 327
#     4  10  21  35  55  83 110 142 181 223 272 328
#     4  10  23  38  51  73 111 152 184 221 274 329
#     4   8  16  31  53  81 108 136 171 222 278 322
#     4  11  23  38  52  74 113 150 182 226 273 328
#     4   9  17  32  55  80 105 139 180 223 270 322
#
# _framework density 18.184121999999999
#
# number of rings (size 3 to 8) (size 9 to 14) (size 15 to 20)
#    0.000    2.500    1.250    2.625    3.500    2.750 
#    2.250    2.500    0.000    1.875    0.000    1.750 
#    0.000    0.000    0.000    0.000    0.000    0.000 
#
# Total GULP energy -396473.681896 kJ/mol
# GULP energy per Si atom -12389.802559 kJ/mol
# Density = 1.814273 g / cm^3
# Si number density = 18.184122 Si / 1000 Ang^3
#
#
#
# Elastic Constant Matrix: (Units=GPa)
#
#
# Indices 1 2 3 4 5 6 
#
# 1 52.9917 44.1063 47.0687 0.0000 0.0000 0.0000
# 2 44.1063 111.1571 50.6719 0.0000 0.0000 0.0000
# 3 47.0687 50.6719 98.4873 0.0000 0.0000 0.0000
# 4 0.0000 0.0000 0.0000 0.5625 0.0000 0.0000
# 5 0.0000 0.0000 0.0000 0.0000 14.0872 0.0000
# 6 0.0000 0.0000 0.0000 0.0000 0.0000 86.6569
#
#
#
# Elastic Compliance Matrix: (Units=1/GPa)
#
#
# Indices 1 2 3 4 5 6 
#
# 1 0.038688 -0.009044 -0.013837 0.000000 0.000000 0.000000
# 2 -0.009044 0.013867 -0.002812 0.000000 0.000000 0.000000
# 3 -0.013837 -0.002812 0.018213 0.000000 0.000000 0.000000
# 4 0.000000 0.000000 0.000000 1.777902 0.000000 0.000000
# 5 0.000000 0.000000 0.000000 0.000000 0.070987 0.000000
# 6 0.000000 0.000000 0.000000 0.000000 0.000000 0.011540
#
#
# Mechanical properties :
#
#
# Convention : Reuss Voigt Hill
#
# Bulk Modulus (GPa) = 51.59197 60.70333 56.14765
# Shear Modulus (GPa) = 2.51377 28.31392 15.41385
#
# Velocity S-wave (km/s) = 1.17703 3.95025 2.91461
# Velocity P-wave (km/s) = 5.50280 7.36621 6.50161
#
# Compressibility (1/GPa) = 0.01938286
#
# Stress axis : x y z
#
# Youngs Moduli (GPa) = 25.84762 72.11489 54.90457
#
# Poissons Ratio (x) = 0.65218 0.75970
# Poissons Ratio (y) = 0.23376 0.15441
# Poissons Ratio (z) = 0.35765 0.20282
#
# Static dielectric constant tensor:
#      x y z
#    x 3.329740 0.000000 0.000000 
#    y 0.000000 5.959110 0.000000 
#    z 0.000000 0.000000 3.212860 
# 
# 
# High freq. dielectric constant tensor:
#      x y z
#    x 1.692930 0.000000 0.000000 
#    y 0.000000 1.722960 0.000000 
#    z 0.000000 0.000000 1.670440 
# 
# From -- ./inp_files/8723.got.cif
#   From: 2010.03.12/outbox.cif.g09.slc.cpg/sg35_5_cif.got.tgz:8723.got - 2010.04.14 02:02:04.
