data_PCOD8173693
_publ_section_title
;
Structure prediction by ZEFSAII (Michael W. Deem and Ramdas Pophale) SiO2 
 PCOD8173693
Probable space group: C M M 2
;
_chemical_formula_sum "Si O2"
_cell_formula_units_Z 48
_cell_length_a 14.921672
_cell_length_b 8.799147
_cell_length_c 18.880208
_cell_angle_alpha 90.000000
_cell_angle_beta 90.000000
_cell_angle_gamma 90.000000
_cell_volume 2478.933275
_symmetry_space_group_name_H-M "C M M 2"
_symmetry_group_IT_number 35
_symmetry_cell_setting 'orthorhombic'
loop_
_space_group_symop_operation_xyz
x,y,z
-x,-y,z
-x,y,z
x,-y,z
1/2+x,1/2+y,z
1/2-x,1/2-y,z
1/2-x,1/2+y,z
1/2+x,1/2-y,z
loop_
_atom_site_type_symbol
_atom_site_label
_atom_site_fract_x
_atom_site_fract_y
_atom_site_fract_z
Si Si1 0.156376 0.680410 0.323210
Si Si2 0.159191 0.821452 0.025986
Si Si3 0.000000 0.678273 0.940218
Si Si4 0.651394 0.677241 0.678370
Si Si5 0.500000 0.675420 0.790885
Si Si6 0.000000 0.180289 0.412832
Si Si7 0.394304 0.171838 0.166295
Si Si8 0.500000 0.319668 0.574969
O O1 0.155041 0.500000 0.330297
O O2 0.250000 0.750000 0.346630
O O3 0.086585 0.751010 0.376779
O O4 0.134260 0.731446 0.243285
O O5 0.250000 0.750000 0.996829
O O6 0.148345 0.783065 0.108905
O O7 0.158683 0.000000 0.015822
O O8 0.084912 0.748673 0.977582
O O9 0.000000 0.500000 0.953087
O O10 0.000000 0.714283 0.857595
O O11 0.668520 0.500000 0.669292
O O12 0.750000 0.750000 0.682937
O O13 0.591100 0.710835 0.747685
O O14 0.591643 0.740883 0.612388
O O15 0.500000 0.500000 0.815180
O O16 0.000000 0.233264 0.494170
O O17 0.000000 0.000000 0.405245
O O18 0.500000 0.177918 0.159521
O O19 0.359620 0.000000 0.153200
O O20 0.500000 0.500000 0.584408
#
# Coordination Sequence:
#
# PCOD8173693 Si02
#       8
#     8   8   4   8   4   4   8   4
#     4  11  23  40  59  84 116 154 198 247 299 354
#     4  12  25  41  62  88 117 154 198 245 296 353
#     4  12  25  42  62  87 122 158 195 242 290 346
#     4   9  18  36  62  88 117 151 189 233 281 338
#     4   9  20  39  60  84 118 157 190 229 284 344
#     4  11  22  38  60  85 118 158 198 243 294 350
#     4  10  20  38  62  85 114 150 193 248 301 352
#     4   8  18  37  58  84 118 155 191 230 284 344
#
# _framework density 19.363168999999999
#
# number of rings (size 3 to 8) (size 9 to 14) (size 15 to 20)
#    0.000    1.667    1.667    4.500    0.000    4.667 
#    0.000    6.250    0.000    0.000    0.000    0.000 
#    0.000    0.000    0.000    0.000    0.000    0.000 
#
# Total GULP energy -297613.333633 kJ/mol
# GULP energy per Si atom -12400.555568 kJ/mol
# Density = 1.931910 g / cm^3
# Si number density = 19.363169 Si / 1000 Ang^3
#
#
#
# Elastic Constant Matrix: (Units=GPa)
#
#
# Indices 1 2 3 4 5 6 
#
# 1 176.0825 64.0276 72.3606 0.0000 0.0000 0.0000
# 2 64.0276 117.8704 61.4556 0.0000 0.0000 0.0000
# 3 72.3606 61.4556 131.7585 0.0000 0.0000 0.0000
# 4 0.0000 0.0000 0.0000 -17.2082 0.0000 0.0000
# 5 0.0000 0.0000 0.0000 0.0000 36.0092 0.0000
# 6 0.0000 0.0000 0.0000 0.0000 0.0000 35.6175
#
#
#
# Elastic Compliance Matrix: (Units=1/GPa)
#
#
# Indices 1 2 3 4 5 6 
#
# 1 0.007932 -0.002692 -0.003101 0.000000 0.000000 0.000000
# 2 -0.002692 0.012124 -0.004176 0.000000 0.000000 0.000000
# 3 -0.003101 -0.004176 0.011240 0.000000 0.000000 0.000000
# 4 0.000000 0.000000 0.000000 -0.058112 0.000000 0.000000
# 5 0.000000 0.000000 0.000000 0.000000 0.027771 0.000000
# 6 0.000000 0.000000 0.000000 0.000000 0.000000 0.028076
#
#
# Mechanical properties :
#
#
# Convention : Reuss Voigt Hill
#
# Bulk Modulus (GPa) = 88.04225 91.26656 89.65440
# Shear Modulus (GPa) = 94.77620 26.07488 60.42554
#
# Velocity S-wave (km/s) = 7.00378 3.67362 5.59233
# Velocity P-wave (km/s) = 10.53430 8.07653 9.38621
#
# Compressibility (1/GPa) = 0.01135818
#
# Stress axis : x y z
#
# Youngs Moduli (GPa) = 126.06663 82.48262 88.96477
#
# Poissons Ratio (x) = 0.22206 0.27585
# Poissons Ratio (y) = 0.33940 0.37154
# Poissons Ratio (z) = 0.39089 0.34447
#
# Static dielectric constant tensor:
#      x y z
#    x 3.727440 0.000000 0.000000 
#    y 0.000000 3.644770 0.000000 
#    z 0.000000 0.000000 3.620530 
# 
# 
# High freq. dielectric constant tensor:
#      x y z
#    x 1.771580 0.000000 0.000000 
#    y 0.000000 1.748270 0.000000 
#    z 0.000000 0.000000 1.753360 
# 
# From -- ./inp_files/18825.got.cif
#   From: 2010.03.12/outbox.cif.g09.slc.cpg/sg35_10_cif.got.tgz:18825.got - 2010.04.14 02:02:04.
