data_PCOD8173257
_publ_section_title
;
Structure prediction by ZEFSAII (Michael W. Deem and Ramdas Pophale) SiO2 
 PCOD8173257
Probable space group: C M M 2
;
_chemical_formula_sum "Si O2"
_cell_formula_units_Z 40
_cell_length_a 8.779512
_cell_length_b 15.750179
_cell_length_c 14.422569
_cell_angle_alpha 90.000000
_cell_angle_beta 90.000000
_cell_angle_gamma 90.000000
_cell_volume 1994.336768
_symmetry_space_group_name_H-M "C M M 2"
_symmetry_group_IT_number 35
_symmetry_cell_setting 'orthorhombic'
loop_
_space_group_symop_operation_xyz
x,y,z
-x,-y,z
-x,y,z
x,-y,z
1/2+x,1/2+y,z
1/2-x,1/2-y,z
1/2-x,1/2+y,z
1/2+x,1/2-y,z
loop_
_atom_site_type_symbol
_atom_site_label
_atom_site_fract_x
_atom_site_fract_y
_atom_site_fract_z
Si Si1 0.319256 0.000000 0.924181
Si Si2 0.318919 0.842185 0.802553
Si Si3 0.821732 0.336259 0.242400
Si Si4 0.178897 0.839096 0.610400
Si Si5 0.172821 0.096055 0.414571
Si Si6 0.818262 0.500000 0.133371
O O1 0.261337 0.086154 0.874433
O O2 0.500000 0.000000 0.923160
O O3 0.255534 0.000000 0.028578
O O4 0.500000 0.833949 0.801852
O O5 0.250000 0.750000 0.828545
O O6 0.261508 0.873958 0.702129
O O7 0.750000 0.250000 0.202158
O O8 0.780757 0.346157 0.351080
O O9 0.755387 0.415832 0.184432
O O10 0.000000 0.329672 0.230491
O O11 0.250000 0.750000 0.582007
O O12 0.214072 0.899623 0.523382
O O13 0.000000 0.830549 0.631356
O O14 0.000000 0.127485 0.399326
O O15 0.195058 0.000000 0.381948
O O16 0.000000 0.500000 0.136090
#
# Coordination Sequence:
#
# PCOD8173257 Si02
#       6
#     4   8   8   8   8   4
#     4   9  20  38  60  83 112 148 185 231 286 341
#     4  10  20  36  58  84 113 148 188 232 279 330
#     4  11  22  38  61  87 114 151 191 233 284 337
#     4  10  20  34  53  78 112 151 187 227 274 327
#     4  10  21  36  55  82 117 153 189 233 281 331
#     4   9  20  40  60  83 114 146 187 233 284 345
#
# _framework density 20.056792999999999
#
# number of rings (size 3 to 8) (size 9 to 14) (size 15 to 20)
#    0.000    2.000    1.000    3.600    1.400    4.000 
#    0.000    1.500    0.000    8.400    0.000    0.000 
#    0.000    0.000    0.000    0.000    0.000    0.000 
#
# Total GULP energy -247984.687075 kJ/mol
# GULP energy per Si atom -12399.234354 kJ/mol
# Density = 2.001114 g / cm^3
# Si number density = 20.056793 Si / 1000 Ang^3
#
#
#
# Elastic Constant Matrix: (Units=GPa)
#
#
# Indices 1 2 3 4 5 6 
#
# 1 70.1759 41.3101 33.4790 0.0000 0.0000 0.0000
# 2 41.3101 143.9570 78.4274 0.0000 0.0000 0.0000
# 3 33.4790 78.4274 131.2091 0.0000 0.0000 0.0000
# 4 0.0000 0.0000 0.0000 29.9960 0.0000 0.0000
# 5 0.0000 0.0000 0.0000 0.0000 18.9489 0.0000
# 6 0.0000 0.0000 0.0000 0.0000 0.0000 27.7972
#
#
#
# Elastic Compliance Matrix: (Units=1/GPa)
#
#
# Indices 1 2 3 4 5 6 
#
# 1 0.017556 -0.003852 -0.002177 0.000000 0.000000 0.000000
# 2 -0.003852 0.011146 -0.005679 0.000000 0.000000 0.000000
# 3 -0.002177 -0.005679 0.011572 0.000000 0.000000 0.000000
# 4 0.000000 0.000000 0.000000 0.033338 0.000000 0.000000
# 5 0.000000 0.000000 0.000000 0.000000 0.052773 0.000000
# 6 0.000000 0.000000 0.000000 0.000000 0.000000 0.035975
#
#
# Mechanical properties :
#
#
# Convention : Reuss Voigt Hill
#
# Bulk Modulus (GPa) = 59.32322 72.41945 65.87134
# Shear Modulus (GPa) = 26.12390 28.15679 27.14035
#
# Velocity S-wave (km/s) = 3.61293 3.75087 3.68254
# Velocity P-wave (km/s) = 6.85902 7.41244 7.14109
#
# Compressibility (1/GPa) = 0.01685680
#
# Stress axis : x y z
#
# Youngs Moduli (GPa) = 56.96064 89.71852 86.41737
#
# Poissons Ratio (x) = 0.34557 0.18815
# Poissons Ratio (y) = 0.21940 0.49080
# Poissons Ratio (z) = 0.12402 0.50955
#
# Static dielectric constant tensor:
#      x y z
#    x 3.446070 0.000000 0.000000 
#    y 0.000000 3.756610 0.000000 
#    z 0.000000 0.000000 3.713460 
# 
# 
# High freq. dielectric constant tensor:
#      x y z
#    x 1.766400 0.000000 0.000000 
#    y 0.000000 1.790690 0.000000 
#    z 0.000000 0.000000 1.780480 
# 
# From -- ./inp_files/14793.got.cif
#   From: 2010.03.12/outbox.cif.g09.slc.cpg/sg35_8_cif.got.tgz:14793.got - 2010.04.14 02:02:04.
