data_PCOD8173369
_publ_section_title
;
Structure prediction by ZEFSAII (Michael W. Deem and Ramdas Pophale) SiO2 
 PCOD8173369
Probable space group: C M M 2
;
_chemical_formula_sum "Si O2"
_cell_formula_units_Z 56
_cell_length_a 8.750244
_cell_length_b 18.992988
_cell_length_c 17.928618
_cell_angle_alpha 90.000000
_cell_angle_beta 90.000000
_cell_angle_gamma 90.000000
_cell_volume 2979.615819
_symmetry_space_group_name_H-M "C M M 2"
_symmetry_group_IT_number 35
_symmetry_cell_setting 'orthorhombic'
loop_
_space_group_symop_operation_xyz
x,y,z
-x,-y,z
-x,y,z
x,-y,z
1/2+x,1/2+y,z
1/2-x,1/2-y,z
1/2-x,1/2+y,z
1/2+x,1/2-y,z
loop_
_atom_site_type_symbol
_atom_site_label
_atom_site_fract_x
_atom_site_fract_y
_atom_site_fract_z
Si Si1 0.318437 0.325687 0.180300
Si Si2 0.819021 0.672861 0.607012
Si Si3 0.320036 0.174621 0.025799
Si Si4 0.822367 0.419032 0.747244
Si Si5 0.180981 0.420364 0.470674
Si Si6 0.321158 0.580495 0.317595
Si Si7 0.825096 0.917532 0.901897
O O1 0.500000 0.321457 0.174144
O O2 0.250000 0.250000 0.198591
O O3 0.263440 0.376806 0.246034
O O4 0.252114 0.354789 0.102476
O O5 0.750000 0.750000 0.608726
O O6 0.766683 0.630170 0.679995
O O7 0.755480 0.630427 0.535410
O O8 0.000000 0.678701 0.603584
O O9 0.500000 0.182584 0.035823
O O10 0.250000 0.250000 0.005195
O O11 0.283367 0.120776 0.960304
O O12 0.790949 0.500000 0.724796
O O13 0.725064 0.396180 0.818883
O O14 0.000000 0.407591 0.765638
O O15 0.243081 0.500000 0.483480
O O16 0.238682 0.390471 0.391574
O O17 0.000000 0.420647 0.471393
O O18 0.500000 0.590210 0.329801
O O19 0.275379 0.500000 0.303153
O O20 0.000000 0.894367 0.913916
O O21 0.802418 0.000000 0.914349
#
# Coordination Sequence:
#
# PCOD8173369 Si02
#       7
#     8   8   8   8   8   8   8
#     4  10  20  35  54  76 105 140 176 215 262 315
#     4  10  21  35  52  77 107 137 171 214 262 310
#     4  11  22  37  57  80 108 142 181 221 265 318
#     4   9  18  35  57  77 101 137 179 219 260 309
#     4   9  18  34  55  76 100 134 175 215 256 305
#     4   9  19  35  54  77 104 135 172 214 261 310
#     4  10  21  37  57  82 111 141 176 219 266 316
#
# _framework density 18.794370000000001
#
# number of rings (size 3 to 8) (size 9 to 14) (size 15 to 20)
#    0.000    2.286    0.000    3.429    0.000    6.571 
#    0.000    5.714    0.000    4.286    0.000    0.000 
#    0.000    0.000    0.000    0.000    0.000    0.000 
#
# Total GULP energy -347270.011447 kJ/mol
# GULP energy per Si atom -12402.500409 kJ/mol
# Density = 1.875159 g / cm^3
# Si number density = 18.794370 Si / 1000 Ang^3
#
#
#
# Elastic Constant Matrix: (Units=GPa)
#
#
# Indices 1 2 3 4 5 6 
#
# 1 64.8678 32.6052 45.7085 0.0000 0.0000 0.0000
# 2 32.6052 94.4115 87.6582 0.0000 0.0000 0.0000
# 3 45.7085 87.6582 160.3012 0.0000 0.0000 0.0000
# 4 0.0000 0.0000 0.0000 26.4682 0.0000 0.0000
# 5 0.0000 0.0000 0.0000 0.0000 33.8139 0.0000
# 6 0.0000 0.0000 0.0000 0.0000 0.0000 29.7075
#
#
#
# Elastic Compliance Matrix: (Units=1/GPa)
#
#
# Indices 1 2 3 4 5 6 
#
# 1 0.019767 -0.003237 -0.003867 0.000000 0.000000 0.000000
# 2 -0.003237 0.022046 -0.011133 0.000000 0.000000 0.000000
# 3 -0.003867 -0.011133 0.013428 0.000000 0.000000 0.000000
# 4 0.000000 0.000000 0.000000 0.037781 0.000000 0.000000
# 5 0.000000 0.000000 0.000000 0.000000 0.029574 0.000000
# 6 0.000000 0.000000 0.000000 0.000000 0.000000 0.033662
#
#
# Mechanical properties :
#
#
# Convention : Reuss Voigt Hill
#
# Bulk Modulus (GPa) = 53.27616 72.39160 62.83388
# Shear Modulus (GPa) = 25.12729 28.23848 26.68289
#
# Velocity S-wave (km/s) = 3.66041 3.88041 3.77202
# Velocity P-wave (km/s) = 6.80244 7.66016 7.24401
#
# Compressibility (1/GPa) = 0.01877012
#
# Stress axis : x y z
#
# Youngs Moduli (GPa) = 50.58826 45.35961 74.46874
#
# Poissons Ratio (x) = 0.14682 0.28794
# Poissons Ratio (y) = 0.16374 0.82903
# Poissons Ratio (z) = 0.19560 0.50497
#
# Static dielectric constant tensor:
#      x y z
#    x 3.383400 0.000000 0.000000 
#    y 0.000000 3.436410 0.000000 
#    z 0.000000 0.000000 3.636110 
# 
# 
# High freq. dielectric constant tensor:
#      x y z
#    x 1.727720 0.000000 0.000000 
#    y 0.000000 1.724040 0.000000 
#    z 0.000000 0.000000 1.742880 
# 
# From -- ./inp_files/15623.got.cif
#   From: 2010.03.12/outbox.cif.g09.slc.cpg/sg35_8_cif.got.tgz:15623.got - 2010.04.14 02:02:04.
