data_PCOD8173620
_publ_section_title
;
Structure prediction by ZEFSAII (Michael W. Deem and Ramdas Pophale) SiO2 
 PCOD8173620
Probable space group: C M M 2
;
_chemical_formula_sum "Si O2"
_cell_formula_units_Z 40
_cell_length_a 11.589221
_cell_length_b 23.945987
_cell_length_c 7.442197
_cell_angle_alpha 90.000000
_cell_angle_beta 90.000000
_cell_angle_gamma 90.000000
_cell_volume 2065.323797
_symmetry_space_group_name_H-M "C M M 2"
_symmetry_group_IT_number 35
_symmetry_cell_setting 'orthorhombic'
loop_
_space_group_symop_operation_xyz
x,y,z
-x,-y,z
-x,y,z
x,-y,z
1/2+x,1/2+y,z
1/2-x,1/2-y,z
1/2-x,1/2+y,z
1/2+x,1/2-y,z
loop_
_atom_site_type_symbol
_atom_site_label
_atom_site_fract_x
_atom_site_fract_y
_atom_site_fract_z
Si Si1 0.250000 0.250000 0.446651
Si Si2 0.365201 0.061630 0.861890
Si Si3 0.771481 0.935129 0.205974
Si Si4 0.000000 0.853392 0.699142
Si Si5 0.238980 0.127695 0.571091
Si Si6 0.000000 0.778409 0.377790
Si Si7 0.500000 0.378035 0.102681
O O1 0.250500 0.194676 0.567417
O O2 0.125066 0.251873 0.335901
O O3 0.500000 0.059449 0.870705
O O4 0.332007 0.105489 0.710030
O O5 0.314623 0.000000 0.815034
O O6 0.323524 0.080109 0.058011
O O7 0.738538 0.898266 0.377082
O O8 0.892057 0.918691 0.117796
O O9 0.771276 0.000000 0.260939
O O10 0.111874 0.889236 0.641340
O O11 0.000000 0.794336 0.590893
O O12 0.000000 0.844267 0.914114
O O13 0.000000 0.835104 0.265862
#
# Coordination Sequence:
#
# PCOD8173620 Si02
#       7
#     4   8   8   4   8   4   4
#     4  10  22  40  68  86 122 166 206 260 310 368
#     4  10  23  41  60  89 126 162 206 255 302 369
#     4  11  22  38  62  91 124 162 199 249 312 374
#     4  10  20  36  63  88 122 157 192 257 304 363
#     4  11  21  41  64  90 122 158 209 251 314 366
#     4  10  22  43  60  92 127 160 206 265 306 369
#     4  12  19  39  63  90 130 153 198 254 314 358
#
# _framework density 19.367422999999999
#
# number of rings (size 3 to 8) (size 9 to 14) (size 15 to 20)
#    0.000    1.400    6.000    0.900    1.400    0.800 
#    0.000   12.500    0.000    0.000    0.000    0.000 
#    0.000    0.000    0.000    0.000    0.000    0.000 
#
# Total GULP energy -247866.652708 kJ/mol
# GULP energy per Si atom -12393.332635 kJ/mol
# Density = 1.932334 g / cm^3
# Si number density = 19.367423 Si / 1000 Ang^3
#
#
#
# Elastic Constant Matrix: (Units=GPa)
#
#
# Indices 1 2 3 4 5 6 
#
# 1 118.0052 32.0237 34.3659 0.0000 0.0000 0.0000
# 2 32.0237 100.7748 62.8278 0.0000 0.0000 0.0000
# 3 34.3659 62.8278 114.4456 0.0000 0.0000 0.0000
# 4 0.0000 0.0000 0.0000 20.5911 0.0000 0.0000
# 5 0.0000 0.0000 0.0000 0.0000 61.3260 0.0000
# 6 0.0000 0.0000 0.0000 0.0000 0.0000 32.6107
#
#
#
# Elastic Compliance Matrix: (Units=1/GPa)
#
#
# Indices 1 2 3 4 5 6 
#
# 1 0.009517 -0.001889 -0.001821 0.000000 0.000000 0.000000
# 2 -0.001889 0.015462 -0.007921 0.000000 0.000000 0.000000
# 3 -0.001821 -0.007921 0.013633 0.000000 0.000000 0.000000
# 4 0.000000 0.000000 0.000000 0.048565 0.000000 0.000000
# 5 0.000000 0.000000 0.000000 0.000000 0.016306 0.000000
# 6 0.000000 0.000000 0.000000 0.000000 0.000000 0.030665
#
#
# Mechanical properties :
#
#
# Convention : Reuss Voigt Hill
#
# Bulk Modulus (GPa) = 65.14555 65.74006 65.44281
# Shear Modulus (GPa) = 30.76444 36.50610 33.63527
#
# Velocity S-wave (km/s) = 3.98988 4.34628 4.17189
# Velocity P-wave (km/s) = 7.41183 7.69443 7.55445
#
# Compressibility (1/GPa) = 0.01535024
#
# Stress axis : x y z
#
# Youngs Moduli (GPa) = 105.07387 64.67621 73.35246
#
# Poissons Ratio (x) = 0.12219 0.13355
# Poissons Ratio (y) = 0.19850 0.58101
# Poissons Ratio (z) = 0.19131 0.51229
#
# Static dielectric constant tensor:
#      x y z
#    x 3.950740 0.000000 0.000000 
#    y 0.000000 3.488200 0.000000 
#    z 0.000000 0.000000 3.425840 
# 
# 
# High freq. dielectric constant tensor:
#      x y z
#    x 1.773380 0.000000 0.000000 
#    y 0.000000 1.739430 0.000000 
#    z 0.000000 0.000000 1.745800 
# 
# From -- ./inp_files/6123.got.cif
#   From: 2010.03.12/outbox.cif.g09.slc.cpg/sg35_4_cif.got.tgz:6123.got - 2010.04.14 02:02:04.
