data_PCOD8173954
_publ_section_title
;
Structure prediction by ZEFSAII (Michael W. Deem and Ramdas Pophale) SiO2 
 PCOD8173954
Probable space group: C M M 2
;
_chemical_formula_sum "Si O2"
_cell_formula_units_Z 64
_cell_length_a 30.672595
_cell_length_b 8.703624
_cell_length_c 11.795759
_cell_angle_alpha 90.000000
_cell_angle_beta 90.000000
_cell_angle_gamma 90.000000
_cell_volume 3149.028072
_symmetry_space_group_name_H-M "C M M 2"
_symmetry_group_IT_number 35
_symmetry_cell_setting 'orthorhombic'
loop_
_space_group_symop_operation_xyz
x,y,z
-x,-y,z
-x,y,z
x,-y,z
1/2+x,1/2+y,z
1/2-x,1/2-y,z
1/2-x,1/2+y,z
1/2+x,1/2-y,z
loop_
_atom_site_type_symbol
_atom_site_label
_atom_site_fract_x
_atom_site_fract_y
_atom_site_fract_z
Si Si1 0.677150 0.180445 0.075790
Si Si2 0.294186 0.319613 0.309819
Si Si3 0.049551 0.176501 0.843288
Si Si4 0.294505 0.319381 0.844463
Si Si5 0.373662 0.821358 0.709394
Si Si6 0.923720 0.321435 0.070805
Si Si7 0.375619 0.321148 0.467319
Si Si8 0.049131 0.175036 0.298046
O O1 0.698475 0.236878 0.190976
O O2 0.626620 0.225836 0.075058
O O3 0.684253 0.000000 0.062540
O O4 0.700697 0.264177 0.972972
O O5 0.289838 0.500000 0.289564
O O6 0.250000 0.250000 0.363633
O O7 0.333166 0.280538 0.394659
O O8 0.080276 0.279851 0.765413
O O9 0.000000 0.200148 0.801973
O O10 0.063906 0.000000 0.830742
O O11 0.052728 0.223868 0.974267
O O12 0.290854 0.500000 0.841537
O O13 0.250000 0.250000 0.792699
O O14 0.335084 0.270169 0.768762
O O15 0.374952 0.782988 0.577615
O O16 0.364855 0.000000 0.728038
O O17 0.929989 0.500000 0.043612
O O18 0.945750 0.283753 0.190115
O O19 0.376937 0.500000 0.501570
O O20 0.418328 0.272605 0.396939
O O21 0.000000 0.189841 0.345050
O O22 0.060001 0.000000 0.261859
#
# Coordination Sequence:
#
# PCOD8173954 Si02
#       8
#     8   8   8   8   8   8   8   8
#     4  11  22  38  62  94 130 166 206 252 312 374
#     4  11  23  40  64  92 125 164 207 255 308 368
#     4  11  24  42  66  94 126 167 212 258 312 375
#     4  12  25  43  68  95 128 166 209 257 312 374
#     4  12  26  44  66  93 126 164 210 263 317 371
#     4  11  22  36  61  94 131 166 202 254 313 373
#     4  10  23  43  64  88 121 164 212 259 310 365
#     4  10  21  39  64  92 124 163 208 255 306 370
#
# _framework density 20.323730999999999
#
# number of rings (size 3 to 8) (size 9 to 14) (size 15 to 20)
#    0.000    1.000    2.500    4.500    0.000    6.250 
#    0.000    2.500    0.000    0.000    0.000    0.000 
#    0.000    0.000    0.000    0.000    0.000    0.000 
#
# Total GULP energy -397033.592085 kJ/mol
# GULP energy per Si atom -12407.299753 kJ/mol
# Density = 2.027747 g / cm^3
# Si number density = 20.323731 Si / 1000 Ang^3
#
#
#
# Elastic Constant Matrix: (Units=GPa)
#
#
# Indices 1 2 3 4 5 6 
#
# 1 139.9080 51.2262 46.0788 0.0000 0.0000 0.0000
# 2 51.2262 101.1121 38.8253 0.0000 0.0000 0.0000
# 3 46.0788 38.8253 109.7461 0.0000 0.0000 0.0000
# 4 0.0000 0.0000 0.0000 23.6663 0.0000 0.0000
# 5 0.0000 0.0000 0.0000 0.0000 5.5509 0.0000
# 6 0.0000 0.0000 0.0000 0.0000 0.0000 32.9428
#
#
#
# Elastic Compliance Matrix: (Units=1/GPa)
#
#
# Indices 1 2 3 4 5 6 
#
# 1 0.009381 -0.003750 -0.002612 0.000000 0.000000 0.000000
# 2 -0.003750 0.012943 -0.003005 0.000000 0.000000 0.000000
# 3 -0.002612 -0.003005 0.011272 0.000000 0.000000 0.000000
# 4 0.000000 0.000000 0.000000 0.042254 0.000000 0.000000
# 5 0.000000 0.000000 0.000000 0.000000 0.180150 0.000000
# 6 0.000000 0.000000 0.000000 0.000000 0.000000 0.030356
#
#
# Mechanical properties :
#
#
# Convention : Reuss Voigt Hill
#
# Bulk Modulus (GPa) = 67.28128 69.22518 68.25323
# Shear Modulus (GPa) = 16.12682 26.74107 21.43394
#
# Velocity S-wave (km/s) = 2.81996 3.63127 3.25102
# Velocity P-wave (km/s) = 6.61661 7.19143 6.91000
#
# Compressibility (1/GPa) = 0.01486298
#
# Stress axis : x y z
#
# Youngs Moduli (GPa) = 106.60152 77.25956 88.71773
#
# Poissons Ratio (x) = 0.28969 0.23175
# Poissons Ratio (y) = 0.39970 0.26657
# Poissons Ratio (z) = 0.27846 0.23214
#
# Static dielectric constant tensor:
#      x y z
#    x 3.957290 0.000000 0.000000 
#    y 0.000000 3.771160 0.000000 
#    z 0.000000 0.000000 3.570780 
# 
# 
# High freq. dielectric constant tensor:
#      x y z
#    x 1.814770 0.000000 0.000000 
#    y 0.000000 1.801210 0.000000 
#    z 0.000000 0.000000 1.786870 
# 
# From -- ./inp_files/11991.got.cif
#   From: 2010.03.12/outbox.cif.g09.slc.cpg/sg35_6_cif.got.tgz:11991.got - 2010.04.14 02:02:04.
