data_PCOD8173178
_publ_section_title
;
Structure prediction by ZEFSAII (Michael W. Deem and Ramdas Pophale) SiO2 
 PCOD8173178
Probable space group: C M M 2
;
_chemical_formula_sum "Si O2"
_cell_formula_units_Z 64
_cell_length_a 28.298792
_cell_length_b 9.084168
_cell_length_c 14.075040
_cell_angle_alpha 90.000000
_cell_angle_beta 90.000000
_cell_angle_gamma 90.000000
_cell_volume 3618.284337
_symmetry_space_group_name_H-M "C M M 2"
_symmetry_group_IT_number 35
_symmetry_cell_setting 'orthorhombic'
loop_
_space_group_symop_operation_xyz
x,y,z
-x,-y,z
-x,y,z
x,-y,z
1/2+x,1/2+y,z
1/2-x,1/2-y,z
1/2-x,1/2+y,z
1/2+x,1/2-y,z
loop_
_atom_site_type_symbol
_atom_site_label
_atom_site_fract_x
_atom_site_fract_y
_atom_site_fract_z
Si Si1 0.298433 0.830636 0.213280
Si Si2 0.200204 0.673241 0.736059
Si Si3 0.552260 0.825389 0.228034
Si Si4 0.123109 0.672272 0.580914
Si Si5 0.553693 0.672038 0.712866
Si Si6 0.130366 0.324460 0.368040
Si Si7 0.370392 0.672619 0.868261
Si Si8 0.120970 0.669466 0.063533
O O1 0.250000 0.750000 0.194465
O O2 0.324660 0.767188 0.307403
O O3 0.330738 0.807772 0.120998
O O4 0.286729 0.000000 0.229242
O O5 0.207155 0.500000 0.751529
O O6 0.250000 0.750000 0.719616
O O7 0.168917 0.709323 0.643563
O O8 0.174958 0.740522 0.828475
O O9 0.500000 0.754769 0.231672
O O10 0.582531 0.765773 0.317509
O O11 0.577105 0.781917 0.129264
O O12 0.549584 0.000000 0.234410
O O13 0.112687 0.500000 0.578289
O O14 0.076379 0.748126 0.622220
O O15 0.132801 0.735214 0.475410
O O16 0.500000 0.727277 0.727086
O O17 0.555426 0.500000 0.691920
O O18 0.583077 0.712222 0.807271
O O19 0.130701 0.500000 0.365063
O O20 0.359119 0.500000 0.865189
O O21 0.379954 0.722845 0.974622
O O22 0.115982 0.500000 0.030486
#
# Coordination Sequence:
#
# PCOD8173178 Si02
#       8
#     8   8   8   8   8   8   8   8
#     4   9  18  32  49  69  96 128 158 192 235 281
#     4  10  20  34  51  72  99 128 160 200 244 288
#     4   8  14  26  46  71  97 126 159 194 236 286
#     4   9  18  32  51  75 100 126 161 204 241 278
#     4   9  19  35  51  69  98 132 162 196 242 293
#     4   8  15  29  47  70 100 127 154 194 239 278
#     4  10  20  34  52  72  95 127 165 201 241 289
#     4   9  18  32  48  69  98 126 155 198 245 283
#
# _framework density 17.687942
#
# number of rings (size 3 to 8) (size 9 to 14) (size 15 to 20)
#    0.000    3.000    0.000    2.250    0.000    3.750 
#    0.000    3.125    0.000    0.750    0.000    0.000 
#    0.000    0.000    0.000    0.000    0.000    0.000 
#
# Total GULP energy -396748.435689 kJ/mol
# GULP energy per Si atom -12398.388615 kJ/mol
# Density = 1.764768 g / cm^3
# Si number density = 17.687942 Si / 1000 Ang^3
#
#
#
# Elastic Constant Matrix: (Units=GPa)
#
#
# Indices 1 2 3 4 5 6 
#
# 1 124.9144 35.1579 30.5182 0.0000 0.0000 0.0000
# 2 35.1579 45.1132 27.9714 0.0000 0.0000 0.0000
# 3 30.5182 27.9714 99.9808 0.0000 0.0000 0.0000
# 4 0.0000 0.0000 0.0000 19.7993 0.0000 0.0000
# 5 0.0000 0.0000 0.0000 0.0000 12.9307 0.0000
# 6 0.0000 0.0000 0.0000 0.0000 0.0000 25.9098
#
#
#
# Elastic Compliance Matrix: (Units=1/GPa)
#
#
# Indices 1 2 3 4 5 6 
#
# 1 0.010353 -0.007391 -0.001092 0.000000 0.000000 0.000000
# 2 -0.007391 0.032095 -0.006723 0.000000 0.000000 0.000000
# 3 -0.001092 -0.006723 0.012216 0.000000 0.000000 0.000000
# 4 0.000000 0.000000 0.000000 0.050507 0.000000 0.000000
# 5 0.000000 0.000000 0.000000 0.000000 0.077335 0.000000
# 6 0.000000 0.000000 0.000000 0.000000 0.000000 0.038595
#
#
# Mechanical properties :
#
#
# Convention : Reuss Voigt Hill
#
# Bulk Modulus (GPa) = 41.23511 50.81149 46.02330
# Shear Modulus (GPa) = 19.26062 23.48537 21.37300
#
# Velocity S-wave (km/s) = 3.30345 3.64780 3.47989
# Velocity P-wave (km/s) = 6.15739 6.82136 6.49786
#
# Compressibility (1/GPa) = 0.02425118
#
# Stress axis : x y z
#
# Youngs Moduli (GPa) = 96.59502 31.15778 81.85814
#
# Poissons Ratio (x) = 0.23028 0.08942
# Poissons Ratio (y) = 0.71390 0.55034
# Poissons Ratio (z) = 0.10551 0.20948
#
# Static dielectric constant tensor:
#      x y z
#    x 3.478540 0.000000 0.000000 
#    y 0.000000 3.007170 0.000000 
#    z 0.000000 0.000000 3.374070 
# 
# 
# High freq. dielectric constant tensor:
#      x y z
#    x 1.688760 0.000000 0.000000 
#    y 0.000000 1.657800 0.000000 
#    z 0.000000 0.000000 1.686790 
# 
# From -- ./inp_files/17754.got.cif
#   From: 2010.03.12/outbox.cif.g09.slc.cpg/sg35_9_cif.got.tgz:17754.got - 2010.04.14 02:02:04.
