data_PCOD8173466
_publ_section_title
;
Structure prediction by ZEFSAII (Michael W. Deem and Ramdas Pophale) SiO2 
 PCOD8173466
Probable space group: C M M 2
;
_chemical_formula_sum "Si O2"
_cell_formula_units_Z 64
_cell_length_a 28.259129
_cell_length_b 8.819894
_cell_length_c 12.972706
_cell_angle_alpha 90.000000
_cell_angle_beta 90.000000
_cell_angle_gamma 90.000000
_cell_volume 3233.349965
_symmetry_space_group_name_H-M "C M M 2"
_symmetry_group_IT_number 35
_symmetry_cell_setting 'orthorhombic'
loop_
_space_group_symop_operation_xyz
x,y,z
-x,-y,z
-x,y,z
x,-y,z
1/2+x,1/2+y,z
1/2-x,1/2-y,z
1/2-x,1/2+y,z
1/2+x,1/2-y,z
loop_
_atom_site_type_symbol
_atom_site_label
_atom_site_fract_x
_atom_site_fract_y
_atom_site_fract_z
Si Si1 0.946593 0.319339 0.183160
Si Si2 0.555941 0.329597 0.573139
Si Si3 0.698773 0.178392 0.698394
Si Si4 0.800162 0.322974 0.470060
Si Si5 0.801713 0.179149 0.901434
Si Si6 0.604300 0.821278 0.385077
Si Si7 0.055744 0.174549 0.804650
Si Si8 0.888765 0.321793 0.985241
O O1 0.947675 0.500000 0.187402
O O2 0.920899 0.250525 0.284714
O O3 0.000000 0.254991 0.178958
O O4 0.918309 0.262678 0.083366
O O5 0.500000 0.322312 0.564848
O O6 0.573799 0.500000 0.550906
O O7 0.577231 0.217992 0.489321
O O8 0.571434 0.279716 0.688412
O O9 0.750000 0.250000 0.700345
O O10 0.678864 0.215244 0.584593
O O11 0.673311 0.263112 0.793929
O O12 0.700318 0.000000 0.721710
O O13 0.790957 0.500000 0.461940
O O14 0.750000 0.250000 0.443388
O O15 0.840791 0.265877 0.391486
O O16 0.750000 0.250000 0.920458
O O17 0.838139 0.235968 0.988821
O O18 0.796984 0.000000 0.902315
O O19 0.603894 0.000000 0.375407
O O20 0.081745 0.285108 0.883093
O O21 0.000000 0.197672 0.817864
O O22 0.069626 0.000000 0.827082
O O23 0.879335 0.500000 0.991142
#
# Coordination Sequence:
#
# PCOD8173466 Si02
#       8
#     8   8   8   8   8   8   8   8
#     4   9  19  37  60  84 111 145 187 236 287 336
#     4   9  19  35  53  78 113 147 179 221 280 345
#     4   9  16  29  48  74 108 145 184 225 269 321
#     4   9  19  33  51  78 112 147 185 227 271 324
#     4  11  22  37  56  81 113 150 190 232 284 338
#     4  10  20  35  57  84 111 144 189 235 280 333
#     4   9  19  36  55  79 114 150 183 228 288 349
#     4  11  22  36  57  83 111 146 193 241 286 338
#
# _framework density 19.793711999999999
#
# number of rings (size 3 to 8) (size 9 to 14) (size 15 to 20)
#    0.000    2.375    0.000    4.125    1.750    3.000 
#    0.000    3.125    0.000    4.500    0.000    0.000 
#    0.000    0.000    0.000    0.000    0.000    0.000 
#
# Total GULP energy -396632.125694 kJ/mol
# GULP energy per Si atom -12394.753928 kJ/mol
# Density = 1.974866 g / cm^3
# Si number density = 19.793712 Si / 1000 Ang^3
#
#
#
# Elastic Constant Matrix: (Units=GPa)
#
#
# Indices 1 2 3 4 5 6 
#
# 1 117.2013 34.8409 84.0459 0.0000 0.0000 0.0000
# 2 34.8409 61.5422 31.3289 0.0000 0.0000 0.0000
# 3 84.0459 31.3289 126.8695 0.0000 0.0000 0.0000
# 4 0.0000 0.0000 0.0000 17.2533 0.0000 0.0000
# 5 0.0000 0.0000 0.0000 0.0000 36.0806 0.0000
# 6 0.0000 0.0000 0.0000 0.0000 0.0000 29.0691
#
#
#
# Elastic Compliance Matrix: (Units=1/GPa)
#
#
# Indices 1 2 3 4 5 6 
#
# 1 0.017290 -0.004527 -0.010336 0.000000 0.000000 0.000000
# 2 -0.004527 0.019770 -0.001883 0.000000 0.000000 0.000000
# 3 -0.010336 -0.001883 0.015195 0.000000 0.000000 0.000000
# 4 0.000000 0.000000 0.000000 0.057960 0.000000 0.000000
# 5 0.000000 0.000000 0.000000 0.000000 0.027716 0.000000
# 6 0.000000 0.000000 0.000000 0.000000 0.000000 0.034401
#
#
# Mechanical properties :
#
#
# Convention : Reuss Voigt Hill
#
# Bulk Modulus (GPa) = 53.29741 67.33826 60.31784
# Shear Modulus (GPa) = 23.57622 26.84044 25.20833
#
# Velocity S-wave (km/s) = 3.45497 3.68640 3.57256
# Velocity P-wave (km/s) = 6.54986 7.22587 6.89615
#
# Compressibility (1/GPa) = 0.01876264
#
# Stress axis : x y z
#
# Youngs Moduli (GPa) = 57.83628 50.58061 65.81326
#
# Poissons Ratio (x) = 0.22896 0.68026
# Poissons Ratio (y) = 0.26181 0.12395
# Poissons Ratio (z) = 0.59781 0.09526
#
# Static dielectric constant tensor:
#      x y z
#    x 3.696520 0.000000 0.000000 
#    y 0.000000 3.480470 0.000000 
#    z 0.000000 0.000000 4.248660 
# 
# 
# High freq. dielectric constant tensor:
#      x y z
#    x 1.781020 0.000000 0.000000 
#    y 0.000000 1.753470 0.000000 
#    z 0.000000 0.000000 1.760740 
# 
# From -- ./inp_files/11899.got.cif
#   From: 2010.03.12/outbox.cif.g09.slc.cpg/sg35_6_cif.got.tgz:11899.got - 2010.04.14 02:02:04.
