data_PCOD8173058
_publ_section_title
;
Structure prediction by ZEFSAII (Michael W. Deem and Ramdas Pophale) SiO2 
 PCOD8173058
Probable space group: C M M 2
;
_chemical_formula_sum "Si O2"
_cell_formula_units_Z 64
_cell_length_a 8.905436
_cell_length_b 19.227188
_cell_length_c 20.383999
_cell_angle_alpha 90.000000
_cell_angle_beta 90.000000
_cell_angle_gamma 90.000000
_cell_volume 3490.280646
_symmetry_space_group_name_H-M "C M M 2"
_symmetry_group_IT_number 35
_symmetry_cell_setting 'orthorhombic'
loop_
_space_group_symop_operation_xyz
x,y,z
-x,-y,z
-x,y,z
x,-y,z
1/2+x,1/2+y,z
1/2-x,1/2-y,z
1/2-x,1/2+y,z
1/2+x,1/2-y,z
loop_
_atom_site_type_symbol
_atom_site_label
_atom_site_fract_x
_atom_site_fract_y
_atom_site_fract_z
Si Si1 0.824354 0.322071 0.250000
Si Si2 0.822532 0.423927 0.507235
Si Si3 0.822737 0.321998 0.397740
Si Si4 0.177910 0.826286 0.763364
Si Si5 0.174670 0.919551 0.147776
Si Si6 0.834252 0.082189 0.003100
Si Si7 0.674736 0.918830 0.873195
Si Si8 0.324966 0.081262 0.654736
O O1 0.750000 0.250000 0.228921
O O2 0.776822 0.343955 0.323923
O O3 0.774598 0.381801 0.201221
O O4 0.000000 0.311140 0.245006
O O5 0.750962 0.500000 0.497539
O O6 0.754461 0.375995 0.450184
O O7 0.784862 0.396856 0.580269
O O8 0.000000 0.428913 0.499580
O O9 0.750000 0.250000 0.417397
O O10 0.000000 0.315333 0.404844
O O11 0.250000 0.750000 0.763840
O O12 0.229598 0.870478 0.825886
O O13 0.225167 0.868846 0.699156
O O14 0.000000 0.817744 0.764842
O O15 0.000000 0.906599 0.162374
O O16 0.216371 0.000000 0.153334
O O17 0.215656 0.890216 0.074943
O O18 0.715205 0.103789 0.947534
O O19 0.000000 0.111468 0.984753
O O20 0.845692 0.000000 0.009123
O O21 0.500000 0.905227 0.860936
O O22 0.715170 0.000000 0.860881
O O23 0.500000 0.094017 0.670479
O O24 0.286465 0.000000 0.667334
#
# Coordination Sequence:
#
# PCOD8173058 Si02
#       8
#     8   8   8   8   8   8   8   8
#     4  10  20  33  50  72 101 138 178 219 259 306
#     4   8  15  30  53  78 103 132 166 206 252 301
#     4   9  18  32  50  72  99 133 172 212 255 304
#     4  12  25  39  55  76 106 140 174 215 259 303
#     4   9  18  33  53  77 106 137 169 211 261 309
#     4   8  15  30  52  77 104 135 171 209 252 304
#     4  10  20  35  57  83 109 137 170 209 253 304
#     4   9  18  35  58  81 106 137 172 209 252 306
#
# _framework density 18.336634
#
# number of rings (size 3 to 8) (size 9 to 14) (size 15 to 20)
#    0.000    2.625    0.000    3.750    0.000    4.750 
#    0.000    5.000    0.000    4.125    0.000    0.000 
#    0.000    0.000    0.000    0.000    0.000    0.000 
#
# Total GULP energy -396687.800986 kJ/mol
# GULP energy per Si atom -12396.493781 kJ/mol
# Density = 1.829490 g / cm^3
# Si number density = 18.336634 Si / 1000 Ang^3
#
#
#
# Elastic Constant Matrix: (Units=GPa)
#
#
# Indices 1 2 3 4 5 6 
#
# 1 74.5765 48.5702 47.3840 0.0000 0.0000 0.0000
# 2 48.5702 92.3950 72.9120 0.0000 0.0000 0.0000
# 3 47.3840 72.9120 135.4700 0.0000 0.0000 0.0000
# 4 0.0000 0.0000 0.0000 -7.3793 0.0000 0.0000
# 5 0.0000 0.0000 0.0000 0.0000 25.6682 0.0000
# 6 0.0000 0.0000 0.0000 0.0000 0.0000 27.8181
#
#
#
# Elastic Compliance Matrix: (Units=1/GPa)
#
#
# Indices 1 2 3 4 5 6 
#
# 1 0.020837 -0.009043 -0.002421 0.000000 0.000000 0.000000
# 2 -0.009043 0.022738 -0.009075 0.000000 0.000000 0.000000
# 3 -0.002421 -0.009075 0.013113 0.000000 0.000000 0.000000
# 4 0.000000 0.000000 0.000000 -0.135514 0.000000 0.000000
# 5 0.000000 0.000000 0.000000 0.000000 0.038959 0.000000
# 6 0.000000 0.000000 0.000000 0.000000 0.000000 0.035948
#
#
# Mechanical properties :
#
#
# Convention : Reuss Voigt Hill
#
# Bulk Modulus (GPa) = 64.06274 71.13044 67.59659
# Shear Modulus (GPa) = 118.02930 18.12640 68.07785
#
# Velocity S-wave (km/s) = 8.03167 3.14751 6.09978
# Velocity P-wave (km/s) = 11.00106 7.21698 9.30344
#
# Compressibility (1/GPa) = 0.01560970
#
# Stress axis : x y z
#
# Youngs Moduli (GPa) = 47.99187 43.97891 76.26060
#
# Poissons Ratio (x) = 0.39769 0.18464
# Poissons Ratio (y) = 0.43398 0.69207
# Poissons Ratio (z) = 0.11620 0.39911
#
# Static dielectric constant tensor:
#      x y z
#    x 3.221360 0.000000 0.000000 
#    y 0.000000 3.469160 0.000000 
#    z 0.000000 0.000000 3.674000 
# 
# 
# High freq. dielectric constant tensor:
#      x y z
#    x 1.697230 0.000000 0.000000 
#    y 0.000000 1.693530 0.000000 
#    z 0.000000 0.000000 1.726530 
# 
# From -- ./inp_files/18353.got.cif
#   From: 2010.03.12/outbox.cif.g09.slc.cpg/sg35_10_cif.got.tgz:18353.got - 2010.04.14 02:02:04.
