data_PCOD8173569
_publ_section_title
;
Structure prediction by ZEFSAII (Michael W. Deem and Ramdas Pophale) SiO2 
 PCOD8173569
Probable space group: C M M 2
;
_chemical_formula_sum "Si O2"
_cell_formula_units_Z 48
_cell_length_a 8.843150
_cell_length_b 15.637377
_cell_length_c 16.987687
_cell_angle_alpha 90.000000
_cell_angle_beta 90.000000
_cell_angle_gamma 90.000000
_cell_volume 2349.119710
_symmetry_space_group_name_H-M "C M M 2"
_symmetry_group_IT_number 35
_symmetry_cell_setting 'orthorhombic'
loop_
_space_group_symop_operation_xyz
x,y,z
-x,-y,z
-x,y,z
x,-y,z
1/2+x,1/2+y,z
1/2-x,1/2-y,z
1/2-x,1/2+y,z
1/2+x,1/2-y,z
loop_
_atom_site_type_symbol
_atom_site_label
_atom_site_fract_x
_atom_site_fract_y
_atom_site_fract_z
Si Si1 0.823031 0.339365 0.755740
Si Si2 0.334872 0.403249 0.610967
Si Si3 0.672434 0.898217 0.457811
Si Si4 0.821405 0.341482 0.935463
Si Si5 0.679031 0.338081 0.302056
Si Si6 0.178865 0.000000 0.205308
Si Si7 0.820367 0.000000 0.024881
O O1 0.750000 0.250000 0.733144
O O2 0.750570 0.405163 0.694718
O O3 0.784074 0.365339 0.845076
O O4 0.000000 0.335117 0.742573
O O5 0.500000 0.357790 0.617078
O O6 0.361510 0.500000 0.586214
O O7 0.233500 0.362307 0.541599
O O8 0.500000 0.867974 0.448276
O O9 0.773238 0.854049 0.391548
O O10 0.685264 0.000000 0.450796
O O11 0.750000 0.250000 0.958021
O O12 0.000000 0.337255 0.950657
O O13 0.747321 0.414735 0.987348
O O14 0.500000 0.331379 0.296826
O O15 0.750000 0.250000 0.270042
O O16 0.742761 0.415122 0.247793
O O17 0.230993 0.000000 0.115226
O O18 0.000000 0.000000 0.212463
O O19 0.000000 0.000000 0.014137
#
# Coordination Sequence:
#
# PCOD8173569 Si02
#       7
#     8   8   8   8   8   4   4
#     4  10  21  37  57  80 114 154 197 248 300 350
#     4  10  21  35  54  83 117 156 200 243 294 350
#     4  10  20  36  58  85 118 156 201 250 300 352
#     4  10  22  41  63  92 126 164 207 256 309 365
#     4  11  22  40  64  91 122 159 201 246 300 360
#     4   9  22  43  65  90 125 160 195 245 304 363
#     4  11  23  41  67  96 125 162 203 247 308 375
#
# _framework density 20.433185000000002
#
# number of rings (size 3 to 8) (size 9 to 14) (size 15 to 20)
#    0.000    1.833    0.833    2.750    1.167    5.000 
#    0.000    8.333    0.000    0.000    0.000    0.000 
#    0.000    0.000    0.000    0.000    0.000    0.000 
#
# Total GULP energy -297604.374307 kJ/mol
# GULP energy per Si atom -12400.182263 kJ/mol
# Density = 2.038668 g / cm^3
# Si number density = 20.433185 Si / 1000 Ang^3
#
#
#
# Elastic Constant Matrix: (Units=GPa)
#
#
# Indices 1 2 3 4 5 6 
#
# 1 111.8072 53.1158 53.6503 0.0000 0.0000 0.0000
# 2 53.1158 117.2166 71.0297 0.0000 0.0000 0.0000
# 3 53.6503 71.0297 140.2182 0.0000 0.0000 0.0000
# 4 0.0000 0.0000 0.0000 10.0919 0.0000 0.0000
# 5 0.0000 0.0000 0.0000 0.0000 25.5410 0.0000
# 6 0.0000 0.0000 0.0000 0.0000 0.0000 35.0729
#
#
#
# Elastic Compliance Matrix: (Units=1/GPa)
#
#
# Indices 1 2 3 4 5 6 
#
# 1 0.012049 -0.003847 -0.002661 0.000000 0.000000 0.000000
# 2 -0.003847 0.013538 -0.005386 0.000000 0.000000 0.000000
# 3 -0.002661 -0.005386 0.010878 0.000000 0.000000 0.000000
# 4 0.000000 0.000000 0.000000 0.099090 0.000000 0.000000
# 5 0.000000 0.000000 0.000000 0.000000 0.039153 0.000000
# 6 0.000000 0.000000 0.000000 0.000000 0.000000 0.028512
#
#
# Mechanical properties :
#
#
# Convention : Reuss Voigt Hill
#
# Bulk Modulus (GPa) = 78.88624 80.53707 79.71166
# Shear Modulus (GPa) = 21.62312 26.90423 24.26367
#
# Velocity S-wave (km/s) = 3.25658 3.63256 3.44970
# Velocity P-wave (km/s) = 7.26851 7.55609 7.41369
#
# Compressibility (1/GPa) = 0.01267648
#
# Stress axis : x y z
#
# Youngs Moduli (GPa) = 82.99743 73.86453 91.92557
#
# Poissons Ratio (x) = 0.28417 0.24463
# Poissons Ratio (y) = 0.31930 0.49512
# Poissons Ratio (z) = 0.22087 0.39784
#
# Static dielectric constant tensor:
#      x y z
#    x 3.821390 0.000000 0.000000 
#    y 0.000000 3.712500 0.000000 
#    z 0.000000 0.000000 3.754530 
# 
# 
# High freq. dielectric constant tensor:
#      x y z
#    x 1.806990 0.000000 0.000000 
#    y 0.000000 1.794830 0.000000 
#    z 0.000000 0.000000 1.798460 
# 
# From -- ./inp_files/15261.got.cif
#   From: 2010.03.12/outbox.cif.g09.slc.cpg/sg35_8_cif.got.tgz:15261.got - 2010.04.14 02:02:04.
