data_PCOD8173958
_publ_section_title
;
Structure prediction by ZEFSAII (Michael W. Deem and Ramdas Pophale) SiO2 
 PCOD8173958
Probable space group: C M M 2
;
_chemical_formula_sum "Si O2"
_cell_formula_units_Z 56
_cell_length_a 9.056282
_cell_length_b 20.314483
_cell_length_c 14.744531
_cell_angle_alpha 90.000000
_cell_angle_beta 90.000000
_cell_angle_gamma 90.000000
_cell_volume 2712.605727
_symmetry_space_group_name_H-M "C M M 2"
_symmetry_group_IT_number 35
_symmetry_cell_setting 'orthorhombic'
loop_
_space_group_symop_operation_xyz
x,y,z
-x,-y,z
-x,y,z
x,-y,z
1/2+x,1/2+y,z
1/2-x,1/2-y,z
1/2-x,1/2+y,z
1/2+x,1/2-y,z
loop_
_atom_site_type_symbol
_atom_site_label
_atom_site_fract_x
_atom_site_fract_y
_atom_site_fract_z
Si Si1 0.674200 0.000000 0.062030
Si Si2 0.325807 0.575429 0.652057
Si Si3 0.676076 0.681602 0.800948
Si Si4 0.837958 0.115191 0.331484
Si Si5 0.324909 0.136998 0.983869
Si Si6 0.829364 0.500000 0.265666
Si Si7 0.835915 0.191718 0.152990
Si Si8 0.171587 0.816994 0.510308
O O1 0.500000 0.000000 0.073844
O O2 0.744506 0.000000 0.164221
O O3 0.725540 0.937818 0.002993
O O4 0.500000 0.567758 0.650468
O O5 0.258328 0.500000 0.653747
O O6 0.277185 0.619275 0.738767
O O7 0.272180 0.617986 0.564786
O O8 0.500000 0.691167 0.802548
O O9 0.750000 0.750000 0.766088
O O10 0.735987 0.665665 0.900072
O O11 0.714682 0.059960 0.330180
O O12 0.848622 0.136385 0.227715
O O13 0.793556 0.171192 0.403883
O O14 0.000000 0.087577 0.360278
O O15 0.500000 0.144125 0.968161
O O16 0.275234 0.176775 0.071474
O O17 0.000000 0.500000 0.249541
O O18 0.750000 0.250000 0.204505
O O19 0.000000 0.209386 0.116661
O O20 0.250000 0.750000 0.542531
O O21 0.000000 0.805847 0.530849
#
# Coordination Sequence:
#
# PCOD8173958 Si02
#       8
#     4   8   8   8   8   4   8   8
#     4   9  20  37  57  82 113 154 196 241 299 353
#     4   9  20  39  64  93 122 156 198 245 299 361
#     4  11  23  40  63  91 121 156 200 248 302 359
#     4  10  22  37  57  87 119 157 202 245 294 354
#     4  11  22  39  60  84 117 155 198 243 299 360
#     4  11  21  37  59  84 117 160 202 249 303 351
#     4  11  22  36  54  81 116 154 198 245 293 345
#     4  10  21  39  65  92 122 161 201 248 302 357
#
# _framework density 20.644355999999998
#
# number of rings (size 3 to 8) (size 9 to 14) (size 15 to 20)
#    0.000    1.714    1.429    2.786    2.000    1.143 
#    0.000    1.786    0.000    1.714    0.000    0.000 
#    0.000    0.000    0.000    0.000    0.000    0.000 
#
# Total GULP energy -346953.831731 kJ/mol
# GULP energy per Si atom -12391.208276 kJ/mol
# Density = 2.059737 g / cm^3
# Si number density = 20.644356 Si / 1000 Ang^3
#
#
#
# Elastic Constant Matrix: (Units=GPa)
#
#
# Indices 1 2 3 4 5 6 
#
# 1 73.0202 48.1730 26.9149 0.0000 0.0000 0.0000
# 2 48.1730 155.5679 43.1755 0.0000 0.0000 0.0000
# 3 26.9149 43.1755 104.4131 0.0000 0.0000 0.0000
# 4 0.0000 0.0000 0.0000 4.5677 0.0000 0.0000
# 5 0.0000 0.0000 0.0000 0.0000 8.9352 0.0000
# 6 0.0000 0.0000 0.0000 0.0000 0.0000 30.2630
#
#
#
# Elastic Compliance Matrix: (Units=1/GPa)
#
#
# Indices 1 2 3 4 5 6 
#
# 1 0.017820 -0.004793 -0.002611 0.000000 0.000000 0.000000
# 2 -0.004793 0.008551 -0.002300 0.000000 0.000000 0.000000
# 3 -0.002611 -0.002300 0.011202 0.000000 0.000000 0.000000
# 4 0.000000 0.000000 0.000000 0.218927 0.000000 0.000000
# 5 0.000000 0.000000 0.000000 0.000000 0.111917 0.000000
# 6 0.000000 0.000000 0.000000 0.000000 0.000000 0.033044
#
#
# Mechanical properties :
#
#
# Convention : Reuss Voigt Hill
#
# Bulk Modulus (GPa) = 55.05914 63.28088 59.17001
# Shear Modulus (GPa) = 11.71172 23.06904 17.39038
#
# Velocity S-wave (km/s) = 2.38441 3.34645 2.90553
# Velocity P-wave (km/s) = 5.85737 6.75656 6.32297
#
# Compressibility (1/GPa) = 0.01816229
#
# Stress axis : x y z
#
# Youngs Moduli (GPa) = 56.11806 116.94920 89.27266
#
# Poissons Ratio (x) = 0.56057 0.23312
# Poissons Ratio (y) = 0.26899 0.20535
# Poissons Ratio (z) = 0.14654 0.26901
#
# Static dielectric constant tensor:
#      x y z
#    x 3.576170 0.000000 0.000000 
#    y 0.000000 4.564530 0.000000 
#    z 0.000000 0.000000 3.716910 
# 
# 
# High freq. dielectric constant tensor:
#      x y z
#    x 1.785850 0.000000 0.000000 
#    y 0.000000 1.818320 0.000000 
#    z 0.000000 0.000000 1.809310 
# 
# From -- ./inp_files/15791.got.cif
#   From: 2010.03.12/outbox.cif.g09.slc.cpg/sg35_8_cif.got.tgz:15791.got - 2010.04.14 02:02:04.
