data_PCOD8173334
_publ_section_title
;
Structure prediction by ZEFSAII (Michael W. Deem and Ramdas Pophale) SiO2 
 PCOD8173334
Probable space group: C M M 2
;
_chemical_formula_sum "Si O2"
_cell_formula_units_Z 64
_cell_length_a 15.723721
_cell_length_b 31.043461
_cell_length_c 6.934573
_cell_angle_alpha 90.000000
_cell_angle_beta 90.000000
_cell_angle_gamma 90.000000
_cell_volume 3384.894894
_symmetry_space_group_name_H-M "C M M 2"
_symmetry_group_IT_number 35
_symmetry_cell_setting 'orthorhombic'
loop_
_space_group_symop_operation_xyz
x,y,z
-x,-y,z
-x,y,z
x,-y,z
1/2+x,1/2+y,z
1/2-x,1/2-y,z
1/2-x,1/2+y,z
1/2+x,1/2-y,z
loop_
_atom_site_type_symbol
_atom_site_label
_atom_site_fract_x
_atom_site_fract_y
_atom_site_fract_z
Si Si1 0.405658 0.177189 0.754820
Si Si2 0.267505 0.449432 0.061563
Si Si3 0.160678 0.259472 0.046846
Si Si4 0.401303 0.104253 0.060686
Si Si5 0.602219 0.403722 0.793862
Si Si6 0.159776 0.111248 0.366304
Si Si7 0.092104 0.831636 0.065993
Si Si8 0.325462 0.833838 0.353673
O O1 0.500000 0.174095 0.673817
O O2 0.399040 0.220385 0.883268
O O3 0.346476 0.178396 0.570911
O O4 0.382813 0.136265 0.884608
O O5 0.259523 0.500000 0.080287
O O6 0.170230 0.432495 0.030975
O O7 0.304851 0.431322 0.261623
O O8 0.334890 0.438968 0.890145
O O9 0.250000 0.250000 0.944198
O O10 0.134358 0.212911 0.124665
O O11 0.169980 0.290426 0.230223
O O12 0.500000 0.087008 0.056846
O O13 0.387867 0.130019 0.261512
O O14 0.500000 0.412860 0.828834
O O15 0.621822 0.403054 0.568606
O O16 0.632618 0.357870 0.885238
O O17 0.086408 0.134590 0.243174
O O18 0.231426 0.147767 0.365817
O O19 0.000000 0.818103 0.997825
#
# Coordination Sequence:
#
# PCOD8173334 Si02
#       8
#     8   8   8   8   8   8   8   8
#     4  10  21  35  55  80 109 148 189 229 272 322
#     4  10  22  39  60  88 118 144 178 231 287 345
#     4  11  22  35  52  79 114 149 188 233 279 324
#     4   9  19  37  59  85 116 150 188 229 275 338
#     4  10  22  39  61  84 110 150 193 235 286 340
#     4  10  20  37  59  82 108 146 188 228 279 339
#     4  10  21  37  54  77 111 145 187 237 277 322
#     4  10  20  34  56  81 111 152 191 232 278 329
#
# _framework density 18.907530000000001
#
# number of rings (size 3 to 8) (size 9 to 14) (size 15 to 20)
#    0.000    2.000    1.250    1.875    3.500    4.500 
#    0.000    0.000    0.000    0.000    0.000    3.500 
#    0.000    0.000    0.000    0.000    0.000    0.000 
#
# Total GULP energy -396464.525579 kJ/mol
# GULP energy per Si atom -12389.516424 kJ/mol
# Density = 1.886450 g / cm^3
# Si number density = 18.907530 Si / 1000 Ang^3
#
#
#
# Elastic Constant Matrix: (Units=GPa)
#
#
# Indices 1 2 3 4 5 6 
#
# 1 88.1762 53.5438 35.8005 0.0000 0.0000 0.0000
# 2 53.5438 130.6141 35.8332 0.0000 0.0000 0.0000
# 3 35.8005 35.8332 112.8398 0.0000 0.0000 0.0000
# 4 0.0000 0.0000 0.0000 6.9585 0.0000 0.0000
# 5 0.0000 0.0000 0.0000 0.0000 28.1374 0.0000
# 6 0.0000 0.0000 0.0000 0.0000 0.0000 21.7632
#
#
#
# Elastic Compliance Matrix: (Units=1/GPa)
#
#
# Indices 1 2 3 4 5 6 
#
# 1 0.016155 -0.005714 -0.003311 0.000000 0.000000 0.000000
# 2 -0.005714 0.010408 -0.001492 0.000000 0.000000 0.000000
# 3 -0.003311 -0.001492 0.010386 0.000000 0.000000 0.000000
# 4 0.000000 0.000000 0.000000 0.143708 0.000000 0.000000
# 5 0.000000 0.000000 0.000000 0.000000 0.035540 0.000000
# 6 0.000000 0.000000 0.000000 0.000000 0.000000 0.045949
#
#
# Mechanical properties :
#
#
# Convention : Reuss Voigt Hill
#
# Bulk Modulus (GPa) = 62.83450 64.66502 63.74976
# Shear Modulus (GPa) = 17.33182 25.13531 21.23357
#
# Velocity S-wave (km/s) = 3.03093 3.65002 3.35479
# Velocity P-wave (km/s) = 6.74932 7.21377 6.98541
#
# Compressibility (1/GPa) = 0.01591482
#
# Stress axis : x y z
#
# Youngs Moduli (GPa) = 61.89997 96.07968 96.27959
#
# Poissons Ratio (x) = 0.54903 0.31877
# Poissons Ratio (y) = 0.35371 0.14367
# Poissons Ratio (z) = 0.20494 0.14337
#
# Static dielectric constant tensor:
#      x y z
#    x 3.574760 0.000000 0.000000 
#    y 0.000000 3.665860 0.000000 
#    z 0.000000 0.000000 3.386990 
# 
# 
# High freq. dielectric constant tensor:
#      x y z
#    x 1.749470 0.000000 0.000000 
#    y 0.000000 1.717850 0.000000 
#    z 0.000000 0.000000 1.730690 
# 
# From -- ./inp_files/2712.got.cif
#   From: 2010.03.12/outbox.cif.g09.slc.cpg/sg35_2_cif.got.tgz:2712.got - 2010.04.14 02:02:04.
