data_PCOD8174744
_publ_section_title
;
Structure prediction by ZEFSAII (Michael W. Deem and Ramdas Pophale) SiO2 
 PCOD8174744
Probable space group: C M C 21
;
_chemical_formula_sum "Si O2"
_cell_formula_units_Z 64
_cell_length_a 12.950146
_cell_length_b 26.340404
_cell_length_c 8.623778
_cell_angle_alpha 90.000000
_cell_angle_beta 90.000000
_cell_angle_gamma 90.000000
_cell_volume 2941.674829
_symmetry_space_group_name_H-M "C M C 21"
_symmetry_group_IT_number 36
_symmetry_cell_setting 'orthorhombic'
loop_
_space_group_symop_operation_xyz
x,y,z
-x,-y,1/2+z
x,-y,1/2+z
-x,y,z
1/2+x,1/2+y,z
1/2-x,1/2-y,1/2+z
1/2+x,1/2-y,1/2+z
1/2-x,1/2+y,z
loop_
_atom_site_type_symbol
_atom_site_label
_atom_site_fract_x
_atom_site_fract_y
_atom_site_fract_z
Si Si1 0.881545 0.957720 0.307930
Si Si2 0.883622 0.571481 0.039355
Si Si3 0.687217 0.631817 0.987616
Si Si4 0.385192 0.254155 0.976444
Si Si5 0.754151 0.900830 0.054839
Si Si6 0.611063 0.358660 0.811067
Si Si7 0.687360 0.019635 0.353623
Si Si8 0.748725 0.698515 0.729253
O O1 0.872887 0.921295 0.459099
O O2 0.840637 0.923248 0.167377
O O3 0.000000 0.974507 0.280520
O O4 0.809857 0.007204 0.328594
O O5 0.809589 0.619760 0.009419
O O6 0.860210 0.543838 0.200876
O O7 0.000000 0.592348 0.041007
O O8 0.869935 0.532915 0.894786
O O9 0.644114 0.658489 0.140075
O O10 0.668918 0.672235 0.849529
O O11 0.500000 0.232963 0.020377
O O12 0.397868 0.311146 0.922914
O O13 0.339612 0.222072 0.833136
O O14 0.309328 0.257676 0.127947
O O15 0.707062 0.847875 0.120774
O O16 0.804103 0.895028 0.884083
O O17 0.670241 0.943550 0.005755
O O18 0.500000 0.386014 0.804386
#
# Coordination Sequence:
#
# PCOD8174744 Si02
#       8
#     8   8   8   8   8   8   8   8
#     4  10  21  35  55  84 124 164 204 255 310 368
#     4  11  23  40  61  82 115 166 215 261 304 352
#     4  10  21  37  59  89 123 155 206 252 310 370
#     4  10  22  41  66  95 123 163 205 247 319 387
#     4  10  20  37  57  84 125 164 207 250 309 358
#     4  10  19  33  59  88 121 156 194 245 311 384
#     4  11  21  40  56  85 118 161 214 259 303 364
#     4  10  22  41  66  89 127 163 198 265 309 373
#
# _framework density 21.756314
#
# number of rings (size 3 to 8) (size 9 to 14) (size 15 to 20)
#    0.000    1.750    2.500    1.875    0.000    5.000 
#    0.000    1.875    0.000    0.000    0.000    0.000 
#    0.000    0.000    0.000    0.000    0.000    0.000 
#
# Total GULP energy -396528.731025 kJ/mol
# GULP energy per Si atom -12391.522845 kJ/mol
# Density = 2.170680 g / cm^3
# Si number density = 21.756314 Si / 1000 Ang^3
#
#
#
# Elastic Constant Matrix: (Units=GPa)
#
#
# Indices 1 2 3 4 5 6 
#
# 1 86.4471 20.3694 19.9809 0.0000 0.0000 0.0000
# 2 20.3694 41.8846 12.0163 0.0000 0.0000 0.0000
# 3 19.9809 12.0163 103.1277 0.0000 0.0000 0.0000
# 4 0.0000 0.0000 0.0000 41.4918 0.0000 0.0000
# 5 0.0000 0.0000 0.0000 0.0000 21.2276 0.0000
# 6 0.0000 0.0000 0.0000 0.0000 0.0000 17.3271
#
#
#
# Elastic Compliance Matrix: (Units=1/GPa)
#
#
# Indices 1 2 3 4 5 6 
#
# 1 0.013416 -0.005979 -0.001903 0.000000 0.000000 0.000000
# 2 -0.005979 0.027365 -0.002030 0.000000 0.000000 0.000000
# 3 -0.001903 -0.002030 0.010302 0.000000 0.000000 0.000000
# 4 0.000000 0.000000 0.000000 0.024101 0.000000 0.000000
# 5 0.000000 0.000000 0.000000 0.000000 0.047108 0.000000
# 6 0.000000 0.000000 0.000000 0.000000 0.000000 0.057713
#
#
# Mechanical properties :
#
#
# Convention : Reuss Voigt Hill
#
# Bulk Modulus (GPa) = 31.98975 37.35475 34.67225
# Shear Modulus (GPa) = 23.78128 27.94883 25.86506
#
# Velocity S-wave (km/s) = 3.30976 3.58806 3.45172
# Velocity P-wave (km/s) = 5.41678 5.86280 5.64420
#
# Compressibility (1/GPa) = 0.03126001
#
# Stress axis : x y z
#
# Youngs Moduli (GPa) = 74.53600 36.54277 97.06923
#
# Poissons Ratio (x) = 0.21848 0.18470
# Poissons Ratio (y) = 0.44563 0.19707
# Poissons Ratio (z) = 0.14182 0.07419
#
# Static dielectric constant tensor:
#      x y z
#    x 3.910850 0.000000 0.000000 
#    y 0.000000 3.900130 0.000000 
#    z 0.000000 0.000000 4.117220 
# 
# 
# High freq. dielectric constant tensor:
#      x y z
#    x 1.822590 0.000000 0.000000 
#    y 0.000000 1.849220 0.000000 
#    z 0.000000 0.000000 1.869960 
# 
# From -- ./inp_files/3611.got.cif
#   From: 2010.03.12/outbox.cif.g09.slc.cpg/sg36_2_cif.got.tgz:3611.got - 2010.04.14 02:13:53.
