data_PCOD8174590
_publ_section_title
;
Structure prediction by ZEFSAII (Michael W. Deem and Ramdas Pophale) SiO2 
 PCOD8174590
Probable space group: C M C 21
;
_chemical_formula_sum "Si O2"
_cell_formula_units_Z 56
_cell_length_a 30.716674
_cell_length_b 18.104105
_cell_length_c 5.061938
_cell_angle_alpha 90.000000
_cell_angle_beta 90.000000
_cell_angle_gamma 90.000000
_cell_volume 2814.933048
_symmetry_space_group_name_H-M "C M C 21"
_symmetry_group_IT_number 36
_symmetry_cell_setting 'orthorhombic'
loop_
_space_group_symop_operation_xyz
x,y,z
-x,-y,1/2+z
x,-y,1/2+z
-x,y,z
1/2+x,1/2+y,z
1/2-x,1/2-y,1/2+z
1/2+x,1/2-y,1/2+z
1/2-x,1/2+y,z
loop_
_atom_site_type_symbol
_atom_site_label
_atom_site_fract_x
_atom_site_fract_y
_atom_site_fract_z
Si Si1 0.431130 0.950082 0.332250
Si Si2 0.450865 0.783135 0.368885
Si Si3 0.781357 0.678222 0.820583
Si Si4 0.448995 0.451960 0.353847
Si Si5 0.309102 0.738548 0.819920
Si Si6 0.167221 0.457960 0.278517
Si Si7 0.591302 0.708670 0.864402
O O1 0.455307 0.871584 0.333377
O O2 0.380712 0.926398 0.334080
O O3 0.444160 0.000139 0.582056
O O4 0.500000 0.751362 0.376118
O O5 0.426395 0.763037 0.638810
O O6 0.424920 0.742860 0.137288
O O7 0.729136 0.677830 0.855153
O O8 0.798625 0.696998 0.528310
O O9 0.795997 0.596126 0.883733
O O10 0.805533 0.732435 0.022603
O O11 0.435179 0.492384 0.622117
O O12 0.500000 0.434334 0.344186
O O13 0.424442 0.374697 0.323634
O O14 0.356401 0.704441 0.865671
O O15 0.172922 0.529136 0.466224
#
# Coordination Sequence:
#
# PCOD8174590 Si02
#       7
#     8   8   8   8   8   8   8
#     4  10  21  36  55  80 114 156 196 232 281 340
#     4  12  25  39  60  87 117 154 195 247 292 329
#     4  10  20  37  56  84 113 144 187 225 276 337
#     4  10  21  38  59  82 112 150 186 228 287 352
#     4  10  21  36  60  82 111 148 181 230 281 330
#     4  10  19  32  52  78 108 144 184 225 267 322
#     4  12  23  40  62  89 117 148 195 243 288 344
#
# _framework density 19.893902000000001
#
# number of rings (size 3 to 8) (size 9 to 14) (size 15 to 20)
#    0.000    1.429    0.000    6.429    0.000    4.000 
#    0.000    1.429    0.000    0.000    0.000    0.000 
#    0.000    0.000    0.000    0.000    0.000    0.000 
#
# Total GULP energy -347183.831499 kJ/mol
# GULP energy per Si atom -12399.422554 kJ/mol
# Density = 1.984862 g / cm^3
# Si number density = 19.893902 Si / 1000 Ang^3
#
#
#
# Elastic Constant Matrix: (Units=GPa)
#
#
# Indices 1 2 3 4 5 6 
#
# 1 131.2421 42.4531 26.6952 0.0000 0.0000 0.0000
# 2 42.4531 82.8242 8.8989 0.0000 0.0000 0.0000
# 3 26.6952 8.8989 94.6021 0.0000 0.0000 0.0000
# 4 0.0000 0.0000 0.0000 21.5530 0.0000 0.0000
# 5 0.0000 0.0000 0.0000 0.0000 20.8501 0.0000
# 6 0.0000 0.0000 0.0000 0.0000 0.0000 28.5005
#
#
#
# Elastic Compliance Matrix: (Units=1/GPa)
#
#
# Indices 1 2 3 4 5 6 
#
# 1 0.009592 -0.004673 -0.002267 0.000000 0.000000 0.000000
# 2 -0.004673 0.014474 -0.000043 0.000000 0.000000 0.000000
# 3 -0.002267 -0.000043 0.011214 0.000000 0.000000 0.000000
# 4 0.000000 0.000000 0.000000 0.046397 0.000000 0.000000
# 5 0.000000 0.000000 0.000000 0.000000 0.047961 0.000000
# 6 0.000000 0.000000 0.000000 0.000000 0.000000 0.035087
#
#
# Mechanical properties :
#
#
# Convention : Reuss Voigt Hill
#
# Bulk Modulus (GPa) = 46.91736 51.64032 49.27884
# Shear Modulus (GPa) = 26.91109 29.55547 28.23328
#
# Velocity S-wave (km/s) = 3.68194 3.85860 3.77130
# Velocity P-wave (km/s) = 6.45837 6.77244 6.61727
#
# Compressibility (1/GPa) = 0.02131407
#
# Stress axis : x y z
#
# Youngs Moduli (GPa) = 104.25043 69.09100 89.17121
#
# Poissons Ratio (x) = 0.32287 0.20217
# Poissons Ratio (y) = 0.48717 0.00382
# Poissons Ratio (z) = 0.23636 0.00296
#
# Static dielectric constant tensor:
#      x y z
#    x 3.752070 0.000000 0.000000 
#    y 0.000000 3.410240 0.000000 
#    z 0.000000 0.000000 3.839420 
# 
# 
# High freq. dielectric constant tensor:
#      x y z
#    x 1.775420 0.000000 0.000000 
#    y 0.000000 1.763330 0.000000 
#    z 0.000000 0.000000 1.797810 
# 
# From -- ./inp_files/1859.got.cif
#   From: 2010.03.12/outbox.cif.g09.slc.cpg/sg36_1_cif.got.tgz:1859.got - 2010.04.14 02:13:53.
