data_PCOD8174853
_publ_section_title
;
Structure prediction by ZEFSAII (Michael W. Deem and Ramdas Pophale) SiO2 
 PCOD8174853
Probable space group: C M C 21
;
_chemical_formula_sum "Si O2"
_cell_formula_units_Z 56
_cell_length_a 12.653642
_cell_length_b 19.452037
_cell_length_c 10.310678
_cell_angle_alpha 90.000000
_cell_angle_beta 90.000000
_cell_angle_gamma 90.000000
_cell_volume 2537.861131
_symmetry_space_group_name_H-M "C M C 21"
_symmetry_group_IT_number 36
_symmetry_cell_setting 'orthorhombic'
loop_
_space_group_symop_operation_xyz
x,y,z
-x,-y,1/2+z
x,-y,1/2+z
-x,y,z
1/2+x,1/2+y,z
1/2-x,1/2-y,1/2+z
1/2+x,1/2-y,1/2+z
1/2-x,1/2+y,z
loop_
_atom_site_type_symbol
_atom_site_label
_atom_site_fract_x
_atom_site_fract_y
_atom_site_fract_z
Si Si1 0.380686 0.624799 0.510000
Si Si2 0.378678 0.985254 0.202633
Si Si3 0.381847 0.213894 0.371177
Si Si4 0.822420 0.663109 0.639158
Si Si5 0.324829 0.308345 0.747914
Si Si6 0.250474 0.993066 0.450112
Si Si7 0.878900 0.138042 0.978637
O O1 0.500000 0.620968 0.565148
O O2 0.305616 0.658363 0.620505
O O3 0.381460 0.670799 0.380643
O O4 0.340061 0.548509 0.478460
O O5 0.500000 0.008742 0.209985
O O6 0.369658 0.902732 0.211015
O O7 0.317164 0.017187 0.325373
O O8 0.328231 0.015051 0.071796
O O9 0.500000 0.212675 0.314503
O O10 0.373915 0.164447 0.495842
O O11 0.302617 0.186668 0.260988
O O12 0.345124 0.290273 0.413627
O O13 0.857585 0.729863 0.718576
O O14 0.362418 0.358294 0.633700
O O15 0.194314 0.920840 0.418604
O O16 0.000000 0.120461 0.948828
#
# Coordination Sequence:
#
# PCOD8174853 Si02
#       7
#     8   8   8   8   8   8   8
#     4  10  21  37  58  83 115 153 191 241 300 352
#     4  11  23  40  61  84 117 159 199 244 296 349
#     4   9  18  33  54  81 114 151 190 240 300 352
#     4   9  20  36  55  81 113 148 194 243 293 353
#     4  10  19  35  56  83 115 146 192 245 294 354
#     4  11  23  41  61  89 120 155 201 246 288 351
#     4  10  20  36  59  85 116 154 195 243 295 347
#
# _framework density 22.065825
#
# number of rings (size 3 to 8) (size 9 to 14) (size 15 to 20)
#    0.000    2.000    0.000    3.429    0.000    2.286 
#    0.000   14.286    0.000    0.857    0.000    0.000 
#    0.000    0.000    0.000    0.000    0.000    0.000 
#
# Total GULP energy -347309.784496 kJ/mol
# GULP energy per Si atom -12403.920875 kJ/mol
# Density = 2.201560 g / cm^3
# Si number density = 22.065825 Si / 1000 Ang^3
#
#
#
# Elastic Constant Matrix: (Units=GPa)
#
#
# Indices 1 2 3 4 5 6 
#
# 1 134.2630 15.6136 17.3380 0.0000 0.0000 0.0000
# 2 15.6136 53.0594 -6.6536 0.0000 0.0000 0.0000
# 3 17.3380 -6.6536 62.0783 0.0000 0.0000 0.0000
# 4 0.0000 0.0000 0.0000 23.9585 0.0000 0.0000
# 5 0.0000 0.0000 0.0000 0.0000 21.8825 0.0000
# 6 0.0000 0.0000 0.0000 0.0000 0.0000 26.3249
#
#
#
# Elastic Compliance Matrix: (Units=1/GPa)
#
#
# Indices 1 2 3 4 5 6 
#
# 1 0.008091 -0.002701 -0.002549 0.000000 0.000000 0.000000
# 2 -0.002701 0.020005 0.002898 0.000000 0.000000 0.000000
# 3 -0.002549 0.002898 0.017131 0.000000 0.000000 0.000000
# 4 0.000000 0.000000 0.000000 0.041739 0.000000 0.000000
# 5 0.000000 0.000000 0.000000 0.000000 0.045699 0.000000
# 6 0.000000 0.000000 0.000000 0.000000 0.000000 0.037987
#
#
# Mechanical properties :
#
#
# Convention : Reuss Voigt Hill
#
# Bulk Modulus (GPa) = 24.67641 33.55520 29.11581
# Shear Modulus (GPa) = 26.47418 29.30670 27.89044
#
# Velocity S-wave (km/s) = 3.46754 3.64833 3.55909
# Velocity P-wave (km/s) = 5.21912 5.74343 5.48754
#
# Compressibility (1/GPa) = 0.04052453
#
# Stress axis : x y z
#
# Youngs Moduli (GPa) = 123.58888 49.98749 58.37253
#
# Poissons Ratio (x) = 0.13500 0.14881
# Poissons Ratio (y) = 0.33378 -0.16919
# Poissons Ratio (z) = 0.31507 -0.14489
#
# Static dielectric constant tensor:
#      x y z
#    x 3.976110 0.000000 0.000000 
#    y 0.000000 3.887940 0.000000 
#    z 0.000000 0.000000 3.803300 
# 
# 
# High freq. dielectric constant tensor:
#      x y z
#    x 1.869780 0.000000 0.000000 
#    y 0.000000 1.865830 0.000000 
#    z 0.000000 0.000000 1.856510 
# 
# From -- ./inp_files/7843.got.cif
#   From: 2010.03.12/outbox.cif.g09.slc.cpg/sg36_4_cif.got.tgz:7843.got - 2010.04.14 02:13:53.
