data_PCOD8174566
_publ_section_title
;
Structure prediction by ZEFSAII (Michael W. Deem and Ramdas Pophale) SiO2 
 PCOD8174566
Probable space group: C M C 21
;
_chemical_formula_sum "Si O2"
_cell_formula_units_Z 64
_cell_length_a 21.855841
_cell_length_b 18.101890
_cell_length_c 9.590972
_cell_angle_alpha 90.000000
_cell_angle_beta 90.000000
_cell_angle_gamma 90.000000
_cell_volume 3794.495719
_symmetry_space_group_name_H-M "C M C 21"
_symmetry_group_IT_number 36
_symmetry_cell_setting 'orthorhombic'
loop_
_space_group_symop_operation_xyz
x,y,z
-x,-y,1/2+z
x,-y,1/2+z
-x,y,z
1/2+x,1/2+y,z
1/2-x,1/2-y,1/2+z
1/2+x,1/2-y,1/2+z
1/2-x,1/2+y,z
loop_
_atom_site_type_symbol
_atom_site_label
_atom_site_fract_x
_atom_site_fract_y
_atom_site_fract_z
Si Si1 0.868783 0.411641 0.754520
Si Si2 0.788100 0.228865 0.193358
Si Si3 0.722767 0.566782 0.518902
Si Si4 0.069717 0.326460 0.519888
Si Si5 0.266186 0.433571 0.701669
Si Si6 0.151796 0.640022 0.552286
Si Si7 0.571148 0.064850 0.768136
Si Si8 0.180091 0.777262 0.007283
O O1 0.919427 0.374414 0.657634
O O2 0.805818 0.421500 0.667553
O O3 0.893423 0.490277 0.807290
O O4 0.858588 0.357639 0.886552
O O5 0.802967 0.142136 0.171736
O O6 0.839410 0.277055 0.112929
O O7 0.788162 0.244501 0.359758
O O8 0.720623 0.244725 0.132916
O O9 0.730209 0.539977 0.360970
O O10 0.701853 0.496250 0.607969
O O11 0.786475 0.594970 0.584616
O O12 0.674361 0.634071 0.525322
O O13 0.085257 0.377321 0.388814
O O14 0.111975 0.254271 0.516275
O O15 0.000000 0.298943 0.517018
O O16 0.094847 0.599546 0.623897
O O17 0.500000 0.047376 0.750568
#
# Coordination Sequence:
#
# PCOD8174566 Si02
#       8
#     8   8   8   8   8   8   8   8
#     4  11  21  33  49  77 110 142 183 219 255 304
#     4  10  20  34  55  77 107 138 176 220 268 317
#     4   9  20  32  51  79 104 132 170 212 275 313
#     4  11  23  37  53  74 107 149 184 218 260 309
#     4  10  19  32  50  79 108 136 164 215 272 321
#     4  10  20  35  52  74 106 144 180 224 260 304
#     4  11  22  35  53  73 102 149 188 215 256 308
#     4  10  20  36  54  79 105 138 180 219 262 320
#
# _framework density 16.866536
#
# number of rings (size 3 to 8) (size 9 to 14) (size 15 to 20)
#    0.000    1.750    3.750    1.875    1.750    4.000 
#    0.000    0.000    0.000    0.000    0.000    4.375 
#    0.000    0.000    0.000    0.000    0.000    0.000 
#
# Total GULP energy -396826.727740 kJ/mol
# GULP energy per Si atom -12400.835242 kJ/mol
# Density = 1.682815 g / cm^3
# Si number density = 16.866536 Si / 1000 Ang^3
#
#
#
# Elastic Constant Matrix: (Units=GPa)
#
#
# Indices 1 2 3 4 5 6 
#
# 1 64.8338 37.0978 28.0306 0.0000 0.0000 0.0000
# 2 37.0978 99.5794 45.5716 0.0000 0.0000 0.0000
# 3 28.0306 45.5716 77.5195 0.0000 0.0000 0.0000
# 4 0.0000 0.0000 0.0000 30.3282 0.0000 0.0000
# 5 0.0000 0.0000 0.0000 0.0000 19.1823 0.0000
# 6 0.0000 0.0000 0.0000 0.0000 0.0000 24.4405
#
#
#
# Elastic Compliance Matrix: (Units=1/GPa)
#
#
# Indices 1 2 3 4 5 6 
#
# 1 0.020468 -0.005798 -0.003993 0.000000 0.000000 0.000000
# 2 -0.005798 0.015381 -0.006945 0.000000 0.000000 0.000000
# 3 -0.003993 -0.006945 0.018427 0.000000 0.000000 0.000000
# 4 0.000000 0.000000 0.000000 0.032973 0.000000 0.000000
# 5 0.000000 0.000000 0.000000 0.000000 0.052131 0.000000
# 6 0.000000 0.000000 0.000000 0.000000 0.000000 0.040916
#
#
# Mechanical properties :
#
#
# Convention : Reuss Voigt Hill
#
# Bulk Modulus (GPa) = 48.06925 51.48140 49.77532
# Shear Modulus (GPa) = 22.65504 23.53904 23.09704
#
# Velocity S-wave (km/s) = 3.66894 3.73983 3.70456
# Velocity P-wave (km/s) = 6.81981 7.01695 6.91908
#
# Compressibility (1/GPa) = 0.02080332
#
# Stress axis : x y z
#
# Youngs Moduli (GPa) = 48.85718 65.01625 54.26920
#
# Poissons Ratio (x) = 0.37697 0.21667
# Poissons Ratio (y) = 0.28328 0.37692
# Poissons Ratio (z) = 0.19506 0.45156
#
# Static dielectric constant tensor:
#      x y z
#    x 2.894270 0.000000 0.000000 
#    y 0.000000 3.221650 0.000000 
#    z 0.000000 0.000000 3.206010 
# 
# 
# High freq. dielectric constant tensor:
#      x y z
#    x 1.611520 0.000000 0.000000 
#    y 0.000000 1.648910 0.000000 
#    z 0.000000 0.000000 1.661970 
# 
# From -- ./inp_files/5316.got.cif
#   From: 2010.03.12/outbox.cif.g09.slc.cpg/sg36_3_cif.got.tgz:5316.got - 2010.04.14 02:13:53.
