data_PCOD8174398
_publ_section_title
;
Structure prediction by ZEFSAII (Michael W. Deem and Ramdas Pophale) SiO2 
 PCOD8174398
Probable space group: C M C 21
;
_chemical_formula_sum "Si O2"
_cell_formula_units_Z 48
_cell_length_a 12.780517
_cell_length_b 14.542779
_cell_length_c 14.326392
_cell_angle_alpha 90.000000
_cell_angle_beta 90.000000
_cell_angle_gamma 90.000000
_cell_volume 2662.763878
_symmetry_space_group_name_H-M "C M C 21"
_symmetry_group_IT_number 36
_symmetry_cell_setting 'orthorhombic'
loop_
_space_group_symop_operation_xyz
x,y,z
-x,-y,1/2+z
x,-y,1/2+z
-x,y,z
1/2+x,1/2+y,z
1/2-x,1/2-y,1/2+z
1/2+x,1/2-y,1/2+z
1/2-x,1/2+y,z
loop_
_atom_site_type_symbol
_atom_site_label
_atom_site_fract_x
_atom_site_fract_y
_atom_site_fract_z
Si Si1 0.381854 0.948242 0.466600
Si Si2 0.729929 0.514437 0.801332
Si Si3 0.756835 0.697539 0.718425
Si Si4 0.620332 0.336507 0.847215
Si Si5 0.878798 0.251013 0.540948
Si Si6 0.116078 0.540179 0.656475
O O1 0.500000 0.939678 0.427407
O O2 0.306635 0.984596 0.388232
O O3 0.343706 0.849796 0.503146
O O4 0.373909 0.023070 0.547395
O O5 0.691771 0.619259 0.777861
O O6 0.635734 0.444286 0.821876
O O7 0.800060 0.478065 0.713666
O O8 0.797709 0.777911 0.786010
O O9 0.685324 0.732233 0.634496
O O10 0.859485 0.647921 0.675213
O O11 0.500000 0.309721 0.824699
O O12 0.642897 0.321885 0.957545
O O13 0.000000 0.250734 0.570020
O O14 0.000000 0.516045 0.691994
#
# Coordination Sequence:
#
# PCOD8174398 Si02
#       6
#     8   8   8   8   8   8
#     4  10  18  33  58  83 112 150 194 236 287 342
#     4  10  21  34  57  85 114 151 195 240 281 346
#     4  10  21  36  59  85 117 152 198 243 291 346
#     4  11  22  39  61  86 119 160 195 235 296 357
#     4  10  20  36  60  85 116 157 196 238 292 352
#     4   9  18  32  53  82 112 146 190 240 285 335
#
# _framework density 18.026382999999999
#
# number of rings (size 3 to 8) (size 9 to 14) (size 15 to 20)
#    1.000    1.000    1.667    3.000    0.000    0.667 
#    0.000    0.833    0.000    3.000    0.000    0.000 
#    0.000    0.000    0.000    0.000    0.000    0.000 
#
# Total GULP energy -297341.499011 kJ/mol
# GULP energy per Si atom -12389.229125 kJ/mol
# Density = 1.798535 g / cm^3
# Si number density = 18.026383 Si / 1000 Ang^3
#
#
#
# Elastic Constant Matrix: (Units=GPa)
#
#
# Indices 1 2 3 4 5 6 
#
# 1 57.9455 17.7089 40.8362 0.0000 0.0000 0.0000
# 2 17.7089 76.2883 24.0288 0.0000 0.0000 0.0000
# 3 40.8362 24.0288 91.4608 0.0000 0.0000 0.0000
# 4 0.0000 0.0000 0.0000 27.8438 0.0000 0.0000
# 5 0.0000 0.0000 0.0000 0.0000 -0.8770 0.0000
# 6 0.0000 0.0000 0.0000 0.0000 0.0000 28.8073
#
#
#
# Elastic Compliance Matrix: (Units=1/GPa)
#
#
# Indices 1 2 3 4 5 6 
#
# 1 0.025630 -0.002557 -0.010772 0.000000 0.000000 0.000000
# 2 -0.002557 0.014546 -0.002680 0.000000 0.000000 0.000000
# 3 -0.010772 -0.002680 0.016447 0.000000 0.000000 0.000000
# 4 0.000000 0.000000 0.000000 0.035915 0.000000 0.000000
# 5 0.000000 0.000000 0.000000 0.000000 -1.140198 0.000000
# 6 0.000000 0.000000 0.000000 0.000000 0.000000 0.034713
#
#
# Mechanical properties :
#
#
# Convention : Reuss Voigt Hill
#
# Bulk Modulus (GPa) = 40.64025 43.42693 42.03359
# Shear Modulus (GPa) = -5.14019 20.69619 7.77800
#
# Velocity S-wave (km/s) = -1.69046 3.39205 2.07946
# Velocity P-wave (km/s) = 4.33400 6.28366 5.39759
#
# Compressibility (1/GPa) = 0.02460615
#
# Stress axis : x y z
#
# Youngs Moduli (GPa) = 39.01631 68.74843 60.80041
#
# Poissons Ratio (x) = 0.17577 0.65494
# Poissons Ratio (y) = 0.09975 0.16294
# Poissons Ratio (z) = 0.42028 0.18424
#
# Static dielectric constant tensor:
#      x y z
#    x 3.305170 0.000000 0.000000 
#    y 0.000000 3.315430 0.000000 
#    z 0.000000 0.000000 3.383570 
# 
# 
# High freq. dielectric constant tensor:
#      x y z
#    x 1.676630 0.000000 0.000000 
#    y 0.000000 1.690890 0.000000 
#    z 0.000000 0.000000 1.708200 
# 
# From -- ./inp_files/7688.got.cif
#   From: 2010.03.12/outbox.cif.g09.slc.cpg/sg36_4_cif.got.tgz:7688.got - 2010.04.14 02:13:53.
