data_PCOD8174131
_publ_section_title
;
Structure prediction by ZEFSAII (Michael W. Deem and Ramdas Pophale) SiO2 
 PCOD8174131
Probable space group: C M M 2
;
_chemical_formula_sum "Si O2"
_cell_formula_units_Z 40
_cell_length_a 7.717763
_cell_length_b 15.378037
_cell_length_c 16.388466
_cell_angle_alpha 90.000000
_cell_angle_beta 90.000000
_cell_angle_gamma 90.000000
_cell_volume 1945.049436
_symmetry_space_group_name_H-M "C M M 2"
_symmetry_group_IT_number 35
_symmetry_cell_setting 'orthorhombic'
loop_
_space_group_symop_operation_xyz
x,y,z
-x,-y,z
-x,y,z
x,-y,z
1/2+x,1/2+y,z
1/2-x,1/2-y,z
1/2-x,1/2+y,z
1/2+x,1/2-y,z
loop_
_atom_site_type_symbol
_atom_site_label
_atom_site_fract_x
_atom_site_fract_y
_atom_site_fract_z
Si Si1 0.306402 0.000000 0.581831
Si Si2 0.803739 0.103177 0.290750
Si Si3 0.301300 0.344017 0.874259
Si Si4 0.701271 0.654467 0.467549
Si Si5 0.500000 0.103447 0.175631
Si Si6 0.500000 0.896882 0.991298
Si Si7 0.206749 0.500000 0.760975
O O1 0.277523 0.086067 0.530113
O O2 0.210600 0.000000 0.669464
O O3 0.500000 0.000000 0.611929
O O4 0.728563 0.140556 0.375931
O O5 0.673934 0.137470 0.220838
O O6 0.000000 0.135887 0.272051
O O7 0.801420 0.000000 0.297597
O O8 0.500000 0.344755 0.905604
O O9 0.250000 0.250000 0.837588
O O10 0.279342 0.413974 0.803382
O O11 0.175577 0.362877 0.950239
O O12 0.500000 0.637526 0.466018
O O13 0.750000 0.750000 0.499128
O O14 0.500000 0.138650 0.083715
O O15 0.500000 0.000000 0.176546
O O16 0.500000 0.000000 0.986766
O O17 0.000000 0.500000 0.769097
#
# Coordination Sequence:
#
# PCOD8174131 Si02
#       7
#     4   8   8   8   4   4   4
#     4  11  25  41  67  95 127 166 205 266 320 368
#     4   9  18  35  59  88 121 164 217 260 313 373
#     4  12  23  41  70  95 127 174 210 257 322 383
#     4  11  23  39  62  90 127 171 216 262 311 376
#     4   9  20  34  62  90 123 166 203 269 318 363
#     4  11  22  42  64  97 135 160 215 270 314 388
#     4  11  23  45  67  98 130 159 213 266 314 389
#
# _framework density 20.565028999999999
#
# number of rings (size 3 to 8) (size 9 to 14) (size 15 to 20)
#    0.000    1.400    4.000    1.200    2.800    3.200 
#    0.000    3.000    0.000    0.000    0.000    0.000 
#    0.000    0.000    0.000    0.000    0.000    0.000 
#
# Total GULP energy -247988.628841 kJ/mol
# GULP energy per Si atom -12399.431442 kJ/mol
# Density = 2.051822 g / cm^3
# Si number density = 20.565029 Si / 1000 Ang^3
#
#
#
# Elastic Constant Matrix: (Units=GPa)
#
#
# Indices 1 2 3 4 5 6 
#
# 1 134.4025 33.5793 66.8055 0.0000 0.0000 0.0000
# 2 33.5793 127.9830 65.0922 0.0000 0.0000 0.0000
# 3 66.8055 65.0922 171.2807 0.0000 0.0000 0.0000
# 4 0.0000 0.0000 0.0000 -5.0387 0.0000 0.0000
# 5 0.0000 0.0000 0.0000 0.0000 0.5016 0.0000
# 6 0.0000 0.0000 0.0000 0.0000 0.0000 27.1683
#
#
#
# Elastic Compliance Matrix: (Units=1/GPa)
#
#
# Indices 1 2 3 4 5 6 
#
# 1 0.009285 -0.000737 -0.003342 0.000000 0.000000 0.000000
# 2 -0.000737 0.009744 -0.003416 0.000000 0.000000 0.000000
# 3 -0.003342 -0.003416 0.008440 0.000000 0.000000 0.000000
# 4 0.000000 0.000000 0.000000 -0.198464 0.000000 0.000000
# 5 0.000000 0.000000 0.000000 0.000000 1.993627 0.000000
# 6 0.000000 0.000000 0.000000 0.000000 0.000000 0.036808
#
#
# Mechanical properties :
#
#
# Convention : Reuss Voigt Hill
#
# Bulk Modulus (GPa) = 80.12090 84.95782 82.53936
# Shear Modulus (GPa) = 2.66157 22.40552 12.53355
#
# Velocity S-wave (km/s) = 1.13887 3.30433 2.47140
# Velocity P-wave (km/s) = 6.38543 7.48062 6.95462
#
# Compressibility (1/GPa) = 0.01248114
#
# Stress axis : x y z
#
# Youngs Moduli (GPa) = 107.69615 102.62658 118.48584
#
# Poissons Ratio (x) = 0.07560 0.39594
# Poissons Ratio (y) = 0.07934 0.40472
# Poissons Ratio (z) = 0.35989 0.35055
#
# Static dielectric constant tensor:
#      x y z
#    x 3.953640 0.000000 0.000000 
#    y 0.000000 3.763020 0.000000 
#    z 0.000000 0.000000 3.878230 
# 
# 
# High freq. dielectric constant tensor:
#      x y z
#    x 1.817420 0.000000 0.000000 
#    y 0.000000 1.804120 0.000000 
#    z 0.000000 0.000000 1.795590 
# 
# From -- ./inp_files/14861.got.cif
#   From: 2010.03.12/outbox.cif.g09.slc.cpg/sg35_8_cif.got.tgz:14861.got - 2010.04.14 02:02:04.
