data_PCOD8174137
_publ_section_title
;
Structure prediction by ZEFSAII (Michael W. Deem and Ramdas Pophale) SiO2 
 PCOD8174137
Probable space group: C M M 2
;
_chemical_formula_sum "Si O2"
_cell_formula_units_Z 56
_cell_length_a 19.278572
_cell_length_b 9.096802
_cell_length_c 17.838242
_cell_angle_alpha 90.000000
_cell_angle_beta 90.000000
_cell_angle_gamma 90.000000
_cell_volume 3128.352299
_symmetry_space_group_name_H-M "C M M 2"
_symmetry_group_IT_number 35
_symmetry_cell_setting 'orthorhombic'
loop_
_space_group_symop_operation_xyz
x,y,z
-x,-y,z
-x,y,z
x,-y,z
1/2+x,1/2+y,z
1/2-x,1/2-y,z
1/2-x,1/2+y,z
1/2+x,1/2-y,z
loop_
_atom_site_type_symbol
_atom_site_label
_atom_site_fract_x
_atom_site_fract_y
_atom_site_fract_z
Si Si1 0.580966 0.328880 0.103440
Si Si2 0.420861 0.827509 0.845780
Si Si3 0.178703 0.828098 0.565295
Si Si4 0.824924 0.674487 0.983924
Si Si5 0.821418 0.827235 0.396919
Si Si6 0.075810 0.173326 0.272682
Si Si7 0.421051 0.327543 0.695509
O O1 0.500000 0.290273 0.089054
O O2 0.594166 0.500000 0.085196
O O3 0.631217 0.227986 0.054855
O O4 0.602148 0.291761 0.188958
O O5 0.500000 0.777961 0.865155
O O6 0.393638 0.750503 0.770415
O O7 0.417843 0.000000 0.832744
O O8 0.369155 0.778029 0.911345
O O9 0.250000 0.750000 0.585000
O O10 0.152925 0.789910 0.481184
O O11 0.121609 0.771090 0.623805
O O12 0.191600 0.000000 0.573954
O O13 0.814959 0.500000 0.988947
O O14 0.750000 0.750000 0.981013
O O15 0.750000 0.750000 0.379217
O O16 0.874771 0.760151 0.336593
O O17 0.811252 0.000000 0.386116
O O18 0.000000 0.243964 0.284509
O O19 0.070444 0.000000 0.283236
O O20 0.500000 0.282597 0.679783
O O21 0.412366 0.500000 0.707647
#
# Coordination Sequence:
#
# PCOD8174137 Si02
#       7
#     8   8   8   8   8   8   8
#     4   9  18  34  55  77 102 132 166 204 248 299
#     4   9  19  36  55  73  95 126 162 198 241 295
#     4   9  18  31  47  69  97 129 163 198 238 285
#     4  11  23  37  53  75 103 132 166 207 248 294
#     4   9  17  30  48  69  96 130 164 198 238 284
#     4   8  15  29  50  75  99 125 161 202 241 284
#     4   9  18  32  50  73  98 123 157 201 243 284
#
# _framework density 17.900797000000001
#
# number of rings (size 3 to 8) (size 9 to 14) (size 15 to 20)
#    0.000    2.857    0.000    1.714    0.000    4.286 
#    0.000    9.286    0.000    1.286    0.000    4.000 
#    0.000    0.000    0.000    0.000    0.000    0.000 
#
# Total GULP energy -347134.447703 kJ/mol
# GULP energy per Si atom -12397.658847 kJ/mol
# Density = 1.786005 g / cm^3
# Si number density = 17.900797 Si / 1000 Ang^3
#
#
#
# Elastic Constant Matrix: (Units=GPa)
#
#
# Indices 1 2 3 4 5 6 
#
# 1 117.6693 41.6072 101.5152 0.0000 0.0000 0.0000
# 2 41.6072 35.5394 44.8163 0.0000 0.0000 0.0000
# 3 101.5152 44.8163 162.7282 0.0000 0.0000 0.0000
# 4 0.0000 0.0000 0.0000 24.3168 0.0000 0.0000
# 5 0.0000 0.0000 0.0000 0.0000 26.5673 0.0000
# 6 0.0000 0.0000 0.0000 0.0000 0.0000 24.8508
#
#
#
# Elastic Compliance Matrix: (Units=1/GPa)
#
#
# Indices 1 2 3 4 5 6 
#
# 1 0.021594 -0.012706 -0.009972 0.000000 0.000000 0.000000
# 2 -0.012706 0.050586 -0.006005 0.000000 0.000000 0.000000
# 3 -0.009972 -0.006005 0.014020 0.000000 0.000000 0.000000
# 4 0.000000 0.000000 0.000000 0.041124 0.000000 0.000000
# 5 0.000000 0.000000 0.000000 0.000000 0.037640 0.000000
# 6 0.000000 0.000000 0.000000 0.000000 0.000000 0.040240
#
#
# Mechanical properties :
#
#
# Convention : Reuss Voigt Hill
#
# Bulk Modulus (GPa) = 34.68165 76.86826 55.77496
# Shear Modulus (GPa) = 18.37013 23.68021 21.02517
#
# Velocity S-wave (km/s) = 3.20694 3.64106 3.43087
# Velocity P-wave (km/s) = 5.75578 7.79172 6.84981
#
# Compressibility (1/GPa) = 0.02883369
#
# Stress axis : x y z
#
# Youngs Moduli (GPa) = 46.30929 19.76832 71.32807
#
# Poissons Ratio (x) = 0.25118 0.71126
# Poissons Ratio (y) = 0.58841 0.42834
# Poissons Ratio (z) = 0.46178 0.11871
#
# Static dielectric constant tensor:
#      x y z
#    x 3.524400 0.000000 0.000000 
#    y 0.000000 3.096320 0.000000 
#    z 0.000000 0.000000 3.552020 
# 
# 
# High freq. dielectric constant tensor:
#      x y z
#    x 1.690560 0.000000 0.000000 
#    y 0.000000 1.672770 0.000000 
#    z 0.000000 0.000000 1.704750 
# 
# From -- ./inp_files/17401.got.cif
#   From: 2010.03.12/outbox.cif.g09.slc.cpg/sg35_9_cif.got.tgz:17401.got - 2010.04.14 02:02:04.
