data_PCOD8174003
_publ_section_title
;
Structure prediction by ZEFSAII (Michael W. Deem and Ramdas Pophale) SiO2 
 PCOD8174003
Probable space group: C M M 2
;
_chemical_formula_sum "Si O2"
_cell_formula_units_Z 44
_cell_length_a 13.692404
_cell_length_b 9.555319
_cell_length_c 14.586656
_cell_angle_alpha 90.000000
_cell_angle_beta 90.000000
_cell_angle_gamma 90.000000
_cell_volume 1908.449340
_symmetry_space_group_name_H-M "C M M 2"
_symmetry_group_IT_number 35
_symmetry_cell_setting 'orthorhombic'
loop_
_space_group_symop_operation_xyz
x,y,z
-x,-y,z
-x,y,z
x,-y,z
1/2+x,1/2+y,z
1/2-x,1/2-y,z
1/2-x,1/2+y,z
1/2+x,1/2-y,z
loop_
_atom_site_type_symbol
_atom_site_label
_atom_site_fract_x
_atom_site_fract_y
_atom_site_fract_z
Si Si1 0.616544 0.658475 0.831780
Si Si2 0.394552 0.158755 0.195563
Si Si3 0.116032 0.341839 0.662605
Si Si4 0.250000 0.250000 0.344107
Si Si5 0.111217 0.155313 0.495047
Si Si6 0.884029 0.343176 0.997908
O O1 0.500000 0.655570 0.830392
O O2 0.657410 0.500000 0.826762
O O3 0.656787 0.749006 0.746076
O O4 0.657607 0.734788 0.922756
O O5 0.500000 0.227058 0.223815
O O6 0.318583 0.159808 0.278325
O O7 0.355655 0.221578 0.098566
O O8 0.414750 0.000000 0.169480
O O9 0.158318 0.500000 0.666066
O O10 0.150078 0.268599 0.568117
O O11 0.000000 0.345995 0.666736
O O12 0.180237 0.154379 0.406021
O O13 0.000000 0.191588 0.465633
O O14 0.114961 0.000000 0.538936
O O15 0.841400 0.500000 0.980529
O O16 0.000000 0.349341 0.988865
#
# Coordination Sequence:
#
# PCOD8174003 Si02
#       6
#     8   8   8   4   8   8
#     4   9  15  24  44  77 114 148 181 223 280 340
#     4   9  19  36  57  82 113 150 193 239 284 335
#     4   9  17  30  51  79 110 147 191 234 277 335
#     4  12  22  36  60  86 110 146 194 244 294 348
#     4  10  22  39  57  82 118 154 189 237 295 347
#     4   8  14  27  48  74 106 145 188 230 272 328
#
# _framework density 23.055368000000001
#
# number of rings (size 3 to 8) (size 9 to 14) (size 15 to 20)
#    0.000    2.727    0.000    3.273    0.000    5.818 
#    0.000    3.636    0.000    5.455    0.000    2.545 
#    0.000    0.000    0.000    0.000    0.000    1.091 
#
# Total GULP energy -272634.154900 kJ/mol
# GULP energy per Si atom -12392.461586 kJ/mol
# Density = 2.300289 g / cm^3
# Si number density = 23.055368 Si / 1000 Ang^3
#
#
#
# Elastic Constant Matrix: (Units=GPa)
#
#
# Indices 1 2 3 4 5 6 
#
# 1 68.7399 29.7597 47.4397 0.0000 0.0000 0.0000
# 2 29.7597 159.2513 82.5983 0.0000 0.0000 0.0000
# 3 47.4397 82.5983 195.2788 0.0000 0.0000 0.0000
# 4 0.0000 0.0000 0.0000 33.3382 0.0000 0.0000
# 5 0.0000 0.0000 0.0000 0.0000 -54.2446 0.0000
# 6 0.0000 0.0000 0.0000 0.0000 0.0000 6.1816
#
#
#
# Elastic Compliance Matrix: (Units=1/GPa)
#
#
# Indices 1 2 3 4 5 6 
#
# 1 0.017712 -0.001381 -0.003719 0.000000 0.000000 0.000000
# 2 -0.001381 0.008152 -0.003113 0.000000 0.000000 0.000000
# 3 -0.003719 -0.003113 0.007341 0.000000 0.000000 0.000000
# 4 0.000000 0.000000 0.000000 0.029996 0.000000 0.000000
# 5 0.000000 0.000000 0.000000 0.000000 -0.018435 0.000000
# 6 0.000000 0.000000 0.000000 0.000000 0.000000 0.161769
#
#
# Mechanical properties :
#
#
# Convention : Reuss Voigt Hill
#
# Bulk Modulus (GPa) = 59.59488 82.54057 71.06773
# Shear Modulus (GPa) = 21.87683 14.61986 18.24834
#
# Velocity S-wave (km/s) = 3.08373 2.52090 2.81641
# Velocity P-wave (km/s) = 6.21160 6.65973 6.43956
#
# Compressibility (1/GPa) = 0.01677997
#
# Stress axis : x y z
#
# Youngs Moduli (GPa) = 56.45931 122.67177 136.22539
#
# Poissons Ratio (x) = 0.16943 0.50657
# Poissons Ratio (y) = 0.07798 0.42400
# Poissons Ratio (z) = 0.20995 0.38182
#
# Static dielectric constant tensor:
#      x y z
#    x 3.891640 0.000000 0.000000 
#    y 0.000000 4.040550 0.000000 
#    z 0.000000 0.000000 4.218390 
# 
# 
# High freq. dielectric constant tensor:
#      x y z
#    x 1.908500 0.000000 0.000000 
#    y 0.000000 1.890030 0.000000 
#    z 0.000000 0.000000 1.913530 
# 
# From -- ./inp_files/16946.got.cif
#   From: 2010.03.12/outbox.cif.g09.slc.cpg/sg35_9_cif.got.tgz:16946.got - 2010.04.14 02:02:04.
