data_PCOD8174429
_publ_section_title
;
Structure prediction by ZEFSAII (Michael W. Deem and Ramdas Pophale) SiO2 
 PCOD8174429
Probable space group: C M C 21
;
_chemical_formula_sum "Si O2"
_cell_formula_units_Z 48
_cell_length_a 17.345237
_cell_length_b 10.137385
_cell_length_c 15.032207
_cell_angle_alpha 90.000000
_cell_angle_beta 90.000000
_cell_angle_gamma 90.000000
_cell_volume 2643.193310
_symmetry_space_group_name_H-M "C M C 21"
_symmetry_group_IT_number 36
_symmetry_cell_setting 'orthorhombic'
loop_
_space_group_symop_operation_xyz
x,y,z
-x,-y,1/2+z
x,-y,1/2+z
-x,y,z
1/2+x,1/2+y,z
1/2-x,1/2-y,1/2+z
1/2+x,1/2-y,1/2+z
1/2-x,1/2+y,z
loop_
_atom_site_type_symbol
_atom_site_label
_atom_site_fract_x
_atom_site_fract_y
_atom_site_fract_z
Si Si1 0.321057 0.516120 0.500000
Si Si2 0.347287 0.959811 0.018028
Si Si3 0.910196 0.735808 0.048436
Si Si4 0.411212 0.722000 0.916720
Si Si5 0.249192 0.489011 0.178672
Si Si6 0.828827 0.260853 0.737119
O O1 0.233781 0.537576 0.462947
O O2 0.367697 0.652426 0.490489
O O3 0.362230 0.404260 0.443973
O O4 0.314660 0.473207 0.604599
O O5 0.399922 0.839626 0.986805
O O6 0.393317 0.095663 0.002196
O O7 0.326830 0.941277 0.123167
O O8 0.878967 0.736360 0.148253
O O9 0.000000 0.766951 0.048763
O O10 0.500000 0.680851 0.914936
O O11 0.385920 0.771115 0.819877
O O12 0.229829 0.615543 0.238755
O O13 0.278651 0.372782 0.242520
#
# Coordination Sequence:
#
# PCOD8174429 Si02
#       6
#     8   8   8   8   8   8
#     4   9  19  36  57  77  99 141 183 211 248 311
#     4   9  19  36  57  77  99 141 183 211 248 311
#     4  10  18  35  58  76 105 142 176 213 257 316
#     4  12  23  33  51  85 115 132 164 224 276 302
#     4   8  18  36  58  74  96 140 188 210 242 308
#     4  10  20  34  51  81 107 134 172 217 266 306
#
# _framework density 18.159852999999998
#
# number of rings (size 3 to 8) (size 9 to 14) (size 15 to 20)
#    1.000    1.333    0.000    3.500    2.333    0.000 
#    0.000    0.000    0.000    0.000    0.000    7.000 
#    0.000    0.000    0.000    0.000    0.000    0.000 
#
# Total GULP energy -297483.860162 kJ/mol
# GULP energy per Si atom -12395.160840 kJ/mol
# Density = 1.811852 g / cm^3
# Si number density = 18.159853 Si / 1000 Ang^3
#
#
#
# Elastic Constant Matrix: (Units=GPa)
#
#
# Indices 1 2 3 4 5 6 
#
# 1 77.8270 21.8320 3.4452 0.0000 0.0000 0.0000
# 2 21.8320 69.3568 16.0304 0.0000 0.0000 0.0000
# 3 3.4452 16.0304 34.8713 0.0000 0.0000 0.0000
# 4 0.0000 0.0000 0.0000 4.8764 0.0000 0.0000
# 5 0.0000 0.0000 0.0000 0.0000 13.5223 0.0000
# 6 0.0000 0.0000 0.0000 0.0000 0.0000 24.0343
#
#
#
# Elastic Compliance Matrix: (Units=1/GPa)
#
#
# Indices 1 2 3 4 5 6 
#
# 1 0.014110 -0.004609 0.000725 0.000000 0.000000 0.000000
# 2 -0.004609 0.017638 -0.007653 0.000000 0.000000 0.000000
# 3 0.000725 -0.007653 0.032123 0.000000 0.000000 0.000000
# 4 0.000000 0.000000 0.000000 0.205071 0.000000 0.000000
# 5 0.000000 0.000000 0.000000 0.000000 0.073952 0.000000
# 6 0.000000 0.000000 0.000000 0.000000 0.000000 0.041607
#
#
# Mechanical properties :
#
#
# Convention : Reuss Voigt Hill
#
# Bulk Modulus (GPa) = 24.51172 29.40785 26.95978
# Shear Modulus (GPa) = 11.87158 17.86976 14.87067
#
# Velocity S-wave (km/s) = 2.55958 3.14032 2.86471
# Velocity P-wave (km/s) = 4.71830 5.42013 5.08135
#
# Compressibility (1/GPa) = 0.04079681
#
# Stress axis : x y z
#
# Youngs Moduli (GPa) = 70.87254 56.69643 31.13011
#
# Poissons Ratio (x) = 0.26131 -0.02256
# Poissons Ratio (y) = 0.32665 0.23823
# Poissons Ratio (z) = -0.05136 0.43389
#
# Static dielectric constant tensor:
#      x y z
#    x 3.224770 0.000000 0.000000 
#    y 0.000000 3.384290 0.000000 
#    z 0.000000 0.000000 3.013650 
# 
# 
# High freq. dielectric constant tensor:
#      x y z
#    x 1.693680 0.000000 0.000000 
#    y 0.000000 1.712070 0.000000 
#    z 0.000000 0.000000 1.675860 
# 
# From -- ./inp_files/14823.got.cif
#   From: 2010.03.12/outbox.cif.g09.slc.cpg/sg36_8_cif.got.tgz:14823.got - 2010.04.14 02:13:53.
