data_PCOD8174616
_publ_section_title
;
Structure prediction by ZEFSAII (Michael W. Deem and Ramdas Pophale) SiO2 
 PCOD8174616
Probable space group: C M C 21
;
_chemical_formula_sum "Si O2"
_cell_formula_units_Z 64
_cell_length_a 8.899218
_cell_length_b 15.546932
_cell_length_c 24.070189
_cell_angle_alpha 90.000000
_cell_angle_beta 90.000000
_cell_angle_gamma 90.000000
_cell_volume 3330.243927
_symmetry_space_group_name_H-M "C M C 21"
_symmetry_group_IT_number 36
_symmetry_cell_setting 'orthorhombic'
loop_
_space_group_symop_operation_xyz
x,y,z
-x,-y,1/2+z
x,-y,1/2+z
-x,y,z
1/2+x,1/2+y,z
1/2-x,1/2-y,1/2+z
1/2+x,1/2-y,1/2+z
1/2-x,1/2+y,z
loop_
_atom_site_type_symbol
_atom_site_label
_atom_site_fract_x
_atom_site_fract_y
_atom_site_fract_z
Si Si1 0.330890 0.025491 0.816910
Si Si2 0.179452 0.539436 0.431152
Si Si3 0.169582 0.276017 0.310872
Si Si4 0.821107 0.624510 0.998522
Si Si5 0.821502 0.627972 0.123526
Si Si6 0.179824 0.532101 0.695040
Si Si7 0.822610 0.212787 0.696785
Si Si8 0.822247 0.213676 0.428821
O O1 0.500000 0.991598 0.813211
O O2 0.325781 0.125973 0.830961
O O3 0.255961 0.007836 0.756668
O O4 0.253981 0.976771 0.868790
O O5 0.237911 0.463730 0.471293
O O6 0.245005 0.628738 0.453790
O O7 0.000000 0.541423 0.430840
O O8 0.278939 0.259237 0.259211
O O9 0.223617 0.221335 0.363960
O O10 0.000000 0.251541 0.292937
O O11 0.757545 0.630157 0.061138
O O12 0.000000 0.625714 0.998612
O O13 0.759534 0.705630 0.963767
O O14 0.762505 0.541015 0.153179
O O15 0.764661 0.712414 0.155782
O O16 0.000000 0.625845 0.124015
O O17 0.245044 0.624427 0.677195
O O18 0.000000 0.541102 0.696800
O O19 0.000000 0.200827 0.693674
O O20 0.000000 0.206811 0.435506
#
# Coordination Sequence:
#
# PCOD8174616 Si02
#       8
#     8   8   8   8   8   8   8   8
#     4   8  14  28  51  73  97 132 170 203 242 300
#     4  10  19  32  54  79 102 134 175 216 254 304
#     4   9  17  33  54  75 105 143 175 206 257 321
#     4   9  18  36  56  74 102 141 182 213 248 313
#     4   9  19  34  55  78 101 139 183 214 248 310
#     4   9  18  34  54  75 104 139 173 208 254 314
#     4  10  20  33  52  81 109 134 171 221 265 301
#     4  10  20  34  54  79 106 138 173 215 266 313
#
# _framework density 19.217811000000001
#
# number of rings (size 3 to 8) (size 9 to 14) (size 15 to 20)
#    0.000    2.750    1.250    1.125    1.750    1.500 
#    0.000    4.375    0.000    3.000    0.000    0.000 
#    0.000    0.000    0.000    0.000    0.000    0.000 
#
# Total GULP energy -396673.181704 kJ/mol
# GULP energy per Si atom -12396.036928 kJ/mol
# Density = 1.917407 g / cm^3
# Si number density = 19.217811 Si / 1000 Ang^3
#
#
#
# Elastic Constant Matrix: (Units=GPa)
#
#
# Indices 1 2 3 4 5 6 
#
# 1 26.2239 27.3849 24.1716 0.0000 0.0000 0.0000
# 2 27.3849 158.7853 89.1124 0.0000 0.0000 0.0000
# 3 24.1716 89.1124 134.3948 0.0000 0.0000 0.0000
# 4 0.0000 0.0000 0.0000 28.5562 0.0000 0.0000
# 5 0.0000 0.0000 0.0000 0.0000 15.6210 0.0000
# 6 0.0000 0.0000 0.0000 0.0000 0.0000 28.6727
#
#
#
# Elastic Compliance Matrix: (Units=1/GPa)
#
#
# Indices 1 2 3 4 5 6 
#
# 1 0.048585 -0.005535 -0.005068 0.000000 0.000000 0.000000
# 2 -0.005535 0.010661 -0.006073 0.000000 0.000000 0.000000
# 3 -0.005068 -0.006073 0.012379 0.000000 0.000000 0.000000
# 4 0.000000 0.000000 0.000000 0.035019 0.000000 0.000000
# 5 0.000000 0.000000 0.000000 0.000000 0.064016 0.000000
# 6 0.000000 0.000000 0.000000 0.000000 0.000000 0.034876
#
#
# Mechanical properties :
#
#
# Convention : Reuss Voigt Hill
#
# Bulk Modulus (GPa) = 26.12880 66.74906 46.43893
# Shear Modulus (GPa) = 19.86918 26.48566 23.17742
#
# Velocity S-wave (km/s) = 3.21891 3.71642 3.47657
# Velocity P-wave (km/s) = 5.23840 7.29548 6.35078
#
# Compressibility (1/GPa) = 0.03827194
#
# Stress axis : x y z
#
# Youngs Moduli (GPa) = 20.58269 93.80161 80.77980
#
# Poissons Ratio (x) = 0.51917 0.40941
# Poissons Ratio (y) = 0.11392 0.49060
# Poissons Ratio (z) = 0.10432 0.56969
#
# Static dielectric constant tensor:
#      x y z
#    x 2.990710 0.000000 0.000000 
#    y 0.000000 3.566740 0.000000 
#    z 0.000000 0.000000 3.717990 
# 
# 
# High freq. dielectric constant tensor:
#      x y z
#    x 1.696240 0.000000 0.000000 
#    y 0.000000 1.754450 0.000000 
#    z 0.000000 0.000000 1.750440 
# 
# From -- ./inp_files/16618.got.cif
#   From: 2010.03.12/outbox.cif.g09.slc.cpg/sg36_9_cif.got.tgz:16618.got - 2010.04.14 02:13:53.
