data_PCOD8174446
_publ_section_title
;
Structure prediction by ZEFSAII (Michael W. Deem and Ramdas Pophale) SiO2 
 PCOD8174446
Probable space group: C M C 21
;
_chemical_formula_sum "Si O2"
_cell_formula_units_Z 48
_cell_length_a 17.961983
_cell_length_b 9.823161
_cell_length_c 13.388702
_cell_angle_alpha 90.000000
_cell_angle_beta 90.000000
_cell_angle_gamma 90.000000
_cell_volume 2362.348784
_symmetry_space_group_name_H-M "C M C 21"
_symmetry_group_IT_number 36
_symmetry_cell_setting 'orthorhombic'
loop_
_space_group_symop_operation_xyz
x,y,z
-x,-y,1/2+z
x,-y,1/2+z
-x,y,z
1/2+x,1/2+y,z
1/2-x,1/2-y,1/2+z
1/2+x,1/2-y,1/2+z
1/2-x,1/2+y,z
loop_
_atom_site_type_symbol
_atom_site_label
_atom_site_fract_x
_atom_site_fract_y
_atom_site_fract_z
Si Si1 0.373820 0.583939 0.858390
Si Si2 0.784818 0.620716 0.562298
Si Si3 0.915368 0.197943 0.062414
Si Si4 0.416646 0.707251 0.432706
Si Si5 0.130725 0.095155 0.638333
Si Si6 0.278887 0.139405 0.935729
O O1 0.406005 0.434490 0.876589
O O2 0.399987 0.633212 0.748390
O O3 0.283126 0.577561 0.861434
O O4 0.407268 0.684638 0.942018
O O5 0.863119 0.679839 0.603755
O O6 0.720279 0.611815 0.645338
O O7 0.755858 0.721405 0.476798
O O8 0.797276 0.469657 0.521081
O O9 0.000000 0.232213 0.091032
O O10 0.888974 0.060103 0.114042
O O11 0.500000 0.761027 0.413943
O O12 0.404207 0.690614 0.552665
O O13 0.358520 0.818165 0.387368
#
# Coordination Sequence:
#
# PCOD8174446 Si02
#       6
#     8   8   8   8   8   8
#     4  10  19  34  59  83 111 154 198 233 274 340
#     4  10  18  37  57  81 114 146 192 233 279 336
#     4  10  21  36  55  85 119 147 187 239 289 338
#     4  10  21  36  55  85 119 147 187 239 289 338
#     4  10  19  34  59  83 111 154 198 233 274 340
#     4  10  18  37  57  81 114 146 192 233 279 336
#
# _framework density 20.318760000000001
#
# number of rings (size 3 to 8) (size 9 to 14) (size 15 to 20)
#    0.000    2.000    6.667    2.000    0.000    4.667 
#    0.000    0.000    0.000    0.000    0.000    4.667 
#    0.000    0.000    0.000    0.000    0.000    0.000 
#
# Total GULP energy -297371.017732 kJ/mol
# GULP energy per Si atom -12390.459072 kJ/mol
# Density = 2.027251 g / cm^3
# Si number density = 20.318760 Si / 1000 Ang^3
#
#
#
# Elastic Constant Matrix: (Units=GPa)
#
#
# Indices 1 2 3 4 5 6 
#
# 1 173.8143 23.3415 2.4801 0.0000 0.0000 0.0000
# 2 23.3415 39.1829 -7.6321 0.0000 0.0000 0.0000
# 3 2.4801 -7.6321 73.8871 0.0000 0.0000 0.0000
# 4 0.0000 0.0000 0.0000 2.9808 0.0000 0.0000
# 5 0.0000 0.0000 0.0000 0.0000 4.4687 0.0000
# 6 0.0000 0.0000 0.0000 0.0000 0.0000 30.7060
#
#
#
# Elastic Compliance Matrix: (Units=1/GPa)
#
#
# Indices 1 2 3 4 5 6 
#
# 1 0.006280 -0.003860 -0.000610 0.000000 0.000000 0.000000
# 2 -0.003860 0.028418 0.003065 0.000000 0.000000 0.000000
# 3 -0.000610 0.003065 0.013871 0.000000 0.000000 0.000000
# 4 0.000000 0.000000 0.000000 0.335480 0.000000 0.000000
# 5 0.000000 0.000000 0.000000 0.000000 0.223777 0.000000
# 6 0.000000 0.000000 0.000000 0.000000 0.000000 0.032567
#
#
# Mechanical properties :
#
#
# Convention : Reuss Voigt Hill
#
# Bulk Modulus (GPa) = 21.85305 35.91815 28.88560
# Shear Modulus (GPa) = 7.59353 25.54409 16.56881
#
# Velocity S-wave (km/s) = 1.93528 3.54950 2.85870
# Velocity P-wave (km/s) = 3.97142 5.87489 5.01431
#
# Compressibility (1/GPa) = 0.04576020
#
# Stress axis : x y z
#
# Youngs Moduli (GPa) = 159.22762 35.18931 72.09174
#
# Poissons Ratio (x) = 0.13583 0.04394
# Poissons Ratio (y) = 0.61461 -0.22096
# Poissons Ratio (z) = 0.09705 -0.10785
#
# Static dielectric constant tensor:
#      x y z
#    x 4.186390 0.000000 0.000000 
#    y 0.000000 3.571830 0.000000 
#    z 0.000000 0.000000 3.395220 
# 
# 
# High freq. dielectric constant tensor:
#      x y z
#    x 1.805730 0.000000 0.000000 
#    y 0.000000 1.766440 0.000000 
#    z 0.000000 0.000000 1.756860 
# 
# From -- ./inp_files/12490.got.cif
#   From: 2010.03.12/outbox.cif.g09.slc.cpg/sg36_7_cif.got.tgz:12490.got - 2010.04.14 02:13:53.
