data_PCOD8174259
_publ_section_title
;
Structure prediction by ZEFSAII (Michael W. Deem and Ramdas Pophale) SiO2 
 PCOD8174259
Probable space group: C M C 21
;
_chemical_formula_sum "Si O2"
_cell_formula_units_Z 60
_cell_length_a 16.433802
_cell_length_b 31.030660
_cell_length_c 5.285666
_cell_angle_alpha 90.000000
_cell_angle_beta 90.000000
_cell_angle_gamma 90.000000
_cell_volume 2695.434481
_symmetry_space_group_name_H-M "C M C 21"
_symmetry_group_IT_number 36
_symmetry_cell_setting 'orthorhombic'
loop_
_space_group_symop_operation_xyz
x,y,z
-x,-y,1/2+z
x,-y,1/2+z
-x,y,z
1/2+x,1/2+y,z
1/2-x,1/2-y,1/2+z
1/2+x,1/2-y,1/2+z
1/2-x,1/2+y,z
loop_
_atom_site_type_symbol
_atom_site_label
_atom_site_fract_x
_atom_site_fract_y
_atom_site_fract_z
Si Si1 0.302524 0.252682 0.522530
Si Si2 0.670811 0.651499 0.035283
Si Si3 0.188175 0.119588 0.536048
Si Si4 0.322127 0.472719 0.099031
Si Si5 0.140155 0.662262 0.516446
Si Si6 0.642261 0.877225 0.515964
Si Si7 0.500000 0.524572 0.513832
Si Si8 0.903799 0.525862 0.994824
O O1 0.259409 0.254793 0.251427
O O2 0.348140 0.297977 0.564084
O O3 0.368912 0.214125 0.520888
O O4 0.635491 0.625730 0.278471
O O5 0.766415 0.640451 0.005576
O O6 0.631931 0.632834 0.776144
O O7 0.227846 0.071528 0.565976
O O8 0.263320 0.152446 0.505449
O O9 0.303767 0.493906 0.371861
O O10 0.414485 0.452813 0.081825
O O11 0.098012 0.641834 0.266157
O O12 0.097883 0.640905 0.763325
O O13 0.641230 0.928824 0.519637
O O14 0.500000 0.515633 0.212981
O O15 0.875750 0.496565 0.232639
O O16 0.000000 0.533398 0.999577
#
# Coordination Sequence:
#
# PCOD8174259 Si02
#       8
#     8   8   8   8   8   8   4   8
#     4  12  16  30  48  69 100 125 154 180 226 270
#     4  10  19  30  45  70 101 122 149 190 222 284
#     4  10  18  30  43  65  98 122 150 188 224 271
#     4  10  19  32  47  64  88 121 156 195 230 265
#     4  10  19  30  46  72 101 125 148 193 226 288
#     4  10  18  32  48  69  97 121 156 199 233 279
#     4   8  16  30  48  64  80 106 152 200 224 244
#     4  10  21  37  54  70  91 125 169 215 251 285
#
# _framework density 22.259861999999998
#
# number of rings (size 3 to 8) (size 9 to 14) (size 15 to 20)
#    0.000    1.867    5.333    1.600    0.000    0.000 
#    0.000   16.000    0.000    0.000    0.000    0.000 
#   22.000    0.000    0.000    0.000    0.000    0.000 
#
# Total GULP energy -371677.580292 kJ/mol
# GULP energy per Si atom -12389.252676 kJ/mol
# Density = 2.220920 g / cm^3
# Si number density = 22.259862 Si / 1000 Ang^3
#
#
#
# Elastic Constant Matrix: (Units=GPa)
#
#
# Indices 1 2 3 4 5 6 
#
# 1 4.6429 -7.4649 -9.2699 0.0000 0.0000 0.0000
# 2 -7.4649 173.1587 61.8526 0.0000 0.0000 0.0000
# 3 -9.2699 61.8526 223.1498 0.0000 0.0000 0.0000
# 4 0.0000 0.0000 0.0000 44.4025 0.0000 0.0000
# 5 0.0000 0.0000 0.0000 0.0000 3.2493 0.0000
# 6 0.0000 0.0000 0.0000 0.0000 0.0000 2.0108
#
#
#
# Elastic Compliance Matrix: (Units=1/GPa)
#
#
# Indices 1 2 3 4 5 6 
#
# 1 0.243650 0.007645 0.008002 0.000000 0.000000 0.000000
# 2 0.007645 0.006650 -0.001526 0.000000 0.000000 0.000000
# 3 0.008002 -0.001526 0.005237 0.000000 0.000000 0.000000
# 4 0.000000 0.000000 0.000000 0.022521 0.000000 0.000000
# 5 0.000000 0.000000 0.000000 0.000000 0.307761 0.000000
# 6 0.000000 0.000000 0.000000 0.000000 0.000000 0.497317
#
#
# Mechanical properties :
#
#
# Convention : Reuss Voigt Hill
#
# Bulk Modulus (GPa) = 3.52385 54.57636 29.05010
# Shear Modulus (GPa) = 4.34977 33.65475 19.00226
#
# Velocity S-wave (km/s) = 1.39940 3.89254 2.92491
# Velocity P-wave (km/s) = 2.04880 6.69130 4.94829
#
# Compressibility (1/GPa) = 0.28378073
#
# Stress axis : x y z
#
# Youngs Moduli (GPa) = 4.10424 150.38588 190.96480
#
# Poissons Ratio (x) = -1.14974 -1.52817
# Poissons Ratio (y) = -0.03138 0.29132
# Poissons Ratio (z) = -0.03284 0.22942
#
# Static dielectric constant tensor:
#      x y z
#    x 3.327450 0.000000 0.000000 
#    y 0.000000 4.086010 0.000000 
#    z 0.000000 0.000000 6.157210 
# 
# 
# High freq. dielectric constant tensor:
#      x y z
#    x 1.788960 0.000000 0.000000 
#    y 0.000000 1.881410 0.000000 
#    z 0.000000 0.000000 1.921480 
# 
# From -- ./inp_files/1220.got.cif
#   From: 2010.03.12/outbox.cif.g09.slc.cpg/sg36_1_cif.got.tgz:1220.got - 2010.04.14 02:13:53.
