data_PCOD8174010
_publ_section_title
;
Structure prediction by ZEFSAII (Michael W. Deem and Ramdas Pophale) SiO2 
 PCOD8174010
Probable space group: C M M 2
;
_chemical_formula_sum "Si O2"
_cell_formula_units_Z 56
_cell_length_a 8.897379
_cell_length_b 21.722282
_cell_length_c 14.595692
_cell_angle_alpha 90.000000
_cell_angle_beta 90.000000
_cell_angle_gamma 90.000000
_cell_volume 2820.929472
_symmetry_space_group_name_H-M "C M M 2"
_symmetry_group_IT_number 35
_symmetry_cell_setting 'orthorhombic'
loop_
_space_group_symop_operation_xyz
x,y,z
-x,-y,z
-x,y,z
x,-y,z
1/2+x,1/2+y,z
1/2-x,1/2-y,z
1/2-x,1/2+y,z
1/2+x,1/2-y,z
loop_
_atom_site_type_symbol
_atom_site_label
_atom_site_fract_x
_atom_site_fract_y
_atom_site_fract_z
Si Si1 0.324416 0.500000 0.080420
Si Si2 0.821182 0.068726 0.588795
Si Si3 0.671705 0.428535 0.796011
Si Si4 0.325463 0.314250 0.475370
Si Si5 0.677932 0.000000 0.277359
Si Si6 0.170538 0.313661 0.131189
Si Si7 0.670686 0.896871 0.969109
Si Si8 0.674815 0.621545 0.292576
O O1 0.500000 0.500000 0.105694
O O2 0.225492 0.500000 0.171432
O O3 0.285673 0.441400 0.019572
O O4 0.770119 0.082116 0.692940
O O5 0.758076 0.125503 0.527833
O O6 0.000000 0.066785 0.582541
O O7 0.761316 0.000000 0.558922
O O8 0.500000 0.406714 0.805475
O O9 0.687509 0.500000 0.823139
O O10 0.773944 0.387931 0.864665
O O11 0.500000 0.308033 0.499017
O O12 0.250000 0.250000 0.505746
O O13 0.298359 0.324836 0.367094
O O14 0.746314 0.059362 0.328625
O O15 0.500000 0.000000 0.285243
O O16 0.250000 0.250000 0.145808
O O17 0.253198 0.363013 0.194924
O O18 0.000000 0.308217 0.165570
O O19 0.178086 0.332696 0.024521
O O20 0.500000 0.922583 0.969974
O O21 0.500000 0.608242 0.278139
#
# Coordination Sequence:
#
# PCOD8174010 Si02
#       8
#     4   8   8   8   4   8   8   8
#     4  12  22  34  56  83 112 149 190 227 272 334
#     4   8  16  34  60  87 115 148 193 245 295 350
#     4   9  17  31  55  85 112 145 190 236 284 345
#     4  10  22  39  62  88 116 154 198 246 298 355
#     4  12  24  38  56  85 122 155 188 239 298 344
#     4  11  24  40  57  77 110 154 198 241 290 342
#     4  11  22  35  54  82 117 151 184 234 289 336
#     4  11  23  38  60  87 115 152 197 240 290 354
#
# _framework density 19.851611999999999
#
# number of rings (size 3 to 8) (size 9 to 14) (size 15 to 20)
#    0.000    1.714    2.143    3.857    1.000    4.000 
#    0.000    1.429    0.000    4.286    0.000    0.000 
#    0.000    0.000    0.000    0.000    0.000    0.000 
#
# Total GULP energy -347137.601024 kJ/mol
# GULP energy per Si atom -12397.771465 kJ/mol
# Density = 1.980643 g / cm^3
# Si number density = 19.851612 Si / 1000 Ang^3
#
#
#
# Elastic Constant Matrix: (Units=GPa)
#
#
# Indices 1 2 3 4 5 6 
#
# 1 106.4425 44.7578 32.4099 0.0000 0.0000 0.0000
# 2 44.7578 123.0299 40.0124 0.0000 0.0000 0.0000
# 3 32.4099 40.0124 85.2844 0.0000 0.0000 0.0000
# 4 0.0000 0.0000 0.0000 24.6538 0.0000 0.0000
# 5 0.0000 0.0000 0.0000 0.0000 22.5592 0.0000
# 6 0.0000 0.0000 0.0000 0.0000 0.0000 30.1747
#
#
#
# Elastic Compliance Matrix: (Units=1/GPa)
#
#
# Indices 1 2 3 4 5 6 
#
# 1 0.011662 -0.003306 -0.002881 0.000000 0.000000 0.000000
# 2 -0.003306 0.010529 -0.003683 0.000000 0.000000 0.000000
# 3 -0.002881 -0.003683 0.014548 0.000000 0.000000 0.000000
# 4 0.000000 0.000000 0.000000 0.040562 0.000000 0.000000
# 5 0.000000 0.000000 0.000000 0.000000 0.044328 0.000000
# 6 0.000000 0.000000 0.000000 0.000000 0.000000 0.033140
#
#
# Mechanical properties :
#
#
# Convention : Reuss Voigt Hill
#
# Bulk Modulus (GPa) = 58.82692 61.01301 59.91996
# Shear Modulus (GPa) = 27.75080 28.64933 28.20006
#
# Velocity S-wave (km/s) = 3.74292 3.80303 3.77310
# Velocity P-wave (km/s) = 6.95535 7.07710 7.01649
#
# Compressibility (1/GPa) = 0.01699902
#
# Stress axis : x y z
#
# Youngs Moduli (GPa) = 85.74936 94.97915 68.73597
#
# Poissons Ratio (x) = 0.31396 0.19802
# Poissons Ratio (y) = 0.28345 0.25319
# Poissons Ratio (z) = 0.24703 0.34985
#
# Static dielectric constant tensor:
#      x y z
#    x 3.441480 0.000000 0.000000 
#    y 0.000000 3.590060 0.000000 
#    z 0.000000 0.000000 3.675130 
# 
# 
# High freq. dielectric constant tensor:
#      x y z
#    x 1.761230 0.000000 0.000000 
#    y 0.000000 1.762620 0.000000 
#    z 0.000000 0.000000 1.773090 
# 
# From -- ./inp_files/15788.got.cif
#   From: 2010.03.12/outbox.cif.g09.slc.cpg/sg35_8_cif.got.tgz:15788.got - 2010.04.14 02:02:04.
