data_PCOD8174135
_publ_section_title
;
Structure prediction by ZEFSAII (Michael W. Deem and Ramdas Pophale) SiO2 
 PCOD8174135
Probable space group: C M M 2
;
_chemical_formula_sum "Si O2"
_cell_formula_units_Z 56
_cell_length_a 9.182806
_cell_length_b 18.253203
_cell_length_c 18.417769
_cell_angle_alpha 90.000000
_cell_angle_beta 90.000000
_cell_angle_gamma 90.000000
_cell_volume 3087.105807
_symmetry_space_group_name_H-M "C M M 2"
_symmetry_group_IT_number 35
_symmetry_cell_setting 'orthorhombic'
loop_
_space_group_symop_operation_xyz
x,y,z
-x,-y,z
-x,y,z
x,-y,z
1/2+x,1/2+y,z
1/2-x,1/2-y,z
1/2-x,1/2+y,z
1/2+x,1/2-y,z
loop_
_atom_site_type_symbol
_atom_site_label
_atom_site_fract_x
_atom_site_fract_y
_atom_site_fract_z
Si Si1 0.333805 0.913806 0.078200
Si Si2 0.665580 0.087477 0.922575
Si Si3 0.329025 0.086343 0.235550
Si Si4 0.164285 0.412739 0.644573
Si Si5 0.331065 0.415751 0.503388
Si Si6 0.672032 0.672881 0.360404
Si Si7 0.335886 0.587470 0.784030
O O1 0.500000 0.890175 0.073706
O O2 0.272739 0.884781 0.155621
O O3 0.318839 0.000000 0.082212
O O4 0.265724 0.886051 0.001080
O O5 0.500000 0.115529 0.912428
O O6 0.763187 0.119185 0.857427
O O7 0.665859 0.000000 0.920554
O O8 0.500000 0.104621 0.246273
O O9 0.230156 0.127425 0.292787
O O10 0.303081 0.000000 0.244381
O O11 0.167848 0.500000 0.645975
O O12 0.241269 0.384195 0.571494
O O13 0.248529 0.381709 0.714709
O O14 0.000000 0.382761 0.646328
O O15 0.500000 0.407371 0.522729
O O16 0.290823 0.500000 0.487565
O O17 0.286096 0.370023 0.433229
O O18 0.500000 0.683403 0.352290
O O19 0.750000 0.750000 0.363315
O O20 0.500000 0.617022 0.779770
O O21 0.332565 0.500000 0.784411
#
# Coordination Sequence:
#
# PCOD8174135 Si02
#       7
#     8   8   8   8   8   8   8
#     4   7  11  21  38  60  85 115 151 189 228 271
#     4   8  12  19  32  50  76 112 151 186 220 262
#     4   9  17  31  52  75  98 126 161 199 240 288
#     4   9  16  25  39  60  84 112 149 189 226 269
#     4   9  18  33  51  69  91 120 153 191 237 285
#     4  11  23  37  52  71  97 127 159 197 242 290
#     4   9  15  21  30  48  79 117 151 183 223 268
#
# _framework density 18.139966999999999
#
# number of rings (size 3 to 8) (size 9 to 14) (size 15 to 20)
#    0.000    3.143    0.000    3.429    0.000    5.429 
#    0.000    2.143    0.000    2.571    0.000    0.000 
#    0.000    1.143    0.000    8.286    0.000   12.571 
#
# Total GULP energy -346899.523693 kJ/mol
# GULP energy per Si atom -12389.268703 kJ/mol
# Density = 1.809868 g / cm^3
# Si number density = 18.139967 Si / 1000 Ang^3
#
#
#
# Elastic Constant Matrix: (Units=GPa)
#
#
# Indices 1 2 3 4 5 6 
#
# 1 104.4749 26.3872 92.9133 0.0000 0.0000 0.0000
# 2 26.3872 33.6443 39.9424 0.0000 0.0000 0.0000
# 3 92.9133 39.9424 217.2839 0.0000 0.0000 0.0000
# 4 0.0000 0.0000 0.0000 -2.4014 0.0000 0.0000
# 5 0.0000 0.0000 0.0000 0.0000 30.3580 0.0000
# 6 0.0000 0.0000 0.0000 0.0000 0.0000 9.7059
#
#
#
# Elastic Compliance Matrix: (Units=1/GPa)
#
#
# Indices 1 2 3 4 5 6 
#
# 1 0.016273 -0.005759 -0.005900 0.000000 0.000000 0.000000
# 2 -0.005759 0.040058 -0.004901 0.000000 0.000000 0.000000
# 3 -0.005900 -0.004901 0.008026 0.000000 0.000000 0.000000
# 4 0.000000 0.000000 0.000000 -0.416415 0.000000 0.000000
# 5 0.000000 0.000000 0.000000 0.000000 0.032940 0.000000
# 6 0.000000 0.000000 0.000000 0.000000 0.000000 0.103031
#
#
# Mechanical properties :
#
#
# Convention : Reuss Voigt Hill
#
# Bulk Modulus (GPa) = 32.01276 74.87653 53.44465
# Shear Modulus (GPa) = -28.97626 20.60983 -4.18322
#
# Velocity S-wave (km/s) = -4.00105 3.37435 -1.52022
# Velocity P-wave (km/s) = 1.91274 7.51986 5.14246
#
# Compressibility (1/GPa) = 0.03123754
#
# Stress axis : x y z
#
# Youngs Moduli (GPa) = 61.45044 24.96392 124.59207
#
# Poissons Ratio (x) = 0.14376 0.73510
# Poissons Ratio (y) = 0.35387 0.61065
# Poissons Ratio (z) = 0.36256 0.12235
#
# Static dielectric constant tensor:
#      x y z
#    x 3.296200 0.000000 0.000000 
#    y 0.000000 2.719190 0.000000 
#    z 0.000000 0.000000 3.894060 
# 
# 
# High freq. dielectric constant tensor:
#      x y z
#    x 1.690270 0.000000 0.000000 
#    y 0.000000 1.628390 0.000000 
#    z 0.000000 0.000000 1.733370 
# 
# From -- ./inp_files/18456.got.cif
#   From: 2010.03.12/outbox.cif.g09.slc.cpg/sg35_10_cif.got.tgz:18456.got - 2010.04.14 02:02:04.
