data_PCOD8174438
_publ_section_title
;
Structure prediction by ZEFSAII (Michael W. Deem and Ramdas Pophale) SiO2 
 PCOD8174438
Probable space group: C M C 21
;
_chemical_formula_sum "Si O2"
_cell_formula_units_Z 48
_cell_length_a 17.645508
_cell_length_b 12.850523
_cell_length_c 9.950190
_cell_angle_alpha 90.000000
_cell_angle_beta 90.000000
_cell_angle_gamma 90.000000
_cell_volume 2256.245447
_symmetry_space_group_name_H-M "C M C 21"
_symmetry_group_IT_number 36
_symmetry_cell_setting 'orthorhombic'
loop_
_space_group_symop_operation_xyz
x,y,z
-x,-y,1/2+z
x,-y,1/2+z
-x,y,z
1/2+x,1/2+y,z
1/2-x,1/2-y,1/2+z
1/2+x,1/2-y,1/2+z
1/2-x,1/2+y,z
loop_
_atom_site_type_symbol
_atom_site_label
_atom_site_fract_x
_atom_site_fract_y
_atom_site_fract_z
Si Si1 0.374772 0.933944 0.630160
Si Si2 0.500000 0.837258 0.899962
Si Si3 0.837392 0.693249 0.392489
Si Si4 0.500000 0.804235 0.492662
Si Si5 0.842561 0.080649 0.798692
Si Si6 0.736085 0.459367 0.023524
Si Si7 0.500000 0.347930 0.201388
Si Si8 0.000000 0.552363 0.760046
O O1 0.342710 0.883246 0.765546
O O2 0.422970 0.850489 0.550234
O O3 0.308148 0.964017 0.527851
O O4 0.425416 0.036449 0.667341
O O5 0.579941 0.806626 0.971403
O O6 0.500000 0.769839 0.761496
O O7 0.500000 0.960342 0.871412
O O8 0.814145 0.807896 0.348552
O O9 0.768080 0.654374 0.484244
O O10 0.500000 0.680583 0.539350
O O11 0.500000 0.833649 0.332474
O O12 0.795380 0.044063 0.672197
O O13 0.929724 0.084190 0.752534
O O14 0.827784 0.998797 0.919032
#
# Coordination Sequence:
#
# PCOD8174438 Si02
#       8
#     8   4   8   4   8   8   4   4
#     4  10  18  36  57  95 132 164 205 256 325 394
#     4   8  14  35  55  85 116 163 198 242 313 381
#     4  10  20  39  62  91 128 165 210 258 325 389
#     4  11  17  30  67  89 124 169 211 249 329 393
#     4  11  26  43  68  89 124 175 219 275 330 381
#     4  12  25  40  63 100 131 166 216 269 331 402
#     4  10  20  43  63  86 116 174 227 268 314 383
#     4   9  17  28  55  98 126 166 194 259 320 407
#
# _framework density 21.274280999999998
#
# number of rings (size 3 to 8) (size 9 to 14) (size 15 to 20)
#    0.000    1.667    6.667    2.000    2.333    1.333 
#    0.000    0.000    0.000    0.000    0.000    0.000 
#    0.000    0.000    0.000    0.000    0.000    0.000 
#
# Total GULP energy -297348.451169 kJ/mol
# GULP energy per Si atom -12389.518799 kJ/mol
# Density = 2.122586 g / cm^3
# Si number density = 21.274281 Si / 1000 Ang^3
#
#
#
# Elastic Constant Matrix: (Units=GPa)
#
#
# Indices 1 2 3 4 5 6 
#
# 1 97.3766 38.5647 23.7933 0.0000 0.0000 0.0000
# 2 38.5647 59.6926 24.1229 0.0000 0.0000 0.0000
# 3 23.7933 24.1229 71.3288 0.0000 0.0000 0.0000
# 4 0.0000 0.0000 0.0000 28.2255 0.0000 0.0000
# 5 0.0000 0.0000 0.0000 0.0000 19.0760 0.0000
# 6 0.0000 0.0000 0.0000 0.0000 0.0000 -3.9764
#
#
#
# Elastic Compliance Matrix: (Units=1/GPa)
#
#
# Indices 1 2 3 4 5 6 
#
# 1 0.014012 -0.008298 -0.001868 0.000000 0.000000 0.000000
# 2 -0.008298 0.024318 -0.005456 0.000000 0.000000 0.000000
# 3 -0.001868 -0.005456 0.016488 0.000000 0.000000 0.000000
# 4 0.000000 0.000000 0.000000 0.035429 0.000000 0.000000
# 5 0.000000 0.000000 0.000000 0.000000 0.052422 0.000000
# 6 0.000000 0.000000 0.000000 0.000000 0.000000 -0.251485
#
#
# Mechanical properties :
#
#
# Convention : Reuss Voigt Hill
#
# Bulk Modulus (GPa) = 42.41880 44.59553 43.50716
# Shear Modulus (GPa) = -71.72176 18.12617 -26.79780
#
# Velocity S-wave (km/s) = -5.81258 2.92211 -3.55298
# Velocity P-wave (km/s) = 5.00658 5.69145 1.91400
#
# Compressibility (1/GPa) = 0.02357445
#
# Stress axis : x y z
#
# Youngs Moduli (GPa) = 71.36749 41.12127 60.65036
#
# Poissons Ratio (x) = 0.34121 0.11328
# Poissons Ratio (y) = 0.59219 0.33093
# Poissons Ratio (z) = 0.13330 0.22437
#
# Static dielectric constant tensor:
#      x y z
#    x 4.169310 0.000000 0.000000 
#    y 0.000000 3.513500 0.000000 
#    z 0.000000 0.000000 3.779230 
# 
# 
# High freq. dielectric constant tensor:
#      x y z
#    x 1.841280 0.000000 0.000000 
#    y 0.000000 1.796370 0.000000 
#    z 0.000000 0.000000 1.819590 
# 
# From -- ./inp_files/8896.got.cif
#   From: 2010.03.12/outbox.cif.g09.slc.cpg/sg36_5_cif.got.tgz:8896.got - 2010.04.14 02:13:53.
