data_PCOD8174050
_publ_section_title
;
Structure prediction by ZEFSAII (Michael W. Deem and Ramdas Pophale) SiO2 
 PCOD8174050
Probable space group: C M M 2
;
_chemical_formula_sum "Si O2"
_cell_formula_units_Z 32
_cell_length_a 13.537772
_cell_length_b 20.184402
_cell_length_c 5.061942
_cell_angle_alpha 90.000000
_cell_angle_beta 90.000000
_cell_angle_gamma 90.000000
_cell_volume 1383.184926
_symmetry_space_group_name_H-M "C M M 2"
_symmetry_group_IT_number 35
_symmetry_cell_setting 'orthorhombic'
loop_
_space_group_symop_operation_xyz
x,y,z
-x,-y,z
-x,y,z
x,-y,z
1/2+x,1/2+y,z
1/2-x,1/2-y,z
1/2-x,1/2+y,z
1/2+x,1/2-y,z
loop_
_atom_site_type_symbol
_atom_site_label
_atom_site_fract_x
_atom_site_fract_y
_atom_site_fract_z
Si Si1 0.234287 0.131935 0.760260
Si Si2 0.111188 0.427230 0.091443
Si Si3 0.613295 0.341895 0.271397
Si Si4 0.610688 0.803800 0.471652
O O1 0.173800 0.116126 0.490975
O O2 0.309758 0.194017 0.709133
O O3 0.308756 0.073536 0.852657
O O4 0.152826 0.145986 0.979715
O O5 0.119198 0.500000 0.227482
O O6 0.136380 0.367697 0.291340
O O7 0.000000 0.417231 0.978444
O O8 0.500000 0.364726 0.284022
O O9 0.625566 0.263706 0.315199
O O10 0.500000 0.808180 0.587239
#
# Coordination Sequence:
#
# PCOD8174050 Si02
#       4
#     8   8   8   8
#     4  12  23  42  68  97 133 172 221 269 334 390
#     4  10  23  43  67 100 139 175 215 266 329 404
#     4  11  26  42  65  98 136 173 223 276 328 385
#     4  10  23  40  65 100 136 174 214 268 334 402
#
# _framework density 23.135010999999999
#
# number of rings (size 3 to 8) (size 9 to 14) (size 15 to 20)
#    0.000    1.250    2.500    2.250    7.000    1.000 
#    0.000    2.500    0.000    4.500    0.000    0.000 
#    0.000    0.000    0.000    0.000    0.000    0.000 
#
# Total GULP energy -198245.088998 kJ/mol
# GULP energy per Si atom -12390.318062 kJ/mol
# Density = 2.308236 g / cm^3
# Si number density = 23.135011 Si / 1000 Ang^3
#
#
#
# Elastic Constant Matrix: (Units=GPa)
#
#
# Indices 1 2 3 4 5 6 
#
# 1 167.2442 10.2396 49.2242 0.0000 0.0000 0.0000
# 2 10.2396 76.5465 9.0992 0.0000 0.0000 0.0000
# 3 49.2242 9.0992 95.2575 0.0000 0.0000 0.0000
# 4 0.0000 0.0000 0.0000 25.8448 0.0000 0.0000
# 5 0.0000 0.0000 0.0000 0.0000 41.2573 0.0000
# 6 0.0000 0.0000 0.0000 0.0000 0.0000 16.5530
#
#
#
# Elastic Compliance Matrix: (Units=1/GPa)
#
#
# Indices 1 2 3 4 5 6 
#
# 1 0.007072 -0.000517 -0.003605 0.000000 0.000000 0.000000
# 2 -0.000517 0.013252 -0.000998 0.000000 0.000000 0.000000
# 3 -0.003605 -0.000998 0.012456 0.000000 0.000000 0.000000
# 4 0.000000 0.000000 0.000000 0.038692 0.000000 0.000000
# 5 0.000000 0.000000 0.000000 0.000000 0.024238 0.000000
# 6 0.000000 0.000000 0.000000 0.000000 0.000000 0.060412
#
#
# Mechanical properties :
#
#
# Convention : Reuss Voigt Hill
#
# Bulk Modulus (GPa) = 44.36928 52.90824 48.63876
# Shear Modulus (GPa) = 28.75589 34.76336 31.75963
#
# Velocity S-wave (km/s) = 3.52939 3.88058 3.70914
# Velocity P-wave (km/s) = 5.98572 6.55725 6.27799
#
# Compressibility (1/GPa) = 0.02253812
#
# Stress axis : x y z
#
# Youngs Moduli (GPa) = 141.40243 75.46106 80.28176
#
# Poissons Ratio (x) = 0.03905 0.28942
# Poissons Ratio (y) = 0.07317 0.08016
# Poissons Ratio (z) = 0.50976 0.07534
#
# Static dielectric constant tensor:
#      x y z
#    x 4.719470 0.000000 0.000000 
#    y 0.000000 3.867010 0.000000 
#    z 0.000000 0.000000 4.085630 
# 
# 
# High freq. dielectric constant tensor:
#      x y z
#    x 1.949510 0.000000 0.000000 
#    y 0.000000 1.872800 0.000000 
#    z 0.000000 0.000000 1.902700 
# 
# From -- ./inp_files/1540.got.cif
#   From: 2010.03.12/outbox.cif.g09.slc.cpg/sg35_1_cif.got.tgz:1540.got - 2010.04.14 02:02:04.
