data_PCOD8174984
_publ_section_title
;
Structure prediction by ZEFSAII (Michael W. Deem and Ramdas Pophale) SiO2 
 PCOD8174984
Probable space group: C M C 21
;
_chemical_formula_sum "Si O2"
_cell_formula_units_Z 48
_cell_length_a 8.376077
_cell_length_b 30.738445
_cell_length_c 8.844804
_cell_angle_alpha 90.000000
_cell_angle_beta 90.000000
_cell_angle_gamma 90.000000
_cell_volume 2277.250301
_symmetry_space_group_name_H-M "C M C 21"
_symmetry_group_IT_number 36
_symmetry_cell_setting 'orthorhombic'
loop_
_space_group_symop_operation_xyz
x,y,z
-x,-y,1/2+z
x,-y,1/2+z
-x,y,z
1/2+x,1/2+y,z
1/2-x,1/2-y,1/2+z
1/2+x,1/2-y,1/2+z
1/2-x,1/2+y,z
loop_
_atom_site_type_symbol
_atom_site_label
_atom_site_fract_x
_atom_site_fract_y
_atom_site_fract_z
Si Si1 0.310845 0.453557 0.204950
Si Si2 0.816180 0.626413 0.215144
Si Si3 0.184976 0.129723 0.887550
Si Si4 0.682782 0.791029 0.216140
Si Si5 0.809908 0.958590 0.862810
Si Si6 0.183342 0.794741 0.892165
O O1 0.500000 0.453298 0.198446
O O2 0.248065 0.410402 0.288416
O O3 0.250405 0.495386 0.297151
O O4 0.244941 0.454407 0.033851
O O5 0.769057 0.577776 0.258981
O O6 0.709293 0.659442 0.310817
O O7 0.000000 0.635543 0.251651
O O8 0.787292 0.633358 0.038426
O O9 0.203058 0.173530 0.791850
O O10 0.000000 0.122693 0.929597
O O11 0.500000 0.802465 0.254110
O O12 0.730102 0.743610 0.277405
O O13 0.705306 0.790687 0.037219
O O14 0.000000 0.954223 0.853934
O O15 0.000000 0.791657 0.943647
#
# Coordination Sequence:
#
# PCOD8174984 Si02
#       6
#     8   8   8   8   8   8
#     4   9  19  35  61  91 117 152 199 247 292 356
#     4  12  25  40  59  87 121 157 201 254 307 354
#     4  11  22  39  63  90 121 160 203 245 297 361
#     4  11  24  41  63  93 125 156 197 250 300 348
#     4  10  19  37  62  88 118 154 199 246 298 360
#     4  11  24  42  64  89 120 161 203 242 294 361
#
# _framework density 21.078052
#
# number of rings (size 3 to 8) (size 9 to 14) (size 15 to 20)
#    0.000    1.333    0.000    6.000    0.000    9.333 
#    0.000    5.000    0.000    0.000    0.000    0.000 
#    0.000    0.000    0.000    0.000    0.000    0.000 
#
# Total GULP energy -297781.954846 kJ/mol
# GULP energy per Si atom -12407.581452 kJ/mol
# Density = 2.103008 g / cm^3
# Si number density = 21.078052 Si / 1000 Ang^3
#
#
#
# Elastic Constant Matrix: (Units=GPa)
#
#
# Indices 1 2 3 4 5 6 
#
# 1 47.4991 28.3525 18.5925 0.0000 0.0000 0.0000
# 2 28.3525 105.0554 16.8647 0.0000 0.0000 0.0000
# 3 18.5925 16.8647 111.4536 0.0000 0.0000 0.0000
# 4 0.0000 0.0000 0.0000 45.4518 0.0000 0.0000
# 5 0.0000 0.0000 0.0000 0.0000 29.5503 0.0000
# 6 0.0000 0.0000 0.0000 0.0000 0.0000 20.1951
#
#
#
# Elastic Compliance Matrix: (Units=1/GPa)
#
#
# Indices 1 2 3 4 5 6 
#
# 1 0.026292 -0.006551 -0.003395 0.000000 0.000000 0.000000
# 2 -0.006551 0.011388 -0.000630 0.000000 0.000000 0.000000
# 3 -0.003395 -0.000630 0.009634 0.000000 0.000000 0.000000
# 4 0.000000 0.000000 0.000000 0.022001 0.000000 0.000000
# 5 0.000000 0.000000 0.000000 0.000000 0.033841 0.000000
# 6 0.000000 0.000000 0.000000 0.000000 0.000000 0.049517
#
#
# Mechanical properties :
#
#
# Convention : Reuss Voigt Hill
#
# Bulk Modulus (GPa) = 38.22313 43.51416 40.86864
# Shear Modulus (GPa) = 27.39044 32.38599 29.88822
#
# Velocity S-wave (km/s) = 3.60874 3.92405 3.76969
# Velocity P-wave (km/s) = 5.96133 6.42028 6.19505
#
# Compressibility (1/GPa) = 0.02616217
#
# Stress axis : x y z
#
# Youngs Moduli (GPa) = 38.03435 87.81247 103.79863
#
# Poissons Ratio (x) = 0.57524 0.35237
# Poissons Ratio (y) = 0.24915 0.06543
# Poissons Ratio (z) = 0.12912 0.05536
#
# Static dielectric constant tensor:
#      x y z
#    x 3.529520 0.000000 0.000000 
#    y 0.000000 3.949790 0.000000 
#    z 0.000000 0.000000 3.915670 
# 
# 
# High freq. dielectric constant tensor:
#      x y z
#    x 1.806530 0.000000 0.000000 
#    y 0.000000 1.841860 0.000000 
#    z 0.000000 0.000000 1.839960 
# 
# From -- ./inp_files/2718.got.cif
#   From: 2010.03.12/outbox.cif.g09.slc.cpg/sg36_2_cif.got.tgz:2718.got - 2010.04.14 02:13:53.
