data_PCOD8174017
_publ_section_title
;
Structure prediction by ZEFSAII (Michael W. Deem and Ramdas Pophale) SiO2 
 PCOD8174017
Probable space group: C M M 2
;
_chemical_formula_sum "Si O2"
_cell_formula_units_Z 64
_cell_length_a 15.398487
_cell_length_b 17.711328
_cell_length_c 11.851078
_cell_angle_alpha 90.000000
_cell_angle_beta 90.000000
_cell_angle_gamma 90.000000
_cell_volume 3232.116700
_symmetry_space_group_name_H-M "C M M 2"
_symmetry_group_IT_number 35
_symmetry_cell_setting 'orthorhombic'
loop_
_space_group_symop_operation_xyz
x,y,z
-x,-y,z
-x,y,z
x,-y,z
1/2+x,1/2+y,z
1/2-x,1/2-y,z
1/2-x,1/2+y,z
1/2+x,1/2-y,z
loop_
_atom_site_type_symbol
_atom_site_label
_atom_site_fract_x
_atom_site_fract_y
_atom_site_fract_z
Si Si1 0.261125 0.086221 0.771060
Si Si2 0.810426 0.323023 0.128431
Si Si3 0.341188 0.208476 0.369882
Si Si4 0.646220 0.588356 0.138378
Si Si5 0.599188 0.183792 0.900165
Si Si6 0.239665 0.585794 0.512755
Si Si7 0.594648 0.636908 0.383072
Si Si8 0.403520 0.641357 0.898756
O O1 0.336692 0.137538 0.820751
O O2 0.247397 0.110157 0.641670
O O3 0.169537 0.093709 0.834977
O O4 0.291593 0.000000 0.781473
O O5 0.750000 0.250000 0.106312
O O6 0.864795 0.320852 0.244879
O O7 0.749187 0.396908 0.129930
O O8 0.880239 0.332933 0.030287
O O9 0.250000 0.250000 0.358094
O O10 0.334032 0.139118 0.457263
O O11 0.407124 0.273069 0.412013
O O12 0.627029 0.500000 0.143222
O O13 0.609498 0.628326 0.249667
O O14 0.598344 0.625450 0.032109
O O15 0.500000 0.159786 0.875761
O O16 0.614603 0.271322 0.873697
O O17 0.206789 0.500000 0.501450
O O18 0.332453 0.592312 0.451543
O O19 0.500000 0.604382 0.416304
O O20 0.500000 0.618965 0.854912
#
# Coordination Sequence:
#
# PCOD8174017 Si02
#       8
#     8   8   8   8   8   8   8   8
#     4  11  24  42  62  85 119 162 203 254 310 359
#     4  11  17  35  60  86 121 158 197 238 295 355
#     4   9  18  35  58  84 116 154 196 235 285 347
#     4  12  22  34  57  91 128 162 194 235 296 363
#     4  11  23  39  64  91 119 156 203 256 304 356
#     4  10  22  40  61  84 113 155 202 247 301 357
#     4  11  22  36  58  91 124 155 194 241 292 357
#     4  11  23  38  59  90 124 162 203 243 296 364
#
# _framework density 19.801264
#
# number of rings (size 3 to 8) (size 9 to 14) (size 15 to 20)
#    0.000    1.250    6.250    1.500    0.000    7.750 
#    0.000    3.125    0.000    1.125    0.000    1.750 
#    0.000    0.000    0.000    0.000    0.000    0.000 
#
# Total GULP energy -396788.776801 kJ/mol
# GULP energy per Si atom -12399.649275 kJ/mol
# Density = 1.975620 g / cm^3
# Si number density = 19.801264 Si / 1000 Ang^3
#
#
#
# Elastic Constant Matrix: (Units=GPa)
#
#
# Indices 1 2 3 4 5 6 
#
# 1 77.6144 34.8604 28.8441 0.0000 0.0000 0.0000
# 2 34.8604 103.1207 41.7707 0.0000 0.0000 0.0000
# 3 28.8441 41.7707 127.1228 0.0000 0.0000 0.0000
# 4 0.0000 0.0000 0.0000 28.9950 0.0000 0.0000
# 5 0.0000 0.0000 0.0000 0.0000 2.6997 0.0000
# 6 0.0000 0.0000 0.0000 0.0000 0.0000 14.1186
#
#
#
# Elastic Compliance Matrix: (Units=1/GPa)
#
#
# Indices 1 2 3 4 5 6 
#
# 1 0.015659 -0.004446 -0.002092 0.000000 0.000000 0.000000
# 2 -0.004446 0.012449 -0.003082 0.000000 0.000000 0.000000
# 3 -0.002092 -0.003082 0.009354 0.000000 0.000000 0.000000
# 4 0.000000 0.000000 0.000000 0.034489 0.000000 0.000000
# 5 0.000000 0.000000 0.000000 0.000000 0.370413 0.000000
# 6 0.000000 0.000000 0.000000 0.000000 0.000000 0.070829
#
#
# Mechanical properties :
#
#
# Convention : Reuss Voigt Hill
#
# Bulk Modulus (GPa) = 54.88023 57.64538 56.26281
# Shear Modulus (GPa) = 9.28497 22.65483 15.96990
#
# Velocity S-wave (km/s) = 2.16778 3.38614 2.84299
# Velocity P-wave (km/s) = 5.83450 6.66806 6.26516
#
# Compressibility (1/GPa) = 0.01822150
#
# Stress axis : x y z
#
# Youngs Moduli (GPa) = 63.86263 80.33005 106.90994
#
# Poissons Ratio (x) = 0.35715 0.22366
# Poissons Ratio (y) = 0.28394 0.32946
# Poissons Ratio (z) = 0.13360 0.24755
#
# Static dielectric constant tensor:
#      x y z
#    x 3.739210 0.000000 0.000000 
#    y 0.000000 3.729340 0.000000 
#    z 0.000000 0.000000 3.639550 
# 
# 
# High freq. dielectric constant tensor:
#      x y z
#    x 1.752860 0.000000 0.000000 
#    y 0.000000 1.772640 0.000000 
#    z 0.000000 0.000000 1.771610 
# 
# From -- ./inp_files/13218.got.cif
#   From: 2010.03.12/outbox.cif.g09.slc.cpg/sg35_7_cif.got.tgz:13218.got - 2010.04.14 02:02:04.
