data_PCOD8174900
_publ_section_title
;
Structure prediction by ZEFSAII (Michael W. Deem and Ramdas Pophale) SiO2 
 PCOD8174900
Probable space group: C M C 21
;
_chemical_formula_sum "Si O2"
_cell_formula_units_Z 64
_cell_length_a 9.015573
_cell_length_b 32.408124
_cell_length_c 11.001451
_cell_angle_alpha 90.000000
_cell_angle_beta 90.000000
_cell_angle_gamma 90.000000
_cell_volume 3214.379835
_symmetry_space_group_name_H-M "C M C 21"
_symmetry_group_IT_number 36
_symmetry_cell_setting 'orthorhombic'
loop_
_space_group_symop_operation_xyz
x,y,z
-x,-y,1/2+z
x,-y,1/2+z
-x,y,z
1/2+x,1/2+y,z
1/2-x,1/2-y,1/2+z
1/2+x,1/2-y,1/2+z
1/2-x,1/2+y,z
loop_
_atom_site_type_symbol
_atom_site_label
_atom_site_fract_x
_atom_site_fract_y
_atom_site_fract_z
Si Si1 0.831128 0.822237 0.445190
Si Si2 0.671811 0.975709 0.969858
Si Si3 0.828794 0.333590 0.849081
Si Si4 0.671213 0.963708 0.692717
Si Si5 0.330008 0.235488 0.525070
Si Si6 0.667481 0.377766 0.659931
Si Si7 0.674848 0.833318 0.201984
Si Si8 0.825078 0.107264 0.534946
O O1 0.770124 0.782198 0.520099
O O2 0.830892 0.865068 0.518848
O O3 0.712352 0.827631 0.340837
O O4 0.000000 0.813233 0.398859
O O5 0.500000 0.963264 0.984327
O O6 0.703254 0.986418 0.824984
O O7 0.776876 0.939127 0.011072
O O8 0.711009 0.010966 0.069777
O O9 0.805549 0.286643 0.893686
O O10 0.765801 0.340316 0.714956
O O11 0.000000 0.346643 0.859500
O O12 0.730569 0.365372 0.924577
O O13 0.500000 0.950956 0.688695
O O14 0.766522 0.922369 0.685815
O O15 0.500000 0.237804 0.561507
O O16 0.256951 0.205957 0.627561
O O17 0.500000 0.377294 0.711233
O O18 0.500000 0.837807 0.180926
O O19 0.751591 0.875554 0.158195
O O20 0.000000 0.109331 0.548171
#
# Coordination Sequence:
#
# PCOD8174900 Si02
#       8
#     8   8   8   8   8   8   8   8
#     4  10  22  39  56  82 122 159 196 251 309 361
#     4  10  21  39  62  90 119 158 202 255 307 369
#     4  10  19  35  60  85 114 151 198 247 288 351
#     4  10  22  40  63  88 122 160 206 255 310 373
#     4   8  18  36  57  81 113 153 195 246 301 350
#     4  11  23  37  58  87 122 160 198 246 308 365
#     4  10  21  38  59  84 116 156 202 249 295 361
#     4  11  21  36  61  89 116 151 191 241 302 360
#
# _framework density 19.910526999999998
#
# number of rings (size 3 to 8) (size 9 to 14) (size 15 to 20)
#    0.000    2.000    1.250    3.000    1.750    2.500 
#    0.000    4.375    0.000    0.000    0.000    0.000 
#    0.000    0.000    0.000    0.000    0.000    0.000 
#
# Total GULP energy -396476.092503 kJ/mol
# GULP energy per Si atom -12389.877891 kJ/mol
# Density = 1.986521 g / cm^3
# Si number density = 19.910527 Si / 1000 Ang^3
#
#
#
# Elastic Constant Matrix: (Units=GPa)
#
#
# Indices 1 2 3 4 5 6 
#
# 1 91.3703 36.5083 38.3821 0.0000 0.0000 0.0000
# 2 36.5083 80.1253 47.2133 0.0000 0.0000 0.0000
# 3 38.3821 47.2133 113.8446 0.0000 0.0000 0.0000
# 4 0.0000 0.0000 0.0000 27.8756 0.0000 0.0000
# 5 0.0000 0.0000 0.0000 0.0000 29.6828 0.0000
# 6 0.0000 0.0000 0.0000 0.0000 0.0000 20.5991
#
#
#
# Elastic Compliance Matrix: (Units=1/GPa)
#
#
# Indices 1 2 3 4 5 6 
#
# 1 0.014000 -0.004761 -0.002746 0.000000 0.000000 0.000000
# 2 -0.004761 0.018136 -0.005916 0.000000 0.000000 0.000000
# 3 -0.002746 -0.005916 0.012163 0.000000 0.000000 0.000000
# 4 0.000000 0.000000 0.000000 0.035874 0.000000 0.000000
# 5 0.000000 0.000000 0.000000 0.000000 0.033690 0.000000
# 6 0.000000 0.000000 0.000000 0.000000 0.000000 0.048546
#
#
# Mechanical properties :
#
#
# Convention : Reuss Voigt Hill
#
# Bulk Modulus (GPa) = 57.29518 58.83862 58.06690
# Shear Modulus (GPa) = 25.63162 26.51394 26.07278
#
# Velocity S-wave (km/s) = 3.59184 3.65314 3.62262
# Velocity P-wave (km/s) = 6.78532 6.88546 6.83558
#
# Compressibility (1/GPa) = 0.01745347
#
# Stress axis : x y z
#
# Youngs Moduli (GPa) = 71.42743 55.13939 82.21641
#
# Poissons Ratio (x) = 0.26253 0.22573
# Poissons Ratio (y) = 0.34009 0.48639
# Poissons Ratio (z) = 0.19611 0.32621
#
# Static dielectric constant tensor:
#      x y z
#    x 3.519820 0.000000 0.000000 
#    y 0.000000 3.690390 0.000000 
#    z 0.000000 0.000000 3.897770 
# 
# 
# High freq. dielectric constant tensor:
#      x y z
#    x 1.767800 0.000000 0.000000 
#    y 0.000000 1.767520 0.000000 
#    z 0.000000 0.000000 1.779120 
# 
# From -- ./inp_files/7211.got.cif
#   From: 2010.03.12/outbox.cif.g09.slc.cpg/sg36_4_cif.got.tgz:7211.got - 2010.04.14 02:13:53.
