data_PCOD8174207
_publ_section_title
;
Structure prediction by ZEFSAII (Michael W. Deem and Ramdas Pophale) SiO2 
 PCOD8174207
Probable space group: C M C 21
;
_chemical_formula_sum "Si O2"
_cell_formula_units_Z 64
_cell_length_a 8.879952
_cell_length_b 20.262997
_cell_length_c 20.094838
_cell_angle_alpha 90.000000
_cell_angle_beta 90.000000
_cell_angle_gamma 90.000000
_cell_volume 3615.753437
_symmetry_space_group_name_H-M "C M C 21"
_symmetry_group_IT_number 36
_symmetry_cell_setting 'orthorhombic'
loop_
_space_group_symop_operation_xyz
x,y,z
-x,-y,1/2+z
x,-y,1/2+z
-x,y,z
1/2+x,1/2+y,z
1/2-x,1/2-y,1/2+z
1/2+x,1/2-y,1/2+z
1/2-x,1/2+y,z
loop_
_atom_site_type_symbol
_atom_site_label
_atom_site_fract_x
_atom_site_fract_y
_atom_site_fract_z
Si Si1 0.179628 0.583898 0.916030
Si Si2 0.823071 0.301144 0.505443
Si Si3 0.178674 0.474503 0.019916
Si Si4 0.823268 0.581347 0.768166
Si Si5 0.821298 0.522455 0.163072
Si Si6 0.677932 0.169503 0.152837
Si Si7 0.677637 0.659454 0.540066
Si Si8 0.823883 0.700249 0.676765
O O1 0.247867 0.575754 0.841953
O O2 0.000000 0.586441 0.912773
O O3 0.244373 0.652368 0.947422
O O4 0.233588 0.523266 0.961719
O O5 0.763905 0.325717 0.576970
O O6 0.781259 0.224077 0.495534
O O7 0.000000 0.311572 0.505777
O O8 0.240686 0.501054 0.090702
O O9 0.248783 0.403178 0.004262
O O10 0.000000 0.468303 0.020761
O O11 0.752562 0.525233 0.719873
O O12 0.789422 0.654074 0.739954
O O13 0.000000 0.568419 0.772175
O O14 0.774731 0.597664 0.180279
O O15 0.000000 0.516239 0.160176
O O16 0.500000 0.181492 0.158033
O O17 0.761317 0.226913 0.194461
O O18 0.500000 0.650108 0.545681
O O19 0.741538 0.668179 0.613918
O O20 0.000000 0.703262 0.660753
#
# Coordination Sequence:
#
# PCOD8174207 Si02
#       8
#     8   8   8   8   8   8   8   8
#     4   9  16  28  48  72  95 126 166 202 237 286
#     4   8  14  26  44  65  88 119 159 193 226 278
#     4  10  17  29  51  74  97 124 161 205 242 280
#     4   9  17  28  46  72  98 125 163 203 239 283
#     4   9  15  27  47  70  96 126 159 198 237 280
#     4   9  16  28  48  70  93 121 157 198 238 287
#     4  10  19  30  48  72  98 125 159 201 246 292
#     4  10  18  30  48  71  99 124 156 204 245 282
#
# _framework density 17.700320999999999
#
# number of rings (size 3 to 8) (size 9 to 14) (size 15 to 20)
#    0.000    2.750    2.500    1.500    0.000    0.000 
#    0.000    1.875    0.000    1.500    0.000    0.000 
#    0.000    0.000    0.000    0.000    0.000    0.000 
#
# Total GULP energy -396622.506366 kJ/mol
# GULP energy per Si atom -12394.453324 kJ/mol
# Density = 1.766003 g / cm^3
# Si number density = 17.700321 Si / 1000 Ang^3
#
#
#
# Elastic Constant Matrix: (Units=GPa)
#
#
# Indices 1 2 3 4 5 6 
#
# 1 24.7377 30.4884 19.0317 0.0000 0.0000 0.0000
# 2 30.4884 170.9210 81.9179 0.0000 0.0000 0.0000
# 3 19.0317 81.9179 126.7012 0.0000 0.0000 0.0000
# 4 0.0000 0.0000 0.0000 25.4245 0.0000 0.0000
# 5 0.0000 0.0000 0.0000 0.0000 9.8181 0.0000
# 6 0.0000 0.0000 0.0000 0.0000 0.0000 27.8527
#
#
#
# Elastic Compliance Matrix: (Units=1/GPa)
#
#
# Indices 1 2 3 4 5 6 
#
# 1 0.052422 -0.008081 -0.002650 0.000000 0.000000 0.000000
# 2 -0.008081 0.009723 -0.005073 0.000000 0.000000 0.000000
# 3 -0.002650 -0.005073 0.011570 0.000000 0.000000 0.000000
# 4 0.000000 0.000000 0.000000 0.039332 0.000000 0.000000
# 5 0.000000 0.000000 0.000000 0.000000 0.101853 0.000000
# 6 0.000000 0.000000 0.000000 0.000000 0.000000 0.035903
#
#
# Mechanical properties :
#
#
# Convention : Reuss Voigt Hill
#
# Bulk Modulus (GPa) = 23.74776 65.02620 44.38698
# Shear Modulus (GPa) = 16.86642 25.34719 21.10680
#
# Velocity S-wave (km/s) = 3.09024 3.78831 3.45694
# Velocity P-wave (km/s) = 5.11649 7.48011 6.40822
#
# Compressibility (1/GPa) = 0.04210923
#
# Stress axis : x y z
#
# Youngs Moduli (GPa) = 19.07587 102.84525 86.42807
#
# Poissons Ratio (x) = 0.83110 0.22900
# Poissons Ratio (y) = 0.15415 0.43843
# Poissons Ratio (z) = 0.05054 0.52171
#
# Static dielectric constant tensor:
#      x y z
#    x 2.844450 0.000000 0.000000 
#    y 0.000000 3.625560 0.000000 
#    z 0.000000 0.000000 3.334710 
# 
# 
# High freq. dielectric constant tensor:
#      x y z
#    x 1.635330 0.000000 0.000000 
#    y 0.000000 1.704040 0.000000 
#    z 0.000000 0.000000 1.658050 
# 
# From -- ./inp_files/15809.got.cif
#   From: 2010.03.12/outbox.cif.g09.slc.cpg/sg36_8_cif.got.tgz:15809.got - 2010.04.14 02:13:53.
