data_PCOD8174445
_publ_section_title
;
Structure prediction by ZEFSAII (Michael W. Deem and Ramdas Pophale) SiO2 
 PCOD8174445
Probable space group: C M C 21
;
_chemical_formula_sum "Si O2"
_cell_formula_units_Z 44
_cell_length_a 12.434252
_cell_length_b 13.547768
_cell_length_c 11.996675
_cell_angle_alpha 90.000000
_cell_angle_beta 90.000000
_cell_angle_gamma 90.000000
_cell_volume 2020.916219
_symmetry_space_group_name_H-M "C M C 21"
_symmetry_group_IT_number 36
_symmetry_cell_setting 'orthorhombic'
loop_
_space_group_symop_operation_xyz
x,y,z
-x,-y,1/2+z
x,-y,1/2+z
-x,y,z
1/2+x,1/2+y,z
1/2-x,1/2-y,1/2+z
1/2+x,1/2-y,1/2+z
1/2-x,1/2+y,z
loop_
_atom_site_type_symbol
_atom_site_label
_atom_site_fract_x
_atom_site_fract_y
_atom_site_fract_z
Si Si1 0.000000 0.766358 0.245301
Si Si2 0.500000 0.435887 0.104407
Si Si3 0.877564 0.499774 0.539656
Si Si4 0.783869 0.977971 0.225437
Si Si5 0.000000 0.099744 0.949418
Si Si6 0.227192 0.154900 0.939500
Si Si7 0.312943 0.853037 0.852782
O O1 0.000000 0.868434 0.319123
O O2 0.103861 0.700191 0.269036
O O3 0.000000 0.815347 0.119950
O O4 0.393301 0.481642 0.157677
O O5 0.500000 0.480430 0.976514
O O6 0.816687 0.546841 0.644785
O O7 0.820685 0.395562 0.510720
O O8 0.875960 0.574497 0.436123
O O9 0.000000 0.476585 0.573181
O O10 0.771377 0.085842 0.280409
O O11 0.783859 0.894493 0.318551
O O12 0.889901 0.145763 0.000941
O O13 0.252728 0.270872 0.923321
#
# Coordination Sequence:
#
# PCOD8174445 Si02
#       7
#     4   4   8   8   4   8   8
#     4  10  20  42  66  89 131 170 203 253 324 379
#     4  12  20  40  68  95 118 163 216 269 309 363
#     4  11  24  40  63  93 127 167 206 257 317 381
#     4  11  23  38  66  92 125 161 212 260 313 370
#     4  10  18  36  66  90 119 157 211 260 307 360
#     4  10  21  42  63  90 126 167 207 258 314 377
#     4  10  22  42  64  90 125 170 206 252 323 377
#
# _framework density 21.772303999999998
#
# number of rings (size 3 to 8) (size 9 to 14) (size 15 to 20)
#    0.000    1.455    6.364    0.000    1.273    2.182 
#    1.636    0.000    0.000    0.000    0.000    0.000 
#    0.000    0.000    0.000    0.000    0.000    0.000 
#
# Total GULP energy -272585.035303 kJ/mol
# GULP energy per Si atom -12390.228877 kJ/mol
# Density = 2.172275 g / cm^3
# Si number density = 21.772304 Si / 1000 Ang^3
#
#
#
# Elastic Constant Matrix: (Units=GPa)
#
#
# Indices 1 2 3 4 5 6 
#
# 1 161.4704 32.2987 25.9039 0.0000 0.0000 0.0000
# 2 32.2987 101.2834 7.4422 0.0000 0.0000 0.0000
# 3 25.9039 7.4422 39.7658 0.0000 0.0000 0.0000
# 4 0.0000 0.0000 0.0000 35.7735 0.0000 0.0000
# 5 0.0000 0.0000 0.0000 0.0000 17.6594 0.0000
# 6 0.0000 0.0000 0.0000 0.0000 0.0000 28.2219
#
#
#
# Elastic Compliance Matrix: (Units=1/GPa)
#
#
# Indices 1 2 3 4 5 6 
#
# 1 0.007296 -0.002005 -0.004378 0.000000 0.000000 0.000000
# 2 -0.002005 0.010562 -0.000671 0.000000 0.000000 0.000000
# 3 -0.004378 -0.000671 0.028124 0.000000 0.000000 0.000000
# 4 0.000000 0.000000 0.000000 0.027954 0.000000 0.000000
# 5 0.000000 0.000000 0.000000 0.000000 0.056627 0.000000
# 6 0.000000 0.000000 0.000000 0.000000 0.000000 0.035433
#
#
# Mechanical properties :
#
#
# Convention : Reuss Voigt Hill
#
# Bulk Modulus (GPa) = 31.37144 48.20100 39.78622
# Shear Modulus (GPa) = 26.21517 32.12262 29.16890
#
# Velocity S-wave (km/s) = 3.47372 3.84525 3.66420
# Velocity P-wave (km/s) = 5.52532 6.47312 6.01791
#
# Compressibility (1/GPa) = 0.03187613
#
# Stress axis : x y z
#
# Youngs Moduli (GPa) = 137.05259 94.67921 35.55626
#
# Poissons Ratio (x) = 0.18984 0.15566
# Poissons Ratio (y) = 0.27481 0.02384
# Poissons Ratio (z) = 0.59998 0.06348
#
# Static dielectric constant tensor:
#      x y z
#    x 4.079530 0.000000 0.000000 
#    y 0.000000 4.009900 0.000000 
#    z 0.000000 0.000000 3.943050 
# 
# 
# High freq. dielectric constant tensor:
#      x y z
#    x 1.861370 0.000000 0.000000 
#    y 0.000000 1.850690 0.000000 
#    z 0.000000 0.000000 1.836800 
# 
# From -- ./inp_files/11509.got.cif
#   From: 2010.03.12/outbox.cif.g09.slc.cpg/sg36_6_cif.got.tgz:11509.got - 2010.04.14 02:13:53.
