data_PCOD8174528
_publ_section_title
;
Structure prediction by ZEFSAII (Michael W. Deem and Ramdas Pophale) SiO2 
 PCOD8174528
Probable space group: C M C 21
;
_chemical_formula_sum "Si O2"
_cell_formula_units_Z 48
_cell_length_a 18.478397
_cell_length_b 9.139166
_cell_length_c 16.105378
_cell_angle_alpha 90.000000
_cell_angle_beta 90.000000
_cell_angle_gamma 90.000000
_cell_volume 2719.830137
_symmetry_space_group_name_H-M "C M C 21"
_symmetry_group_IT_number 36
_symmetry_cell_setting 'orthorhombic'
loop_
_space_group_symop_operation_xyz
x,y,z
-x,-y,1/2+z
x,-y,1/2+z
-x,y,z
1/2+x,1/2+y,z
1/2-x,1/2-y,1/2+z
1/2+x,1/2-y,1/2+z
1/2-x,1/2+y,z
loop_
_atom_site_type_symbol
_atom_site_label
_atom_site_fract_x
_atom_site_fract_y
_atom_site_fract_z
Si Si1 0.822583 0.241887 0.858580
Si Si2 0.820516 0.204852 0.047856
Si Si3 0.082145 0.914693 0.234427
Si Si4 0.298704 0.055580 0.779502
Si Si5 0.293759 0.408001 0.120294
Si Si6 0.416955 0.751255 0.201313
O O1 0.890437 0.155130 0.820067
O O2 0.748107 0.155243 0.842074
O O3 0.817497 0.403051 0.821327
O O4 0.839381 0.254596 0.955673
O O5 0.744625 0.273890 0.076133
O O6 0.885312 0.255500 0.108006
O O7 0.809232 0.030969 0.051560
O O8 0.130366 0.851245 0.158632
O O9 0.000000 0.867576 0.217927
O O10 0.090878 0.089654 0.239624
O O11 0.253714 0.024683 0.695589
O O12 0.373515 0.138472 0.760341
O O13 0.500000 0.802136 0.197890
#
# Coordination Sequence:
#
# PCOD8174528 Si02
#       6
#     8   8   8   8   8   8
#     4  11  20  31  51  79 104 127 162 210 252 287
#     4  10  19  31  51  76 101 127 160 207 251 290
#     4   9  18  33  52  73  98 130 168 204 242 294
#     4  10  19  33  52  73  99 133 169 201 241 296
#     4   9  17  32  50  70  96 131 168 197 239 295
#     4   9  19  36  54  71  98 136 169 199 243 298
#
# _framework density 17.648161000000002
#
# number of rings (size 3 to 8) (size 9 to 14) (size 15 to 20)
#    0.000    2.333    0.000    6.000    0.000    1.333 
#    0.000    0.000    0.000    1.000    0.000    0.000 
#    0.000    0.000    0.000    0.000    0.000    0.000 
#
# Total GULP energy -297627.720603 kJ/mol
# GULP energy per Si atom -12401.155025 kJ/mol
# Density = 1.760799 g / cm^3
# Si number density = 17.648161 Si / 1000 Ang^3
#
#
#
# Elastic Constant Matrix: (Units=GPa)
#
#
# Indices 1 2 3 4 5 6 
#
# 1 150.1760 49.6109 47.4662 0.0000 0.0000 0.0000
# 2 49.6109 74.3200 50.5555 0.0000 0.0000 0.0000
# 3 47.4662 50.5555 106.5865 0.0000 0.0000 0.0000
# 4 0.0000 0.0000 0.0000 24.2396 0.0000 0.0000
# 5 0.0000 0.0000 0.0000 0.0000 14.1461 0.0000
# 6 0.0000 0.0000 0.0000 0.0000 0.0000 28.1995
#
#
#
# Elastic Compliance Matrix: (Units=1/GPa)
#
#
# Indices 1 2 3 4 5 6 
#
# 1 0.008737 -0.004703 -0.001660 0.000000 0.000000 0.000000
# 2 -0.004703 0.022396 -0.008528 0.000000 0.000000 0.000000
# 3 -0.001660 -0.008528 0.014167 0.000000 0.000000 0.000000
# 4 0.000000 0.000000 0.000000 0.041255 0.000000 0.000000
# 5 0.000000 0.000000 0.000000 0.000000 0.070691 0.000000
# 6 0.000000 0.000000 0.000000 0.000000 0.000000 0.035462
#
#
# Mechanical properties :
#
#
# Convention : Reuss Voigt Hill
#
# Bulk Modulus (GPa) = 64.44722 69.59419 67.02071
# Shear Modulus (GPa) = 21.96231 25.54703 23.75467
#
# Velocity S-wave (km/s) = 3.53151 3.80883 3.67279
# Velocity P-wave (km/s) = 7.29560 7.67221 7.48627
#
# Compressibility (1/GPa) = 0.01551657
#
# Stress axis : x y z
#
# Youngs Moduli (GPa) = 114.45240 44.65063 70.58871
#
# Poissons Ratio (x) = 0.20999 0.11720
# Poissons Ratio (y) = 0.53827 0.60201
# Poissons Ratio (z) = 0.19002 0.38080
#
# Static dielectric constant tensor:
#      x y z
#    x 3.404190 0.000000 0.000000 
#    y 0.000000 3.220670 0.000000 
#    z 0.000000 0.000000 3.178330 
# 
# 
# High freq. dielectric constant tensor:
#      x y z
#    x 1.680250 0.000000 0.000000 
#    y 0.000000 1.683270 0.000000 
#    z 0.000000 0.000000 1.668420 
# 
# From -- ./inp_files/12480.got.cif
#   From: 2010.03.12/outbox.cif.g09.slc.cpg/sg36_7_cif.got.tgz:12480.got - 2010.04.14 02:13:53.
