data_PCOD8174255
_publ_section_title
;
Structure prediction by ZEFSAII (Michael W. Deem and Ramdas Pophale) SiO2 
 PCOD8174255
Probable space group: C M C 21
;
_chemical_formula_sum "Si O2"
_cell_formula_units_Z 64
_cell_length_a 8.441201
_cell_length_b 20.942852
_cell_length_c 18.404209
_cell_angle_alpha 90.000000
_cell_angle_beta 90.000000
_cell_angle_gamma 90.000000
_cell_volume 3253.548027
_symmetry_space_group_name_H-M "C M C 21"
_symmetry_group_IT_number 36
_symmetry_cell_setting 'orthorhombic'
loop_
_space_group_symop_operation_xyz
x,y,z
-x,-y,1/2+z
x,-y,1/2+z
-x,y,z
1/2+x,1/2+y,z
1/2-x,1/2-y,1/2+z
1/2+x,1/2-y,1/2+z
1/2-x,1/2+y,z
loop_
_atom_site_type_symbol
_atom_site_label
_atom_site_fract_x
_atom_site_fract_y
_atom_site_fract_z
Si Si1 0.185153 0.499146 0.958070
Si Si2 0.688884 0.110874 0.562559
Si Si3 0.187302 0.883975 0.540533
Si Si4 0.314594 0.126207 0.726441
Si Si5 0.182667 0.253186 0.050711
Si Si6 0.315376 0.505398 0.801748
Si Si7 0.816457 0.745202 0.206222
Si Si8 0.685520 0.385283 0.709587
O O1 0.282185 0.488626 0.884970
O O2 0.000000 0.489240 0.942876
O O3 0.254319 0.447778 0.015640
O O4 0.213949 0.568802 0.990654
O O5 0.500000 0.110699 0.561962
O O6 0.747706 0.105616 0.645969
O O7 0.753969 0.177930 0.526420
O O8 0.250603 0.812734 0.516949
O O9 0.228189 0.895708 0.625006
O O10 0.000000 0.892349 0.526874
O O11 0.500000 0.139383 0.726592
O O12 0.275835 0.070052 0.782200
O O13 0.226789 0.191567 0.753295
O O14 0.202178 0.249353 0.137045
O O15 0.000000 0.252990 0.031493
O O16 0.500000 0.516535 0.788592
O O17 0.251686 0.447190 0.752507
O O18 0.773890 0.677194 0.243464
O O19 0.000000 0.746342 0.184612
O O20 0.500000 0.375729 0.721763
#
# Coordination Sequence:
#
# PCOD8174255 Si02
#       8
#     8   8   8   8   8   8   8   8
#     4  11  22  35  51  74 106 141 175 214 263 316
#     4   8  16  32  55  79 101 131 171 211 255 310
#     4   9  17  32  55  79 102 132 170 214 265 316
#     4  10  19  35  58  81 107 138 174 219 269 317
#     4   8  15  31  53  76 103 135 172 217 267 310
#     4  11  23  38  54  75 105 141 182 223 264 313
#     4  10  18  29  51  83 112 136 170 216 262 316
#     4   9  19  36  57  79 106 140 176 220 271 316
#
# _framework density 19.670832999999998
#
# number of rings (size 3 to 8) (size 9 to 14) (size 15 to 20)
#    0.000    2.500    0.000    4.500    0.000    3.000 
#    0.000    6.875    0.000    4.500    0.000    0.000 
#    0.000    0.000    0.000    0.000    0.000    0.000 
#
# Total GULP energy -396557.671627 kJ/mol
# GULP energy per Si atom -12392.427238 kJ/mol
# Density = 1.962606 g / cm^3
# Si number density = 19.670833 Si / 1000 Ang^3
#
#
#
# Elastic Constant Matrix: (Units=GPa)
#
#
# Indices 1 2 3 4 5 6 
#
# 1 33.6214 20.5037 12.1451 0.0000 0.0000 0.0000
# 2 20.5037 119.8877 19.7636 0.0000 0.0000 0.0000
# 3 12.1451 19.7636 49.8177 0.0000 0.0000 0.0000
# 4 0.0000 0.0000 0.0000 8.5161 0.0000 0.0000
# 5 0.0000 0.0000 0.0000 0.0000 17.2812 0.0000
# 6 0.0000 0.0000 0.0000 0.0000 0.0000 27.6097
#
#
#
# Elastic Compliance Matrix: (Units=1/GPa)
#
#
# Indices 1 2 3 4 5 6 
#
# 1 0.035131 -0.004918 -0.006614 0.000000 0.000000 0.000000
# 2 -0.004918 0.009613 -0.002615 0.000000 0.000000 0.000000
# 3 -0.006614 -0.002615 0.022723 0.000000 0.000000 0.000000
# 4 0.000000 0.000000 0.000000 0.117425 0.000000 0.000000
# 5 0.000000 0.000000 0.000000 0.000000 0.057866 0.000000
# 6 0.000000 0.000000 0.000000 0.000000 0.000000 0.036219
#
#
# Mechanical properties :
#
#
# Convention : Reuss Voigt Hill
#
# Bulk Modulus (GPa) = 25.52682 34.23907 29.88295
# Shear Modulus (GPa) = 15.60894 20.74236 18.17565
#
# Velocity S-wave (km/s) = 2.81998 3.25079 3.04302
# Velocity P-wave (km/s) = 4.85883 5.61551 5.25082
#
# Compressibility (1/GPa) = 0.03917449
#
# Stress axis : x y z
#
# Youngs Moduli (GPa) = 28.46472 104.02265 44.00859
#
# Poissons Ratio (x) = 0.51159 0.29106
# Poissons Ratio (y) = 0.13999 0.11507
# Poissons Ratio (z) = 0.18825 0.27200
#
# Static dielectric constant tensor:
#      x y z
#    x 3.273260 0.000000 0.000000 
#    y 0.000000 4.252660 0.000000 
#    z 0.000000 0.000000 3.238540 
# 
# 
# High freq. dielectric constant tensor:
#      x y z
#    x 1.748540 0.000000 0.000000 
#    y 0.000000 1.796540 0.000000 
#    z 0.000000 0.000000 1.718390 
# 
# From -- ./inp_files/13933.got.cif
#   From: 2010.03.12/outbox.cif.g09.slc.cpg/sg36_7_cif.got.tgz:13933.got - 2010.04.14 02:13:53.
