data_PCOD8174136
_publ_section_title
;
Structure prediction by ZEFSAII (Michael W. Deem and Ramdas Pophale) SiO2 
 PCOD8174136
Probable space group: C M M 2
;
_chemical_formula_sum "Si O2"
_cell_formula_units_Z 48
_cell_length_a 9.248488
_cell_length_b 18.332692
_cell_length_c 15.453291
_cell_angle_alpha 90.000000
_cell_angle_beta 90.000000
_cell_angle_gamma 90.000000
_cell_volume 2620.100574
_symmetry_space_group_name_H-M "C M M 2"
_symmetry_group_IT_number 35
_symmetry_cell_setting 'orthorhombic'
loop_
_space_group_symop_operation_xyz
x,y,z
-x,-y,z
-x,y,z
x,-y,z
1/2+x,1/2+y,z
1/2-x,1/2-y,z
1/2-x,1/2+y,z
1/2+x,1/2-y,z
loop_
_atom_site_type_symbol
_atom_site_label
_atom_site_fract_x
_atom_site_fract_y
_atom_site_fract_z
Si Si1 0.331868 0.085020 0.041150
Si Si2 0.659951 0.086626 0.846969
Si Si3 0.329402 0.326166 0.184534
Si Si4 0.163156 0.586888 0.521188
Si Si5 0.837655 0.912887 0.685929
Si Si6 0.832735 0.083998 0.354250
O O1 0.500000 0.101444 0.061107
O O2 0.227695 0.130597 0.102014
O O3 0.298646 0.000000 0.054903
O O4 0.292423 0.109771 0.943407
O O5 0.500000 0.117372 0.826474
O O6 0.769783 0.117748 0.775217
O O7 0.654762 0.000000 0.842342
O O8 0.500000 0.314303 0.174557
O O9 0.250000 0.250000 0.191720
O O10 0.289562 0.371330 0.269798
O O11 0.166002 0.500000 0.522894
O O12 0.246527 0.617691 0.604953
O O13 0.240809 0.615235 0.434409
O O14 0.000000 0.616905 0.522715
O O15 0.000000 0.882779 0.678553
O O16 0.836206 0.000000 0.685715
O O17 0.000000 0.093144 0.378706
O O18 0.794469 0.000000 0.335378
#
# Coordination Sequence:
#
# PCOD8174136 Si02
#       6
#     8   8   8   8   8   8
#     4   9  18  33  53  76 102 132 166 206 251 298
#     4   8  14  25  41  63  93 127 160 195 237 284
#     4  11  23  37  53  73  99 131 167 208 253 301
#     4   9  16  25  40  64  93 125 159 195 237 285
#     4   9  15  22  35  59  93 129 160 193 234 279
#     4   9  18  33  51  71  96 126 161 202 247 293
#
# _framework density 18.319906
#
# number of rings (size 3 to 8) (size 9 to 14) (size 15 to 20)
#    0.000    2.833    0.000    3.000    0.000    7.000 
#    0.000    3.333    0.000    0.000    0.000    1.167 
#    0.000    2.667    0.000    0.000    0.000    0.000 
#
# Total GULP energy -297559.212133 kJ/mol
# GULP energy per Si atom -12398.300506 kJ/mol
# Density = 1.827821 g / cm^3
# Si number density = 18.319906 Si / 1000 Ang^3
#
#
#
# Elastic Constant Matrix: (Units=GPa)
#
#
# Indices 1 2 3 4 5 6 
#
# 1 138.3547 38.2364 104.6785 0.0000 0.0000 0.0000
# 2 38.2364 43.1820 43.4653 0.0000 0.0000 0.0000
# 3 104.6785 43.4653 179.3955 0.0000 0.0000 0.0000
# 4 0.0000 0.0000 0.0000 -2.0075 0.0000 0.0000
# 5 0.0000 0.0000 0.0000 0.0000 40.3447 0.0000
# 6 0.0000 0.0000 0.0000 0.0000 0.0000 15.6447
#
#
#
# Elastic Compliance Matrix: (Units=1/GPa)
#
#
# Indices 1 2 3 4 5 6 
#
# 1 0.013851 -0.005461 -0.006759 0.000000 0.000000 0.000000
# 2 -0.005461 0.032780 -0.004756 0.000000 0.000000 0.000000
# 3 -0.006759 -0.004756 0.010670 0.000000 0.000000 0.000000
# 4 0.000000 0.000000 0.000000 -0.498137 0.000000 0.000000
# 5 0.000000 0.000000 0.000000 0.000000 0.024786 0.000000
# 6 0.000000 0.000000 0.000000 0.000000 0.000000 0.063919
#
#
# Mechanical properties :
#
#
# Convention : Reuss Voigt Hill
#
# Bulk Modulus (GPa) = 42.82634 81.52139 62.17387
# Shear Modulus (GPa) = -16.10852 22.43319 3.16233
#
# Velocity S-wave (km/s) = -2.96850 3.50312 1.31526
# Velocity P-wave (km/s) = 3.41736 7.80755 6.02645
#
# Compressibility (1/GPa) = 0.02335012
#
# Stress axis : x y z
#
# Youngs Moduli (GPa) = 72.19788 30.50601 93.71783
#
# Poissons Ratio (x) = 0.16660 0.63342
# Poissons Ratio (y) = 0.39429 0.44568
# Poissons Ratio (z) = 0.48797 0.14507
#
# Static dielectric constant tensor:
#      x y z
#    x 3.523910 0.000000 0.000000 
#    y 0.000000 2.824160 0.000000 
#    z 0.000000 0.000000 3.613240 
# 
# 
# High freq. dielectric constant tensor:
#      x y z
#    x 1.717940 0.000000 0.000000 
#    y 0.000000 1.645610 0.000000 
#    z 0.000000 0.000000 1.728200 
# 
# From -- ./inp_files/15113.got.cif
#   From: 2010.03.12/outbox.cif.g09.slc.cpg/sg35_8_cif.got.tgz:15113.got - 2010.04.14 02:02:04.
