data_PCOD8174669
_publ_section_title
;
Structure prediction by ZEFSAII (Michael W. Deem and Ramdas Pophale) SiO2 
 PCOD8174669
Probable space group: C M C 21
;
_chemical_formula_sum "Si O2"
_cell_formula_units_Z 64
_cell_length_a 8.701364
_cell_length_b 20.800876
_cell_length_c 19.402184
_cell_angle_alpha 90.000000
_cell_angle_beta 90.000000
_cell_angle_gamma 90.000000
_cell_volume 3511.717571
_symmetry_space_group_name_H-M "C M C 21"
_symmetry_group_IT_number 36
_symmetry_cell_setting 'orthorhombic'
loop_
_space_group_symop_operation_xyz
x,y,z
-x,-y,1/2+z
x,-y,1/2+z
-x,y,z
1/2+x,1/2+y,z
1/2-x,1/2-y,1/2+z
1/2+x,1/2-y,1/2+z
1/2-x,1/2+y,z
loop_
_atom_site_type_symbol
_atom_site_label
_atom_site_fract_x
_atom_site_fract_y
_atom_site_fract_z
Si Si1 0.681816 0.761854 0.416470
Si Si2 0.316457 0.566973 0.267994
Si Si3 0.681449 0.742516 0.060005
Si Si4 0.818115 0.190182 0.782261
Si Si5 0.318750 0.616736 0.411055
Si Si6 0.681662 0.188371 0.192158
Si Si7 0.181988 0.881737 0.062030
Si Si8 0.181827 0.935196 0.203458
O O1 0.500000 0.764989 0.421950
O O2 0.753349 0.784860 0.488364
O O3 0.740969 0.808966 0.357131
O O4 0.741369 0.689458 0.400507
O O5 0.500000 0.572982 0.261579
O O6 0.260768 0.572139 0.348133
O O7 0.237334 0.622754 0.225424
O O8 0.252570 0.499950 0.237697
O O9 0.500000 0.744221 0.056653
O O10 0.737237 0.693630 0.118459
O O11 0.743811 0.813134 0.077166
O O12 0.764461 0.252288 0.739515
O O13 0.754841 0.126691 0.744138
O O14 0.000000 0.188483 0.790968
O O15 0.500000 0.617828 0.409456
O O16 0.264323 0.591275 0.486792
O O17 0.500000 0.188093 0.182255
O O18 0.231991 0.930695 0.122779
O O19 0.000000 0.870181 0.063228
O O20 0.000000 0.935985 0.209082
#
# Coordination Sequence:
#
# PCOD8174669 Si02
#       8
#     8   8   8   8   8   8   8   8
#     4  10  19  33  53  79 109 142 177 224 279 329
#     4  10  19  34  53  79 109 144 188 230 270 323
#     4  11  21  33  53  82 109 138 181 232 275 324
#     4  10  19  33  53  79 108 142 182 223 268 321
#     4   8  15  27  49  75 101 131 176 223 264 319
#     4  11  21  35  55  78 110 145 178 223 274 325
#     4   9  16  32  52  75 104 143 183 223 276 327
#     4   9  18  33  54  77 110 147 185 228 272 324
#
# _framework density 18.224699999999999
#
# number of rings (size 3 to 8) (size 9 to 14) (size 15 to 20)
#    0.000    2.250    2.500    2.625    0.000    0.500 
#    0.000    2.500    0.000    4.500    0.000    0.000 
#    0.000    0.000    0.000    0.000    0.000    0.000 
#
# Total GULP energy -396709.921974 kJ/mol
# GULP energy per Si atom -12397.185062 kJ/mol
# Density = 1.818322 g / cm^3
# Si number density = 18.224700 Si / 1000 Ang^3
#
#
#
# Elastic Constant Matrix: (Units=GPa)
#
#
# Indices 1 2 3 4 5 6 
#
# 1 47.4374 18.6877 31.1628 0.0000 0.0000 0.0000
# 2 18.6877 108.0838 74.5721 0.0000 0.0000 0.0000
# 3 31.1628 74.5721 182.1929 0.0000 0.0000 0.0000
# 4 0.0000 0.0000 0.0000 29.0047 0.0000 0.0000
# 5 0.0000 0.0000 0.0000 0.0000 25.8631 0.0000
# 6 0.0000 0.0000 0.0000 0.0000 0.0000 18.8691
#
#
#
# Elastic Compliance Matrix: (Units=1/GPa)
#
#
# Indices 1 2 3 4 5 6 
#
# 1 0.024008 -0.001836 -0.003355 0.000000 0.000000 0.000000
# 2 -0.001836 0.013033 -0.005021 0.000000 0.000000 0.000000
# 3 -0.003355 -0.005021 0.008117 0.000000 0.000000 0.000000
# 4 0.000000 0.000000 0.000000 0.034477 0.000000 0.000000
# 5 0.000000 0.000000 0.000000 0.000000 0.038665 0.000000
# 6 0.000000 0.000000 0.000000 0.000000 0.000000 0.052997
#
#
# Mechanical properties :
#
#
# Convention : Reuss Voigt Hill
#
# Bulk Modulus (GPa) = 40.42801 65.17324 52.80062
# Shear Modulus (GPa) = 25.00425 28.96680 26.98553
#
# Velocity S-wave (km/s) = 3.70807 3.99109 3.85218
# Velocity P-wave (km/s) = 6.36901 7.55493 6.98717
#
# Compressibility (1/GPa) = 0.02473533
#
# Stress axis : x y z
#
# Youngs Moduli (GPa) = 41.65344 76.72536 123.19192
#
# Poissons Ratio (x) = 0.14089 0.41327
# Poissons Ratio (y) = 0.07649 0.61849
# Poissons Ratio (z) = 0.13974 0.38520
#
# Static dielectric constant tensor:
#      x y z
#    x 3.091940 0.000000 0.000000 
#    y 0.000000 3.278540 0.000000 
#    z 0.000000 0.000000 3.952750 
# 
# 
# High freq. dielectric constant tensor:
#      x y z
#    x 1.683250 0.000000 0.000000 
#    y 0.000000 1.674260 0.000000 
#    z 0.000000 0.000000 1.728990 
# 
# From -- ./inp_files/15687.got.cif
#   From: 2010.03.12/outbox.cif.g09.slc.cpg/sg36_8_cif.got.tgz:15687.got - 2010.04.14 02:13:53.
