data_PCOD8174124
_publ_section_title
;
Structure prediction by ZEFSAII (Michael W. Deem and Ramdas Pophale) SiO2 
 PCOD8174124
Probable space group: C M M 2
;
_chemical_formula_sum "Si O2"
_cell_formula_units_Z 40
_cell_length_a 8.766677
_cell_length_b 15.653314
_cell_length_c 14.463783
_cell_angle_alpha 90.000000
_cell_angle_beta 90.000000
_cell_angle_gamma 90.000000
_cell_volume 1984.829473
_symmetry_space_group_name_H-M "C M M 2"
_symmetry_group_IT_number 35
_symmetry_cell_setting 'orthorhombic'
loop_
_space_group_symop_operation_xyz
x,y,z
-x,-y,z
-x,y,z
x,-y,z
1/2+x,1/2+y,z
1/2-x,1/2-y,z
1/2-x,1/2+y,z
1/2+x,1/2-y,z
loop_
_atom_site_type_symbol
_atom_site_label
_atom_site_fract_x
_atom_site_fract_y
_atom_site_fract_z
Si Si1 0.680750 0.000000 0.158070
Si Si2 0.181131 0.500000 0.370009
Si Si3 0.819516 0.905709 0.664156
Si Si4 0.320865 0.162469 0.047299
Si Si5 0.324711 0.601114 0.866986
Si Si6 0.819042 0.838094 0.471719
O O1 0.746958 0.084200 0.107488
O O2 0.500000 0.000000 0.148687
O O3 0.733134 0.000000 0.263697
O O4 0.249838 0.415833 0.415180
O O5 0.000000 0.500000 0.381260
O O6 0.767831 0.869811 0.764393
O O7 0.768341 0.845753 0.579477
O O8 0.000000 0.915139 0.666346
O O9 0.748741 0.000000 0.647406
O O10 0.500000 0.168499 0.058482
O O11 0.250000 0.250000 0.085849
O O12 0.279695 0.150053 0.939926
O O13 0.500000 0.627102 0.884354
O O14 0.303226 0.500000 0.877022
O O15 0.750000 0.750000 0.432816
O O16 0.000000 0.838593 0.459695
#
# Coordination Sequence:
#
# PCOD8174124 Si02
#       6
#     4   4   8   8   8   8
#     4   9  22  43  64  83 114 150 187 243 302 351
#     4  11  23  43  66  89 116 150 195 249 306 359
#     4   8  15  31  56  83 117 157 194 235 284 338
#     4  11  22  39  60  86 118 153 192 238 290 345
#     4   9  17  32  57  87 118 155 195 235 282 338
#     4  11  22  39  62  90 123 159 198 242 293 351
#
# _framework density 20.152864000000001
#
# number of rings (size 3 to 8) (size 9 to 14) (size 15 to 20)
#    0.000    2.200    2.000    2.700    0.000    1.600 
#    0.000   10.000    0.000    0.000    0.000    0.000 
#    0.000    0.000    0.000    0.000    0.000    0.000 
#
# Total GULP energy -247963.309627 kJ/mol
# GULP energy per Si atom -12398.165481 kJ/mol
# Density = 2.010700 g / cm^3
# Si number density = 20.152864 Si / 1000 Ang^3
#
#
#
# Elastic Constant Matrix: (Units=GPa)
#
#
# Indices 1 2 3 4 5 6 
#
# 1 68.8631 46.8472 39.6093 0.0000 0.0000 0.0000
# 2 46.8472 161.2368 77.2697 0.0000 0.0000 0.0000
# 3 39.6093 77.2697 138.6077 0.0000 0.0000 0.0000
# 4 0.0000 0.0000 0.0000 6.2975 0.0000 0.0000
# 5 0.0000 0.0000 0.0000 0.0000 25.9371 0.0000
# 6 0.0000 0.0000 0.0000 0.0000 0.0000 30.2243
#
#
#
# Elastic Compliance Matrix: (Units=1/GPa)
#
#
# Indices 1 2 3 4 5 6 
#
# 1 0.019101 -0.004004 -0.003227 0.000000 0.000000 0.000000
# 2 -0.004004 0.009302 -0.004042 0.000000 0.000000 0.000000
# 3 -0.003227 -0.004042 0.010390 0.000000 0.000000 0.000000
# 4 0.000000 0.000000 0.000000 0.158793 0.000000 0.000000
# 5 0.000000 0.000000 0.000000 0.000000 0.038555 0.000000
# 6 0.000000 0.000000 0.000000 0.000000 0.000000 0.033086
#
#
# Mechanical properties :
#
#
# Convention : Reuss Voigt Hill
#
# Bulk Modulus (GPa) = 61.54032 77.35111 69.44572
# Shear Modulus (GPa) = 16.82446 26.15720 21.49083
#
# Velocity S-wave (km/s) = 2.89250 3.60660 3.26911
# Velocity P-wave (km/s) = 6.46208 7.47054 6.98453
#
# Compressibility (1/GPa) = 0.01624951
#
# Stress axis : x y z
#
# Youngs Moduli (GPa) = 52.35320 107.50225 96.24893
#
# Poissons Ratio (x) = 0.43039 0.31056
# Poissons Ratio (y) = 0.20960 0.38900
# Poissons Ratio (z) = 0.16892 0.43448
#
# Static dielectric constant tensor:
#      x y z
#    x 3.330080 0.000000 0.000000 
#    y 0.000000 3.744900 0.000000 
#    z 0.000000 0.000000 3.903160 
# 
# 
# High freq. dielectric constant tensor:
#      x y z
#    x 1.759690 0.000000 0.000000 
#    y 0.000000 1.790660 0.000000 
#    z 0.000000 0.000000 1.789440 
# 
# From -- ./inp_files/14788.got.cif
#   From: 2010.03.12/outbox.cif.g09.slc.cpg/sg35_8_cif.got.tgz:14788.got - 2010.04.14 02:02:04.
