data_PCOD8174329
_publ_section_title
;
Structure prediction by ZEFSAII (Michael W. Deem and Ramdas Pophale) SiO2 
 PCOD8174329
Probable space group: C M C 21
;
_chemical_formula_sum "Si O2"
_cell_formula_units_Z 64
_cell_length_a 23.780425
_cell_length_b 26.411135
_cell_length_c 5.327698
_cell_angle_alpha 90.000000
_cell_angle_beta 90.000000
_cell_angle_gamma 90.000000
_cell_volume 3346.156708
_symmetry_space_group_name_H-M "C M C 21"
_symmetry_group_IT_number 36
_symmetry_cell_setting 'orthorhombic'
loop_
_space_group_symop_operation_xyz
x,y,z
-x,-y,1/2+z
x,-y,1/2+z
-x,y,z
1/2+x,1/2+y,z
1/2-x,1/2-y,1/2+z
1/2+x,1/2-y,1/2+z
1/2-x,1/2+y,z
loop_
_atom_site_type_symbol
_atom_site_label
_atom_site_fract_x
_atom_site_fract_y
_atom_site_fract_z
Si Si1 0.640428 0.717854 0.783480
Si Si2 0.413502 0.982794 0.279890
Si Si3 0.658398 0.689790 0.284097
Si Si4 0.064901 0.313187 0.721861
Si Si5 0.564534 0.127083 0.724397
Si Si6 0.790380 0.475101 0.793709
Si Si7 0.775076 0.296196 0.289653
Si Si8 0.270194 0.143418 0.289415
O O1 0.620666 0.687015 0.535507
O O2 0.609763 0.770861 0.784515
O O3 0.709130 0.720029 0.787792
O O4 0.620517 0.687650 0.033149
O O5 0.399402 0.923359 0.263846
O O6 0.447485 0.997089 0.534901
O O7 0.356081 0.013713 0.303357
O O8 0.690098 0.744496 0.287634
O O9 0.702381 0.644162 0.285608
O O10 0.080383 0.333584 0.444757
O O11 0.000000 0.294042 0.729407
O O12 0.075353 0.353485 0.942939
O O13 0.500000 0.111063 0.758686
O O14 0.762228 0.500804 0.545756
O O15 0.786487 0.414789 0.787053
O O16 0.792249 0.328030 0.538379
O O17 0.792010 0.329208 0.044439
#
# Coordination Sequence:
#
# PCOD8174329 Si02
#       8
#     8   8   8   8   8   8   8   8
#     4  10  18  32  48  71 101 121 150 197 230 290
#     4  10  21  38  47  67  89 107 160 214 252 305
#     4  10  19  33  46  77 100 118 157 188 238 311
#     4  10  21  37  53  75  98 126 165 199 252 308
#     4  10  21  38  54  68  89 121 163 212 264 304
#     4  10  21  37  45  66  95 123 166 202 235 295
#     4  10  19  33  47  77  98 119 157 187 239 313
#     4  10  18  32  51  61  96 133 144 195 246 268
#
# _framework density 19.126422999999999
#
# number of rings (size 3 to 8) (size 9 to 14) (size 15 to 20)
#    0.000    2.000    0.000    6.000    0.000    0.500 
#   36.000    0.000    0.000    0.000    0.000    0.000 
#    0.000    0.000    0.000    0.000    0.000  200.000 
#
# Total GULP energy -396426.062834 kJ/mol
# GULP energy per Si atom -12388.314464 kJ/mol
# Density = 1.908289 g / cm^3
# Si number density = 19.126423 Si / 1000 Ang^3
#
#
#
# Elastic Constant Matrix: (Units=GPa)
#
#
# Indices 1 2 3 4 5 6 
#
# 1 27.0722 30.5983 5.5262 0.0000 0.0000 0.0000
# 2 30.5983 77.6424 14.9922 0.0000 0.0000 0.0000
# 3 5.5262 14.9922 183.4491 0.0000 0.0000 0.0000
# 4 0.0000 0.0000 0.0000 27.8328 0.0000 0.0000
# 5 0.0000 0.0000 0.0000 0.0000 -9.8408 0.0000
# 6 0.0000 0.0000 0.0000 0.0000 0.0000 -47.0902
#
#
#
# Elastic Compliance Matrix: (Units=1/GPa)
#
#
# Indices 1 2 3 4 5 6 
#
# 1 0.066610 -0.026278 0.000141 0.000000 0.000000 0.000000
# 2 -0.026278 0.023453 -0.001125 0.000000 0.000000 0.000000
# 3 0.000141 -0.001125 0.005539 0.000000 0.000000 0.000000
# 4 0.000000 0.000000 0.000000 0.035929 0.000000 0.000000
# 5 0.000000 0.000000 0.000000 0.000000 -0.101617 0.000000
# 6 0.000000 0.000000 0.000000 0.000000 0.000000 -0.021236
#
#
# Mechanical properties :
#
#
# Convention : Reuss Voigt Hill
#
# Bulk Modulus (GPa) = 24.34414 43.37747 33.86080
# Shear Modulus (GPa) = 65.02606 9.98348 37.50477
#
# Velocity S-wave (km/s) = 5.83711 2.28715 4.43300
# Velocity P-wave (km/s) = 7.62789 5.45008 6.62903
#
# Compressibility (1/GPa) = 0.04107765
#
# Stress axis : x y z
#
# Youngs Moduli (GPa) = 15.01287 42.63925 180.54448
#
# Poissons Ratio (x) = 1.12045 -0.02545
# Poissons Ratio (y) = 0.39450 0.20312
# Poissons Ratio (z) = -0.00212 0.04797
#
# Static dielectric constant tensor:
#      x y z
#    x 3.171270 0.000000 0.000000 
#    y 0.000000 3.210190 0.000000 
#    z 0.000000 0.000000 6.435430 
# 
# 
# High freq. dielectric constant tensor:
#      x y z
#    x 1.685030 0.000000 0.000000 
#    y 0.000000 1.708550 0.000000 
#    z 0.000000 0.000000 1.799080 
# 
# From -- ./inp_files/1664.got.cif
#   From: 2010.03.12/outbox.cif.g09.slc.cpg/sg36_1_cif.got.tgz:1664.got - 2010.04.14 02:13:53.
