data_PCOD8174848
_publ_section_title
;
Structure prediction by ZEFSAII (Michael W. Deem and Ramdas Pophale) SiO2 
 PCOD8174848
Probable space group: C M C 21
;
_chemical_formula_sum "Si O2"
_cell_formula_units_Z 64
_cell_length_a 8.779030
_cell_length_b 27.918940
_cell_length_c 14.172607
_cell_angle_alpha 90.000000
_cell_angle_beta 90.000000
_cell_angle_gamma 90.000000
_cell_volume 3473.723150
_symmetry_space_group_name_H-M "C M C 21"
_symmetry_group_IT_number 36
_symmetry_cell_setting 'orthorhombic'
loop_
_space_group_symop_operation_xyz
x,y,z
-x,-y,1/2+z
x,-y,1/2+z
-x,y,z
1/2+x,1/2+y,z
1/2-x,1/2-y,1/2+z
1/2+x,1/2-y,1/2+z
1/2-x,1/2+y,z
loop_
_atom_site_type_symbol
_atom_site_label
_atom_site_fract_x
_atom_site_fract_y
_atom_site_fract_z
Si Si1 0.821066 0.744007 0.116480
Si Si2 0.819564 0.175443 0.476716
Si Si3 0.178319 0.572931 0.479725
Si Si4 0.822900 0.989556 0.825273
Si Si5 0.319174 0.758147 0.826878
Si Si6 0.177753 0.321550 0.449825
Si Si7 0.673516 0.421806 0.452963
Si Si8 0.176619 0.996684 0.609780
O O1 0.750719 0.739765 0.220717
O O2 0.000000 0.747709 0.127766
O O3 0.762085 0.791869 0.063939
O O4 0.775720 0.697784 0.053638
O O5 0.764102 0.122333 0.495589
O O6 0.749954 0.196345 0.380571
O O7 0.000000 0.176717 0.466971
O O8 0.226197 0.550178 0.379925
O O9 0.222415 0.538738 0.566287
O O10 0.000000 0.582253 0.479676
O O11 0.000000 0.976482 0.837937
O O12 0.771596 0.988481 0.716884
O O13 0.790033 0.041976 0.867596
O O14 0.500000 0.762111 0.829179
O O15 0.269616 0.707601 0.871118
O O16 0.214512 0.377354 0.442780
O O17 0.000000 0.312986 0.431259
O O18 0.500000 0.403612 0.447281
O O19 0.704539 0.447723 0.552683
O O20 0.000000 0.012123 0.602958
#
# Coordination Sequence:
#
# PCOD8174848 Si02
#       8
#     8   8   8   8   8   8   8   8
#     4   8  18  35  54  74 100 135 171 209 256 308
#     4  10  20  37  56  76 105 141 177 212 258 315
#     4  11  22  35  53  80 111 141 175 218 267 315
#     4   9  19  37  58  78 104 140 180 221 265 314
#     4  10  19  35  56  78 102 130 171 220 264 305
#     4  10  20  35  52  74 105 139 170 203 253 313
#     4   9  18  33  53  78 104 132 170 214 259 305
#     4   9  19  37  58  78 103 138 180 223 266 313
#
# _framework density 18.424036000000001
#
# number of rings (size 3 to 8) (size 9 to 14) (size 15 to 20)
#    0.000    2.500    0.000    3.750    0.000    4.500 
#    0.000   15.000    0.000    0.000    0.000    0.000 
#    0.000    0.000    0.000    0.000    0.000    0.000 
#
# Total GULP energy -396835.108016 kJ/mol
# GULP energy per Si atom -12401.097125 kJ/mol
# Density = 1.838210 g / cm^3
# Si number density = 18.424036 Si / 1000 Ang^3
#
#
#
# Elastic Constant Matrix: (Units=GPa)
#
#
# Indices 1 2 3 4 5 6 
#
# 1 63.1595 14.3187 12.4250 0.0000 0.0000 0.0000
# 2 14.3187 56.2083 -18.7546 0.0000 0.0000 0.0000
# 3 12.4250 -18.7546 75.5095 0.0000 0.0000 0.0000
# 4 0.0000 0.0000 0.0000 11.6889 0.0000 0.0000
# 5 0.0000 0.0000 0.0000 0.0000 23.5459 0.0000
# 6 0.0000 0.0000 0.0000 0.0000 0.0000 33.8199
#
#
#
# Elastic Compliance Matrix: (Units=1/GPa)
#
#
# Indices 1 2 3 4 5 6 
#
# 1 0.018103 -0.006112 -0.004497 0.000000 0.000000 0.000000
# 2 -0.006112 0.021462 0.006336 0.000000 0.000000 0.000000
# 3 -0.004497 0.006336 0.015557 0.000000 0.000000 0.000000
# 4 0.000000 0.000000 0.000000 0.085551 0.000000 0.000000
# 5 0.000000 0.000000 0.000000 0.000000 0.042470 0.000000
# 6 0.000000 0.000000 0.000000 0.000000 0.000000 0.029568
#
#
# Mechanical properties :
#
#
# Convention : Reuss Voigt Hill
#
# Bulk Modulus (GPa) = 21.46972 23.42837 22.44904
# Shear Modulus (GPa) = 21.11633 26.27016 23.69324
#
# Velocity S-wave (km/s) = 3.38913 3.78016 3.58997
# Velocity P-wave (km/s) = 5.19551 5.63885 5.42171
#
# Compressibility (1/GPa) = 0.04657723
#
# Stress axis : x y z
#
# Youngs Moduli (GPa) = 55.23875 46.59350 64.27916
#
# Poissons Ratio (x) = 0.28479 0.28906
# Poissons Ratio (y) = 0.33763 -0.40730
# Poissons Ratio (z) = 0.24841 -0.29524
#
# Static dielectric constant tensor:
#      x y z
#    x 3.248810 0.000000 0.000000 
#    y 0.000000 3.292990 0.000000 
#    z 0.000000 0.000000 3.666160 
# 
# 
# High freq. dielectric constant tensor:
#      x y z
#    x 1.706200 0.000000 0.000000 
#    y 0.000000 1.713900 0.000000 
#    z 0.000000 0.000000 1.719610 
# 
# From -- ./inp_files/11187.got.cif
#   From: 2010.03.12/outbox.cif.g09.slc.cpg/sg36_6_cif.got.tgz:11187.got - 2010.04.14 02:13:53.
