data_PCOD8175400
_publ_section_title
;
Structure prediction by ZEFSAII (Michael W. Deem and Ramdas Pophale) SiO2 
 PCOD8175400
Probable space group: C M C 21
;
_chemical_formula_sum "Si O2"
_cell_formula_units_Z 64
_cell_length_a 8.577759
_cell_length_b 15.277972
_cell_length_c 23.783131
_cell_angle_alpha 90.000000
_cell_angle_beta 90.000000
_cell_angle_gamma 90.000000
_cell_volume 3116.797436
_symmetry_space_group_name_H-M "C M C 21"
_symmetry_group_IT_number 36
_symmetry_cell_setting 'orthorhombic'
loop_
_space_group_symop_operation_xyz
x,y,z
-x,-y,1/2+z
x,-y,1/2+z
-x,y,z
1/2+x,1/2+y,z
1/2-x,1/2-y,1/2+z
1/2+x,1/2-y,1/2+z
1/2-x,1/2+y,z
loop_
_atom_site_type_symbol
_atom_site_label
_atom_site_fract_x
_atom_site_fract_y
_atom_site_fract_z
Si Si1 0.179758 0.644825 0.205030
Si Si2 0.819661 0.400493 0.314716
Si Si3 0.682832 0.249297 0.508653
Si Si4 0.180842 0.081324 0.317371
Si Si5 0.179198 0.902256 0.077912
Si Si6 0.818768 0.150607 0.701076
Si Si7 0.681033 0.599109 0.089091
Si Si8 0.183190 0.743198 0.382331
O O1 0.285998 0.601851 0.252426
O O2 0.216665 0.747036 0.202525
O O3 0.220560 0.601406 0.145906
O O4 0.000000 0.627171 0.219940
O O5 0.777052 0.496513 0.337588
O O6 0.782114 0.397469 0.248418
O O7 0.715643 0.329840 0.346856
O O8 0.000000 0.380233 0.325563
O O9 0.500000 0.260858 0.506347
O O10 0.723549 0.155388 0.534489
O O11 0.751044 0.328696 0.546282
O O12 0.748320 0.256103 0.445462
O O13 0.227087 0.161926 0.356145
O O14 0.000000 0.060670 0.324799
O O15 0.238436 0.886497 0.141339
O O16 0.000000 0.872854 0.073438
O O17 0.202238 0.003607 0.061311
O O18 0.000000 0.129562 0.711557
O O19 0.500000 0.617214 0.103255
O O20 0.000000 0.723265 0.380631
#
# Coordination Sequence:
#
# PCOD8175400 Si02
#       8
#     8   8   8   8   8   8   8   8
#     4  11  21  36  62  94 127 161 201 252 308 366
#     4  12  25  41  65  96 126 163 205 251 313 376
#     4  10  23  41  62  88 120 159 204 256 306 357
#     4  12  25  42  65  92 123 163 208 258 314 369
#     4  10  21  38  61  89 122 161 203 247 299 363
#     4  10  20  36  60  91 129 166 200 249 306 361
#     4  10  21  38  61  90 124 162 204 247 302 369
#     4  11  24  44  64  88 125 165 211 262 308 363
#
# _framework density 20.533899999999999
#
# number of rings (size 3 to 8) (size 9 to 14) (size 15 to 20)
#    0.000    1.250    2.500    3.750    0.000    4.500 
#    0.000    1.250    0.000    0.000    0.000    0.000 
#    0.000    0.000    0.000    0.000    0.000    0.000 
#
# Total GULP energy -397003.617140 kJ/mol
# GULP energy per Si atom -12406.363036 kJ/mol
# Density = 2.048716 g / cm^3
# Si number density = 20.533900 Si / 1000 Ang^3
#
#
#
# Elastic Constant Matrix: (Units=GPa)
#
#
# Indices 1 2 3 4 5 6 
#
# 1 47.4858 13.6922 16.5362 0.0000 0.0000 0.0000
# 2 13.6922 106.5242 28.8599 0.0000 0.0000 0.0000
# 3 16.5362 28.8599 115.0067 0.0000 0.0000 0.0000
# 4 0.0000 0.0000 0.0000 3.5512 0.0000 0.0000
# 5 0.0000 0.0000 0.0000 0.0000 28.1434 0.0000
# 6 0.0000 0.0000 0.0000 0.0000 0.0000 14.9236
#
#
#
# Elastic Compliance Matrix: (Units=1/GPa)
#
#
# Indices 1 2 3 4 5 6 
#
# 1 0.022629 -0.002175 -0.002708 0.000000 0.000000 0.000000
# 2 -0.002175 0.010281 -0.002267 0.000000 0.000000 0.000000
# 3 -0.002708 -0.002267 0.009653 0.000000 0.000000 0.000000
# 4 0.000000 0.000000 0.000000 0.281591 0.000000 0.000000
# 5 0.000000 0.000000 0.000000 0.000000 0.035532 0.000000
# 6 0.000000 0.000000 0.000000 0.000000 0.000000 0.067008
#
#
# Mechanical properties :
#
#
# Convention : Reuss Voigt Hill
#
# Bulk Modulus (GPa) = 35.38137 43.02149 39.20143
# Shear Modulus (GPa) = 11.10083 23.31889 17.20986
#
# Velocity S-wave (km/s) = 2.32762 3.37357 2.89817
# Velocity P-wave (km/s) = 4.94893 6.01428 5.50742
#
# Compressibility (1/GPa) = 0.02826346
#
# Stress axis : x y z
#
# Youngs Moduli (GPa) = 44.19096 97.26338 103.58984
#
# Poissons Ratio (x) = 0.21155 0.28051
# Poissons Ratio (y) = 0.09612 0.23487
# Poissons Ratio (z) = 0.11967 0.22052
#
# Static dielectric constant tensor:
#      x y z
#    x 3.600610 0.000000 0.000000 
#    y 0.000000 3.846490 0.000000 
#    z 0.000000 0.000000 3.833660 
# 
# 
# High freq. dielectric constant tensor:
#      x y z
#    x 1.795000 0.000000 0.000000 
#    y 0.000000 1.818180 0.000000 
#    z 0.000000 0.000000 1.798380 
# 
# From -- ./inp_files/16600.got.cif
#   From: 2010.03.12/outbox.cif.g09.slc.cpg/sg36_9_cif.got.tgz:16600.got - 2010.04.14 02:13:53.
