data_PCOD8175497
_publ_section_title
;
Structure prediction by ZEFSAII (Michael W. Deem and Ramdas Pophale) SiO2 
 PCOD8175497
Probable space group: C M C 21
;
_chemical_formula_sum "Si O2"
_cell_formula_units_Z 48
_cell_length_a 9.977978
_cell_length_b 27.261646
_cell_length_c 9.057040
_cell_angle_alpha 90.000000
_cell_angle_beta 90.000000
_cell_angle_gamma 90.000000
_cell_volume 2463.660735
_symmetry_space_group_name_H-M "C M C 21"
_symmetry_group_IT_number 36
_symmetry_cell_setting 'orthorhombic'
loop_
_space_group_symop_operation_xyz
x,y,z
-x,-y,1/2+z
x,-y,1/2+z
-x,y,z
1/2+x,1/2+y,z
1/2-x,1/2-y,1/2+z
1/2+x,1/2-y,1/2+z
1/2-x,1/2+y,z
loop_
_atom_site_type_symbol
_atom_site_label
_atom_site_fract_x
_atom_site_fract_y
_atom_site_fract_z
Si Si1 0.152473 0.216283 0.708790
Si Si2 0.152268 0.702205 0.446866
Si Si3 0.251816 0.094622 0.448071
Si Si4 0.000000 0.434387 0.321955
Si Si5 0.500000 0.029455 0.496524
Si Si6 0.500000 0.550998 0.944073
Si Si7 0.778416 0.888991 0.284286
Si Si8 0.500000 0.553610 0.292601
O O1 0.171549 0.264778 0.803920
O O2 0.249884 0.222449 0.571314
O O3 0.190043 0.168399 0.805204
O O4 0.000000 0.211215 0.651955
O O5 0.186426 0.646727 0.403545
O O6 0.000000 0.704729 0.506427
O O7 0.366863 0.053936 0.428979
O O8 0.194834 0.095388 0.614909
O O9 0.131777 0.083720 0.336597
O O10 0.125581 0.398163 0.329205
O O11 0.000000 0.471977 0.458179
O O12 0.000000 0.466288 0.172836
O O13 0.631316 0.579573 0.893315
O O14 0.500000 0.497573 0.875638
O O15 0.500000 0.545171 0.118835
#
# Coordination Sequence:
#
# PCOD8175497 Si02
#       8
#     8   8   8   4   4   4   8   4
#     4  10  22  40  64  92 123 162 202 252 302 363
#     4  10  22  41  64  92 125 160 203 251 303 364
#     4  10  21  40  62  89 118 165 199 249 303 361
#     4  10  22  36  61  88 115 157 198 243 299 358
#     4  10  20  38  59  86 119 153 198 243 297 354
#     4  12  24  42  59  90 123 161 204 259 299 362
#     4  10  21  40  63  87 122 159 202 247 307 358
#     4  12  26  38  63  88 123 161 208 249 307 362
#
# _framework density 19.483201999999999
#
# number of rings (size 3 to 8) (size 9 to 14) (size 15 to 20)
#    0.000    1.667    1.667    2.500    7.000    6.000 
#    0.000    0.000    0.000    0.000    0.000    0.000 
#    0.000    0.000    0.000    0.000    0.000    0.000 
#
# Total GULP energy -297716.021055 kJ/mol
# GULP energy per Si atom -12404.834211 kJ/mol
# Density = 1.943886 g / cm^3
# Si number density = 19.483202 Si / 1000 Ang^3
#
#
#
# Elastic Constant Matrix: (Units=GPa)
#
#
# Indices 1 2 3 4 5 6 
#
# 1 137.0168 19.8099 43.4257 0.0000 0.0000 0.0000
# 2 19.8099 44.4935 18.4229 0.0000 0.0000 0.0000
# 3 43.4257 18.4229 74.3434 0.0000 0.0000 0.0000
# 4 0.0000 0.0000 0.0000 26.2999 0.0000 0.0000
# 5 0.0000 0.0000 0.0000 0.0000 -18.3142 0.0000
# 6 0.0000 0.0000 0.0000 0.0000 0.0000 31.6251
#
#
#
# Elastic Compliance Matrix: (Units=1/GPa)
#
#
# Indices 1 2 3 4 5 6 
#
# 1 0.009124 -0.002068 -0.004817 0.000000 0.000000 0.000000
# 2 -0.002068 0.025514 -0.005115 0.000000 0.000000 0.000000
# 3 -0.004817 -0.005115 0.017532 0.000000 0.000000 0.000000
# 4 0.000000 0.000000 0.000000 0.038023 0.000000 0.000000
# 5 0.000000 0.000000 0.000000 0.000000 -0.054602 0.000000
# 6 0.000000 0.000000 0.000000 0.000000 0.000000 0.031620
#
#
# Mechanical properties :
#
#
# Convention : Reuss Voigt Hill
#
# Bulk Modulus (GPa) = 35.49765 46.57453 41.03609
# Shear Modulus (GPa) = 49.70148 19.53515 34.61832
#
# Velocity S-wave (km/s) = 5.05621 3.16993 4.21982
# Velocity P-wave (km/s) = 7.23507 6.11185 6.69705
#
# Compressibility (1/GPa) = 0.02817088
#
# Stress axis : x y z
#
# Youngs Moduli (GPa) = 109.60014 39.19475 57.03726
#
# Poissons Ratio (x) = 0.08104 0.27476
# Poissons Ratio (y) = 0.22662 0.29173
# Poissons Ratio (z) = 0.52796 0.20047
#
# Static dielectric constant tensor:
#      x y z
#    x 3.929300 0.000000 0.000000 
#    y 0.000000 3.624210 0.000000 
#    z 0.000000 0.000000 3.346840 
# 
# 
# High freq. dielectric constant tensor:
#      x y z
#    x 1.780570 0.000000 0.000000 
#    y 0.000000 1.767890 0.000000 
#    z 0.000000 0.000000 1.740100 
# 
# From -- ./inp_files/2766.got.cif
#   From: 2010.03.12/outbox.cif.g09.slc.cpg/sg36_2_cif.got.tgz:2766.got - 2010.04.14 02:13:53.
