data_PCOD8175523
_publ_section_title
;
Structure prediction by ZEFSAII (Michael W. Deem and Ramdas Pophale) SiO2 
 PCOD8175523
Probable space group: C M C 21
;
_chemical_formula_sum "Si O2"
_cell_formula_units_Z 48
_cell_length_a 8.581636
_cell_length_b 27.694190
_cell_length_c 9.951202
_cell_angle_alpha 90.000000
_cell_angle_beta 90.000000
_cell_angle_gamma 90.000000
_cell_volume 2365.017175
_symmetry_space_group_name_H-M "C M C 21"
_symmetry_group_IT_number 36
_symmetry_cell_setting 'orthorhombic'
loop_
_space_group_symop_operation_xyz
x,y,z
-x,-y,1/2+z
x,-y,1/2+z
-x,y,z
1/2+x,1/2+y,z
1/2-x,1/2-y,1/2+z
1/2+x,1/2-y,1/2+z
1/2-x,1/2+y,z
loop_
_atom_site_type_symbol
_atom_site_label
_atom_site_fract_x
_atom_site_fract_y
_atom_site_fract_z
Si Si1 0.814402 0.956693 0.474570
Si Si2 0.181686 0.638933 0.339966
Si Si3 0.316300 0.461856 0.775865
Si Si4 0.317471 0.647863 0.879658
Si Si5 0.682094 0.789881 0.603792
Si Si6 0.181232 0.686112 0.619784
O O1 0.748395 0.966918 0.624484
O O2 0.756165 0.904273 0.427168
O O3 0.000000 0.958520 0.474617
O O4 0.745477 0.996370 0.371442
O O5 0.275772 0.589414 0.339759
O O6 0.233504 0.670671 0.213116
O O7 0.227753 0.668432 0.472133
O O8 0.000000 0.626724 0.334471
O O9 0.500000 0.467398 0.770104
O O10 0.500000 0.653915 0.907369
O O11 0.280775 0.654017 0.722900
O O12 0.225102 0.689650 0.957928
O O13 0.500000 0.777678 0.612605
O O14 0.778393 0.742071 0.634227
O O15 0.000000 0.678378 0.649637
#
# Coordination Sequence:
#
# PCOD8175523 Si02
#       6
#     8   8   8   8   8   8
#     4   9  20  36  60  90 118 150 196 248 296 351
#     4  10  23  41  59  86 123 157 196 249 301 356
#     4  10  20  38  62  88 117 154 198 246 296 354
#     4  11  22  39  61  90 124 160 201 248 300 359
#     4  11  22  40  64  89 119 159 203 251 306 361
#     4  11  24  40  60  89 123 160 204 252 299 357
#
# _framework density 20.295835
#
# number of rings (size 3 to 8) (size 9 to 14) (size 15 to 20)
#    0.000    1.667    1.667    2.500    2.333    3.333 
#    0.000    2.500    0.000    0.000    0.000    0.000 
#    0.000    0.000    0.000    0.000    0.000    0.000 
#
# Total GULP energy -297729.256216 kJ/mol
# GULP energy per Si atom -12405.385676 kJ/mol
# Density = 2.024964 g / cm^3
# Si number density = 20.295835 Si / 1000 Ang^3
#
#
#
# Elastic Constant Matrix: (Units=GPa)
#
#
# Indices 1 2 3 4 5 6 
#
# 1 21.5298 21.8108 25.1814 0.0000 0.0000 0.0000
# 2 21.8108 121.7389 45.3441 0.0000 0.0000 0.0000
# 3 25.1814 45.3441 105.2451 0.0000 0.0000 0.0000
# 4 0.0000 0.0000 0.0000 44.8610 0.0000 0.0000
# 5 0.0000 0.0000 0.0000 0.0000 25.2076 0.0000
# 6 0.0000 0.0000 0.0000 0.0000 0.0000 26.4574
#
#
#
# Elastic Compliance Matrix: (Units=1/GPa)
#
#
# Indices 1 2 3 4 5 6 
#
# 1 0.069788 -0.007485 -0.013473 0.000000 0.000000 0.000000
# 2 -0.007485 0.010587 -0.002771 0.000000 0.000000 0.000000
# 3 -0.013473 -0.002771 0.013919 0.000000 0.000000 0.000000
# 4 0.000000 0.000000 0.000000 0.022291 0.000000 0.000000
# 5 0.000000 0.000000 0.000000 0.000000 0.039671 0.000000
# 6 0.000000 0.000000 0.000000 0.000000 0.000000 0.037797
#
#
# Mechanical properties :
#
#
# Convention : Reuss Voigt Hill
#
# Bulk Modulus (GPa) = 21.35051 48.13182 34.74117
# Shear Modulus (GPa) = 19.44601 29.71703 24.58152
#
# Velocity S-wave (km/s) = 3.09872 3.83063 3.48395
# Velocity P-wave (km/s) = 4.83169 6.58267 5.77394
#
# Compressibility (1/GPa) = 0.04683728
#
# Stress axis : x y z
#
# Youngs Moduli (GPa) = 14.32907 94.45311 71.84470
#
# Poissons Ratio (x) = 0.70698 0.96796
# Poissons Ratio (y) = 0.10725 0.19905
# Poissons Ratio (z) = 0.19306 0.26169
#
# Static dielectric constant tensor:
#      x y z
#    x 3.381640 0.000000 0.000000 
#    y 0.000000 3.698640 0.000000 
#    z 0.000000 0.000000 3.966670 
# 
# 
# High freq. dielectric constant tensor:
#      x y z
#    x 1.771030 0.000000 0.000000 
#    y 0.000000 1.800510 0.000000 
#    z 0.000000 0.000000 1.809450 
# 
# From -- ./inp_files/2719.got.cif
#   From: 2010.03.12/outbox.cif.g09.slc.cpg/sg36_2_cif.got.tgz:2719.got - 2010.04.14 02:13:53.
