data_PCOD8175790
_publ_section_title
;
Structure prediction by ZEFSAII (Michael W. Deem and Ramdas Pophale) SiO2 
 PCOD8175790
Probable space group: C M C 21
;
_chemical_formula_sum "Si O2"
_cell_formula_units_Z 40
_cell_length_a 9.941924
_cell_length_b 23.119728
_cell_length_c 7.486470
_cell_angle_alpha 90.000000
_cell_angle_beta 90.000000
_cell_angle_gamma 90.000000
_cell_volume 1720.799408
_symmetry_space_group_name_H-M "C M C 21"
_symmetry_group_IT_number 36
_symmetry_cell_setting 'orthorhombic'
loop_
_space_group_symop_operation_xyz
x,y,z
-x,-y,1/2+z
x,-y,1/2+z
-x,y,z
1/2+x,1/2+y,z
1/2-x,1/2-y,1/2+z
1/2+x,1/2-y,1/2+z
1/2-x,1/2+y,z
loop_
_atom_site_type_symbol
_atom_site_label
_atom_site_fract_x
_atom_site_fract_y
_atom_site_fract_z
Si Si1 0.848497 0.238878 0.498230
Si Si2 0.215845 0.574344 0.739083
Si Si3 0.649680 0.044322 0.126103
Si Si4 0.849380 0.358782 0.897129
Si Si5 0.855557 0.821341 0.367369
O O1 0.759057 0.192265 0.391616
O O2 0.857126 0.222587 0.702859
O O3 0.771404 0.301177 0.488048
O O4 0.000000 0.243661 0.416081
O O5 0.247644 0.511591 0.650905
O O6 0.136513 0.612349 0.593211
O O7 0.345274 0.612326 0.797721
O O8 0.135355 0.563846 0.921887
O O9 0.500000 0.026424 0.192355
O O10 0.704739 0.095487 0.251332
O O11 0.000000 0.336281 0.846359
O O12 0.000000 0.816153 0.467953
#
# Coordination Sequence:
#
# PCOD8175790 Si02
#       5
#     8   8   8   8   8
#     4  10  23  42  65  92 124 164 210 263 322 386
#     4  11  22  38  61  93 126 168 211 266 311 375
#     4  11  21  35  60  92 125 165 214 259 312 375
#     4  10  21  38  61  90 126 166 208 265 319 371
#     4  10  24  45  65  93 129 165 211 265 322 387
#
# _framework density 23.245009
#
# number of rings (size 3 to 8) (size 9 to 14) (size 15 to 20)
#    0.000    1.600    2.000    2.400    2.800    5.600 
#    0.000    2.000    0.000    0.000    0.000    0.000 
#    0.000    0.000    0.000    0.000    0.000    0.000 
#
# Total GULP energy -247786.304961 kJ/mol
# GULP energy per Si atom -12389.315248 kJ/mol
# Density = 2.319210 g / cm^3
# Si number density = 23.245009 Si / 1000 Ang^3
#
#
#
# Elastic Constant Matrix: (Units=GPa)
#
#
# Indices 1 2 3 4 5 6 
#
# 1 143.9128 52.2105 3.6490 0.0000 0.0000 0.0000
# 2 52.2105 114.8844 25.1989 0.0000 0.0000 0.0000
# 3 3.6490 25.1989 71.2028 0.0000 0.0000 0.0000
# 4 0.0000 0.0000 0.0000 39.5836 0.0000 0.0000
# 5 0.0000 0.0000 0.0000 0.0000 17.7430 0.0000
# 6 0.0000 0.0000 0.0000 0.0000 0.0000 19.0316
#
#
#
# Elastic Compliance Matrix: (Units=1/GPa)
#
#
# Indices 1 2 3 4 5 6 
#
# 1 0.008385 -0.004029 0.000996 0.000000 0.000000 0.000000
# 2 -0.004029 0.011373 -0.003818 0.000000 0.000000 0.000000
# 3 0.000996 -0.003818 0.015345 0.000000 0.000000 0.000000
# 4 0.000000 0.000000 0.000000 0.025263 0.000000 0.000000
# 5 0.000000 0.000000 0.000000 0.000000 0.056360 0.000000
# 6 0.000000 0.000000 0.000000 0.000000 0.000000 0.052544
#
#
# Mechanical properties :
#
#
# Convention : Reuss Voigt Hill
#
# Bulk Modulus (GPa) = 46.72901 54.67964 50.70432
# Shear Modulus (GPa) = 26.30102 31.86775 29.08438
#
# Velocity S-wave (km/s) = 3.36738 3.70665 3.54108
# Velocity P-wave (km/s) = 5.93847 6.47250 6.21123
#
# Compressibility (1/GPa) = 0.02139998
#
# Stress axis : x y z
#
# Youngs Moduli (GPa) = 119.25817 87.92686 65.16909
#
# Poissons Ratio (x) = 0.35428 -0.06492
# Poissons Ratio (y) = 0.48052 0.24885
# Poissons Ratio (z) = -0.11881 0.33575
#
# Static dielectric constant tensor:
#      x y z
#    x 4.114970 0.000000 0.000000 
#    y 0.000000 4.406230 0.000000 
#    z 0.000000 0.000000 4.122200 
# 
# 
# High freq. dielectric constant tensor:
#      x y z
#    x 1.881520 0.000000 0.000000 
#    y 0.000000 1.930970 0.000000 
#    z 0.000000 0.000000 1.923560 
# 
# From -- ./inp_files/2420.got.cif
#   From: 2010.03.12/outbox.cif.g09.slc.cpg/sg36_2_cif.got.tgz:2420.got - 2010.04.14 02:13:53.
