data_PCOD8175024
_publ_section_title
;
Structure prediction by ZEFSAII (Michael W. Deem and Ramdas Pophale) SiO2 
 PCOD8175024
Probable space group: C M C 21
;
_chemical_formula_sum "Si O2"
_cell_formula_units_Z 56
_cell_length_a 14.225234
_cell_length_b 26.528138
_cell_length_c 9.488427
_cell_angle_alpha 90.000000
_cell_angle_beta 90.000000
_cell_angle_gamma 90.000000
_cell_volume 3580.637930
_symmetry_space_group_name_H-M "C M C 21"
_symmetry_group_IT_number 36
_symmetry_cell_setting 'orthorhombic'
loop_
_space_group_symop_operation_xyz
x,y,z
-x,-y,1/2+z
x,-y,1/2+z
-x,y,z
1/2+x,1/2+y,z
1/2-x,1/2-y,1/2+z
1/2+x,1/2-y,1/2+z
1/2-x,1/2+y,z
loop_
_atom_site_type_symbol
_atom_site_label
_atom_site_fract_x
_atom_site_fract_y
_atom_site_fract_z
Si Si1 0.608234 0.807291 0.480350
Si Si2 0.111859 0.375580 0.235814
Si Si3 0.611058 0.024452 0.600939
Si Si4 0.395256 0.715972 0.266762
Si Si5 0.392625 0.207358 0.524959
Si Si6 0.888314 0.436870 0.798120
Si Si7 0.295907 0.171462 0.264630
O O1 0.500000 0.814463 0.526654
O O2 0.643345 0.855710 0.389167
O O3 0.620237 0.756851 0.389498
O O4 0.673174 0.805041 0.616486
O O5 0.150502 0.431487 0.203840
O O6 0.150666 0.338998 0.114004
O O7 0.000000 0.372043 0.230625
O O8 0.500000 0.026803 0.608918
O O9 0.642980 0.033283 0.439898
O O10 0.643567 0.970693 0.663909
O O11 0.500000 0.692448 0.280775
O O12 0.384005 0.741603 0.113879
O O13 0.317713 0.671862 0.276347
O O14 0.500000 0.196274 0.484414
O O15 0.334578 0.210508 0.380853
O O16 0.833724 0.384623 0.788211
O O17 0.000000 0.426263 0.798659
#
# Coordination Sequence:
#
# PCOD8175024 Si02
#       7
#     8   8   8   8   8   8   8
#     4   9  18  29  45  69  94 118 148 186 229 272
#     4   8  14  27  43  59  91 129 145 164 217 280
#     4   9  17  29  41  61  96 128 146 171 219 275
#     4   9  20  35  46  61  91 128 156 187 232 271
#     4   9  16  29  47  66  91 121 149 178 223 277
#     4  10  20  29  43  68  96 123 150 180 220 272
#     4  12  19  28  47  72  91 117 160 196 218 259
#
# _framework density 15.639671999999999
#
# number of rings (size 3 to 8) (size 9 to 14) (size 15 to 20)
#    0.000    2.571    1.429    3.857    2.000    0.000 
#    0.000    0.000    0.000    0.000    0.000    1.000 
#    0.000    0.000    0.000    0.000    0.000    0.000 
#
# Total GULP energy -347010.535940 kJ/mol
# GULP energy per Si atom -12393.233426 kJ/mol
# Density = 1.560408 g / cm^3
# Si number density = 15.639672 Si / 1000 Ang^3
#
#
#
# Elastic Constant Matrix: (Units=GPa)
#
#
# Indices 1 2 3 4 5 6 
#
# 1 77.1672 37.5175 40.2267 0.0000 0.0000 0.0000
# 2 37.5175 61.9340 27.5519 0.0000 0.0000 0.0000
# 3 40.2267 27.5519 101.3550 0.0000 0.0000 0.0000
# 4 0.0000 0.0000 0.0000 12.2214 0.0000 0.0000
# 5 0.0000 0.0000 0.0000 0.0000 10.6559 0.0000
# 6 0.0000 0.0000 0.0000 0.0000 0.0000 17.9178
#
#
#
# Elastic Compliance Matrix: (Units=1/GPa)
#
#
# Indices 1 2 3 4 5 6 
#
# 1 0.020737 -0.010125 -0.005478 0.000000 0.000000 0.000000
# 2 -0.010125 0.023311 -0.002318 0.000000 0.000000 0.000000
# 3 -0.005478 -0.002318 0.012671 0.000000 0.000000 0.000000
# 4 0.000000 0.000000 0.000000 0.081824 0.000000 0.000000
# 5 0.000000 0.000000 0.000000 0.000000 0.093845 0.000000
# 6 0.000000 0.000000 0.000000 0.000000 0.000000 0.055810
#
#
# Mechanical properties :
#
#
# Convention : Reuss Voigt Hill
#
# Bulk Modulus (GPa) = 47.90130 50.11649 49.00889
# Shear Modulus (GPa) = 15.10581 17.16969 16.13775
#
# Velocity S-wave (km/s) = 3.11121 3.31695 3.21572
# Velocity P-wave (km/s) = 6.60308 6.83985 6.72251
#
# Compressibility (1/GPa) = 0.02087626
#
# Stress axis : x y z
#
# Youngs Moduli (GPa) = 48.22280 42.89860 78.92238
#
# Poissons Ratio (x) = 0.43434 0.43234
# Poissons Ratio (y) = 0.48825 0.18296
# Poissons Ratio (z) = 0.26417 0.09945
#
# Static dielectric constant tensor:
#      x y z
#    x 2.639920 0.000000 0.000000 
#    y 0.000000 2.936250 0.000000 
#    z 0.000000 0.000000 3.200820 
# 
# 
# High freq. dielectric constant tensor:
#      x y z
#    x 1.545750 0.000000 0.000000 
#    y 0.000000 1.581830 0.000000 
#    z 0.000000 0.000000 1.617610 
# 
# From -- ./inp_files/4416.got.cif
#   From: 2010.03.12/outbox.cif.g09.slc.cpg/sg36_3_cif.got.tgz:4416.got - 2010.04.14 02:13:53.
