data_PCOD8175476
_publ_section_title
;
Structure prediction by ZEFSAII (Michael W. Deem and Ramdas Pophale) SiO2 
 PCOD8175476
Probable space group: C M C 21
;
_chemical_formula_sum "Si O2"
_cell_formula_units_Z 64
_cell_length_a 8.608707
_cell_length_b 23.832533
_cell_length_c 15.228163
_cell_angle_alpha 90.000000
_cell_angle_beta 90.000000
_cell_angle_gamma 90.000000
_cell_volume 3124.320990
_symmetry_space_group_name_H-M "C M C 21"
_symmetry_group_IT_number 36
_symmetry_cell_setting 'orthorhombic'
loop_
_space_group_symop_operation_xyz
x,y,z
-x,-y,1/2+z
x,-y,1/2+z
-x,y,z
1/2+x,1/2+y,z
1/2-x,1/2-y,1/2+z
1/2+x,1/2-y,1/2+z
1/2-x,1/2+y,z
loop_
_atom_site_type_symbol
_atom_site_label
_atom_site_fract_x
_atom_site_fract_y
_atom_site_fract_z
Si Si1 0.177819 0.255434 0.967980
Si Si2 0.317931 0.932086 0.367364
Si Si3 0.821806 0.872268 0.722988
Si Si4 0.178925 0.865748 0.523875
Si Si5 0.178183 0.255683 0.763884
Si Si6 0.682070 0.058200 0.373486
Si Si7 0.319776 0.369069 0.027181
Si Si8 0.182922 0.357846 0.207651
O O1 0.228806 0.199522 0.019775
O O2 0.200829 0.242278 0.865932
O O3 0.287732 0.305567 0.997572
O O4 0.000000 0.272464 0.988933
O O5 0.500000 0.935648 0.354893
O O6 0.280738 0.902990 0.459269
O O7 0.248919 0.897094 0.285358
O O8 0.251216 0.995162 0.366695
O O9 0.792932 0.888495 0.621733
O O10 0.784905 0.807314 0.737017
O O11 0.711204 0.910941 0.781374
O O12 0.000000 0.882617 0.749890
O O13 0.000000 0.870989 0.494918
O O14 0.233055 0.202110 0.709090
O O15 0.000000 0.269532 0.741218
O O16 0.500000 0.060226 0.394677
O O17 0.772953 0.088823 0.450604
O O18 0.500000 0.376004 0.047912
O O19 0.223624 0.385692 0.114240
O O20 0.000000 0.348992 0.217901
#
# Coordination Sequence:
#
# PCOD8175476 Si02
#       8
#     8   8   8   8   8   8   8   8
#     4  10  20  37  62  92 127 164 197 244 308 364
#     4  10  24  43  65  89 116 159 209 253 304 363
#     4  11  23  39  62  93 125 163 204 248 306 367
#     4  10  22  40  63  91 125 159 196 247 306 360
#     4  11  21  36  63  95 126 164 203 246 305 365
#     4  11  24  44  64  86 120 161 206 258 308 358
#     4  12  25  40  63  94 124 161 207 251 305 371
#     4  11  23  41  64  92 127 163 202 253 308 364
#
# _framework density 20.484451
#
# number of rings (size 3 to 8) (size 9 to 14) (size 15 to 20)
#    0.000    1.250    2.500    3.375    0.000    5.500 
#    0.000    3.750    0.000    0.000    0.000    0.000 
#    0.000    0.000    0.000    0.000    0.000    0.000 
#
# Total GULP energy -397000.960333 kJ/mol
# GULP energy per Si atom -12406.280010 kJ/mol
# Density = 2.043783 g / cm^3
# Si number density = 20.484451 Si / 1000 Ang^3
#
#
#
# Elastic Constant Matrix: (Units=GPa)
#
#
# Indices 1 2 3 4 5 6 
#
# 1 46.6191 13.4667 17.6817 0.0000 0.0000 0.0000
# 2 13.4667 124.2057 37.1758 0.0000 0.0000 0.0000
# 3 17.6817 37.1758 96.0313 0.0000 0.0000 0.0000
# 4 0.0000 0.0000 0.0000 3.5263 0.0000 0.0000
# 5 0.0000 0.0000 0.0000 0.0000 31.8204 0.0000
# 6 0.0000 0.0000 0.0000 0.0000 0.0000 19.0873
#
#
#
# Elastic Compliance Matrix: (Units=1/GPa)
#
#
# Indices 1 2 3 4 5 6 
#
# 1 0.023275 -0.001403 -0.003742 0.000000 0.000000 0.000000
# 2 -0.001403 0.009191 -0.003300 0.000000 0.000000 0.000000
# 3 -0.003742 -0.003300 0.012380 0.000000 0.000000 0.000000
# 4 0.000000 0.000000 0.000000 0.283585 0.000000 0.000000
# 5 0.000000 0.000000 0.000000 0.000000 0.031426 0.000000
# 6 0.000000 0.000000 0.000000 0.000000 0.000000 0.052391
#
#
# Mechanical properties :
#
#
# Convention : Reuss Voigt Hill
#
# Bulk Modulus (GPa) = 35.77150 44.83382 40.30266
# Shear Modulus (GPa) = 11.40362 24.12227 17.76294
#
# Velocity S-wave (km/s) = 2.36200 3.43532 2.94792
# Velocity P-wave (km/s) = 4.99394 6.13755 5.59504
#
# Compressibility (1/GPa) = 0.02795522
#
# Stress axis : x y z
#
# Youngs Moduli (GPa) = 42.96419 108.80303 80.77777
#
# Poissons Ratio (x) = 0.15270 0.30229
# Poissons Ratio (y) = 0.06030 0.26653
# Poissons Ratio (z) = 0.16078 0.35901
#
# Static dielectric constant tensor:
#      x y z
#    x 3.618120 0.000000 0.000000 
#    y 0.000000 3.760280 0.000000 
#    z 0.000000 0.000000 3.854960 
# 
# 
# High freq. dielectric constant tensor:
#      x y z
#    x 1.797140 0.000000 0.000000 
#    y 0.000000 1.796420 0.000000 
#    z 0.000000 0.000000 1.815510 
# 
# From -- ./inp_files/10938.got.cif
#   From: 2010.03.12/outbox.cif.g09.slc.cpg/sg36_6_cif.got.tgz:10938.got - 2010.04.14 02:13:53.
