data_PCOD8175501
_publ_section_title
;
Structure prediction by ZEFSAII (Michael W. Deem and Ramdas Pophale) SiO2 
 PCOD8175501
Probable space group: C M C 21
;
_chemical_formula_sum "Si O2"
_cell_formula_units_Z 64
_cell_length_a 8.932654
_cell_length_b 28.873054
_cell_length_c 12.477363
_cell_angle_alpha 90.000000
_cell_angle_beta 90.000000
_cell_angle_gamma 90.000000
_cell_volume 3218.074140
_symmetry_space_group_name_H-M "C M C 21"
_symmetry_group_IT_number 36
_symmetry_cell_setting 'orthorhombic'
loop_
_space_group_symop_operation_xyz
x,y,z
-x,-y,1/2+z
x,-y,1/2+z
-x,y,z
1/2+x,1/2+y,z
1/2-x,1/2-y,1/2+z
1/2+x,1/2-y,1/2+z
1/2-x,1/2+y,z
loop_
_atom_site_type_symbol
_atom_site_label
_atom_site_fract_x
_atom_site_fract_y
_atom_site_fract_z
Si Si1 0.667580 0.841328 0.357010
Si Si2 0.323138 0.615242 0.660424
Si Si3 0.322249 0.223253 0.043471
Si Si4 0.823096 0.176950 0.470124
Si Si5 0.671158 0.931882 0.683506
Si Si6 0.826974 0.979730 0.257483
Si Si7 0.836070 0.440395 0.442946
Si Si8 0.821821 0.835718 0.729057
O O1 0.500000 0.829128 0.318373
O O2 0.764389 0.849523 0.250918
O O3 0.732376 0.800690 0.432532
O O4 0.669099 0.885281 0.434638
O O5 0.500000 0.616402 0.670689
O O6 0.269251 0.633370 0.543591
O O7 0.268032 0.562101 0.679476
O O8 0.500000 0.216645 0.056945
O O9 0.243946 0.202504 0.148600
O O10 0.272190 0.276486 0.031086
O O11 0.758679 0.173645 0.349502
O O12 0.000000 0.176384 0.460795
O O13 0.500000 0.919903 0.713501
O O14 0.686369 0.953064 0.565635
O O15 0.771934 0.886796 0.695914
O O16 0.732379 0.973585 0.754498
O O17 0.800873 0.962626 0.378483
O O18 0.000000 0.990725 0.236877
O O19 0.000000 0.457923 0.401850
O O20 0.000000 0.832718 0.724263
#
# Coordination Sequence:
#
# PCOD8175501 Si02
#       8
#     8   8   8   8   8   8   8   8
#     4   9  17  32  56  81 108 144 189 240 288 338
#     4   9  19  37  57  81 115 154 195 241 294 348
#     4  10  20  38  60  83 116 157 194 237 295 353
#     4   9  21  39  59  84 122 163 193 235 299 359
#     4  11  22  39  61  85 117 157 200 244 300 362
#     4  10  21  35  56  87 118 152 199 250 300 352
#     4   9  18  35  55  78 109 149 194 239 289 349
#     4  11  23  39  60  89 121 154 200 250 299 355
#
# _framework density 19.887671000000001
#
# number of rings (size 3 to 8) (size 9 to 14) (size 15 to 20)
#    0.000    2.250    1.250    1.125    1.750    3.000 
#    0.000    3.750    0.000    0.000    0.000    0.000 
#    0.000    0.000    0.000    0.000    0.000    0.000 
#
# Total GULP energy -396661.419280 kJ/mol
# GULP energy per Si atom -12395.669352 kJ/mol
# Density = 1.984241 g / cm^3
# Si number density = 19.887671 Si / 1000 Ang^3
#
#
#
# Elastic Constant Matrix: (Units=GPa)
#
#
# Indices 1 2 3 4 5 6 
#
# 1 48.3117 25.1191 30.5793 0.0000 0.0000 0.0000
# 2 25.1191 82.8616 30.8943 0.0000 0.0000 0.0000
# 3 30.5793 30.8943 90.9746 0.0000 0.0000 0.0000
# 4 0.0000 0.0000 0.0000 26.8671 0.0000 0.0000
# 5 0.0000 0.0000 0.0000 0.0000 29.8249 0.0000
# 6 0.0000 0.0000 0.0000 0.0000 0.0000 24.1482
#
#
#
# Elastic Compliance Matrix: (Units=1/GPa)
#
#
# Indices 1 2 3 4 5 6 
#
# 1 0.028544 -0.005812 -0.007621 0.000000 0.000000 0.000000
# 2 -0.005812 0.015001 -0.003141 0.000000 0.000000 0.000000
# 3 -0.007621 -0.003141 0.014620 0.000000 0.000000 0.000000
# 4 0.000000 0.000000 0.000000 0.037220 0.000000 0.000000
# 5 0.000000 0.000000 0.000000 0.000000 0.033529 0.000000
# 6 0.000000 0.000000 0.000000 0.000000 0.000000 0.041411
#
#
# Mechanical properties :
#
#
# Convention : Reuss Voigt Hill
#
# Bulk Modulus (GPa) = 39.96981 43.92590 41.94786
# Shear Modulus (GPa) = 23.60578 25.20506 24.40542
#
# Velocity S-wave (km/s) = 3.44896 3.56388 3.50689
# Velocity P-wave (km/s) = 6.00015 6.25059 6.12665
#
# Compressibility (1/GPa) = 0.02501888
#
# Stress axis : x y z
#
# Youngs Moduli (GPa) = 35.03319 66.66181 68.39792
#
# Poissons Ratio (x) = 0.38741 0.52126
# Poissons Ratio (y) = 0.20360 0.21482
# Poissons Ratio (z) = 0.26699 0.20937
#
# Static dielectric constant tensor:
#      x y z
#    x 3.459910 0.000000 0.000000 
#    y 0.000000 3.679740 0.000000 
#    z 0.000000 0.000000 3.683830 
# 
# 
# High freq. dielectric constant tensor:
#      x y z
#    x 1.757340 0.000000 0.000000 
#    y 0.000000 1.776700 0.000000 
#    z 0.000000 0.000000 1.776370 
# 
# From -- ./inp_files/7091.got.cif
#   From: 2010.03.12/outbox.cif.g09.slc.cpg/sg36_4_cif.got.tgz:7091.got - 2010.04.14 02:13:53.
