data_PCOD8175076
_publ_section_title
;
Structure prediction by ZEFSAII (Michael W. Deem and Ramdas Pophale) SiO2 
 PCOD8175076
Probable space group: C M C 21
;
_chemical_formula_sum "Si O2"
_cell_formula_units_Z 64
_cell_length_a 28.481641
_cell_length_b 12.593447
_cell_length_c 8.781413
_cell_angle_alpha 90.000000
_cell_angle_beta 90.000000
_cell_angle_gamma 90.000000
_cell_volume 3149.735097
_symmetry_space_group_name_H-M "C M C 21"
_symmetry_group_IT_number 36
_symmetry_cell_setting 'orthorhombic'
loop_
_space_group_symop_operation_xyz
x,y,z
-x,-y,1/2+z
x,-y,1/2+z
-x,y,z
1/2+x,1/2+y,z
1/2-x,1/2-y,1/2+z
1/2+x,1/2-y,1/2+z
1/2-x,1/2+y,z
loop_
_atom_site_type_symbol
_atom_site_label
_atom_site_fract_x
_atom_site_fract_y
_atom_site_fract_z
Si Si1 0.271611 0.847178 0.496290
Si Si2 0.106616 0.817125 0.689286
Si Si3 0.118128 0.850171 0.202488
Si Si4 0.826070 0.732905 0.454346
Si Si5 0.178366 0.867336 0.934361
Si Si6 0.553147 0.547384 0.944468
Si Si7 0.774353 0.547301 0.322990
Si Si8 0.551804 0.294709 0.967715
O O1 0.219659 0.798919 0.503854
O O2 0.309584 0.754387 0.478444
O O3 0.277927 0.917797 0.648037
O O4 0.281383 0.921379 0.347833
O O5 0.133693 0.733149 0.582548
O O6 0.145601 0.879452 0.786927
O O7 0.075005 0.898019 0.593232
O O8 0.072836 0.753328 0.806996
O O9 0.154407 0.785889 0.302953
O O10 0.084991 0.928243 0.297830
O O11 0.149491 0.916013 0.078272
O O12 0.085359 0.764918 0.109754
O O13 0.813003 0.611643 0.419631
O O14 0.224023 0.934401 0.900585
O O15 0.500000 0.590771 0.919131
O O16 0.551363 0.422426 0.966705
O O17 0.500000 0.246615 0.990554
#
# Coordination Sequence:
#
# PCOD8175076 Si02
#       8
#     8   8   8   8   8   8   8   8
#     4  11  24  37  58  80 108 149 185 228 283 323
#     4  10  20  34  53  74 106 153 178 225 269 312
#     4  10  20  34  53  70 106 153 178 221 267 312
#     4  10  22  40  52  76 117 143 186 231 266 320
#     4  10  22  40  52  76 117 143 186 231 266 320
#     4  10  20  33  51  78 112 145 183 224 268 325
#     4  11  24  37  58  80 108 149 185 228 283 323
#     4  10  20  33  51  78 112 145 183 224 268 325
#
# _framework density 20.319168000000001
#
# number of rings (size 3 to 8) (size 9 to 14) (size 15 to 20)
#    0.000    1.750    2.500    1.500    3.500    8.000 
#    0.000    0.000    0.000    0.000    0.000    0.000 
#    0.000   70.000    0.000    0.000    0.000    0.000 
#
# Total GULP energy -396647.369486 kJ/mol
# GULP energy per Si atom -12395.230296 kJ/mol
# Density = 2.027292 g / cm^3
# Si number density = 20.319168 Si / 1000 Ang^3
#
#
#
# Elastic Constant Matrix: (Units=GPa)
#
#
# Indices 1 2 3 4 5 6 
#
# 1 94.2984 3.6498 17.0414 0.0000 0.0000 0.0000
# 2 3.6498 44.8105 -0.1152 0.0000 0.0000 0.0000
# 3 17.0414 -0.1152 90.2393 0.0000 0.0000 0.0000
# 4 0.0000 0.0000 0.0000 19.8722 0.0000 0.0000
# 5 0.0000 0.0000 0.0000 0.0000 26.3301 0.0000
# 6 0.0000 0.0000 0.0000 0.0000 0.0000 14.8553
#
#
#
# Elastic Compliance Matrix: (Units=1/GPa)
#
#
# Indices 1 2 3 4 5 6 
#
# 1 0.011016 -0.000903 -0.002081 0.000000 0.000000 0.000000
# 2 -0.000903 0.022390 0.000199 0.000000 0.000000 0.000000
# 3 -0.002081 0.000199 0.011475 0.000000 0.000000 0.000000
# 4 0.000000 0.000000 0.000000 0.050322 0.000000 0.000000
# 5 0.000000 0.000000 0.000000 0.000000 0.037979 0.000000
# 6 0.000000 0.000000 0.000000 0.000000 0.000000 0.067316
#
#
# Mechanical properties :
#
#
# Convention : Reuss Voigt Hill
#
# Bulk Modulus (GPa) = 25.43820 30.05558 27.74689
# Shear Modulus (GPa) = 22.81318 26.12967 24.47142
#
# Velocity S-wave (km/s) = 3.35437 3.58992 3.47414
# Velocity P-wave (km/s) = 5.24870 5.65749 5.45693
#
# Compressibility (1/GPa) = 0.03931096
#
# Stress axis : x y z
#
# Youngs Moduli (GPa) = 90.77933 44.66233 87.14615
#
# Poissons Ratio (x) = 0.04031 0.18139
# Poissons Ratio (y) = 0.08193 -0.01734
# Poissons Ratio (z) = 0.18895 -0.00889
#
# Static dielectric constant tensor:
#      x y z
#    x 4.151890 0.000000 0.000000 
#    y 0.000000 3.201320 0.000000 
#    z 0.000000 0.000000 4.058870 
# 
# 
# High freq. dielectric constant tensor:
#      x y z
#    x 1.807090 0.000000 0.000000 
#    y 0.000000 1.728530 0.000000 
#    z 0.000000 0.000000 1.821550 
# 
# From -- ./inp_files/6129.got.cif
#   From: 2010.03.12/outbox.cif.g09.slc.cpg/sg36_4_cif.got.tgz:6129.got - 2010.04.14 02:13:53.
