data_PCOD8175272
_publ_section_title
;
Structure prediction by ZEFSAII (Michael W. Deem and Ramdas Pophale) SiO2 
 PCOD8175272
Probable space group: C M C 21
;
_chemical_formula_sum "Si O2"
_cell_formula_units_Z 64
_cell_length_a 8.887837
_cell_length_b 15.399937
_cell_length_c 23.862943
_cell_angle_alpha 90.000000
_cell_angle_beta 90.000000
_cell_angle_gamma 90.000000
_cell_volume 3266.171833
_symmetry_space_group_name_H-M "C M C 21"
_symmetry_group_IT_number 36
_symmetry_cell_setting 'orthorhombic'
loop_
_space_group_symop_operation_xyz
x,y,z
-x,-y,1/2+z
x,-y,1/2+z
-x,y,z
1/2+x,1/2+y,z
1/2-x,1/2-y,1/2+z
1/2+x,1/2-y,1/2+z
1/2-x,1/2+y,z
loop_
_atom_site_type_symbol
_atom_site_label
_atom_site_fract_x
_atom_site_fract_y
_atom_site_fract_z
Si Si1 0.825493 0.149120 0.782710
Si Si2 0.324860 0.102009 0.895827
Si Si3 0.677990 0.661077 0.505762
Si Si4 0.678080 0.662938 0.007207
Si Si5 0.822120 0.006392 0.203653
Si Si6 0.325126 0.100616 0.395012
Si Si7 0.678950 0.500115 0.077965
Si Si8 0.172822 0.345068 0.772014
O O1 0.724053 0.143684 0.837507
O O2 0.767148 0.077087 0.738827
O O3 0.803625 0.244341 0.755581
O O4 0.000000 0.133752 0.798728
O O5 0.500000 0.120181 0.906133
O O6 0.229301 0.147536 0.943852
O O7 0.287316 0.000647 0.895059
O O8 0.500000 0.668118 0.508477
O O9 0.749891 0.748619 0.530372
O O10 0.727153 0.648023 0.441750
O O11 0.740233 0.582850 0.544048
O O12 0.500000 0.670299 0.008746
O O13 0.738535 0.586085 0.046902
O O14 0.000000 0.008794 0.201370
O O15 0.756047 0.998085 0.140932
O O16 0.768114 0.096309 0.230158
O O17 0.500000 0.119095 0.407054
O O18 0.273873 0.139926 0.335719
O O19 0.500000 0.499038 0.078035
O O20 0.000000 0.373722 0.766257
#
# Coordination Sequence:
#
# PCOD8175272 Si02
#       8
#     8   8   8   8   8   8   8   8
#     4  10  21  36  59  86 116 153 190 230 289 348
#     4  11  21  35  59  89 118 149 191 238 283 341
#     4  11  22  38  61  89 117 150 192 237 285 346
#     4  11  22  39  60  84 116 154 191 236 291 343
#     4  10  21  39  60  83 111 151 198 239 280 337
#     4  10  20  35  57  85 121 154 186 233 287 344
#     4   9  21  40  59  80 114 154 193 237 287 340
#     4  10  21  38  57  84 117 151 185 232 290 341
#
# _framework density 19.594805000000001
#
# number of rings (size 3 to 8) (size 9 to 14) (size 15 to 20)
#    0.000    1.750    2.500    1.875    0.000    3.500 
#    0.000    3.750    0.000    0.000    0.000    0.000 
#    0.000    0.000    0.000    0.000    0.000    0.000 
#
# Total GULP energy -396944.198467 kJ/mol
# GULP energy per Si atom -12404.506202 kJ/mol
# Density = 1.955021 g / cm^3
# Si number density = 19.594805 Si / 1000 Ang^3
#
#
#
# Elastic Constant Matrix: (Units=GPa)
#
#
# Indices 1 2 3 4 5 6 
#
# 1 45.8769 33.1836 24.4265 0.0000 0.0000 0.0000
# 2 33.1836 149.3766 60.2391 0.0000 0.0000 0.0000
# 3 24.4265 60.2391 135.0753 0.0000 0.0000 0.0000
# 4 0.0000 0.0000 0.0000 13.5134 0.0000 0.0000
# 5 0.0000 0.0000 0.0000 0.0000 9.5063 0.0000
# 6 0.0000 0.0000 0.0000 0.0000 0.0000 32.0841
#
#
#
# Elastic Compliance Matrix: (Units=1/GPa)
#
#
# Indices 1 2 3 4 5 6 
#
# 1 0.026735 -0.004864 -0.002665 0.000000 0.000000 0.000000
# 2 -0.004864 0.009047 -0.003155 0.000000 0.000000 0.000000
# 3 -0.002665 -0.003155 0.009292 0.000000 0.000000 0.000000
# 4 0.000000 0.000000 0.000000 0.074000 0.000000 0.000000
# 5 0.000000 0.000000 0.000000 0.000000 0.105193 0.000000
# 6 0.000000 0.000000 0.000000 0.000000 0.000000 0.031168
#
#
# Mechanical properties :
#
#
# Convention : Reuss Voigt Hill
#
# Bulk Modulus (GPa) = 42.18486 62.89190 52.53838
# Shear Modulus (GPa) = 17.56185 25.18608 21.37396
#
# Velocity S-wave (km/s) = 2.99699 3.58906 3.30631
# Velocity P-wave (km/s) = 5.79235 7.02432 6.43787
#
# Compressibility (1/GPa) = 0.02370519
#
# Stress axis : x y z
#
# Youngs Moduli (GPa) = 37.40412 110.52806 107.61471
#
# Poissons Ratio (x) = 0.53764 0.28683
# Poissons Ratio (y) = 0.18194 0.33955
# Poissons Ratio (z) = 0.09970 0.34874
#
# Static dielectric constant tensor:
#      x y z
#    x 3.388910 0.000000 0.000000 
#    y 0.000000 3.820940 0.000000 
#    z 0.000000 0.000000 3.622490 
# 
# 
# High freq. dielectric constant tensor:
#      x y z
#    x 1.746880 0.000000 0.000000 
#    y 0.000000 1.781820 0.000000 
#    z 0.000000 0.000000 1.758140 
# 
# From -- ./inp_files/16535.got.cif
#   From: 2010.03.12/outbox.cif.g09.slc.cpg/sg36_9_cif.got.tgz:16535.got - 2010.04.14 02:13:53.
