data_PCOD8175675
_publ_section_title
;
Structure prediction by ZEFSAII (Michael W. Deem and Ramdas Pophale) SiO2 
 PCOD8175675
Probable space group: C M C 21
;
_chemical_formula_sum "Si O2"
_cell_formula_units_Z 64
_cell_length_a 8.968988
_cell_length_b 15.024463
_cell_length_c 23.540160
_cell_angle_alpha 90.000000
_cell_angle_beta 90.000000
_cell_angle_gamma 90.000000
_cell_volume 3172.136096
_symmetry_space_group_name_H-M "C M C 21"
_symmetry_group_IT_number 36
_symmetry_cell_setting 'orthorhombic'
loop_
_space_group_symop_operation_xyz
x,y,z
-x,-y,1/2+z
x,-y,1/2+z
-x,y,z
1/2+x,1/2+y,z
1/2-x,1/2-y,1/2+z
1/2+x,1/2-y,1/2+z
1/2-x,1/2+y,z
loop_
_atom_site_type_symbol
_atom_site_label
_atom_site_fract_x
_atom_site_fract_y
_atom_site_fract_z
Si Si1 0.670639 0.992232 0.650290
Si Si2 0.175459 0.197483 0.276585
Si Si3 0.675776 0.388270 0.475547
Si Si4 0.823028 0.446468 0.026736
Si Si5 0.176092 0.003407 0.763783
Si Si6 0.174281 0.157136 0.846799
Si Si7 0.668935 0.786385 0.664416
Si Si8 0.824799 0.768151 0.041625
O O1 0.500000 0.016794 0.661597
O O2 0.726196 0.032956 0.591146
O O3 0.764524 0.033300 0.702137
O O4 0.696381 0.887353 0.645758
O O5 0.234394 0.095541 0.280066
O O6 0.245468 0.252192 0.328284
O O7 0.224396 0.240776 0.216422
O O8 0.000000 0.202486 0.281972
O O9 0.500000 0.387438 0.487923
O O10 0.740821 0.486749 0.484065
O O11 0.713329 0.359186 0.411898
O O12 0.760159 0.323692 0.518477
O O13 0.763278 0.348388 0.011508
O O14 0.000000 0.452500 0.017985
O O15 0.000000 0.002466 0.760657
O O16 0.234564 0.073125 0.810509
O O17 0.000000 0.169499 0.836614
O O18 0.500000 0.771773 0.685263
O O19 0.704443 0.726631 0.609400
O O20 0.000000 0.773026 0.027871
#
# Coordination Sequence:
#
# PCOD8175675 Si02
#       8
#     8   8   8   8   8   8   8   8
#     4   9  18  35  58  86 121 155 192 243 298 355
#     4  10  21  36  58  90 120 154 198 246 298 354
#     4  11  24  43  64  88 121 164 212 259 307 362
#     4  11  23  40  61  91 126 160 203 255 307 368
#     4   9  20  38  58  84 118 155 194 240 294 356
#     4  10  23  42  62  85 118 160 203 247 298 361
#     4   9  18  36  59  84 120 161 195 241 304 362
#     4  11  23  40  62  90 122 163 207 253 310 366
#
# _framework density 20.175678999999999
#
# number of rings (size 3 to 8) (size 9 to 14) (size 15 to 20)
#    0.000    2.000    1.250    1.500    1.750    5.000 
#    0.000    1.250    0.000    0.000    0.000    0.000 
#    0.000    0.000    0.000    0.000    0.000    0.000 
#
# Total GULP energy -396914.451861 kJ/mol
# GULP energy per Si atom -12403.576621 kJ/mol
# Density = 2.012976 g / cm^3
# Si number density = 20.175679 Si / 1000 Ang^3
#
#
#
# Elastic Constant Matrix: (Units=GPa)
#
#
# Indices 1 2 3 4 5 6 
#
# 1 54.3096 14.1377 28.7789 0.0000 0.0000 0.0000
# 2 14.1377 52.4004 7.3188 0.0000 0.0000 0.0000
# 3 28.7789 7.3188 67.1429 0.0000 0.0000 0.0000
# 4 0.0000 0.0000 0.0000 30.1203 0.0000 0.0000
# 5 0.0000 0.0000 0.0000 0.0000 32.6453 0.0000
# 6 0.0000 0.0000 0.0000 0.0000 0.0000 31.0907
#
#
#
# Elastic Compliance Matrix: (Units=1/GPa)
#
#
# Indices 1 2 3 4 5 6 
#
# 1 0.025234 -0.005379 -0.010229 0.000000 0.000000 0.000000
# 2 -0.005379 0.020526 0.000068 0.000000 0.000000 0.000000
# 3 -0.010229 0.000068 0.019271 0.000000 0.000000 0.000000
# 4 0.000000 0.000000 0.000000 0.033200 0.000000 0.000000
# 5 0.000000 0.000000 0.000000 0.000000 0.030632 0.000000
# 6 0.000000 0.000000 0.000000 0.000000 0.000000 0.032164
#
#
# Mechanical properties :
#
#
# Convention : Reuss Voigt Hill
#
# Bulk Modulus (GPa) = 29.45565 30.48041 29.96803
# Shear Modulus (GPa) = 24.57917 27.01241 25.79579
#
# Velocity S-wave (km/s) = 3.49414 3.66301 3.57957
# Velocity P-wave (km/s) = 5.55967 5.74722 5.65422
#
# Compressibility (1/GPa) = 0.03394935
#
# Stress axis : x y z
#
# Youngs Moduli (GPa) = 39.62914 48.71953 51.89220
#
# Poissons Ratio (x) = 0.26208 0.53083
# Poissons Ratio (y) = 0.21318 -0.00355
# Poissons Ratio (z) = 0.40538 -0.00333
#
# Static dielectric constant tensor:
#      x y z
#    x 3.552640 0.000000 0.000000 
#    y 0.000000 3.745600 0.000000 
#    z 0.000000 0.000000 3.632410 
# 
# 
# High freq. dielectric constant tensor:
#      x y z
#    x 1.784620 0.000000 0.000000 
#    y 0.000000 1.793590 0.000000 
#    z 0.000000 0.000000 1.781890 
# 
# From -- ./inp_files/15713.got.cif
#   From: 2010.03.12/outbox.cif.g09.slc.cpg/sg36_8_cif.got.tgz:15713.got - 2010.04.14 02:13:53.
