data_PCOD8175654
_publ_section_title
;
Structure prediction by ZEFSAII (Michael W. Deem and Ramdas Pophale) SiO2 
 PCOD8175654
Probable space group: C M C 21
;
_chemical_formula_sum "Si O2"
_cell_formula_units_Z 64
_cell_length_a 9.368024
_cell_length_b 23.311829
_cell_length_c 14.326945
_cell_angle_alpha 90.000000
_cell_angle_beta 90.000000
_cell_angle_gamma 90.000000
_cell_volume 3128.800967
_symmetry_space_group_name_H-M "C M C 21"
_symmetry_group_IT_number 36
_symmetry_cell_setting 'orthorhombic'
loop_
_space_group_symop_operation_xyz
x,y,z
-x,-y,1/2+z
x,-y,1/2+z
-x,y,z
1/2+x,1/2+y,z
1/2-x,1/2-y,1/2+z
1/2+x,1/2-y,1/2+z
1/2-x,1/2+y,z
loop_
_atom_site_type_symbol
_atom_site_label
_atom_site_fract_x
_atom_site_fract_y
_atom_site_fract_z
Si Si1 0.663729 0.437612 0.708310
Si Si2 0.336108 0.033281 0.381344
Si Si3 0.841141 0.406246 0.396147
Si Si4 0.663160 0.207610 0.793076
Si Si5 0.666407 0.155814 0.605223
Si Si6 0.836548 0.141613 0.047336
Si Si7 0.166154 0.256288 0.952406
Si Si8 0.830471 0.044318 0.574820
O O1 0.500000 0.445062 0.740379
O O2 0.762920 0.431062 0.798703
O O3 0.686119 0.376790 0.654750
O O4 0.706488 0.490726 0.641387
O O5 0.500000 0.053892 0.395528
O O6 0.251285 0.039695 0.477056
O O7 0.329090 0.967558 0.346316
O O8 0.797576 0.357047 0.323910
O O9 0.740326 0.406464 0.485738
O O10 0.000000 0.395505 0.433943
O O11 0.500000 0.224201 0.812411
O O12 0.696182 0.205971 0.682426
O O13 0.755518 0.253346 0.852078
O O14 0.500000 0.136795 0.613115
O O15 0.699200 0.183730 0.503861
O O16 0.770095 0.102162 0.622758
O O17 0.779331 0.205034 0.021282
O O18 0.000000 0.136748 0.019657
O O19 0.000000 0.249910 0.932139
O O20 0.000000 0.049290 0.558089
#
# Coordination Sequence:
#
# PCOD8175654 Si02
#       8
#     8   8   8   8   8   8   8   8
#     4  10  21  36  55  82 116 150 188 232 283 345
#     4  11  22  35  55  83 117 154 189 230 286 345
#     4   9  17  30  51  78 106 140 183 230 274 324
#     4   9  18  34  57  84 112 146 191 237 282 334
#     4  10  21  39  59  82 117 154 191 237 290 345
#     4   9  17  33  55  77 105 141 181 228 279 331
#     4   9  19  36  59  83 110 146 188 236 288 338
#     4  11  23  39  59  85 117 155 195 238 288 342
#
# _framework density 20.455120999999998
#
# number of rings (size 3 to 8) (size 9 to 14) (size 15 to 20)
#    0.000    2.250    1.250    1.500    0.000    4.000 
#    2.250    2.500    0.000    0.000    0.000    0.000 
#    0.000    0.000    0.000    0.000    0.000    0.000 
#
# Total GULP energy -396654.009503 kJ/mol
# GULP energy per Si atom -12395.437797 kJ/mol
# Density = 2.040856 g / cm^3
# Si number density = 20.455121 Si / 1000 Ang^3
#
#
#
# Elastic Constant Matrix: (Units=GPa)
#
#
# Indices 1 2 3 4 5 6 
#
# 1 71.4197 10.6721 37.2979 0.0000 0.0000 0.0000
# 2 10.6721 27.2611 -5.2948 0.0000 0.0000 0.0000
# 3 37.2979 -5.2948 82.8803 0.0000 0.0000 0.0000
# 4 0.0000 0.0000 0.0000 24.8682 0.0000 0.0000
# 5 0.0000 0.0000 0.0000 0.0000 36.0745 0.0000
# 6 0.0000 0.0000 0.0000 0.0000 0.0000 23.2819
#
#
#
# Elastic Compliance Matrix: (Units=1/GPa)
#
#
# Indices 1 2 3 4 5 6 
#
# 1 0.020702 -0.010038 -0.009958 0.000000 0.000000 0.000000
# 2 -0.010038 0.042011 0.007201 0.000000 0.000000 0.000000
# 3 -0.009958 0.007201 0.017007 0.000000 0.000000 0.000000
# 4 0.000000 0.000000 0.000000 0.040212 0.000000 0.000000
# 5 0.000000 0.000000 0.000000 0.000000 0.027720 0.000000
# 6 0.000000 0.000000 0.000000 0.000000 0.000000 0.042952
#
#
# Mechanical properties :
#
#
# Convention : Reuss Voigt Hill
#
# Bulk Modulus (GPa) = 18.47394 29.65682 24.06538
# Shear Modulus (GPa) = 21.34595 26.10399 23.72497
#
# Velocity S-wave (km/s) = 3.23391 3.57621 3.40936
# Velocity P-wave (km/s) = 4.79534 5.61982 5.22387
#
# Compressibility (1/GPa) = 0.05413029
#
# Stress axis : x y z
#
# Youngs Moduli (GPa) = 48.30461 23.80338 58.80006
#
# Poissons Ratio (x) = 0.23895 0.58551
# Poissons Ratio (y) = 0.48490 -0.42344
# Poissons Ratio (z) = 0.48100 -0.17142
#
# Static dielectric constant tensor:
#      x y z
#    x 3.659730 0.000000 0.000000 
#    y 0.000000 3.664340 0.000000 
#    z 0.000000 0.000000 3.667520 
# 
# 
# High freq. dielectric constant tensor:
#      x y z
#    x 1.792130 0.000000 0.000000 
#    y 0.000000 1.788480 0.000000 
#    z 0.000000 0.000000 1.795300 
# 
# From -- ./inp_files/10926.got.cif
#   From: 2010.03.12/outbox.cif.g09.slc.cpg/sg36_6_cif.got.tgz:10926.got - 2010.04.14 02:13:53.
