data_PCOD8175138
_publ_section_title
;
Structure prediction by ZEFSAII (Michael W. Deem and Ramdas Pophale) SiO2 
 PCOD8175138
Probable space group: C M C 21
;
_chemical_formula_sum "Si O2"
_cell_formula_units_Z 64
_cell_length_a 9.102091
_cell_length_b 28.521659
_cell_length_c 12.423072
_cell_angle_alpha 90.000000
_cell_angle_beta 90.000000
_cell_angle_gamma 90.000000
_cell_volume 3225.113169
_symmetry_space_group_name_H-M "C M C 21"
_symmetry_group_IT_number 36
_symmetry_cell_setting 'orthorhombic'
loop_
_space_group_symop_operation_xyz
x,y,z
-x,-y,1/2+z
x,-y,1/2+z
-x,y,z
1/2+x,1/2+y,z
1/2-x,1/2-y,1/2+z
1/2+x,1/2-y,1/2+z
1/2-x,1/2+y,z
loop_
_atom_site_type_symbol
_atom_site_label
_atom_site_fract_x
_atom_site_fract_y
_atom_site_fract_z
Si Si1 0.664022 0.155432 0.436550
Si Si2 0.830751 0.673290 0.988553
Si Si3 0.338318 0.906585 0.148560
Si Si4 0.674526 0.423210 0.817794
Si Si5 0.331051 0.726427 0.565267
Si Si6 0.830354 0.483087 0.992133
Si Si7 0.170472 0.421869 0.598594
Si Si8 0.672005 0.667094 0.769185
O O1 0.500000 0.164878 0.390957
O O2 0.657507 0.125353 0.543687
O O3 0.758074 0.127382 0.348404
O O4 0.739817 0.204767 0.465675
O O5 0.742170 0.682761 0.880348
O O6 0.000000 0.667088 0.956540
O O7 0.806616 0.717699 0.067168
O O8 0.773719 0.627180 0.049556
O O9 0.500000 0.908878 0.202512
O O10 0.226785 0.884945 0.235206
O O11 0.288811 0.957876 0.106278
O O12 0.500000 0.420329 0.823274
O O13 0.728449 0.464755 0.896165
O O14 0.728092 0.435437 0.698644
O O15 0.500000 0.712949 0.545120
O O16 0.280005 0.705486 0.680003
O O17 0.000000 0.470894 0.963755
O O18 0.807205 0.538493 0.007185
O O19 0.000000 0.419252 0.634722
O O20 0.500000 0.664473 0.784551
#
# Coordination Sequence:
#
# PCOD8175138 Si02
#       8
#     8   8   8   8   8   8   8   8
#     4   9  17  32  56  83 109 141 184 228 270 325
#     4  10  22  39  57  79 111 148 186 228 274 329
#     4   8  15  30  53  79 104 134 178 228 273 321
#     4  11  22  36  57  85 117 149 182 230 289 338
#     4   9  19  36  56  81 111 144 185 232 282 331
#     4   9  19  37  60  83 108 146 196 239 275 327
#     4  10  22  40  59  80 111 152 194 232 272 328
#     4  10  20  34  54  80 111 144 179 225 281 335
#
# _framework density 19.844265
#
# number of rings (size 3 to 8) (size 9 to 14) (size 15 to 20)
#    0.000    2.500    0.000    2.625    0.000    7.000 
#    0.000    6.250    0.000    0.000    0.000    0.000 
#    0.000    0.000    0.000    0.000    0.000    0.000 
#
# Total GULP energy -396795.248492 kJ/mol
# GULP energy per Si atom -12399.851515 kJ/mol
# Density = 1.979910 g / cm^3
# Si number density = 19.844265 Si / 1000 Ang^3
#
#
#
# Elastic Constant Matrix: (Units=GPa)
#
#
# Indices 1 2 3 4 5 6 
#
# 1 105.9530 42.2705 52.6160 0.0000 0.0000 0.0000
# 2 42.2705 123.6453 37.8198 0.0000 0.0000 0.0000
# 3 52.6160 37.8198 87.6822 0.0000 0.0000 0.0000
# 4 0.0000 0.0000 0.0000 23.1144 0.0000 0.0000
# 5 0.0000 0.0000 0.0000 0.0000 31.0553 0.0000
# 6 0.0000 0.0000 0.0000 0.0000 0.0000 23.7538
#
#
#
# Elastic Compliance Matrix: (Units=1/GPa)
#
#
# Indices 1 2 3 4 5 6 
#
# 1 0.014122 -0.002576 -0.007364 0.000000 0.000000 0.000000
# 2 -0.002576 0.009787 -0.002676 0.000000 0.000000 0.000000
# 3 -0.007364 -0.002676 0.016978 0.000000 0.000000 0.000000
# 4 0.000000 0.000000 0.000000 0.043263 0.000000 0.000000
# 5 0.000000 0.000000 0.000000 0.000000 0.032201 0.000000
# 6 0.000000 0.000000 0.000000 0.000000 0.000000 0.042099
#
#
# Mechanical properties :
#
#
# Convention : Reuss Voigt Hill
#
# Bulk Modulus (GPa) = 63.86974 64.74366 64.30670
# Shear Modulus (GPa) = 26.46936 27.88965 27.17950
#
# Velocity S-wave (km/s) = 3.65616 3.75297 3.70488
# Velocity P-wave (km/s) = 7.07663 7.17471 7.12584
#
# Compressibility (1/GPa) = 0.01565687
#
# Stress axis : x y z
#
# Youngs Moduli (GPa) = 70.80907 102.18047 58.90108
#
# Poissons Ratio (x) = 0.26319 0.43372
# Poissons Ratio (y) = 0.18238 0.15760
# Poissons Ratio (z) = 0.52141 0.27340
#
# Static dielectric constant tensor:
#      x y z
#    x 3.610570 0.000000 0.000000 
#    y 0.000000 3.778180 0.000000 
#    z 0.000000 0.000000 3.368270 
# 
# 
# High freq. dielectric constant tensor:
#      x y z
#    x 1.765630 0.000000 0.000000 
#    y 0.000000 1.774940 0.000000 
#    z 0.000000 0.000000 1.755490 
# 
# From -- ./inp_files/7223.got.cif
#   From: 2010.03.12/outbox.cif.g09.slc.cpg/sg36_4_cif.got.tgz:7223.got - 2010.04.14 02:13:53.
