data_PCOD8175858
_publ_section_title
;
Structure prediction by ZEFSAII (Michael W. Deem and Ramdas Pophale) SiO2 
 PCOD8175858
Probable space group: C M C 21
;
_chemical_formula_sum "Si O2"
_cell_formula_units_Z 48
_cell_length_a 8.508534
_cell_length_b 14.892084
_cell_length_c 18.775863
_cell_angle_alpha 90.000000
_cell_angle_beta 90.000000
_cell_angle_gamma 90.000000
_cell_volume 2379.085903
_symmetry_space_group_name_H-M "C M C 21"
_symmetry_group_IT_number 36
_symmetry_cell_setting 'orthorhombic'
loop_
_space_group_symop_operation_xyz
x,y,z
-x,-y,1/2+z
x,-y,1/2+z
-x,y,z
1/2+x,1/2+y,z
1/2-x,1/2-y,1/2+z
1/2+x,1/2-y,1/2+z
1/2-x,1/2+y,z
loop_
_atom_site_type_symbol
_atom_site_label
_atom_site_fract_x
_atom_site_fract_y
_atom_site_fract_z
Si Si1 0.182405 0.028920 0.512530
Si Si2 0.680336 0.876720 0.606349
Si Si3 0.817944 0.045365 0.860707
Si Si4 0.318605 0.780657 0.021743
Si Si5 0.817639 0.733111 0.871525
Si Si6 0.181656 0.882052 0.758801
O O1 0.279517 0.115781 0.535995
O O2 0.000000 0.054919 0.510616
O O3 0.210330 0.950100 0.568680
O O4 0.239796 0.998185 0.434644
O O5 0.500000 0.900243 0.590665
O O6 0.717914 0.778422 0.576296
O O7 0.709561 0.877672 0.690207
O O8 0.715280 0.132984 0.843785
O O9 0.000000 0.072639 0.866789
O O10 0.788109 0.976572 0.797043
O O11 0.500000 0.762945 0.037912
O O12 0.283367 0.752336 0.941238
O O13 0.765657 0.801878 0.810536
O O14 0.000000 0.746477 0.890575
O O15 0.000000 0.871318 0.736816
#
# Coordination Sequence:
#
# PCOD8175858 Si02
#       6
#     8   8   8   8   8   8
#     4  11  22  41  67  96 127 166 211 262 317 378
#     4  12  26  43  64  95 131 170 213 262 319 377
#     4  10  21  39  65  94 125 165 209 256 316 379
#     4  12  24  40  65  95 128 169 215 263 315 376
#     4  11  22  39  65  95 127 165 213 263 313 375
#     4  10  23  44  64  89 130 171 207 260 322 375
#
# _framework density 20.175815
#
# number of rings (size 3 to 8) (size 9 to 14) (size 15 to 20)
#    0.000    1.000    3.333    4.000    0.000    4.000 
#    0.000    3.333    0.000    0.000    0.000    0.000 
#    0.000    0.000    0.000    0.000    0.000    0.000 
#
# Total GULP energy -297805.058533 kJ/mol
# GULP energy per Si atom -12408.544106 kJ/mol
# Density = 2.012989 g / cm^3
# Si number density = 20.175815 Si / 1000 Ang^3
#
#
#
# Elastic Constant Matrix: (Units=GPa)
#
#
# Indices 1 2 3 4 5 6 
#
# 1 63.7501 15.7221 21.9124 0.0000 0.0000 0.0000
# 2 15.7221 90.7612 11.0061 0.0000 0.0000 0.0000
# 3 21.9124 11.0061 85.6685 0.0000 0.0000 0.0000
# 4 0.0000 0.0000 0.0000 30.7570 0.0000 0.0000
# 5 0.0000 0.0000 0.0000 0.0000 32.0294 0.0000
# 6 0.0000 0.0000 0.0000 0.0000 0.0000 34.4048
#
#
#
# Elastic Compliance Matrix: (Units=1/GPa)
#
#
# Indices 1 2 3 4 5 6 
#
# 1 0.017768 -0.002567 -0.004215 0.000000 0.000000 0.000000
# 2 -0.002567 0.011563 -0.000829 0.000000 0.000000 0.000000
# 3 -0.004215 -0.000829 0.012858 0.000000 0.000000 0.000000
# 4 0.000000 0.000000 0.000000 0.032513 0.000000 0.000000
# 5 0.000000 0.000000 0.000000 0.000000 0.031221 0.000000
# 6 0.000000 0.000000 0.000000 0.000000 0.000000 0.029066
#
#
# Mechanical properties :
#
#
# Convention : Reuss Voigt Hill
#
# Bulk Modulus (GPa) = 37.08212 37.49566 37.28889
# Shear Modulus (GPa) = 31.40721 32.20752 31.80736
#
# Velocity S-wave (km/s) = 3.94975 3.99976 3.97484
# Velocity P-wave (km/s) = 6.26260 6.32104 6.29189
#
# Compressibility (1/GPa) = 0.02696718
#
# Stress axis : x y z
#
# Youngs Moduli (GPa) = 56.28078 86.48213 77.77551
#
# Poissons Ratio (x) = 0.22198 0.32782
# Poissons Ratio (y) = 0.14446 0.06448
# Poissons Ratio (z) = 0.23722 0.07170
#
# Static dielectric constant tensor:
#      x y z
#    x 3.608780 0.000000 0.000000 
#    y 0.000000 3.975370 0.000000 
#    z 0.000000 0.000000 3.555810 
# 
# 
# High freq. dielectric constant tensor:
#      x y z
#    x 1.788270 0.000000 0.000000 
#    y 0.000000 1.803380 0.000000 
#    z 0.000000 0.000000 1.782760 
# 
# From -- ./inp_files/13491.got.cif
#   From: 2010.03.12/outbox.cif.g09.slc.cpg/sg36_7_cif.got.tgz:13491.got - 2010.04.14 02:13:53.
