data_PCOD8175996
_publ_section_title
;
Structure prediction by ZEFSAII (Michael W. Deem and Ramdas Pophale) SiO2 
 PCOD8175996
Probable space group: C M C 21
;
_chemical_formula_sum "Si O2"
_cell_formula_units_Z 56
_cell_length_a 22.975739
_cell_length_b 4.967180
_cell_length_c 24.456098
_cell_angle_alpha 90.000000
_cell_angle_beta 90.000000
_cell_angle_gamma 90.000000
_cell_volume 2791.043166
_symmetry_space_group_name_H-M "C M C 21"
_symmetry_group_IT_number 36
_symmetry_cell_setting 'orthorhombic'
loop_
_space_group_symop_operation_xyz
x,y,z
-x,-y,1/2+z
x,-y,1/2+z
-x,y,z
1/2+x,1/2+y,z
1/2-x,1/2-y,1/2+z
1/2+x,1/2-y,1/2+z
1/2-x,1/2+y,z
loop_
_atom_site_type_symbol
_atom_site_label
_atom_site_fract_x
_atom_site_fract_y
_atom_site_fract_z
Si Si1 0.000000 0.800086 0.660720
Si Si2 0.901812 0.154256 0.075511
Si Si3 0.288009 0.509361 0.260347
Si Si4 0.433792 0.860098 0.509665
Si Si5 0.066352 0.657924 0.885567
Si Si6 0.287921 0.477869 0.135617
Si Si7 0.097941 0.170587 0.819625
Si Si8 0.500000 0.205105 0.233935
O O1 0.942044 0.750928 0.625668
O O2 0.000000 0.602061 0.712915
O O3 0.000000 0.106178 0.681043
O O4 0.892777 0.414512 0.037060
O O5 0.839846 0.049944 0.095435
O O6 0.932220 0.919420 0.041634
O O7 0.266134 0.810895 0.271691
O O8 0.310245 0.493992 0.197951
O O9 0.340194 0.438478 0.300353
O O10 0.500000 0.967764 0.510701
O O11 0.412275 0.811734 0.447841
O O12 0.106919 0.440778 0.855095
O O13 0.000000 0.552168 0.882316
O O14 0.068585 0.946594 0.857186
O O15 0.266341 0.175781 0.124330
O O16 0.057996 0.241892 0.768129
#
# Coordination Sequence:
#
# PCOD8175996 Si02
#       8
#     4   8   8   8   8   8   8   4
#     4  12  24  36  55  90 127 154 184 238 312 364
#     4  12  22  40  62  89 124 158 198 252 306 358
#     4  10  22  40  62  87 117 162 210 243 287 357
#     4  11  22  39  62  90 122 158 204 247 300 371
#     4  11  22  39  62  90 122 158 204 247 300 371
#     4  10  22  40  62  87 117 162 210 243 287 357
#     4  12  22  40  62  89 124 158 198 252 306 358
#     4  12  24  36  55  90 127 154 184 238 312 364
#
# _framework density 20.064184000000001
#
# number of rings (size 3 to 8) (size 9 to 14) (size 15 to 20)
#    0.000    0.857    2.857    5.143    0.000    5.714 
#    0.000    0.000    0.000   17.143    0.000    0.000 
#    0.000    0.000    0.000    0.000    0.000    0.000 
#
# Total GULP energy -347390.641787 kJ/mol
# GULP energy per Si atom -12406.808635 kJ/mol
# Density = 2.001852 g / cm^3
# Si number density = 20.064184 Si / 1000 Ang^3
#
#
#
# Elastic Constant Matrix: (Units=GPa)
#
#
# Indices 1 2 3 4 5 6 
#
# 1 62.5228 -0.2386 36.7274 0.0000 0.0000 0.0000
# 2 -0.2386 97.9177 31.6158 0.0000 0.0000 0.0000
# 3 36.7274 31.6158 107.5212 0.0000 0.0000 0.0000
# 4 0.0000 0.0000 0.0000 33.9405 0.0000 0.0000
# 5 0.0000 0.0000 0.0000 0.0000 20.6339 0.0000
# 6 0.0000 0.0000 0.0000 0.0000 0.0000 19.7204
#
#
#
# Elastic Compliance Matrix: (Units=1/GPa)
#
#
# Indices 1 2 3 4 5 6 
#
# 1 0.020575 0.002563 -0.007782 0.000000 0.000000 0.000000
# 2 0.002563 0.011603 -0.004287 0.000000 0.000000 0.000000
# 3 -0.007782 -0.004287 0.013219 0.000000 0.000000 0.000000
# 4 0.000000 0.000000 0.000000 0.029463 0.000000 0.000000
# 5 0.000000 0.000000 0.000000 0.000000 0.048464 0.000000
# 6 0.000000 0.000000 0.000000 0.000000 0.000000 0.050709
#
#
# Mechanical properties :
#
#
# Convention : Reuss Voigt Hill
#
# Bulk Modulus (GPa) = 37.90013 44.90788 41.40401
# Shear Modulus (GPa) = 24.77200 28.18278 26.47739
#
# Velocity S-wave (km/s) = 3.51755 3.75191 3.63662
# Velocity P-wave (km/s) = 5.95214 6.41871 6.18982
#
# Compressibility (1/GPa) = 0.02638513
#
# Stress axis : x y z
#
# Youngs Moduli (GPa) = 48.60247 86.18340 75.64755
#
# Poissons Ratio (x) = -0.22086 0.58866
# Poissons Ratio (y) = -0.12455 0.32432
# Poissons Ratio (z) = 0.37821 0.36949
#
# Static dielectric constant tensor:
#      x y z
#    x 3.326550 0.000000 0.000000 
#    y 0.000000 3.774150 0.000000 
#    z 0.000000 0.000000 3.700320 
# 
# 
# High freq. dielectric constant tensor:
#      x y z
#    x 1.760830 0.000000 0.000000 
#    y 0.000000 1.803870 0.000000 
#    z 0.000000 0.000000 1.784130 
# 
# From -- ./inp_files/17042.got.cif
#   From: 2010.03.12/outbox.cif.g09.slc.cpg/sg36_9_cif.got.tgz:17042.got - 2010.04.14 02:13:53.
