data_PCOD8175788
_publ_section_title
;
Structure prediction by ZEFSAII (Michael W. Deem and Ramdas Pophale) SiO2 
 PCOD8175788
Probable space group: C M C 21
;
_chemical_formula_sum "Si O2"
_cell_formula_units_Z 64
_cell_length_a 12.791098
_cell_length_b 27.609524
_cell_length_c 8.304509
_cell_angle_alpha 90.000000
_cell_angle_beta 90.000000
_cell_angle_gamma 90.000000
_cell_volume 2932.788237
_symmetry_space_group_name_H-M "C M C 21"
_symmetry_group_IT_number 36
_symmetry_cell_setting 'orthorhombic'
loop_
_space_group_symop_operation_xyz
x,y,z
-x,-y,1/2+z
x,-y,1/2+z
-x,y,z
1/2+x,1/2+y,z
1/2-x,1/2-y,1/2+z
1/2+x,1/2-y,1/2+z
1/2-x,1/2+y,z
loop_
_atom_site_type_symbol
_atom_site_label
_atom_site_fract_x
_atom_site_fract_y
_atom_site_fract_z
Si Si1 0.735085 0.304923 0.009300
Si Si2 0.196238 0.374425 0.748618
Si Si3 0.883454 0.472638 0.850425
Si Si4 0.809667 0.886982 0.245827
Si Si5 0.737435 0.516455 0.617263
Si Si6 0.383830 0.244657 0.745679
Si Si7 0.118110 0.920349 0.572273
Si Si8 0.386535 0.143303 0.915613
O O1 0.673904 0.336668 0.146575
O O2 0.804805 0.262441 0.093380
O O3 0.808438 0.341530 0.908371
O O4 0.656634 0.282756 0.877977
O O5 0.118257 0.419048 0.775711
O O6 0.314171 0.392361 0.707428
O O7 0.152536 0.345362 0.595953
O O8 0.781502 0.501785 0.790113
O O9 0.000000 0.494342 0.827981
O O10 0.850700 0.473588 0.035852
O O11 0.827383 0.933108 0.128150
O O12 0.884454 0.891049 0.401777
O O13 0.691879 0.891025 0.317791
O O14 0.663067 0.474594 0.544235
O O15 0.500000 0.261499 0.686514
O O16 0.394333 0.193971 0.830042
O O17 0.000000 0.923471 0.637272
O O18 0.500000 0.117738 0.917086
#
# Coordination Sequence:
#
# PCOD8175788 Si02
#       8
#     8   8   8   8   8   8   8   8
#     4  11  22  42  66  90 130 163 198 270 311 374
#     4  10  21  38  61  90 123 156 209 253 309 370
#     4  11  22  35  57  86 123 162 199 251 312 372
#     4  10  21  39  60  86 120 164 211 259 305 367
#     4  11  21  40  54  87 125 161 212 255 306 367
#     4  10  23  41  64  95 124 162 206 250 323 388
#     4  10  23  42  62  83 120 169 218 263 304 354
#     4   9  19  37  60  87 121 157 197 251 312 378
#
# _framework density 21.822237000000001
#
# number of rings (size 3 to 8) (size 9 to 14) (size 15 to 20)
#    0.000    1.750    2.500    1.500    0.000    3.500 
#    0.000    0.625    0.000    0.000    0.000    0.000 
#    0.000    0.000    0.000    0.000    0.000    0.000 
#
# Total GULP energy -396479.242409 kJ/mol
# GULP energy per Si atom -12389.976325 kJ/mol
# Density = 2.177257 g / cm^3
# Si number density = 21.822237 Si / 1000 Ang^3
#
#
#
# Elastic Constant Matrix: (Units=GPa)
#
#
# Indices 1 2 3 4 5 6 
#
# 1 107.5220 22.7227 18.1403 0.0000 0.0000 0.0000
# 2 22.7227 52.7588 24.2044 0.0000 0.0000 0.0000
# 3 18.1403 24.2044 77.4430 0.0000 0.0000 0.0000
# 4 0.0000 0.0000 0.0000 32.2727 0.0000 0.0000
# 5 0.0000 0.0000 0.0000 0.0000 17.7729 0.0000
# 6 0.0000 0.0000 0.0000 0.0000 0.0000 20.8839
#
#
#
# Elastic Compliance Matrix: (Units=1/GPa)
#
#
# Indices 1 2 3 4 5 6 
#
# 1 0.010327 -0.003897 -0.001201 0.000000 0.000000 0.000000
# 2 -0.003897 0.023597 -0.006462 0.000000 0.000000 0.000000
# 3 -0.001201 -0.006462 0.015214 0.000000 0.000000 0.000000
# 4 0.000000 0.000000 0.000000 0.030986 0.000000 0.000000
# 5 0.000000 0.000000 0.000000 0.000000 0.056265 0.000000
# 6 0.000000 0.000000 0.000000 0.000000 0.000000 0.047884
#
#
# Mechanical properties :
#
#
# Convention : Reuss Voigt Hill
#
# Bulk Modulus (GPa) = 38.43564 40.87318 39.65441
# Shear Modulus (GPa) = 23.14114 25.69631 24.41873
#
# Velocity S-wave (km/s) = 3.25997 3.43524 3.34875
# Velocity P-wave (km/s) = 5.64103 5.87411 5.75875
#
# Compressibility (1/GPa) = 0.02601752
#
# Stress axis : x y z
#
# Youngs Moduli (GPa) = 96.83812 42.37790 65.72949
#
# Poissons Ratio (x) = 0.16513 0.07894
# Poissons Ratio (y) = 0.37733 0.42477
# Poissons Ratio (z) = 0.11631 0.27387
#
# Static dielectric constant tensor:
#      x y z
#    x 4.533150 0.000000 0.000000 
#    y 0.000000 3.940740 0.000000 
#    z 0.000000 0.000000 3.999560 
# 
# 
# High freq. dielectric constant tensor:
#      x y z
#    x 1.835300 0.000000 0.000000 
#    y 0.000000 1.849360 0.000000 
#    z 0.000000 0.000000 1.865880 
# 
# From -- ./inp_files/3589.got.cif
#   From: 2010.03.12/outbox.cif.g09.slc.cpg/sg36_2_cif.got.tgz:3589.got - 2010.04.14 02:13:53.
