data_PCOD8175949
_publ_section_title
;
Structure prediction by ZEFSAII (Michael W. Deem and Ramdas Pophale) SiO2 
 PCOD8175949
Probable space group: C M C 21
;
_chemical_formula_sum "Si O2"
_cell_formula_units_Z 40
_cell_length_a 7.650683
_cell_length_b 28.758811
_cell_length_c 8.611221
_cell_angle_alpha 90.000000
_cell_angle_beta 90.000000
_cell_angle_gamma 90.000000
_cell_volume 1894.679995
_symmetry_space_group_name_H-M "C M C 21"
_symmetry_group_IT_number 36
_symmetry_cell_setting 'orthorhombic'
loop_
_space_group_symop_operation_xyz
x,y,z
-x,-y,1/2+z
x,-y,1/2+z
-x,y,z
1/2+x,1/2+y,z
1/2-x,1/2-y,1/2+z
1/2+x,1/2-y,1/2+z
1/2-x,1/2+y,z
loop_
_atom_site_type_symbol
_atom_site_label
_atom_site_fract_x
_atom_site_fract_y
_atom_site_fract_z
Si Si1 0.000000 0.041716 0.628260
Si Si2 0.195517 0.601446 0.486644
Si Si3 0.197370 0.194271 0.627494
Si Si4 0.798385 0.618451 0.132394
Si Si5 0.500000 0.558490 0.990918
Si Si6 0.297089 0.787354 0.467905
O O1 0.173867 0.064347 0.558825
O O2 0.000000 0.046832 0.811279
O O3 0.000000 0.987526 0.593462
O O4 0.190821 0.649345 0.582983
O O5 0.253150 0.611700 0.311028
O O6 0.000000 0.580356 0.492996
O O7 0.194107 0.201754 0.811552
O O8 0.275319 0.239698 0.542415
O O9 0.000000 0.184839 0.572753
O O10 0.000000 0.604804 0.099320
O O11 0.675800 0.586807 0.026184
O O12 0.763351 0.672197 0.092802
O O13 0.500000 0.782936 0.426962
#
# Coordination Sequence:
#
# PCOD8175949 Si02
#       6
#     4   8   8   8   4   8
#     4  12  26  46  68 102 128 170 222 266 337 390
#     4  11  23  43  68  94 133 172 214 271 326 390
#     4  11  22  37  59  91 129 172 222 268 320 384
#     4  10  23  43  66  95 130 172 216 266 330 389
#     4  12  26  44  72  96 132 168 216 280 321 396
#     4  10  22  38  57  88 129 172 221 267 321 388
#
# _framework density 21.111742
#
# number of rings (size 3 to 8) (size 9 to 14) (size 15 to 20)
#    0.000    1.200    1.000    4.800    1.400    6.400 
#    0.000    0.000    0.000    0.000    0.000    0.000 
#    0.000    0.000    0.000    0.000    0.000    0.000 
#
# Total GULP energy -248118.705516 kJ/mol
# GULP energy per Si atom -12405.935276 kJ/mol
# Density = 2.106369 g / cm^3
# Si number density = 21.111742 Si / 1000 Ang^3
#
#
#
# Elastic Constant Matrix: (Units=GPa)
#
#
# Indices 1 2 3 4 5 6 
#
# 1 87.7713 30.2365 14.5974 0.0000 0.0000 0.0000
# 2 30.2365 80.6635 -14.7970 0.0000 0.0000 0.0000
# 3 14.5974 -14.7970 80.9562 0.0000 0.0000 0.0000
# 4 0.0000 0.0000 0.0000 42.0033 0.0000 0.0000
# 5 0.0000 0.0000 0.0000 0.0000 25.8594 0.0000
# 6 0.0000 0.0000 0.0000 0.0000 0.0000 -20.8338
#
#
#
# Elastic Compliance Matrix: (Units=1/GPa)
#
#
# Indices 1 2 3 4 5 6 
#
# 1 0.014035 -0.005924 -0.003613 0.000000 0.000000 0.000000
# 2 -0.005924 0.015328 0.003870 0.000000 0.000000 0.000000
# 3 -0.003613 0.003870 0.013711 0.000000 0.000000 0.000000
# 4 0.000000 0.000000 0.000000 0.023808 0.000000 0.000000
# 5 0.000000 0.000000 0.000000 0.000000 0.038671 0.000000
# 6 0.000000 0.000000 0.000000 0.000000 0.000000 -0.047999
#
#
# Mechanical properties :
#
#
# Convention : Reuss Voigt Hill
#
# Bulk Modulus (GPa) = 31.50739 34.38498 32.94618
# Shear Modulus (GPa) = 62.91863 24.02938 43.47400
#
# Velocity S-wave (km/s) = 5.46510 3.37738 4.54280
# Velocity P-wave (km/s) = 7.40133 5.61529 6.56929
#
# Compressibility (1/GPa) = 0.03173859
#
# Stress axis : x y z
#
# Youngs Moduli (GPa) = 71.25095 65.24200 72.93313
#
# Poissons Ratio (x) = 0.38648 0.26354
# Poissons Ratio (y) = 0.42208 -0.28223
# Poissons Ratio (z) = 0.25746 -0.25246
#
# Static dielectric constant tensor:
#      x y z
#    x 3.959620 0.000000 0.000000 
#    y 0.000000 3.842550 0.000000 
#    z 0.000000 0.000000 3.830720 
# 
# 
# High freq. dielectric constant tensor:
#      x y z
#    x 1.835120 0.000000 0.000000 
#    y 0.000000 1.825230 0.000000 
#    z 0.000000 0.000000 1.839230 
# 
# From -- ./inp_files/2537.got.cif
#   From: 2010.03.12/outbox.cif.g09.slc.cpg/sg36_2_cif.got.tgz:2537.got - 2010.04.14 02:13:53.
