data_PCOD8175163
_publ_section_title
;
Structure prediction by ZEFSAII (Michael W. Deem and Ramdas Pophale) SiO2 
 PCOD8175163
Probable space group: C M C 21
;
_chemical_formula_sum "Si O2"
_cell_formula_units_Z 64
_cell_length_a 8.938176
_cell_length_b 19.900804
_cell_length_c 19.512199
_cell_angle_alpha 90.000000
_cell_angle_beta 90.000000
_cell_angle_gamma 90.000000
_cell_volume 3470.769250
_symmetry_space_group_name_H-M "C M C 21"
_symmetry_group_IT_number 36
_symmetry_cell_setting 'orthorhombic'
loop_
_space_group_symop_operation_xyz
x,y,z
-x,-y,1/2+z
x,-y,1/2+z
-x,y,z
1/2+x,1/2+y,z
1/2-x,1/2-y,1/2+z
1/2+x,1/2-y,1/2+z
1/2-x,1/2+y,z
loop_
_atom_site_type_symbol
_atom_site_label
_atom_site_fract_x
_atom_site_fract_y
_atom_site_fract_z
Si Si1 0.326932 0.670415 0.688220
Si Si2 0.672036 0.671232 0.528162
Si Si3 0.171513 0.040797 0.450097
Si Si4 0.174999 0.772036 0.787870
Si Si5 0.323483 0.727929 0.928433
Si Si6 0.826604 0.409349 0.418936
Si Si7 0.329315 0.576136 0.296292
Si Si8 0.173210 0.446028 0.262762
O O1 0.500000 0.675942 0.708795
O O2 0.301602 0.680442 0.608146
O O3 0.234586 0.728392 0.725376
O O4 0.267309 0.597314 0.709190
O O5 0.500000 0.685053 0.506913
O O6 0.714978 0.594975 0.507801
O O7 0.778198 0.723123 0.489743
O O8 0.203152 0.075708 0.377230
O O9 0.000000 0.017718 0.456354
O O10 0.273881 0.975297 0.460048
O O11 0.255535 0.752736 0.857531
O O12 0.206641 0.849502 0.768983
O O13 0.000000 0.757890 0.798446
O O14 0.500000 0.726263 0.921267
O O15 0.264758 0.653898 0.946866
O O16 0.793155 0.417979 0.338431
O O17 0.000000 0.397571 0.433655
O O18 0.500000 0.555778 0.281216
O O19 0.223849 0.523479 0.256977
O O20 0.000000 0.440992 0.243879
#
# Coordination Sequence:
#
# PCOD8175163 Si02
#       8
#     8   8   8   8   8   8   8   8
#     4  11  23  38  59  85 116 155 196 236 285 348
#     4  10  22  41  60  82 117 156 191 235 294 350
#     4   9  17  34  57  81 110 145 186 231 282 341
#     4  11  21  37  59  85 118 154 192 239 292 341
#     4  12  23  35  58  88 116 150 195 242 285 344
#     4  10  20  34  55  84 116 146 183 236 288 332
#     4   9  18  33  57  83 110 143 185 234 282 337
#     4  10  20  34  55  82 115 149 184 233 284 335
#
# _framework density 18.439715
#
# number of rings (size 3 to 8) (size 9 to 14) (size 15 to 20)
#    0.000    1.750    2.500    2.625    0.000    3.500 
#    0.000    1.250    0.000    1.500    0.000    0.000 
#    0.000    0.000    0.000    0.000    0.000    0.000 
#
# Total GULP energy -396946.280837 kJ/mol
# GULP energy per Si atom -12404.571276 kJ/mol
# Density = 1.839775 g / cm^3
# Si number density = 18.439715 Si / 1000 Ang^3
#
#
#
# Elastic Constant Matrix: (Units=GPa)
#
#
# Indices 1 2 3 4 5 6 
#
# 1 123.5441 77.4723 48.4193 0.0000 0.0000 0.0000
# 2 77.4723 134.9745 50.0874 0.0000 0.0000 0.0000
# 3 48.4193 50.0874 69.4451 0.0000 0.0000 0.0000
# 4 0.0000 0.0000 0.0000 27.1775 0.0000 0.0000
# 5 0.0000 0.0000 0.0000 0.0000 25.0921 0.0000
# 6 0.0000 0.0000 0.0000 0.0000 0.0000 38.3963
#
#
#
# Elastic Compliance Matrix: (Units=1/GPa)
#
#
# Indices 1 2 3 4 5 6 
#
# 1 0.013992 -0.006023 -0.005412 0.000000 0.000000 0.000000
# 2 -0.006023 0.012709 -0.004967 0.000000 0.000000 0.000000
# 3 -0.005412 -0.004967 0.021756 0.000000 0.000000 0.000000
# 4 0.000000 0.000000 0.000000 0.036795 0.000000 0.000000
# 5 0.000000 0.000000 0.000000 0.000000 0.039853 0.000000
# 6 0.000000 0.000000 0.000000 0.000000 0.000000 0.026044
#
#
# Mechanical properties :
#
#
# Convention : Reuss Voigt Hill
#
# Bulk Modulus (GPa) = 63.88397 75.54685 69.71541
# Shear Modulus (GPa) = 26.43120 28.26548 27.34834
#
# Velocity S-wave (km/s) = 3.79011 3.91942 3.85531
# Velocity P-wave (km/s) = 7.33984 7.84481 7.59652
#
# Compressibility (1/GPa) = 0.01565338
#
# Stress axis : x y z
#
# Youngs Moduli (GPa) = 71.46885 78.68405 45.96529
#
# Poissons Ratio (x) = 0.47391 0.24875
# Poissons Ratio (y) = 0.43045 0.22831
# Poissons Ratio (z) = 0.38677 0.39083
#
# Static dielectric constant tensor:
#      x y z
#    x 3.466630 0.000000 0.000000 
#    y 0.000000 3.577010 0.000000 
#    z 0.000000 0.000000 3.165490 
# 
# 
# High freq. dielectric constant tensor:
#      x y z
#    x 1.723200 0.000000 0.000000 
#    y 0.000000 1.729880 0.000000 
#    z 0.000000 0.000000 1.684530 
# 
# From -- ./inp_files/15592.got.cif
#   From: 2010.03.12/outbox.cif.g09.slc.cpg/sg36_8_cif.got.tgz:15592.got - 2010.04.14 02:13:53.
