data_PCOD8175590
_publ_section_title
;
Structure prediction by ZEFSAII (Michael W. Deem and Ramdas Pophale) SiO2 
 PCOD8175590
Probable space group: C M C 21
;
_chemical_formula_sum "Si O2"
_cell_formula_units_Z 64
_cell_length_a 8.950197
_cell_length_b 30.164764
_cell_length_c 11.920624
_cell_angle_alpha 90.000000
_cell_angle_beta 90.000000
_cell_angle_gamma 90.000000
_cell_volume 3218.336985
_symmetry_space_group_name_H-M "C M C 21"
_symmetry_group_IT_number 36
_symmetry_cell_setting 'orthorhombic'
loop_
_space_group_symop_operation_xyz
x,y,z
-x,-y,1/2+z
x,-y,1/2+z
-x,y,z
1/2+x,1/2+y,z
1/2-x,1/2-y,1/2+z
1/2+x,1/2-y,1/2+z
1/2-x,1/2+y,z
loop_
_atom_site_type_symbol
_atom_site_label
_atom_site_fract_x
_atom_site_fract_y
_atom_site_fract_z
Si Si1 0.332586 0.824400 0.945670
Si Si2 0.174471 0.947892 0.179922
Si Si3 0.324582 0.960378 0.728089
Si Si4 0.172303 0.798260 0.733297
Si Si5 0.677691 0.874563 0.592537
Si Si6 0.677074 0.628128 0.849833
Si Si7 0.827155 0.696582 0.693430
Si Si8 0.667027 0.075581 0.461091
O O1 0.500000 0.804129 0.936844
O O2 0.222387 0.798704 0.862941
O O3 0.334464 0.875459 0.908734
O O4 0.273500 0.820917 0.072563
O O5 0.228350 0.914728 0.277786
O O6 0.000000 0.955256 0.187250
O O7 0.251222 0.995194 0.184540
O O8 0.215185 0.926854 0.060650
O O9 0.500000 0.964186 0.711483
O O10 0.264963 0.918510 0.656853
O O11 0.282972 0.956008 0.859283
O O12 0.269810 0.830914 0.657784
O O13 0.200170 0.748820 0.691063
O O14 0.000000 0.812224 0.724029
O O15 0.500000 0.873095 0.584213
O O16 0.746181 0.875355 0.469420
O O17 0.500000 0.630036 0.864775
O O18 0.729154 0.672999 0.788522
O O19 0.000000 0.684607 0.715709
O O20 0.500000 0.063276 0.504362
#
# Coordination Sequence:
#
# PCOD8175590 Si02
#       8
#     8   8   8   8   8   8   8   8
#     4  10  20  40  66  89 120 162 209 257 304 360
#     4  11  25  41  61  93 127 159 199 251 316 369
#     4  10  23  42  64  91 120 161 212 252 298 365
#     4  11  24  40  62  96 129 161 205 255 314 367
#     4  11  24  44  66  90 123 166 212 254 305 368
#     4  11  25  43  62  91 128 165 206 255 313 368
#     4  10  23  42  64  92 125 166 210 252 303 366
#     4  10  20  40  67  90 116 156 209 256 299 359
#
# _framework density 19.886047000000001
#
# number of rings (size 3 to 8) (size 9 to 14) (size 15 to 20)
#    0.000    1.500    2.500    1.500    3.500    5.000 
#    0.000    0.000    0.000    0.000    0.000    0.000 
#    0.000    0.000    0.000    0.000    0.000    0.000 
#
# Total GULP energy -396924.848155 kJ/mol
# GULP energy per Si atom -12403.901505 kJ/mol
# Density = 1.984079 g / cm^3
# Si number density = 19.886047 Si / 1000 Ang^3
#
#
#
# Elastic Constant Matrix: (Units=GPa)
#
#
# Indices 1 2 3 4 5 6 
#
# 1 63.9036 42.4192 49.3994 0.0000 0.0000 0.0000
# 2 42.4192 100.6040 43.2883 0.0000 0.0000 0.0000
# 3 49.3994 43.2883 116.4070 0.0000 0.0000 0.0000
# 4 0.0000 0.0000 0.0000 26.3835 0.0000 0.0000
# 5 0.0000 0.0000 0.0000 0.0000 34.4551 0.0000
# 6 0.0000 0.0000 0.0000 0.0000 0.0000 31.8112
#
#
#
# Elastic Compliance Matrix: (Units=1/GPa)
#
#
# Indices 1 2 3 4 5 6 
#
# 1 0.027704 -0.007884 -0.008825 0.000000 0.000000 0.000000
# 2 -0.007884 0.014077 -0.001889 0.000000 0.000000 0.000000
# 3 -0.008825 -0.001889 0.013038 0.000000 0.000000 0.000000
# 4 0.000000 0.000000 0.000000 0.037902 0.000000 0.000000
# 5 0.000000 0.000000 0.000000 0.000000 0.029023 0.000000
# 6 0.000000 0.000000 0.000000 0.000000 0.000000 0.031435
#
#
# Mechanical properties :
#
#
# Convention : Reuss Voigt Hill
#
# Bulk Modulus (GPa) = 56.74386 61.23650 58.99018
# Shear Modulus (GPa) = 25.47768 28.25048 26.86408
#
# Velocity S-wave (km/s) = 3.58325 3.77320 3.67945
# Velocity P-wave (km/s) = 6.76136 7.05998 6.91228
#
# Compressibility (1/GPa) = 0.01762305
#
# Stress axis : x y z
#
# Youngs Moduli (GPa) = 36.09616 71.03738 76.69891
#
# Poissons Ratio (x) = 0.56006 0.67685
# Poissons Ratio (y) = 0.28458 0.14489
# Poissons Ratio (z) = 0.31854 0.13420
#
# Static dielectric constant tensor:
#      x y z
#    x 3.617320 0.000000 0.000000 
#    y 0.000000 3.691750 0.000000 
#    z 0.000000 0.000000 3.684100 
# 
# 
# High freq. dielectric constant tensor:
#      x y z
#    x 1.771610 0.000000 0.000000 
#    y 0.000000 1.781830 0.000000 
#    z 0.000000 0.000000 1.787570 
# 
# From -- ./inp_files/7161.got.cif
#   From: 2010.03.12/outbox.cif.g09.slc.cpg/sg36_4_cif.got.tgz:7161.got - 2010.04.14 02:13:53.
