data_PCOD8175770
_publ_section_title
;
Structure prediction by ZEFSAII (Michael W. Deem and Ramdas Pophale) SiO2 
 PCOD8175770
Probable space group: C M C 21
;
_chemical_formula_sum "Si O2"
_cell_formula_units_Z 64
_cell_length_a 14.381186
_cell_length_b 24.162316
_cell_length_c 9.000818
_cell_angle_alpha 90.000000
_cell_angle_beta 90.000000
_cell_angle_gamma 90.000000
_cell_volume 3127.629086
_symmetry_space_group_name_H-M "C M C 21"
_symmetry_group_IT_number 36
_symmetry_cell_setting 'orthorhombic'
loop_
_space_group_symop_operation_xyz
x,y,z
-x,-y,1/2+z
x,-y,1/2+z
-x,y,z
1/2+x,1/2+y,z
1/2-x,1/2-y,1/2+z
1/2+x,1/2-y,1/2+z
1/2-x,1/2+y,z
loop_
_atom_site_type_symbol
_atom_site_label
_atom_site_fract_x
_atom_site_fract_y
_atom_site_fract_z
Si Si1 0.606540 0.844191 0.866450
Si Si2 0.608926 0.375310 0.712086
Si Si3 0.391074 0.624690 0.866394
Si Si4 0.610580 0.735174 0.706658
Si Si5 0.393460 0.155809 0.712029
Si Si6 0.110580 0.764826 0.871821
Si Si7 0.758537 0.443271 0.864012
Si Si8 0.241463 0.443271 0.214467
O O1 0.500000 0.855419 0.820640
O O2 0.649061 0.791446 0.779925
O O3 0.663961 0.898207 0.821761
O O4 0.615077 0.830343 0.039240
O O5 0.500000 0.383198 0.740599
O O6 0.633795 0.376377 0.539240
O O7 0.645977 0.317601 0.779713
O O8 0.659721 0.425425 0.795648
O O9 0.500000 0.616802 0.837881
O O10 0.354023 0.682399 0.798766
O O11 0.340279 0.574575 0.782831
O O12 0.500000 0.737026 0.710763
O O13 0.648624 0.729963 0.539240
O O14 0.500000 0.144581 0.757839
O O15 0.350939 0.208554 0.798554
O O16 0.336039 0.101793 0.756718
O O17 0.000000 0.762974 0.867716
O O18 0.791500 0.500000 0.789240
O O19 0.747818 0.451259 0.039240
#
# Coordination Sequence:
#
# PCOD8175770 Si02
#       8
#     8   8   8   8   8   8   8   8
#     4   9  19  37  59  83 113 148 184 224 273 328
#     4  10  21  38  60  84 112 147 184 226 277 330
#     4  10  21  38  60  84 112 147 184 226 277 330
#     4   9  17  31  55  87 117 144 179 224 274 329
#     4   9  19  37  59  83 113 148 184 224 273 328
#     4   9  17  31  55  87 117 144 179 224 274 329
#     4  11  24  40  58  81 110 146 189 234 276 324
#     4  11  24  40  58  81 110 146 189 234 276 324
#
# _framework density 20.462785
#
# number of rings (size 3 to 8) (size 9 to 14) (size 15 to 20)
#    0.000    2.250    0.000    2.250    0.000    8.500 
#    0.000    0.000    0.000    0.000    0.000    0.000 
#    0.000    0.000    0.000    0.000    0.000    0.000 
#
# Total GULP energy -396945.178252 kJ/mol
# GULP energy per Si atom -12404.536820 kJ/mol
# Density = 2.041621 g / cm^3
# Si number density = 20.462785 Si / 1000 Ang^3
#
#
#
# Elastic Constant Matrix: (Units=GPa)
#
#
# Indices 1 2 3 4 5 6 
#
# 1 41.2025 17.8101 19.6918 0.0000 0.0000 0.0000
# 2 17.8101 108.0368 35.2131 0.0000 0.0000 0.0000
# 3 19.6918 35.2131 90.2921 0.0000 0.0000 0.0000
# 4 0.0000 0.0000 0.0000 45.0427 0.0000 0.0000
# 5 0.0000 0.0000 0.0000 0.0000 23.2896 0.0000
# 6 0.0000 0.0000 0.0000 0.0000 0.0000 33.0519
#
#
#
# Elastic Compliance Matrix: (Units=1/GPa)
#
#
# Indices 1 2 3 4 5 6 
#
# 1 0.027918 -0.002999 -0.004919 0.000000 0.000000 0.000000
# 2 -0.002999 0.010926 -0.003607 0.000000 0.000000 0.000000
# 3 -0.004919 -0.003607 0.013555 0.000000 0.000000 0.000000
# 4 0.000000 0.000000 0.000000 0.022201 0.000000 0.000000
# 5 0.000000 0.000000 0.000000 0.000000 0.042938 0.000000
# 6 0.000000 0.000000 0.000000 0.000000 0.000000 0.030255
#
#
# Mechanical properties :
#
#
# Convention : Reuss Voigt Hill
#
# Bulk Modulus (GPa) = 34.07341 42.77348 38.42344
# Shear Modulus (GPa) = 27.68158 31.39794 29.53976
#
# Velocity S-wave (km/s) = 3.68200 3.92138 3.80358
# Velocity P-wave (km/s) = 5.89608 6.43828 6.17313
#
# Compressibility (1/GPa) = 0.02934840
#
# Stress axis : x y z
#
# Youngs Moduli (GPa) = 35.81969 91.52338 73.77531
#
# Poissons Ratio (x) = 0.27448 0.36290
# Poissons Ratio (y) = 0.10742 0.26611
# Poissons Ratio (z) = 0.17620 0.33013
#
# Static dielectric constant tensor:
#      x y z
#    x 3.617640 0.000000 0.000000 
#    y 0.000000 3.736770 0.000000 
#    z 0.000000 0.000000 3.777250 
# 
# 
# High freq. dielectric constant tensor:
#      x y z
#    x 1.795000 0.000000 0.000000 
#    y 0.000000 1.799960 0.000000 
#    z 0.000000 0.000000 1.806720 
# 
# From -- ./inp_files/4322.got.cif
#   From: 2010.03.12/outbox.cif.g09.slc.cpg/sg36_3_cif.got.tgz:4322.got - 2010.04.14 02:13:53.
