data_PCOD8175893
_publ_section_title
;
Structure prediction by ZEFSAII (Michael W. Deem and Ramdas Pophale) SiO2 
 PCOD8175893
Probable space group: C M C 21
;
_chemical_formula_sum "Si O2"
_cell_formula_units_Z 64
_cell_length_a 14.488120
_cell_length_b 12.340978
_cell_length_c 16.751392
_cell_angle_alpha 90.000000
_cell_angle_beta 90.000000
_cell_angle_gamma 90.000000
_cell_volume 2995.108187
_symmetry_space_group_name_H-M "C M C 21"
_symmetry_group_IT_number 36
_symmetry_cell_setting 'orthorhombic'
loop_
_space_group_symop_operation_xyz
x,y,z
-x,-y,1/2+z
x,-y,1/2+z
-x,y,z
1/2+x,1/2+y,z
1/2-x,1/2-y,1/2+z
1/2+x,1/2-y,1/2+z
1/2-x,1/2+y,z
loop_
_atom_site_type_symbol
_atom_site_label
_atom_site_fract_x
_atom_site_fract_y
_atom_site_fract_z
Si Si1 0.399426 0.572302 0.608430
Si Si2 0.397221 0.278079 0.965144
Si Si3 0.891958 0.610383 0.363960
Si Si4 0.828338 0.239816 0.726728
Si Si5 0.399704 0.617656 0.298948
Si Si6 0.824608 0.853843 0.639921
Si Si7 0.198705 0.788819 0.471080
Si Si8 0.740931 0.437263 0.336266
O O1 0.500000 0.517054 0.617792
O O2 0.388888 0.613855 0.517972
O O3 0.396026 0.667937 0.673367
O O4 0.321804 0.483339 0.625718
O O5 0.500000 0.225278 0.978625
O O6 0.381866 0.301263 0.871509
O O7 0.309678 0.205395 0.987568
O O8 0.887384 0.683062 0.284433
O O9 0.839450 0.677075 0.433761
O O10 0.840650 0.493233 0.353938
O O11 0.000000 0.589756 0.384722
O O12 0.776775 0.316563 0.664285
O O13 0.754113 0.165439 0.775854
O O14 0.500000 0.563506 0.308823
O O15 0.393429 0.678272 0.212954
O O16 0.322037 0.527046 0.295117
O O17 0.854091 0.800094 0.555548
O O18 0.185502 0.893755 0.414476
#
# Coordination Sequence:
#
# PCOD8175893 Si02
#       8
#     8   8   8   8   8   8   8   8
#     4  11  22  38  63  95 127 164 213 266 321 376
#     4  10  21  40  65  93 124 167 217 262 313 382
#     4  11  24  43  65  94 130 167 216 264 317 384
#     4  11  21  40  66  94 125 171 211 260 322 381
#     4  11  21  38  63  91 125 162 209 264 317 374
#     4  12  23  38  64  97 133 164 208 269 325 374
#     4  11  24  40  67  93 132 173 214 260 324 384
#     4  11  22  41  66  91 128 172 213 257 324 379
#
# _framework density 21.368175999999998
#
# number of rings (size 3 to 8) (size 9 to 14) (size 15 to 20)
#    0.000    1.000    5.000    2.250    0.000    3.500 
#    0.000    1.250    0.000    1.500    0.000    0.000 
#    0.000    0.000    0.000    0.000    0.000    0.000 
#
# Total GULP energy -396471.209127 kJ/mol
# GULP energy per Si atom -12389.725285 kJ/mol
# Density = 2.131954 g / cm^3
# Si number density = 21.368176 Si / 1000 Ang^3
#
#
#
# Elastic Constant Matrix: (Units=GPa)
#
#
# Indices 1 2 3 4 5 6 
#
# 1 101.0864 25.1619 19.9797 0.0000 0.0000 0.0000
# 2 25.1619 52.9946 24.5465 0.0000 0.0000 0.0000
# 3 19.9797 24.5465 143.2823 0.0000 0.0000 0.0000
# 4 0.0000 0.0000 0.0000 27.0726 0.0000 0.0000
# 5 0.0000 0.0000 0.0000 0.0000 22.5351 0.0000
# 6 0.0000 0.0000 0.0000 0.0000 0.0000 17.4554
#
#
#
# Elastic Compliance Matrix: (Units=1/GPa)
#
#
# Indices 1 2 3 4 5 6 
#
# 1 0.011285 -0.005028 -0.000712 0.000000 0.000000 0.000000
# 2 -0.005028 0.022737 -0.003194 0.000000 0.000000 0.000000
# 3 -0.000712 -0.003194 0.007626 0.000000 0.000000 0.000000
# 4 0.000000 0.000000 0.000000 0.036938 0.000000 0.000000
# 5 0.000000 0.000000 0.000000 0.000000 0.044375 0.000000
# 6 0.000000 0.000000 0.000000 0.000000 0.000000 0.057289
#
#
# Mechanical properties :
#
#
# Convention : Reuss Voigt Hill
#
# Bulk Modulus (GPa) = 42.05482 48.52662 45.29072
# Shear Modulus (GPa) = 24.26665 28.59095 26.42880
#
# Velocity S-wave (km/s) = 3.37359 3.66186 3.52067
# Velocity P-wave (km/s) = 5.90750 6.37479 6.14559
#
# Compressibility (1/GPa) = 0.02377849
#
# Stress axis : x y z
#
# Youngs Moduli (GPa) = 88.61414 43.98184 131.13510
#
# Poissons Ratio (x) = 0.22115 0.09339
# Poissons Ratio (y) = 0.44557 0.41885
# Poissons Ratio (z) = 0.06311 0.14048
#
# Static dielectric constant tensor:
#      x y z
#    x 3.809170 0.000000 0.000000 
#    y 0.000000 3.651520 0.000000 
#    z 0.000000 0.000000 4.295170 
# 
# 
# High freq. dielectric constant tensor:
#      x y z
#    x 1.824150 0.000000 0.000000 
#    y 0.000000 1.812270 0.000000 
#    z 0.000000 0.000000 1.862300 
# 
# From -- ./inp_files/14705.got.cif
#   From: 2010.03.12/outbox.cif.g09.slc.cpg/sg36_8_cif.got.tgz:14705.got - 2010.04.14 02:13:53.
