data_PCOD8176967
_publ_section_title
;
Structure prediction by ZEFSAII (Michael W. Deem and Ramdas Pophale) SiO2 
 PCOD8176967
Probable space group: C C C 2
;
_chemical_formula_sum "Si O2"
_cell_formula_units_Z 56
_cell_length_a 12.940859
_cell_length_b 15.376104
_cell_length_c 12.285769
_cell_angle_alpha 90.000000
_cell_angle_beta 90.000000
_cell_angle_gamma 90.000000
_cell_volume 2444.622240
_symmetry_space_group_name_H-M "C C C 2"
_symmetry_group_IT_number 37
_symmetry_cell_setting 'orthorhombic'
loop_
_space_group_symop_operation_xyz
x,y,z
-x,-y,z
-x,y,1/2+z
x,-y,1/2+z
1/2+x,1/2+y,z
1/2-x,1/2-y,z
1/2-x,1/2+y,1/2+z
1/2+x,1/2-y,1/2+z
loop_
_atom_site_type_symbol
_atom_site_label
_atom_site_fract_x
_atom_site_fract_y
_atom_site_fract_z
Si Si1 0.099456 0.039099 0.838830
Si Si2 0.189773 0.156047 0.023566
Si Si3 0.140012 0.284719 0.542383
Si Si4 0.567810 0.810067 0.317592
Si Si5 0.081725 0.432548 0.687876
Si Si6 0.735610 0.928254 0.235780
Si Si7 0.503333 0.334480 0.172883
O O1 0.052846 0.081277 0.728468
O O2 0.158386 0.952468 0.795914
O O3 0.172416 0.104907 0.908580
O O4 0.000000 0.000000 0.905633
O O5 0.250000 0.250000 0.005912
O O6 0.255497 0.097661 0.108043
O O7 0.074051 0.157700 0.071195
O O8 0.250000 0.250000 0.500497
O O9 0.056753 0.292150 0.445395
O O10 0.142498 0.380349 0.595017
O O11 0.102267 0.218723 0.633654
O O12 0.476606 0.871970 0.275126
O O13 0.681681 0.848681 0.297337
O O14 0.563344 0.716904 0.261732
O O15 0.167502 0.485733 0.752141
O O16 0.000000 0.500000 0.633679
#
# Coordination Sequence:
#
# PCOD8176967 Si02
#       7
#     8   8   8   8   8   8   8
#     4  12  28  44  73 107 145 188 237 301 360 418
#     4  12  27  47  74 101 143 194 241 284 362 437
#     4  11  24  39  73 101 134 184 238 285 349 430
#     4  10  23  43  70  99 137 184 232 291 357 420
#     4   9  22  44  65  98 138 176 230 299 354 408
#     4  11  24  45  70 101 141 180 235 299 351 418
#     4  11  24  48  66 101 146 184 234 289 354 429
#
# _framework density 22.907425
#
# number of rings (size 3 to 8) (size 9 to 14) (size 15 to 20)
#    0.000    1.143    2.857    1.714    6.000    6.857 
#    0.000    0.000    0.000    0.000    0.000    0.000 
#    0.000    0.000    0.000    0.000    0.000    0.000 
#
# Total GULP energy -346989.468291 kJ/mol
# GULP energy per Si atom -12392.481010 kJ/mol
# Density = 2.285529 g / cm^3
# Si number density = 22.907425 Si / 1000 Ang^3
#
#
#
# Elastic Constant Matrix: (Units=GPa)
#
#
# Indices 1 2 3 4 5 6 
#
# 1 92.0475 37.1691 26.1058 0.0000 0.0000 0.0000
# 2 37.1691 101.1637 35.3668 0.0000 0.0000 0.0000
# 3 26.1058 35.3668 91.0032 0.0000 0.0000 0.0000
# 4 0.0000 0.0000 0.0000 30.5452 0.0000 0.0000
# 5 0.0000 0.0000 0.0000 0.0000 22.2108 0.0000
# 6 0.0000 0.0000 0.0000 0.0000 0.0000 33.7538
#
#
#
# Elastic Compliance Matrix: (Units=1/GPa)
#
#
# Indices 1 2 3 4 5 6 
#
# 1 0.013123 -0.004057 -0.002188 0.000000 0.000000 0.000000
# 2 -0.004057 0.012693 -0.003769 0.000000 0.000000 0.000000
# 3 -0.002188 -0.003769 0.013081 0.000000 0.000000 0.000000
# 4 0.000000 0.000000 0.000000 0.032738 0.000000 0.000000
# 5 0.000000 0.000000 0.000000 0.000000 0.045023 0.000000
# 6 0.000000 0.000000 0.000000 0.000000 0.000000 0.029626
#
#
# Mechanical properties :
#
#
# Convention : Reuss Voigt Hill
#
# Bulk Modulus (GPa) = 52.99601 53.49973 53.24787
# Shear Modulus (GPa) = 28.96841 29.67348 29.32095
#
# Velocity S-wave (km/s) = 3.55996 3.60302 3.58156
# Velocity P-wave (km/s) = 6.33110 6.38079 6.35599
#
# Compressibility (1/GPa) = 0.01886935
#
# Stress axis : x y z
#
# Youngs Moduli (GPa) = 76.20496 78.78275 76.44595
#
# Poissons Ratio (x) = 0.31958 0.16726
# Poissons Ratio (y) = 0.30913 0.28815
# Poissons Ratio (z) = 0.16673 0.29695
#
# Static dielectric constant tensor:
#      x y z
#    x 4.748140 0.000000 0.000000 
#    y 0.000000 4.302780 0.000000 
#    z 0.000000 0.000000 3.896470 
# 
# 
# High freq. dielectric constant tensor:
#      x y z
#    x 1.914970 0.000000 0.000000 
#    y 0.000000 1.920040 0.000000 
#    z 0.000000 0.000000 1.886040 
# 
# From -- ./inp_files/7836.got.cif
#   From: 2010.03.12/outbox.cif.g09.slc.cpg/sg37_4_cif.got.tgz:7836.got - 2010.04.14 02:25:27.
