data_PCOD8176263
_publ_section_title
;
Structure prediction by ZEFSAII (Michael W. Deem and Ramdas Pophale) SiO2 
 PCOD8176263
Probable space group: C M C 21
;
_chemical_formula_sum "Si O2"
_cell_formula_units_Z 64
_cell_length_a 8.593412
_cell_length_b 15.262521
_cell_length_c 23.635118
_cell_angle_alpha 90.000000
_cell_angle_beta 90.000000
_cell_angle_gamma 90.000000
_cell_volume 3099.914270
_symmetry_space_group_name_H-M "C M C 21"
_symmetry_group_IT_number 36
_symmetry_cell_setting 'orthorhombic'
loop_
_space_group_symop_operation_xyz
x,y,z
-x,-y,1/2+z
x,-y,1/2+z
-x,y,z
1/2+x,1/2+y,z
1/2-x,1/2-y,1/2+z
1/2+x,1/2-y,1/2+z
1/2-x,1/2+y,z
loop_
_atom_site_type_symbol
_atom_site_label
_atom_site_fract_x
_atom_site_fract_y
_atom_site_fract_z
Si Si1 0.184428 0.233768 0.742910
Si Si2 0.820690 0.788268 0.505310
Si Si3 0.816552 0.037364 0.751928
Si Si4 0.175221 0.027203 0.623157
Si Si5 0.822606 0.767345 0.117740
Si Si6 0.820897 0.533589 0.014354
Si Si7 0.680551 0.375280 0.947321
Si Si8 0.182744 0.612844 0.324879
O O1 0.239271 0.137349 0.762677
O O2 0.245731 0.256446 0.679817
O O3 0.243871 0.306562 0.786545
O O4 0.000000 0.231402 0.738149
O O5 0.785950 0.778993 0.571916
O O6 0.777241 0.886978 0.487095
O O7 0.718966 0.722043 0.468252
O O8 0.000000 0.769912 0.492329
O O9 0.775372 0.009650 0.687783
O O10 0.000000 0.026382 0.763662
O O11 0.716709 0.978160 0.793832
O O12 0.185069 0.129166 0.608569
O O13 0.000000 0.993826 0.612503
O O14 0.288643 0.974594 0.581520
O O15 0.000000 0.734295 0.109981
O O16 0.000000 0.554950 0.004968
O O17 0.778637 0.444185 0.983198
O O18 0.500000 0.394606 0.957175
O O19 0.720559 0.384047 0.881877
O O20 0.000000 0.621192 0.337586
#
# Coordination Sequence:
#
# PCOD8176263 Si02
#       8
#     8   8   8   8   8   8   8   8
#     4   8  18  37  61  88 123 166 205 247 305 369
#     4  12  25  41  63  95 128 166 210 260 317 382
#     4   9  19  38  61  89 124 167 209 251 309 374
#     4   9  18  35  61  91 130 168 205 256 315 374
#     4   9  17  35  62  91 127 169 206 251 310 373
#     4  12  25  41  64  94 126 165 212 263 320 381
#     4  12  26  47  67  88 124 169 216 270 321 375
#     4  11  23  40  63  92 124 164 213 264 313 372
#
# _framework density 20.645733
#
# number of rings (size 3 to 8) (size 9 to 14) (size 15 to 20)
#    0.000    1.750    1.250    5.250    1.750    1.500 
#    0.000    7.500    0.000    0.000    0.000    0.000 
#    0.000    0.000    0.000    0.000    0.000    0.000 
#
# Total GULP energy -396904.832638 kJ/mol
# GULP energy per Si atom -12403.276020 kJ/mol
# Density = 2.059874 g / cm^3
# Si number density = 20.645733 Si / 1000 Ang^3
#
#
#
# Elastic Constant Matrix: (Units=GPa)
#
#
# Indices 1 2 3 4 5 6 
#
# 1 71.2879 16.2131 21.3310 0.0000 0.0000 0.0000
# 2 16.2131 67.5378 26.8745 0.0000 0.0000 0.0000
# 3 21.3310 26.8745 91.4211 0.0000 0.0000 0.0000
# 4 0.0000 0.0000 0.0000 16.8046 0.0000 0.0000
# 5 0.0000 0.0000 0.0000 0.0000 33.5392 0.0000
# 6 0.0000 0.0000 0.0000 0.0000 0.0000 29.7121
#
#
#
# Elastic Compliance Matrix: (Units=1/GPa)
#
#
# Indices 1 2 3 4 5 6 
#
# 1 0.015467 -0.002579 -0.002851 0.000000 0.000000 0.000000
# 2 -0.002579 0.017198 -0.004454 0.000000 0.000000 0.000000
# 3 -0.002851 -0.004454 0.012913 0.000000 0.000000 0.000000
# 4 0.000000 0.000000 0.000000 0.059508 0.000000 0.000000
# 5 0.000000 0.000000 0.000000 0.000000 0.029816 0.000000
# 6 0.000000 0.000000 0.000000 0.000000 0.000000 0.033656
#
#
# Mechanical properties :
#
#
# Convention : Reuss Voigt Hill
#
# Bulk Modulus (GPa) = 38.74306 39.89822 39.32064
# Shear Modulus (GPa) = 25.38996 27.06637 26.22817
#
# Velocity S-wave (km/s) = 3.51064 3.62469 3.56812
# Velocity P-wave (km/s) = 5.93626 6.07330 6.00517
#
# Compressibility (1/GPa) = 0.02581107
#
# Stress axis : x y z
#
# Youngs Moduli (GPa) = 64.65321 58.14688 77.44214
#
# Poissons Ratio (x) = 0.14994 0.22078
# Poissons Ratio (y) = 0.16672 0.34492
# Poissons Ratio (z) = 0.18432 0.25898
#
# Static dielectric constant tensor:
#      x y z
#    x 3.494330 0.000000 0.000000 
#    y 0.000000 3.842300 0.000000 
#    z 0.000000 0.000000 3.832070 
# 
# 
# High freq. dielectric constant tensor:
#      x y z
#    x 1.791570 0.000000 0.000000 
#    y 0.000000 1.815310 0.000000 
#    z 0.000000 0.000000 1.806070 
# 
# From -- ./inp_files/16563.got.cif
#   From: 2010.03.12/outbox.cif.g09.slc.cpg/sg36_9_cif.got.tgz:16563.got - 2010.04.14 02:13:53.
