data_PCOD8176009
_publ_section_title
;
Structure prediction by ZEFSAII (Michael W. Deem and Ramdas Pophale) SiO2 
 PCOD8176009
Probable space group: C M C 21
;
_chemical_formula_sum "Si O2"
_cell_formula_units_Z 48
_cell_length_a 22.425674
_cell_length_b 10.815386
_cell_length_c 9.007081
_cell_angle_alpha 90.000000
_cell_angle_beta 90.000000
_cell_angle_gamma 90.000000
_cell_volume 2184.598328
_symmetry_space_group_name_H-M "C M C 21"
_symmetry_group_IT_number 36
_symmetry_cell_setting 'orthorhombic'
loop_
_space_group_symop_operation_xyz
x,y,z
-x,-y,1/2+z
x,-y,1/2+z
-x,y,z
1/2+x,1/2+y,z
1/2-x,1/2-y,1/2+z
1/2+x,1/2-y,1/2+z
1/2-x,1/2+y,z
loop_
_atom_site_type_symbol
_atom_site_label
_atom_site_fract_x
_atom_site_fract_y
_atom_site_fract_z
Si Si1 0.217428 0.600087 0.956140
Si Si2 0.932124 0.759666 0.483549
Si Si3 0.565482 0.857189 0.671422
Si Si4 0.348050 0.083193 0.646520
Si Si5 0.848991 0.828763 0.052388
Si Si6 0.154084 0.949867 0.360190
O O1 0.180182 0.609372 0.805118
O O2 0.287624 0.610707 0.933525
O O3 0.203509 0.467361 0.034813
O O4 0.201134 0.720548 0.055466
O O5 0.934218 0.666889 0.346098
O O6 0.884440 0.705444 0.600328
O O7 0.905853 0.890318 0.428152
O O8 0.000000 0.778137 0.546791
O O9 0.500000 0.886540 0.611359
O O10 0.588113 0.739200 0.577880
O O11 0.604257 0.975497 0.643909
O O12 0.839570 0.928660 0.184094
O O13 0.848669 0.903665 0.897013
#
# Coordination Sequence:
#
# PCOD8176009 Si02
#       6
#     8   8   8   8   8   8
#     4  11  25  39  67  97 134 169 222 276 342 399
#     4  10  22  40  64  92 127 174 218 271 332 394
#     4   9  19  40  65  92 129 165 216 274 327 392
#     4  11  21  41  64 101 127 169 219 276 341 391
#     4  10  25  42  62  97 126 177 219 273 331 399
#     4  11  25  42  66  91 136 174 226 272 335 401
#
# _framework density 21.972003000000001
#
# number of rings (size 3 to 8) (size 9 to 14) (size 15 to 20)
#    0.000    1.667    1.667    1.500    7.000    0.667 
#    0.000    0.833    0.000    0.000    0.000    0.000 
#    0.000    0.000    0.000    0.000    0.000    0.000 
#
# Total GULP energy -297539.239144 kJ/mol
# GULP energy per Si atom -12397.468298 kJ/mol
# Density = 2.192199 g / cm^3
# Si number density = 21.972003 Si / 1000 Ang^3
#
#
#
# Elastic Constant Matrix: (Units=GPa)
#
#
# Indices 1 2 3 4 5 6 
#
# 1 80.8822 6.7904 20.9503 0.0000 0.0000 0.0000
# 2 6.7904 66.3127 18.9333 0.0000 0.0000 0.0000
# 3 20.9503 18.9333 72.4712 0.0000 0.0000 0.0000
# 4 0.0000 0.0000 0.0000 40.5850 0.0000 0.0000
# 5 0.0000 0.0000 0.0000 0.0000 16.4184 0.0000
# 6 0.0000 0.0000 0.0000 0.0000 0.0000 21.1263
#
#
#
# Elastic Compliance Matrix: (Units=1/GPa)
#
#
# Indices 1 2 3 4 5 6 
#
# 1 0.013369 -0.000287 -0.003790 0.000000 0.000000 0.000000
# 2 -0.000287 0.016302 -0.004176 0.000000 0.000000 0.000000
# 3 -0.003790 -0.004176 0.015985 0.000000 0.000000 0.000000
# 4 0.000000 0.000000 0.000000 0.024640 0.000000 0.000000
# 5 0.000000 0.000000 0.000000 0.000000 0.060907 0.000000
# 6 0.000000 0.000000 0.000000 0.000000 0.000000 0.047334
#
#
# Mechanical properties :
#
#
# Convention : Reuss Voigt Hill
#
# Bulk Modulus (GPa) = 34.30443 34.77933 34.54188
# Shear Modulus (GPa) = 24.41882 27.15875 25.78879
#
# Velocity S-wave (km/s) = 3.33732 3.51958 3.42966
# Velocity P-wave (km/s) = 5.52241 5.69033 5.60700
#
# Compressibility (1/GPa) = 0.02915075
#
# Stress axis : x y z
#
# Youngs Moduli (GPa) = 74.79749 61.34320 62.55806
#
# Poissons Ratio (x) = 0.01760 0.23709
# Poissons Ratio (y) = 0.02146 0.26124
# Poissons Ratio (z) = 0.28348 0.25616
#
# Static dielectric constant tensor:
#      x y z
#    x 4.200130 0.000000 0.000000 
#    y 0.000000 3.910520 0.000000 
#    z 0.000000 0.000000 3.959440 
# 
# 
# High freq. dielectric constant tensor:
#      x y z
#    x 1.870840 0.000000 0.000000 
#    y 0.000000 1.860230 0.000000 
#    z 0.000000 0.000000 1.853090 
# 
# From -- ./inp_files/5549.got.cif
#   From: 2010.03.12/outbox.cif.g09.slc.cpg/sg36_3_cif.got.tgz:5549.got - 2010.04.14 02:13:53.
