data_PCOD8176411
_publ_section_title
;
Structure prediction by ZEFSAII (Michael W. Deem and Ramdas Pophale) SiO2 
 PCOD8176411
Probable space group: C C C 2
;
_chemical_formula_sum "Si O2"
_cell_formula_units_Z 64
_cell_length_a 15.827233
_cell_length_b 8.693215
_cell_length_c 23.713649
_cell_angle_alpha 90.000000
_cell_angle_beta 90.000000
_cell_angle_gamma 90.000000
_cell_volume 3262.750042
_symmetry_space_group_name_H-M "C C C 2"
_symmetry_group_IT_number 37
_symmetry_cell_setting 'orthorhombic'
loop_
_space_group_symop_operation_xyz
x,y,z
-x,-y,z
-x,y,1/2+z
x,-y,1/2+z
1/2+x,1/2+y,z
1/2-x,1/2-y,z
1/2-x,1/2+y,1/2+z
1/2+x,1/2-y,1/2+z
loop_
_atom_site_type_symbol
_atom_site_label
_atom_site_fract_x
_atom_site_fract_y
_atom_site_fract_z
Si Si1 0.169074 0.856695 0.988440
Si Si2 0.250901 0.067043 0.281513
Si Si3 0.240230 0.569518 0.404008
Si Si4 0.147505 0.413483 0.089482
Si Si5 0.344657 0.434462 0.091971
Si Si6 0.092506 0.444531 0.473634
Si Si7 0.912626 0.428961 0.709497
Si Si8 0.588945 0.433918 0.711198
O O1 0.250000 0.750000 0.002920
O O2 0.096046 0.740976 0.967167
O O3 0.188852 0.980663 0.940159
O O4 0.134347 0.945899 0.042794
O O5 0.250000 0.250000 0.291545
O O6 0.333155 0.013385 0.246332
O O7 0.166022 0.010605 0.250311
O O8 0.251884 0.977483 0.339748
O O9 0.250000 0.750000 0.412528
O O10 0.148481 0.524950 0.426366
O O11 0.245509 0.429065 0.104288
O O12 0.124164 0.236611 0.075369
O O13 0.098416 0.477132 0.144131
O O14 0.123442 0.515930 0.036390
O O15 0.392881 0.492213 0.147750
O O16 0.000000 0.500000 0.461125
O O17 0.916829 0.247565 0.713484
O O18 0.000000 0.500000 0.732892
O O19 0.500000 0.500000 0.733228
#
# Coordination Sequence:
#
# PCOD8176411 Si02
#       8
#     8   8   8   8   8   8   8   8
#     4  10  20  36  59  87 115 155 197 236 294 353
#     4  10  21  41  64  83 115 162 202 244 304 354
#     4  11  23  42  63  85 112 156 203 244 299 365
#     4  10  18  34  59  88 122 162 196 236 296 356
#     4  10  18  34  60  87 121 160 198 238 293 357
#     4  11  23  38  60  91 122 152 196 249 296 350
#     4  10  21  37  60  89 121 160 200 242 294 357
#     4  10  22  39  59  89 123 158 199 245 297 355
#
# _framework density 19.615354
#
# number of rings (size 3 to 8) (size 9 to 14) (size 15 to 20)
#    0.000    1.750    3.750    2.250    0.000    4.500 
#    0.000    5.000    0.000    0.000    0.000    0.000 
#    0.000    0.000    0.000    0.000    0.000    0.000 
#
# Total GULP energy -396819.472282 kJ/mol
# GULP energy per Si atom -12400.608509 kJ/mol
# Density = 1.957071 g / cm^3
# Si number density = 19.615354 Si / 1000 Ang^3
#
#
#
# Elastic Constant Matrix: (Units=GPa)
#
#
# Indices 1 2 3 4 5 6 
#
# 1 134.7138 46.8641 60.1833 0.0000 0.0000 0.0000
# 2 46.8641 105.9855 59.9811 0.0000 0.0000 0.0000
# 3 60.1833 59.9811 134.3984 0.0000 0.0000 0.0000
# 4 0.0000 0.0000 0.0000 28.4846 0.0000 0.0000
# 5 0.0000 0.0000 0.0000 0.0000 -1.4022 0.0000
# 6 0.0000 0.0000 0.0000 0.0000 0.0000 30.0705
#
#
#
# Elastic Compliance Matrix: (Units=1/GPa)
#
#
# Indices 1 2 3 4 5 6 
#
# 1 0.009736 -0.002459 -0.003262 0.000000 0.000000 0.000000
# 2 -0.002459 0.013245 -0.004810 0.000000 0.000000 0.000000
# 3 -0.003262 -0.004810 0.011048 0.000000 0.000000 0.000000
# 4 0.000000 0.000000 0.000000 0.035107 0.000000 0.000000
# 5 0.000000 0.000000 0.000000 0.000000 -0.713145 0.000000
# 6 0.000000 0.000000 0.000000 0.000000 0.000000 0.033255
#
#
# Mechanical properties :
#
#
# Convention : Reuss Voigt Hill
#
# Bulk Modulus (GPa) = 77.12192 78.79497 77.95845
# Shear Modulus (GPa) = -8.54160 25.30186 8.38013
#
# Velocity S-wave (km/s) = -2.08902 3.59542 2.06918
# Velocity P-wave (km/s) = 5.79515 7.58243 6.74822
#
# Compressibility (1/GPa) = 0.01296648
#
# Stress axis : x y z
#
# Youngs Moduli (GPa) = 102.71202 75.50275 90.51292
#
# Poissons Ratio (x) = 0.18564 0.29529
# Poissons Ratio (y) = 0.25253 0.43537
# Poissons Ratio (z) = 0.33509 0.36317
#
# Static dielectric constant tensor:
#      x y z
#    x 4.850800 0.000000 0.000000 
#    y 0.000000 3.671000 0.000000 
#    z 0.000000 0.000000 3.549210 
# 
# 
# High freq. dielectric constant tensor:
#      x y z
#    x 1.758160 0.000000 0.000000 
#    y 0.000000 1.763010 0.000000 
#    z 0.000000 0.000000 1.760820 
# 
# From -- ./inp_files/18875.got.cif
#   From: 2010.03.12/outbox.cif.g09.slc.cpg/sg37_10_cif.got.tgz:18875.got - 2010.04.14 02:25:27.
