data_PCOD8176368
_publ_section_title
;
Structure prediction by ZEFSAII (Michael W. Deem and Ramdas Pophale) SiO2 
 PCOD8176368
Probable space group: C C C 2
;
_chemical_formula_sum "Si O2"
_cell_formula_units_Z 64
_cell_length_a 25.444850
_cell_length_b 26.712958
_cell_length_c 5.168145
_cell_angle_alpha 90.000000
_cell_angle_beta 90.000000
_cell_angle_gamma 90.000000
_cell_volume 3512.825416
_symmetry_space_group_name_H-M "C C C 2"
_symmetry_group_IT_number 37
_symmetry_cell_setting 'orthorhombic'
loop_
_space_group_symop_operation_xyz
x,y,z
-x,-y,z
-x,y,1/2+z
x,-y,1/2+z
1/2+x,1/2+y,z
1/2-x,1/2-y,z
1/2-x,1/2+y,1/2+z
1/2+x,1/2-y,1/2+z
loop_
_atom_site_type_symbol
_atom_site_label
_atom_site_fract_x
_atom_site_fract_y
_atom_site_fract_z
Si Si1 0.028929 0.332012 0.470360
Si Si2 0.469526 0.287473 0.483522
Si Si3 0.356627 0.968099 0.577640
Si Si4 0.194252 0.366952 0.129368
Si Si5 0.523925 0.054996 0.660950
Si Si6 0.286360 0.701384 0.507745
Si Si7 0.352173 0.285686 0.524531
Si Si8 0.858427 0.329419 0.126850
O O1 0.031704 0.272250 0.479913
O O2 0.085709 0.353315 0.550090
O O3 0.984406 0.349667 0.677522
O O4 0.502183 0.308068 0.727242
O O5 0.410190 0.309405 0.495924
O O6 0.311452 0.926915 0.619621
O O7 0.414760 0.944632 0.601359
O O8 0.349369 0.989003 0.289955
O O9 0.252556 0.348475 0.061235
O O10 0.183761 0.349357 0.421630
O O11 0.153628 0.344581 0.920949
O O12 0.489053 0.082196 0.436191
O O13 0.500000 0.000000 0.725257
O O14 0.250000 0.750000 0.456722
O O15 0.318968 0.687255 0.249971
O O16 0.323832 0.712472 0.748851
O O17 0.358652 0.229711 0.623788
#
# Coordination Sequence:
#
# PCOD8176368 Si02
#       8
#     8   8   8   8   8   8   8   8
#     4   9  17  29  46  60  93 130 160 206 260 317
#     4   9  17  29  46  73  96 131 177 210 242 307
#     4  12  23  40  58  75  98 131 171 222 288 334
#     4  12  25  36  54  78 101 130 175 229 265 324
#     4  10  16  32  58  75  89 119 166 222 280 345
#     4  12  21  36  54  78 106 139 182 222 266 316
#     4  11  20  33  57  75 103 147 175 212 273 309
#     4  11  20  36  50  73 101 131 172 214 270 320
#
# _framework density 18.218952000000002
#
# number of rings (size 3 to 8) (size 9 to 14) (size 15 to 20)
#    0.000    1.250    5.000    3.375    0.000    4.000 
#    0.000    3.750    0.000    0.000    0.000    0.000 
#    0.000    0.000    0.000    0.000    0.000   43.750 
#
# Total GULP energy -396885.860290 kJ/mol
# GULP energy per Si atom -12402.683134 kJ/mol
# Density = 1.817749 g / cm^3
# Si number density = 18.218952 Si / 1000 Ang^3
#
#
#
# Elastic Constant Matrix: (Units=GPa)
#
#
# Indices 1 2 3 4 5 6 
#
# 1 104.5240 18.7229 30.0001 0.0000 0.0000 0.0000
# 2 18.7229 35.8085 -0.0126 0.0000 0.0000 0.0000
# 3 30.0001 -0.0126 103.3715 0.0000 0.0000 0.0000
# 4 0.0000 0.0000 0.0000 19.9431 0.0000 0.0000
# 5 0.0000 0.0000 0.0000 0.0000 33.4393 0.0000
# 6 0.0000 0.0000 0.0000 0.0000 0.0000 20.6874
#
#
#
# Elastic Compliance Matrix: (Units=1/GPa)
#
#
# Indices 1 2 3 4 5 6 
#
# 1 0.011625 -0.006079 -0.003374 0.000000 0.000000 0.000000
# 2 -0.006079 0.031106 0.001768 0.000000 0.000000 0.000000
# 3 -0.003374 0.001768 0.010653 0.000000 0.000000 0.000000
# 4 0.000000 0.000000 0.000000 0.050143 0.000000 0.000000
# 5 0.000000 0.000000 0.000000 0.000000 0.029905 0.000000
# 6 0.000000 0.000000 0.000000 0.000000 0.000000 0.048339
#
#
# Mechanical properties :
#
#
# Convention : Reuss Voigt Hill
#
# Bulk Modulus (GPa) = 26.30721 37.90277 32.10499
# Shear Modulus (GPa) = 23.83088 27.81352 25.82220
#
# Velocity S-wave (km/s) = 3.62059 3.91144 3.76882
# Velocity P-wave (km/s) = 5.65235 6.42249 6.04969
#
# Compressibility (1/GPa) = 0.03801239
#
# Stress axis : x y z
#
# Youngs Moduli (GPa) = 86.02412 32.14861 93.86700
#
# Poissons Ratio (x) = 0.19544 0.31675
# Poissons Ratio (y) = 0.52296 -0.16596
# Poissons Ratio (z) = 0.29028 -0.05684
#
# Static dielectric constant tensor:
#      x y z
#    x 3.509900 0.000000 0.000000 
#    y 0.000000 3.137230 0.000000 
#    z 0.000000 0.000000 3.777320 
# 
# 
# High freq. dielectric constant tensor:
#      x y z
#    x 1.690490 0.000000 0.000000 
#    y 0.000000 1.656060 0.000000 
#    z 0.000000 0.000000 1.742930 
# 
# From -- ./inp_files/1100.got.cif
#   From: 2010.03.12/outbox.cif.g09.slc.cpg/sg37_1_cif.got.tgz:1100.got - 2010.04.14 02:25:27.
