data_PCOD8176422
_publ_section_title
;
Structure prediction by ZEFSAII (Michael W. Deem and Ramdas Pophale) SiO2 
 PCOD8176422
Probable space group: C C C 2
;
_chemical_formula_sum "Si O2"
_cell_formula_units_Z 60
_cell_length_a 13.396997
_cell_length_b 12.165028
_cell_length_c 18.081760
_cell_angle_alpha 90.000000
_cell_angle_beta 90.000000
_cell_angle_gamma 90.000000
_cell_volume 2946.872008
_symmetry_space_group_name_H-M "C C C 2"
_symmetry_group_IT_number 37
_symmetry_cell_setting 'orthorhombic'
loop_
_space_group_symop_operation_xyz
x,y,z
-x,-y,z
-x,y,1/2+z
x,-y,1/2+z
1/2+x,1/2+y,z
1/2-x,1/2-y,z
1/2-x,1/2+y,1/2+z
1/2+x,1/2-y,1/2+z
loop_
_atom_site_type_symbol
_atom_site_label
_atom_site_fract_x
_atom_site_fract_y
_atom_site_fract_z
Si Si1 0.448553 0.714651 0.897000
Si Si2 0.438033 0.606105 0.203164
Si Si3 0.338787 0.006746 0.228828
Si Si4 0.008211 0.330701 0.758391
Si Si5 0.786212 0.047909 0.090167
Si Si6 0.403767 0.575419 0.474870
Si Si7 0.659627 0.485926 0.831135
Si Si8 0.750000 0.750000 0.490137
O O1 0.484042 0.814333 0.845221
O O2 0.542871 0.691374 0.953300
O O3 0.420378 0.613527 0.840691
O O4 0.349009 0.744698 0.940846
O O5 0.500000 0.500000 0.179693
O O6 0.498303 0.718503 0.211551
O O7 0.362716 0.623405 0.135730
O O8 0.383341 0.583139 0.280434
O O9 0.426161 0.093661 0.221072
O O10 0.262539 0.050998 0.292133
O O11 0.382871 0.887524 0.251804
O O12 0.292045 0.003583 0.147100
O O13 0.737550 0.136026 0.034664
O O14 0.840783 0.942395 0.050211
O O15 0.500000 0.500000 0.477561
O O16 0.324632 0.538950 0.411704
#
# Coordination Sequence:
#
# PCOD8176422 Si02
#       8
#     8   8   8   8   8   8   8   4
#     4  11  21  37  67 100 119 167 211 276 314 377
#     4  11  20  36  65  95 119 160 212 267 313 363
#     4  10  25  41  62  93 129 177 211 262 321 387
#     4  11  22  42  65  90 129 167 224 265 312 382
#     4  11  23  38  60  91 130 171 205 260 323 395
#     4  10  18  37  62  89 130 154 203 264 321 374
#     4  10  18  38  62  95 123 155 214 269 314 365
#     4  12  22  34  62  94 132 164 216 254 326 390
#
# _framework density 20.360572999999999
#
# number of rings (size 3 to 8) (size 9 to 14) (size 15 to 20)
#    0.000    1.333    5.333    2.400    0.000    1.600 
#    0.000    0.000    8.800    4.800    0.000    0.000 
#    0.000    0.000    0.000    0.000    0.000    0.000 
#
# Total GULP energy -371694.272758 kJ/mol
# GULP energy per Si atom -12389.809092 kJ/mol
# Density = 2.031423 g / cm^3
# Si number density = 20.360573 Si / 1000 Ang^3
#
#
#
# Elastic Constant Matrix: (Units=GPa)
#
#
# Indices 1 2 3 4 5 6 
#
# 1 94.4161 39.9787 59.5127 0.0000 0.0000 0.0000
# 2 39.9787 90.9348 39.0677 0.0000 0.0000 0.0000
# 3 59.5127 39.0677 132.2713 0.0000 0.0000 0.0000
# 4 0.0000 0.0000 0.0000 16.7622 0.0000 0.0000
# 5 0.0000 0.0000 0.0000 0.0000 28.8526 0.0000
# 6 0.0000 0.0000 0.0000 0.0000 0.0000 29.6919
#
#
#
# Elastic Compliance Matrix: (Units=1/GPa)
#
#
# Indices 1 2 3 4 5 6 
#
# 1 0.016308 -0.004601 -0.005978 0.000000 0.000000 0.000000
# 2 -0.004601 0.013893 -0.002033 0.000000 0.000000 0.000000
# 3 -0.005978 -0.002033 0.010851 0.000000 0.000000 0.000000
# 4 0.000000 0.000000 0.000000 0.059658 0.000000 0.000000
# 5 0.000000 0.000000 0.000000 0.000000 0.034659 0.000000
# 6 0.000000 0.000000 0.000000 0.000000 0.000000 0.033679
#
#
# Mechanical properties :
#
#
# Convention : Reuss Voigt Hill
#
# Bulk Modulus (GPa) = 63.18684 66.08226 64.63455
# Shear Modulus (GPa) = 25.05642 26.99888 26.02765
#
# Velocity S-wave (km/s) = 3.51185 3.64543 3.57926
# Velocity P-wave (km/s) = 6.89531 7.08839 6.99252
#
# Compressibility (1/GPa) = 0.01582608
#
# Stress axis : x y z
#
# Youngs Moduli (GPa) = 61.31927 71.97695 92.16024
#
# Poissons Ratio (x) = 0.33118 0.55098
# Poissons Ratio (y) = 0.28214 0.18739
# Poissons Ratio (z) = 0.36660 0.14635
#
# Static dielectric constant tensor:
#      x y z
#    x 3.912270 0.000000 0.000000 
#    y 0.000000 3.683820 0.000000 
#    z 0.000000 0.000000 3.876520 
# 
# 
# High freq. dielectric constant tensor:
#      x y z
#    x 1.791830 0.000000 0.000000 
#    y 0.000000 1.771050 0.000000 
#    z 0.000000 0.000000 1.803640 
# 
# From -- ./inp_files/15294.got.cif
#   From: 2010.03.12/outbox.cif.g09.slc.cpg/sg37_8_cif.got.tgz:15294.got - 2010.04.14 02:25:27.
