data_PCOD8176909
_publ_section_title
;
Structure prediction by ZEFSAII (Michael W. Deem and Ramdas Pophale) SiO2 
 PCOD8176909
Probable space group: C C C 2
;
_chemical_formula_sum "Si O2"
_cell_formula_units_Z 60
_cell_length_a 16.010990
_cell_length_b 14.742766
_cell_length_c 11.761288
_cell_angle_alpha 90.000000
_cell_angle_beta 90.000000
_cell_angle_gamma 90.000000
_cell_volume 2776.208269
_symmetry_space_group_name_H-M "C C C 2"
_symmetry_group_IT_number 37
_symmetry_cell_setting 'orthorhombic'
loop_
_space_group_symop_operation_xyz
x,y,z
-x,-y,z
-x,y,1/2+z
x,-y,1/2+z
1/2+x,1/2+y,z
1/2-x,1/2-y,z
1/2-x,1/2+y,1/2+z
1/2+x,1/2-y,1/2+z
loop_
_atom_site_type_symbol
_atom_site_label
_atom_site_fract_x
_atom_site_fract_y
_atom_site_fract_z
Si Si1 0.750000 0.750000 0.626251
Si Si2 0.633007 0.342592 0.275386
Si Si3 0.948488 0.839554 0.202288
Si Si4 0.414647 0.762949 0.479740
Si Si5 0.699111 0.535912 0.273325
Si Si6 0.354209 0.081186 0.129346
Si Si7 0.699844 0.084903 0.984922
Si Si8 0.562029 0.836417 0.329237
O O1 0.666088 0.741893 0.701253
O O2 0.748250 0.842758 0.558705
O O3 0.539521 0.369876 0.242388
O O4 0.638349 0.307326 0.404823
O O5 0.693665 0.428115 0.255958
O O6 0.888451 0.923535 0.230183
O O7 0.910772 0.759532 0.278482
O O8 0.958029 0.803516 0.072487
O O9 0.355425 0.835307 0.541593
O O10 0.474409 0.823177 0.395455
O O11 0.767993 0.585489 0.197415
O O12 0.726475 0.545910 0.404963
O O13 0.431742 0.090994 0.221919
O O14 0.352581 0.988260 0.058440
O O15 0.629050 0.138579 0.920993
#
# Coordination Sequence:
#
# PCOD8176909 Si02
#       8
#     4   8   8   8   8   8   8   8
#     4  12  24  40  64  92 136 174 218 292 336 420
#     4  11  25  41  66 101 135 175 230 286 343 417
#     4  10  22  44  67  96 137 178 231 282 349 414
#     4  10  23  42  70  95 134 181 225 282 356 410
#     4  11  24  43  64 102 135 173 236 284 333 429
#     4  10  23  42  66 100 133 177 231 281 347 421
#     4  11  23  41  67  92 132 181 224 278 360 399
#     4   9  21  43  64  97 129 174 232 281 341 426
#
# _framework density 21.612210999999999
#
# number of rings (size 3 to 8) (size 9 to 14) (size 15 to 20)
#    0.000    1.600    1.333    2.000    3.733    5.867 
#    0.000    8.000    0.000    0.000    0.000    0.000 
#    0.000    0.000    0.000    0.000    0.000    0.000 
#
# Total GULP energy -371679.552538 kJ/mol
# GULP energy per Si atom -12389.318418 kJ/mol
# Density = 2.156302 g / cm^3
# Si number density = 21.612211 Si / 1000 Ang^3
#
#
#
# Elastic Constant Matrix: (Units=GPa)
#
#
# Indices 1 2 3 4 5 6 
#
# 1 77.3642 43.7176 44.9279 0.0000 0.0000 0.0000
# 2 43.7176 101.7005 63.1600 0.0000 0.0000 0.0000
# 3 44.9279 63.1600 137.4822 0.0000 0.0000 0.0000
# 4 0.0000 0.0000 0.0000 29.6174 0.0000 0.0000
# 5 0.0000 0.0000 0.0000 0.0000 11.2978 0.0000
# 6 0.0000 0.0000 0.0000 0.0000 0.0000 41.6701
#
#
#
# Elastic Compliance Matrix: (Units=1/GPa)
#
#
# Indices 1 2 3 4 5 6 
#
# 1 0.018065 -0.005736 -0.003269 0.000000 0.000000 0.000000
# 2 -0.005736 0.015579 -0.005283 0.000000 0.000000 0.000000
# 3 -0.003269 -0.005283 0.010769 0.000000 0.000000 0.000000
# 4 0.000000 0.000000 0.000000 0.033764 0.000000 0.000000
# 5 0.000000 0.000000 0.000000 0.000000 0.088513 0.000000
# 6 0.000000 0.000000 0.000000 0.000000 0.000000 0.023998
#
#
# Mechanical properties :
#
#
# Convention : Reuss Voigt Hill
#
# Bulk Modulus (GPa) = 63.13502 68.90643 66.02072
# Shear Modulus (GPa) = 22.26756 27.49981 24.88369
#
# Velocity S-wave (km/s) = 3.21335 3.57097 3.39687
# Velocity P-wave (km/s) = 6.56076 6.99677 6.78227
#
# Compressibility (1/GPa) = 0.01583907
#
# Stress axis : x y z
#
# Youngs Moduli (GPa) = 55.35504 64.18815 92.86152
#
# Poissons Ratio (x) = 0.36817 0.30352
# Poissons Ratio (y) = 0.31750 0.49057
# Poissons Ratio (z) = 0.18093 0.33909
#
# Static dielectric constant tensor:
#      x y z
#    x 3.795050 0.000000 0.000000 
#    y 0.000000 3.906290 0.000000 
#    z 0.000000 0.000000 4.423160 
# 
# 
# High freq. dielectric constant tensor:
#      x y z
#    x 1.833430 0.000000 0.000000 
#    y 0.000000 1.850100 0.000000 
#    z 0.000000 0.000000 1.871640 
# 
# From -- ./inp_files/8340.got.cif
#   From: 2010.03.12/outbox.cif.g09.slc.cpg/sg37_5_cif.got.tgz:8340.got - 2010.04.14 02:25:27.
