data_PCOD8176534
_publ_section_title
;
Structure prediction by ZEFSAII (Michael W. Deem and Ramdas Pophale) SiO2 
 PCOD8176534
Probable space group: C C C 2
;
_chemical_formula_sum "Si O2"
_cell_formula_units_Z 44
_cell_length_a 23.878018
_cell_length_b 9.273131
_cell_length_c 8.470243
_cell_angle_alpha 90.000000
_cell_angle_beta 90.000000
_cell_angle_gamma 90.000000
_cell_volume 1875.514992
_symmetry_space_group_name_H-M "C C C 2"
_symmetry_group_IT_number 37
_symmetry_cell_setting 'orthorhombic'
loop_
_space_group_symop_operation_xyz
x,y,z
-x,-y,z
-x,y,1/2+z
x,-y,1/2+z
1/2+x,1/2+y,z
1/2-x,1/2-y,z
1/2-x,1/2+y,1/2+z
1/2+x,1/2-y,1/2+z
loop_
_atom_site_type_symbol
_atom_site_label
_atom_site_fract_x
_atom_site_fract_y
_atom_site_fract_z
Si Si1 0.769628 0.447483 0.663990
Si Si2 0.250000 0.250000 0.434177
Si Si3 0.559246 0.171825 0.651035
Si Si4 0.330869 0.745896 0.173780
Si Si5 0.440202 0.851977 0.027094
Si Si6 0.167590 0.802556 0.525605
O O1 0.780946 0.373921 0.834426
O O2 0.793252 0.607428 0.675934
O O3 0.805320 0.356640 0.537806
O O4 0.703161 0.422171 0.622292
O O5 0.296235 0.339416 0.538758
O O6 0.562247 0.161184 0.839270
O O7 0.497535 0.216154 0.593669
O O8 0.603837 0.290954 0.590289
O O9 0.570700 0.017097 0.572882
O O10 0.330934 0.661401 0.338803
O O11 0.393658 0.759974 0.115591
#
# Coordination Sequence:
#
# PCOD8176534 Si02
#       6
#     8   4   8   8   8   8
#     4  10  21  35  52  76 110 152 190 238 281 335
#     4  10  22  34  52  80 106 148 200 228 290 338
#     4  11  20  34  49  80 110 147 187 223 280 355
#     4  12  21  36  56  80 114 155 187 239 285 341
#     4  11  21  31  53  76 110 151 180 226 290 338
#     4  10  20  34  52  76 110 148 190 228 278 338
#
# _framework density 23.460224
#
# number of rings (size 3 to 8) (size 9 to 14) (size 15 to 20)
#    0.000    1.455    1.818    8.727    0.000    0.000 
#    0.000    0.000    0.000    0.000    0.000    1.273 
#    0.000   14.545    0.000    1.818    0.000    0.000 
#
# Total GULP energy -272608.695510 kJ/mol
# GULP energy per Si atom -12391.304341 kJ/mol
# Density = 2.340683 g / cm^3
# Si number density = 23.460224 Si / 1000 Ang^3
#
#
#
# Elastic Constant Matrix: (Units=GPa)
#
#
# Indices 1 2 3 4 5 6 
#
# 1 163.5187 -1.8716 48.0893 0.0000 0.0000 0.0000
# 2 -1.8716 38.3531 0.8868 0.0000 0.0000 0.0000
# 3 48.0893 0.8868 186.6950 0.0000 0.0000 0.0000
# 4 0.0000 0.0000 0.0000 10.4372 0.0000 0.0000
# 5 0.0000 0.0000 0.0000 0.0000 45.0520 0.0000
# 6 0.0000 0.0000 0.0000 0.0000 0.0000 -12.4195
#
#
#
# Elastic Compliance Matrix: (Units=1/GPa)
#
#
# Indices 1 2 3 4 5 6 
#
# 1 0.006622 0.000363 -0.001707 0.000000 0.000000 0.000000
# 2 0.000363 0.026096 -0.000217 0.000000 0.000000 0.000000
# 3 -0.001707 -0.000217 0.005797 0.000000 0.000000 0.000000
# 4 0.000000 0.000000 0.000000 0.095812 0.000000 0.000000
# 5 0.000000 0.000000 0.000000 0.000000 0.022197 0.000000
# 6 0.000000 0.000000 0.000000 0.000000 0.000000 -0.080519
#
#
# Mechanical properties :
#
#
# Convention : Reuss Voigt Hill
#
# Bulk Modulus (GPa) = 28.25582 53.64176 40.94879
# Shear Modulus (GPa) = 54.98990 31.37808 43.18399
#
# Velocity S-wave (km/s) = 4.84670 3.66115 4.29503
# Velocity P-wave (km/s) = 6.58718 6.38645 6.48759
#
# Compressibility (1/GPa) = 0.03539094
#
# Stress axis : x y z
#
# Youngs Moduli (GPa) = 151.01679 38.31968 172.49851
#
# Poissons Ratio (x) = -0.01390 0.29452
# Poissons Ratio (y) = -0.05476 0.03749
# Poissons Ratio (z) = 0.25784 0.00833
#
# Static dielectric constant tensor:
#      x y z
#    x 4.732900 0.000000 0.000000 
#    y 0.000000 4.007440 0.000000 
#    z 0.000000 0.000000 4.609790 
# 
# 
# High freq. dielectric constant tensor:
#      x y z
#    x 1.937940 0.000000 0.000000 
#    y 0.000000 1.889640 0.000000 
#    z 0.000000 0.000000 1.957670 
# 
# From -- ./inp_files/4563.got.cif
#   From: 2010.03.12/outbox.cif.g09.slc.cpg/sg37_3_cif.got.tgz:4563.got - 2010.04.14 02:25:27.
