data_PCOD8176307
_publ_section_title
;
Structure prediction by ZEFSAII (Michael W. Deem and Ramdas Pophale) SiO2 
 PCOD8176307
Probable space group: C M C 21
;
_chemical_formula_sum "Si O2"
_cell_formula_units_Z 40
_cell_length_a 11.511552
_cell_length_b 16.949096
_cell_length_c 8.164841
_cell_angle_alpha 90.000000
_cell_angle_beta 90.000000
_cell_angle_gamma 90.000000
_cell_volume 1593.045393
_symmetry_space_group_name_H-M "C M C 21"
_symmetry_group_IT_number 36
_symmetry_cell_setting 'orthorhombic'
loop_
_space_group_symop_operation_xyz
x,y,z
-x,-y,1/2+z
x,-y,1/2+z
-x,y,z
1/2+x,1/2+y,z
1/2-x,1/2-y,1/2+z
1/2+x,1/2-y,1/2+z
1/2-x,1/2+y,z
loop_
_atom_site_type_symbol
_atom_site_label
_atom_site_fract_x
_atom_site_fract_y
_atom_site_fract_z
Si Si1 0.290609 0.248968 0.461140
Si Si2 0.368680 0.969450 0.496628
Si Si3 0.500000 0.534851 0.268792
Si Si4 0.750682 0.593923 0.308349
Si Si5 0.500000 0.625897 0.933970
Si Si6 0.628933 0.165562 0.770874
O O1 0.283236 0.186245 0.310655
O O2 0.390130 0.315087 0.438258
O O3 0.290240 0.196606 0.624944
O O4 0.168048 0.294225 0.442846
O O5 0.500000 0.966317 0.565706
O O6 0.278925 0.934093 0.625475
O O7 0.361336 0.927053 0.315373
O O8 0.331680 0.057769 0.451990
O O9 0.616396 0.572602 0.349482
O O10 0.500000 0.437539 0.282094
O O11 0.500000 0.563092 0.081137
O O12 0.500000 0.191750 0.723527
#
# Coordination Sequence:
#
# PCOD8176307 Si02
#       6
#     8   8   4   8   4   8
#     4  12  26  46  77 108 155 193 260 327 391 458
#     4  11  25  45  75 110 155 201 264 314 391 472
#     4  12  26  50  78 104 158 202 254 312 392 482
#     4  12  26  45  78 112 154 212 258 326 391 471
#     4  12  28  50  76 110 148 200 254 324 386 470
#     4  11  24  46  71 104 149 199 248 321 386 462
#
# _framework density 25.109138000000002
#
# number of rings (size 3 to 8) (size 9 to 14) (size 15 to 20)
#    0.000    0.400    1.000    7.800    4.200    3.200 
#    1.800    2.000    0.000    0.000    0.000    0.000 
#    0.000    0.000    0.000    0.000    0.000    0.000 
#
# Total GULP energy -247794.443454 kJ/mol
# GULP energy per Si atom -12389.722173 kJ/mol
# Density = 2.505199 g / cm^3
# Si number density = 25.109138 Si / 1000 Ang^3
#
#
#
# Elastic Constant Matrix: (Units=GPa)
#
#
# Indices 1 2 3 4 5 6 
#
# 1 78.0073 35.3013 4.9862 0.0000 0.0000 0.0000
# 2 35.3013 155.9943 22.0647 0.0000 0.0000 0.0000
# 3 4.9862 22.0647 34.7419 0.0000 0.0000 0.0000
# 4 0.0000 0.0000 0.0000 53.0824 0.0000 0.0000
# 5 0.0000 0.0000 0.0000 0.0000 35.0960 0.0000
# 6 0.0000 0.0000 0.0000 0.0000 0.0000 36.7815
#
#
#
# Elastic Compliance Matrix: (Units=1/GPa)
#
#
# Indices 1 2 3 4 5 6 
#
# 1 0.014282 -0.003232 0.000003 0.000000 0.000000 0.000000
# 2 -0.003232 0.007775 -0.004474 0.000000 0.000000 0.000000
# 3 0.000003 -0.004474 0.031625 0.000000 0.000000 0.000000
# 4 0.000000 0.000000 0.000000 0.018839 0.000000 0.000000
# 5 0.000000 0.000000 0.000000 0.000000 0.028493 0.000000
# 6 0.000000 0.000000 0.000000 0.000000 0.000000 0.027188
#
#
# Mechanical properties :
#
#
# Convention : Reuss Voigt Hill
#
# Bulk Modulus (GPa) = 26.12671 43.71643 34.92157
# Shear Modulus (GPa) = 31.97640 38.75141 35.36390
#
# Velocity S-wave (km/s) = 3.57248 3.93277 3.75695
# Velocity P-wave (km/s) = 5.23877 6.17014 5.72343
#
# Compressibility (1/GPa) = 0.03827500
#
# Stress axis : x y z
#
# Youngs Moduli (GPa) = 70.01867 128.62080 31.62099
#
# Poissons Ratio (x) = 0.41576 -0.00010
# Poissons Ratio (y) = 0.22633 0.14147
# Poissons Ratio (z) = -0.00022 0.57543
#
# Static dielectric constant tensor:
#      x y z
#    x 4.504910 0.000000 0.000000 
#    y 0.000000 4.906620 0.000000 
#    z 0.000000 0.000000 4.331050 
# 
# 
# High freq. dielectric constant tensor:
#      x y z
#    x 1.997400 0.000000 0.000000 
#    y 0.000000 2.027410 0.000000 
#    z 0.000000 0.000000 1.999260 
# 
# From -- ./inp_files/3104.got.cif
#   From: 2010.03.12/outbox.cif.g09.slc.cpg/sg36_2_cif.got.tgz:3104.got - 2010.04.14 02:13:53.
