data_PCOD8176101
_publ_section_title
;
Structure prediction by ZEFSAII (Michael W. Deem and Ramdas Pophale) SiO2 
 PCOD8176101
Probable space group: C M C 21
;
_chemical_formula_sum "Si O2"
_cell_formula_units_Z 48
_cell_length_a 8.370259
_cell_length_b 29.950263
_cell_length_c 8.726859
_cell_angle_alpha 90.000000
_cell_angle_beta 90.000000
_cell_angle_gamma 90.000000
_cell_volume 2187.749010
_symmetry_space_group_name_H-M "C M C 21"
_symmetry_group_IT_number 36
_symmetry_cell_setting 'orthorhombic'
loop_
_space_group_symop_operation_xyz
x,y,z
-x,-y,1/2+z
x,-y,1/2+z
-x,y,z
1/2+x,1/2+y,z
1/2-x,1/2-y,1/2+z
1/2+x,1/2-y,1/2+z
1/2-x,1/2+y,z
loop_
_atom_site_type_symbol
_atom_site_label
_atom_site_fract_x
_atom_site_fract_y
_atom_site_fract_z
Si Si1 0.684691 0.131714 0.817530
Si Si2 0.812774 0.201200 0.331278
Si Si3 0.184233 0.110411 0.491952
Si Si4 0.814889 0.786304 0.482452
Si Si5 0.314720 0.553058 0.008113
Si Si6 0.683072 0.026670 0.332555
O O1 0.500000 0.124140 0.778738
O O2 0.788882 0.122018 0.668279
O O3 0.712077 0.182408 0.870682
O O4 0.741871 0.099690 0.953528
O O5 0.765512 0.151779 0.385378
O O6 0.715092 0.235275 0.436870
O O7 0.000000 0.210494 0.353299
O O8 0.758193 0.206683 0.156421
O O9 0.289235 0.068072 0.445608
O O10 0.000000 0.097992 0.466321
O O11 0.000000 0.798721 0.464334
O O12 0.500000 0.559965 0.045338
O O13 0.291973 0.515271 0.879457
O O14 0.222701 0.539171 0.159955
O O15 0.500000 0.011682 0.344552
#
# Coordination Sequence:
#
# PCOD8176101 Si02
#       6
#     8   8   8   8   8   8
#     4  12  25  42  64  93 127 163 208 262 317 372
#     4  10  23  41  62  90 124 162 207 257 309 370
#     4  11  23  42  66  93 127 168 211 256 311 374
#     4  11  23  40  63  91 124 163 208 257 312 376
#     4  12  25  44  67  93 126 167 212 257 311 373
#     4  12  25  43  66  96 130 165 208 259 314 369
#
# _framework density 21.940359000000001
#
# number of rings (size 3 to 8) (size 9 to 14) (size 15 to 20)
#    0.000    0.667    0.000    8.500    0.000    6.667 
#    0.000    0.000    0.000    0.000    0.000    0.000 
#    0.000    0.000    0.000    0.000    0.000    0.000 
#
# Total GULP energy -297871.936728 kJ/mol
# GULP energy per Si atom -12411.330697 kJ/mol
# Density = 2.189042 g / cm^3
# Si number density = 21.940359 Si / 1000 Ang^3
#
#
#
# Elastic Constant Matrix: (Units=GPa)
#
#
# Indices 1 2 3 4 5 6 
#
# 1 74.6262 23.4324 9.2938 0.0000 0.0000 0.0000
# 2 23.4324 69.3884 -6.7308 0.0000 0.0000 0.0000
# 3 9.2938 -6.7308 80.5945 0.0000 0.0000 0.0000
# 4 0.0000 0.0000 0.0000 45.3367 0.0000 0.0000
# 5 0.0000 0.0000 0.0000 0.0000 34.5082 0.0000
# 6 0.0000 0.0000 0.0000 0.0000 0.0000 39.8182
#
#
#
# Elastic Compliance Matrix: (Units=1/GPa)
#
#
# Indices 1 2 3 4 5 6 
#
# 1 0.015375 -0.005408 -0.002225 0.000000 0.000000 0.000000
# 2 -0.005408 0.016432 0.001996 0.000000 0.000000 0.000000
# 3 -0.002225 0.001996 0.012831 0.000000 0.000000 0.000000
# 4 0.000000 0.000000 0.000000 0.022057 0.000000 0.000000
# 5 0.000000 0.000000 0.000000 0.000000 0.028979 0.000000
# 6 0.000000 0.000000 0.000000 0.000000 0.000000 0.025114
#
#
# Mechanical properties :
#
#
# Convention : Reuss Voigt Hill
#
# Bulk Modulus (GPa) = 29.97219 30.73332 30.35276
# Shear Modulus (GPa) = 34.92042 37.17353 36.04697
#
# Velocity S-wave (km/s) = 3.99382 4.12065 4.05773
# Velocity P-wave (km/s) = 5.91252 6.05622 5.98480
#
# Compressibility (1/GPa) = 0.03336426
#
# Stress axis : x y z
#
# Youngs Moduli (GPa) = 65.03951 60.85863 77.93620
#
# Poissons Ratio (x) = 0.32912 0.17338
# Poissons Ratio (y) = 0.35173 -0.15555
# Poissons Ratio (z) = 0.14469 -0.12147
#
# Static dielectric constant tensor:
#      x y z
#    x 3.888610 0.000000 0.000000 
#    y 0.000000 4.068440 0.000000 
#    z 0.000000 0.000000 3.986720 
# 
# 
# High freq. dielectric constant tensor:
#      x y z
#    x 1.865610 0.000000 0.000000 
#    y 0.000000 1.876020 0.000000 
#    z 0.000000 0.000000 1.875770 
# 
# From -- ./inp_files/2665.got.cif
#   From: 2010.03.12/outbox.cif.g09.slc.cpg/sg36_2_cif.got.tgz:2665.got - 2010.04.14 02:13:53.
