data_PCOD8176766
_publ_section_title
;
Structure prediction by ZEFSAII (Michael W. Deem and Ramdas Pophale) SiO2 
 PCOD8176766
Probable space group: C C C 2
;
_chemical_formula_sum "Si O2"
_cell_formula_units_Z 60
_cell_length_a 14.743441
_cell_length_b 22.775974
_cell_length_c 8.772816
_cell_angle_alpha 90.000000
_cell_angle_beta 90.000000
_cell_angle_gamma 90.000000
_cell_volume 2945.878530
_symmetry_space_group_name_H-M "C C C 2"
_symmetry_group_IT_number 37
_symmetry_cell_setting 'orthorhombic'
loop_
_space_group_symop_operation_xyz
x,y,z
-x,-y,z
-x,y,1/2+z
x,-y,1/2+z
1/2+x,1/2+y,z
1/2-x,1/2-y,z
1/2-x,1/2+y,1/2+z
1/2+x,1/2-y,1/2+z
loop_
_atom_site_type_symbol
_atom_site_label
_atom_site_fract_x
_atom_site_fract_y
_atom_site_fract_z
Si Si1 0.594158 0.205981 0.907990
Si Si2 0.579239 0.333988 0.388752
Si Si3 0.131056 0.520729 0.531250
Si Si4 0.000000 0.500000 0.284414
Si Si5 0.904856 0.287829 0.546020
Si Si6 0.270077 0.877649 0.412800
Si Si7 0.788209 0.608510 0.563905
Si Si8 0.100871 0.832969 0.038763
O O1 0.590507 0.207757 0.726819
O O2 0.496805 0.186225 0.973735
O O3 0.663698 0.157237 0.962982
O O4 0.626879 0.270056 0.965898
O O5 0.604046 0.278338 0.490855
O O6 0.661534 0.378333 0.413121
O O7 0.570963 0.317932 0.211128
O O8 0.484253 0.361139 0.447602
O O9 0.062963 0.538982 0.393810
O O10 0.211945 0.566442 0.520338
O O11 0.173457 0.455614 0.518265
O O12 0.071549 0.535406 0.680685
O O13 0.815737 0.320835 0.486301
O O14 0.308305 0.883178 0.241829
O O15 0.681097 0.618749 0.530585
#
# Coordination Sequence:
#
# PCOD8176766 Si02
#       8
#     8   8   8   4   8   8   8   8
#     4  11  23  36  59  90 122 158 197 240 296 354
#     4  10  21  41  62  86 118 156 197 247 297 346
#     4  11  24  42  61  90 120 156 197 234 293 348
#     4  10  24  42  64  82 126 158 192 238 284 348
#     4  11  23  36  59  90 122 158 197 240 296 354
#     4  11  24  40  61  87 120 157 199 244 294 351
#     4  11  24  40  61  87 120 157 199 244 294 351
#     4  10  21  41  62  86 118 156 197 247 297 346
#
# _framework density 20.367439000000001
#
# number of rings (size 3 to 8) (size 9 to 14) (size 15 to 20)
#    0.000    1.333    1.333    5.600    5.600    5.333 
#    0.000    0.667    0.000    3.200    0.000    0.000 
#    0.000    0.000    0.000    0.000    0.000    0.000 
#
# Total GULP energy -371814.367328 kJ/mol
# GULP energy per Si atom -12393.812244 kJ/mol
# Density = 2.032108 g / cm^3
# Si number density = 20.367439 Si / 1000 Ang^3
#
#
#
# Elastic Constant Matrix: (Units=GPa)
#
#
# Indices 1 2 3 4 5 6 
#
# 1 104.1912 39.5397 38.5720 0.0000 0.0000 0.0000
# 2 39.5397 61.5813 22.1033 0.0000 0.0000 0.0000
# 3 38.5720 22.1033 131.4445 0.0000 0.0000 0.0000
# 4 0.0000 0.0000 0.0000 19.9045 0.0000 0.0000
# 5 0.0000 0.0000 0.0000 0.0000 43.7382 0.0000
# 6 0.0000 0.0000 0.0000 0.0000 0.0000 23.0614
#
#
#
# Elastic Compliance Matrix: (Units=1/GPa)
#
#
# Indices 1 2 3 4 5 6 
#
# 1 0.013515 -0.007720 -0.002668 0.000000 0.000000 0.000000
# 2 -0.007720 0.021692 -0.001382 0.000000 0.000000 0.000000
# 3 -0.002668 -0.001382 0.008623 0.000000 0.000000 0.000000
# 4 0.000000 0.000000 0.000000 0.050240 0.000000 0.000000
# 5 0.000000 0.000000 0.000000 0.000000 0.022863 0.000000
# 6 0.000000 0.000000 0.000000 0.000000 0.000000 0.043362
#
#
# Mechanical properties :
#
#
# Convention : Reuss Voigt Hill
#
# Bulk Modulus (GPa) = 49.28609 55.29411 52.29010
# Shear Modulus (GPa) = 26.23311 30.47429 28.35370
#
# Velocity S-wave (km/s) = 3.59275 3.87230 3.73515
# Velocity P-wave (km/s) = 6.43906 6.87024 6.65814
#
# Compressibility (1/GPa) = 0.02028970
#
# Stress axis : x y z
#
# Youngs Moduli (GPa) = 73.99142 46.10062 115.96837
#
# Poissons Ratio (x) = 0.35590 0.30938
# Poissons Ratio (y) = 0.57122 0.16029
# Poissons Ratio (z) = 0.19739 0.06372
#
# Static dielectric constant tensor:
#      x y z
#    x 4.020420 0.000000 0.000000 
#    y 0.000000 3.371710 0.000000 
#    z 0.000000 0.000000 4.006470 
# 
# 
# High freq. dielectric constant tensor:
#      x y z
#    x 1.807150 0.000000 0.000000 
#    y 0.000000 1.763200 0.000000 
#    z 0.000000 0.000000 1.818240 
# 
# From -- ./inp_files/3724.got.cif
#   From: 2010.03.12/outbox.cif.g09.slc.cpg/sg37_2_cif.got.tgz:3724.got - 2010.04.14 02:25:27.
