data_PCOD8176550
_publ_section_title
;
Structure prediction by ZEFSAII (Michael W. Deem and Ramdas Pophale) SiO2 
 PCOD8176550
Probable space group: C C C 2
;
_chemical_formula_sum "Si O2"
_cell_formula_units_Z 64
_cell_length_a 15.335665
_cell_length_b 8.654038
_cell_length_c 23.538468
_cell_angle_alpha 90.000000
_cell_angle_beta 90.000000
_cell_angle_gamma 90.000000
_cell_volume 3123.917847
_symmetry_space_group_name_H-M "C C C 2"
_symmetry_group_IT_number 37
_symmetry_cell_setting 'orthorhombic'
loop_
_space_group_symop_operation_xyz
x,y,z
-x,-y,z
-x,y,1/2+z
x,-y,1/2+z
1/2+x,1/2+y,z
1/2-x,1/2-y,z
1/2-x,1/2+y,1/2+z
1/2+x,1/2-y,1/2+z
loop_
_atom_site_type_symbol
_atom_site_label
_atom_site_fract_x
_atom_site_fract_y
_atom_site_fract_z
Si Si1 0.171778 0.864597 0.973010
Si Si2 0.243332 0.572261 0.254222
Si Si3 0.236975 0.571935 0.387632
Si Si4 0.166101 0.364273 0.064024
Si Si5 0.409540 0.441923 0.064938
Si Si6 0.097312 0.444289 0.463718
Si Si7 0.904050 0.428857 0.681770
Si Si8 0.590682 0.430927 0.694727
O O1 0.250000 0.750000 0.984788
O O2 0.092135 0.743628 0.963395
O O3 0.187197 0.970852 0.917715
O O4 0.164704 0.974450 0.028031
O O5 0.250000 0.750000 0.237075
O O6 0.244441 0.546958 0.321173
O O7 0.151464 0.510541 0.230848
O O8 0.326860 0.482705 0.230892
O O9 0.250000 0.750000 0.405339
O O10 0.141300 0.511001 0.406469
O O11 0.250000 0.250000 0.065152
O O12 0.152212 0.450687 0.123969
O O13 0.087030 0.242673 0.056635
O O14 0.160913 0.489502 0.013864
O O15 0.500000 0.500000 0.040039
O O16 0.395103 0.489756 0.130305
O O17 0.000000 0.500000 0.470961
O O18 0.915900 0.251983 0.698326
O O19 0.000000 0.500000 0.675285
O O20 0.500000 0.500000 0.719139
#
# Coordination Sequence:
#
# PCOD8176550 Si02
#       8
#     8   8   8   8   8   8   8   8
#     4  10  21  36  57  85 112 150 191 234 290 349
#     4  11  24  42  64  87 115 159 209 258 311 363
#     4  10  23  43  61  80 113 155 201 247 298 363
#     4  11  21  37  59  86 122 164 198 239 301 367
#     4  10  20  35  56  84 118 152 187 231 288 351
#     4  11  22  36  59  90 121 152 195 249 301 360
#     4  11  23  39  62  91 124 161 203 253 307 364
#     4  10  22  40  62  91 124 159 200 249 306 369
#
# _framework density 20.487093999999999
#
# number of rings (size 3 to 8) (size 9 to 14) (size 15 to 20)
#    0.000    1.500    0.000    6.375    0.000    7.000 
#    0.000    3.125    0.000    0.000    0.000    0.000 
#    0.000    0.000    0.000    0.000    0.000    0.000 
#
# Total GULP energy -396738.924910 kJ/mol
# GULP energy per Si atom -12398.091403 kJ/mol
# Density = 2.044046 g / cm^3
# Si number density = 20.487094 Si / 1000 Ang^3
#
#
#
# Elastic Constant Matrix: (Units=GPa)
#
#
# Indices 1 2 3 4 5 6 
#
# 1 104.8345 37.0940 40.6341 0.0000 0.0000 0.0000
# 2 37.0940 128.7005 59.6686 0.0000 0.0000 0.0000
# 3 40.6341 59.6686 94.7399 0.0000 0.0000 0.0000
# 4 0.0000 0.0000 0.0000 31.8154 0.0000 0.0000
# 5 0.0000 0.0000 0.0000 0.0000 21.7046 0.0000
# 6 0.0000 0.0000 0.0000 0.0000 0.0000 32.7910
#
#
#
# Elastic Compliance Matrix: (Units=1/GPa)
#
#
# Indices 1 2 3 4 5 6 
#
# 1 0.011634 -0.001469 -0.004065 0.000000 0.000000 0.000000
# 2 -0.001469 0.011160 -0.006399 0.000000 0.000000 0.000000
# 3 -0.004065 -0.006399 0.016329 0.000000 0.000000 0.000000
# 4 0.000000 0.000000 0.000000 0.031431 0.000000 0.000000
# 5 0.000000 0.000000 0.000000 0.000000 0.046073 0.000000
# 6 0.000000 0.000000 0.000000 0.000000 0.000000 0.030496
#
#
# Mechanical properties :
#
#
# Convention : Reuss Voigt Hill
#
# Bulk Modulus (GPa) = 65.53908 67.00759 66.27333
# Shear Modulus (GPa) = 28.39718 29.98743 29.19230
#
# Velocity S-wave (km/s) = 3.72708 3.83001 3.77890
# Velocity P-wave (km/s) = 7.11206 7.23442 7.17350
#
# Compressibility (1/GPa) = 0.01525807
#
# Stress axis : x y z
#
# Youngs Moduli (GPa) = 85.95461 89.60682 61.24177
#
# Poissons Ratio (x) = 0.13159 0.24894
# Poissons Ratio (y) = 0.12623 0.39187
# Poissons Ratio (z) = 0.34940 0.57337
#
# Static dielectric constant tensor:
#      x y z
#    x 3.784080 0.000000 0.000000 
#    y 0.000000 4.274390 0.000000 
#    z 0.000000 0.000000 3.586090 
# 
# 
# High freq. dielectric constant tensor:
#      x y z
#    x 1.806410 0.000000 0.000000 
#    y 0.000000 1.820920 0.000000 
#    z 0.000000 0.000000 1.788990 
# 
# From -- ./inp_files/18874.got.cif
#   From: 2010.03.12/outbox.cif.g09.slc.cpg/sg37_10_cif.got.tgz:18874.got - 2010.04.14 02:25:27.
