data_PCOD8176598
_publ_section_title
;
Structure prediction by ZEFSAII (Michael W. Deem and Ramdas Pophale) SiO2 
 PCOD8176598
Probable space group: C C C 2
;
_chemical_formula_sum "Si O2"
_cell_formula_units_Z 64
_cell_length_a 19.182363
_cell_length_b 12.820430
_cell_length_c 12.563173
_cell_angle_alpha 90.000000
_cell_angle_beta 90.000000
_cell_angle_gamma 90.000000
_cell_volume 3089.612668
_symmetry_space_group_name_H-M "C C C 2"
_symmetry_group_IT_number 37
_symmetry_cell_setting 'orthorhombic'
loop_
_space_group_symop_operation_xyz
x,y,z
-x,-y,z
-x,y,1/2+z
x,-y,1/2+z
1/2+x,1/2+y,z
1/2-x,1/2-y,z
1/2-x,1/2+y,1/2+z
1/2+x,1/2-y,1/2+z
loop_
_atom_site_type_symbol
_atom_site_label
_atom_site_fract_x
_atom_site_fract_y
_atom_site_fract_z
Si Si1 0.813767 0.448993 0.105810
Si Si2 0.685309 0.601318 0.467677
Si Si3 0.910205 0.873402 0.745951
Si Si4 0.087666 0.727462 0.045580
Si Si5 0.058119 0.226579 0.963519
Si Si6 0.928058 0.032164 0.580089
Si Si7 0.767129 0.055000 0.311209
Si Si8 0.802385 0.336329 0.504778
O O1 0.884716 0.386862 0.078257
O O2 0.797409 0.447663 0.230923
O O3 0.821895 0.571805 0.085457
O O4 0.754311 0.390420 0.038674
O O5 0.643607 0.711074 0.470073
O O6 0.637695 0.511724 0.518007
O O7 0.705822 0.561059 0.348368
O O8 0.927950 0.791951 0.652742
O O9 0.827330 0.875535 0.759084
O O10 0.931428 0.989300 0.702117
O O11 0.948481 0.843191 0.855710
O O12 0.015035 0.713202 0.981229
O O13 0.074947 0.156925 0.068914
O O14 0.124383 0.301150 0.953803
O O15 0.000000 0.000000 0.520854
O O16 0.744692 0.116342 0.413837
O O17 0.750000 0.250000 0.557675
#
# Coordination Sequence:
#
# PCOD8176598 Si02
#       8
#     8   8   8   8   8   8   8   8
#     4  11  23  42  66  93 130 171 230 269 323 394
#     4  10  20  37  61  96 130 164 211 272 326 381
#     4  11  22  37  67  97 124 180 214 269 332 410
#     4  11  24  41  63  98 133 177 218 274 327 407
#     4  12  23  43  62  95 138 174 219 271 341 396
#     4  11  20  37  58  99 135 164 214 269 334 392
#     4  11  21  38  71  98 122 173 221 271 327 398
#     4  11  24  43  69  94 127 170 225 278 329 397
#
# _framework density 20.714570999999999
#
# number of rings (size 3 to 8) (size 9 to 14) (size 15 to 20)
#    0.000    1.000    7.500    1.875    0.000    2.000 
#    0.000    5.000    0.000    4.500    0.000    0.000 
#    0.000    0.000    0.000    0.000    0.000    0.000 
#
# Total GULP energy -396507.076334 kJ/mol
# GULP energy per Si atom -12390.846135 kJ/mol
# Density = 2.066742 g / cm^3
# Si number density = 20.714571 Si / 1000 Ang^3
#
#
#
# Elastic Constant Matrix: (Units=GPa)
#
#
# Indices 1 2 3 4 5 6 
#
# 1 93.9841 30.3822 36.4463 0.0000 0.0000 0.0000
# 2 30.3822 91.4606 33.1899 0.0000 0.0000 0.0000
# 3 36.4463 33.1899 75.5950 0.0000 0.0000 0.0000
# 4 0.0000 0.0000 0.0000 16.1881 0.0000 0.0000
# 5 0.0000 0.0000 0.0000 0.0000 27.2973 0.0000
# 6 0.0000 0.0000 0.0000 0.0000 0.0000 32.2089
#
#
#
# Elastic Compliance Matrix: (Units=1/GPa)
#
#
# Indices 1 2 3 4 5 6 
#
# 1 0.013564 -0.002537 -0.005426 0.000000 0.000000 0.000000
# 2 -0.002537 0.013480 -0.004695 0.000000 0.000000 0.000000
# 3 -0.005426 -0.004695 0.017906 0.000000 0.000000 0.000000
# 4 0.000000 0.000000 0.000000 0.061774 0.000000 0.000000
# 5 0.000000 0.000000 0.000000 0.000000 0.036634 0.000000
# 6 0.000000 0.000000 0.000000 0.000000 0.000000 0.031047
#
#
# Mechanical properties :
#
#
# Convention : Reuss Voigt Hill
#
# Bulk Modulus (GPa) = 50.93185 51.23073 51.08129
# Shear Modulus (GPa) = 24.24050 25.87360 25.05705
#
# Velocity S-wave (km/s) = 3.42455 3.53803 3.48175
# Velocity P-wave (km/s) = 6.34646 6.44016 6.39348
#
# Compressibility (1/GPa) = 0.01963408
#
# Stress axis : x y z
#
# Youngs Moduli (GPa) = 73.72281 74.18226 55.84764
#
# Poissons Ratio (x) = 0.18820 0.30302
# Poissons Ratio (y) = 0.18703 0.26223
# Poissons Ratio (z) = 0.40001 0.34831
#
# Static dielectric constant tensor:
#      x y z
#    x 3.940170 0.000000 0.000000 
#    y 0.000000 3.870600 0.000000 
#    z 0.000000 0.000000 3.778490 
# 
# 
# High freq. dielectric constant tensor:
#      x y z
#    x 1.818480 0.000000 0.000000 
#    y 0.000000 1.789580 0.000000 
#    z 0.000000 0.000000 1.792810 
# 
# From -- ./inp_files/8358.got.cif
#   From: 2010.03.12/outbox.cif.g09.slc.cpg/sg37_5_cif.got.tgz:8358.got - 2010.04.14 02:25:27.
