data_PCOD8176631
_publ_section_title
;
Structure prediction by ZEFSAII (Michael W. Deem and Ramdas Pophale) SiO2 
 PCOD8176631
Probable space group: C C C 2
;
_chemical_formula_sum "Si O2"
_cell_formula_units_Z 32
_cell_length_a 8.808213
_cell_length_b 14.990995
_cell_length_c 13.237529
_cell_angle_alpha 90.000000
_cell_angle_beta 90.000000
_cell_angle_gamma 90.000000
_cell_volume 1747.934652
_symmetry_space_group_name_H-M "C C C 2"
_symmetry_group_IT_number 37
_symmetry_cell_setting 'orthorhombic'
loop_
_space_group_symop_operation_xyz
x,y,z
-x,-y,z
-x,y,1/2+z
x,-y,1/2+z
1/2+x,1/2+y,z
1/2-x,1/2-y,z
1/2-x,1/2+y,1/2+z
1/2+x,1/2-y,1/2+z
loop_
_atom_site_type_symbol
_atom_site_label
_atom_site_fract_x
_atom_site_fract_y
_atom_site_fract_z
Si Si1 0.172309 0.155556 0.597310
Si Si2 0.678129 0.003988 0.219614
Si Si3 0.647894 0.662422 0.192694
Si Si4 0.861638 0.934729 0.388223
O O1 0.250000 0.250000 0.595429
O O2 0.197410 0.108968 0.490128
O O3 0.994876 0.170155 0.618956
O O4 0.253288 0.097110 0.682865
O O5 0.752492 0.922546 0.155303
O O6 0.723674 0.991552 0.337755
O O7 0.500000 0.000000 0.205250
O O8 0.750000 0.750000 0.187286
O O9 0.591086 0.643305 0.307998
O O10 0.000000 0.000000 0.411652
#
# Coordination Sequence:
#
# PCOD8176631 Si02
#       4
#     8   8   8   8
#     4  12  23  40  65  97 124 168 213 257 317 378
#     4  10  21  40  64  92 128 167 205 262 309 373
#     4  10  20  40  63  92 127 166 202 263 311 368
#     4  10  21  40  65  88 128 166 207 258 316 368
#
# _framework density 18.307321000000002
#
# number of rings (size 3 to 8) (size 9 to 14) (size 15 to 20)
#    1.500    0.000    2.500    4.500    0.000    1.000 
#    0.000    3.750    0.000    0.000    0.000    0.000 
#    0.000    0.000    0.000    0.000    0.000    0.000 
#
# Total GULP energy -198309.961802 kJ/mol
# GULP energy per Si atom -12394.372613 kJ/mol
# Density = 1.826565 g / cm^3
# Si number density = 18.307321 Si / 1000 Ang^3
#
#
#
# Elastic Constant Matrix: (Units=GPa)
#
#
# Indices 1 2 3 4 5 6 
#
# 1 143.7996 76.1427 39.2607 0.0000 0.0000 0.0000
# 2 76.1427 148.0607 53.4945 0.0000 0.0000 0.0000
# 3 39.2607 53.4945 103.8566 0.0000 0.0000 0.0000
# 4 0.0000 0.0000 0.0000 33.8308 0.0000 0.0000
# 5 0.0000 0.0000 0.0000 0.0000 -3.4470 0.0000
# 6 0.0000 0.0000 0.0000 0.0000 0.0000 45.5727
#
#
#
# Elastic Compliance Matrix: (Units=1/GPa)
#
#
# Indices 1 2 3 4 5 6 
#
# 1 0.009708 -0.004505 -0.001349 0.000000 0.000000 0.000000
# 2 -0.004505 0.010389 -0.003648 0.000000 0.000000 0.000000
# 3 -0.001349 -0.003648 0.012018 0.000000 0.000000 0.000000
# 4 0.000000 0.000000 0.000000 0.029559 0.000000 0.000000
# 5 0.000000 0.000000 0.000000 0.000000 -0.290105 0.000000
# 6 0.000000 0.000000 0.000000 0.000000 0.000000 0.021943
#
#
# Mechanical properties :
#
#
# Convention : Reuss Voigt Hill
#
# Bulk Modulus (GPa) = 76.27973 81.50140 78.89056
# Shear Modulus (GPa) = -27.30544 30.31255 1.50356
#
# Velocity S-wave (km/s) = -3.86619 4.07352 0.90723
# Velocity P-wave (km/s) = 4.67192 8.16945 6.65457
#
# Compressibility (1/GPa) = 0.01310964
#
# Stress axis : x y z
#
# Youngs Moduli (GPa) = 103.00853 96.25791 83.20955
#
# Poissons Ratio (x) = 0.43363 0.11229
# Poissons Ratio (y) = 0.46404 0.30355
# Poissons Ratio (z) = 0.13901 0.35116
#
# Static dielectric constant tensor:
#      x y z
#    x 3.528780 0.000000 0.000000 
#    y 0.000000 3.367400 0.000000 
#    z 0.000000 0.000000 3.228210 
# 
# 
# High freq. dielectric constant tensor:
#      x y z
#    x 1.709530 0.000000 0.000000 
#    y 0.000000 1.717310 0.000000 
#    z 0.000000 0.000000 1.695950 
# 
# From -- ./inp_files/5932.got.cif
#   From: 2010.03.12/outbox.cif.g09.slc.cpg/sg37_3_cif.got.tgz:5932.got - 2010.04.14 02:25:27.
