data_PCOD8176828
_publ_section_title
;
Structure prediction by ZEFSAII (Michael W. Deem and Ramdas Pophale) SiO2 
 PCOD8176828
Probable space group: C C C 2
;
_chemical_formula_sum "Si O2"
_cell_formula_units_Z 56
_cell_length_a 11.496778
_cell_length_b 16.051777
_cell_length_c 14.745686
_cell_angle_alpha 90.000000
_cell_angle_beta 90.000000
_cell_angle_gamma 90.000000
_cell_volume 2721.223699
_symmetry_space_group_name_H-M "C C C 2"
_symmetry_group_IT_number 37
_symmetry_cell_setting 'orthorhombic'
loop_
_space_group_symop_operation_xyz
x,y,z
-x,-y,z
-x,y,1/2+z
x,-y,1/2+z
1/2+x,1/2+y,z
1/2-x,1/2-y,z
1/2-x,1/2+y,1/2+z
1/2+x,1/2-y,1/2+z
loop_
_atom_site_type_symbol
_atom_site_label
_atom_site_fract_x
_atom_site_fract_y
_atom_site_fract_z
Si Si1 0.764979 0.347737 0.882790
Si Si2 0.422354 0.656927 0.747184
Si Si3 0.060610 0.416885 0.656606
Si Si4 0.622182 0.122254 0.506445
Si Si5 0.238084 0.965666 0.043080
Si Si6 0.250000 0.250000 0.122396
Si Si7 0.000000 0.000000 0.137671
Si Si8 0.514980 0.813981 0.828163
O O1 0.750000 0.250000 0.894987
O O2 0.680835 0.385405 0.805152
O O3 0.896660 0.363891 0.851654
O O4 0.725947 0.388125 0.976497
O O5 0.362750 0.723971 0.680144
O O6 0.495336 0.583913 0.698786
O O7 0.502228 0.713830 0.813953
O O8 0.194172 0.436619 0.632951
O O9 0.000000 0.500000 0.694709
O O10 0.996112 0.385407 0.564897
O O11 0.066045 0.348672 0.734719
O O12 0.717859 0.171749 0.562389
O O13 0.601224 0.168912 0.411606
O O14 0.683618 0.033604 0.489611
O O15 0.112050 0.998275 0.072965
#
# Coordination Sequence:
#
# PCOD8176828 Si02
#       8
#     8   8   8   8   8   4   4   8
#     4  10  22  41  67  98 133 178 232 282 349 423
#     4  11  23  45  71  94 133 192 235 280 355 431
#     4  10  22  37  67 101 132 169 224 292 349 401
#     4  11  23  42  70 103 132 177 231 292 353 414
#     4  11  25  43  64 100 141 179 226 292 356 418
#     4  12  20  46  74  92 144 180 230 278 354 428
#     4  12  28  46  66  96 144 198 230 282 370 442
#     4  11  22  41  71 103 132 177 233 296 349 413
#
# _framework density 20.578979
#
# number of rings (size 3 to 8) (size 9 to 14) (size 15 to 20)
#    0.000    1.143    6.429    0.000    4.000    4.000 
#    5.143    0.000    0.000    0.000    0.000    0.000 
#    0.000    0.000    0.000    0.000    0.000    0.000 
#
# Total GULP energy -347228.269259 kJ/mol
# GULP energy per Si atom -12401.009616 kJ/mol
# Density = 2.053214 g / cm^3
# Si number density = 20.578979 Si / 1000 Ang^3
#
#
#
# Elastic Constant Matrix: (Units=GPa)
#
#
# Indices 1 2 3 4 5 6 
#
# 1 91.8464 20.4084 39.3955 0.0000 0.0000 0.0000
# 2 20.4084 73.6149 38.3643 0.0000 0.0000 0.0000
# 3 39.3955 38.3643 102.6208 0.0000 0.0000 0.0000
# 4 0.0000 0.0000 0.0000 38.0488 0.0000 0.0000
# 5 0.0000 0.0000 0.0000 0.0000 11.1846 0.0000
# 6 0.0000 0.0000 0.0000 0.0000 0.0000 30.4117
#
#
#
# Elastic Compliance Matrix: (Units=1/GPa)
#
#
# Indices 1 2 3 4 5 6 
#
# 1 0.013127 -0.001258 -0.004569 0.000000 0.000000 0.000000
# 2 -0.001258 0.016992 -0.005869 0.000000 0.000000 0.000000
# 3 -0.004569 -0.005869 0.013693 0.000000 0.000000 0.000000
# 4 0.000000 0.000000 0.000000 0.026282 0.000000 0.000000
# 5 0.000000 0.000000 0.000000 0.000000 0.089409 0.000000
# 6 0.000000 0.000000 0.000000 0.000000 0.000000 0.032882
#
#
# Mechanical properties :
#
#
# Convention : Reuss Voigt Hill
#
# Bulk Modulus (GPa) = 48.97454 51.60205 50.28829
# Shear Modulus (GPa) = 22.46343 27.25660 24.86001
#
# Velocity S-wave (km/s) = 3.30748 3.64330 3.47944
# Velocity P-wave (km/s) = 6.19967 6.54429 6.37431
#
# Compressibility (1/GPa) = 0.02041877
#
# Stress axis : x y z
#
# Youngs Moduli (GPa) = 76.17836 58.85199 73.03077
#
# Poissons Ratio (x) = 0.07404 0.33368
# Poissons Ratio (y) = 0.09584 0.42864
# Poissons Ratio (z) = 0.34806 0.34542
#
# Static dielectric constant tensor:
#      x y z
#    x 3.694590 0.000000 0.000000 
#    y 0.000000 3.688460 0.000000 
#    z 0.000000 0.000000 3.640970 
# 
# 
# High freq. dielectric constant tensor:
#      x y z
#    x 1.794940 0.000000 0.000000 
#    y 0.000000 1.803540 0.000000 
#    z 0.000000 0.000000 1.803320 
# 
# From -- ./inp_files/11631.got.cif
#   From: 2010.03.12/outbox.cif.g09.slc.cpg/sg37_6_cif.got.tgz:11631.got - 2010.04.14 02:25:27.
