data_PCOD8176400
_publ_section_title
;
Structure prediction by ZEFSAII (Michael W. Deem and Ramdas Pophale) SiO2 
 PCOD8176400
Probable space group: C C C 2
;
_chemical_formula_sum "Si O2"
_cell_formula_units_Z 32
_cell_length_a 6.971673
_cell_length_b 35.988398
_cell_length_c 5.330517
_cell_angle_alpha 90.000000
_cell_angle_beta 90.000000
_cell_angle_gamma 90.000000
_cell_volume 1337.423211
_symmetry_space_group_name_H-M "C C C 2"
_symmetry_group_IT_number 37
_symmetry_cell_setting 'orthorhombic'
loop_
_space_group_symop_operation_xyz
x,y,z
-x,-y,z
-x,y,1/2+z
x,-y,1/2+z
1/2+x,1/2+y,z
1/2-x,1/2-y,z
1/2-x,1/2+y,1/2+z
1/2+x,1/2-y,1/2+z
loop_
_atom_site_type_symbol
_atom_site_label
_atom_site_fract_x
_atom_site_fract_y
_atom_site_fract_z
Si Si1 0.220437 0.793437 0.146220
Si Si2 0.880482 0.091380 0.648451
Si Si3 0.213626 0.484522 0.219558
Si Si4 0.210747 0.824456 0.646368
O O1 0.250000 0.750000 0.176886
O O2 0.318074 0.813128 0.388180
O O3 0.000370 0.806506 0.123936
O O4 0.320275 0.807034 0.887148
O O5 0.717623 0.059984 0.684954
O O6 0.785447 0.131445 0.676671
O O7 0.964356 0.086754 0.369306
O O8 0.318483 0.495828 0.481430
O O9 0.000000 0.500000 0.253623
#
# Coordination Sequence:
#
# PCOD8176400 Si02
#       4
#     8   8   8   8
#     4  10  18  32  56  79 118 150 182 246 301 348
#     4  12  21  37  65  93 122 157 213 273 303 364
#     4  10  23  42  62  87 127 166 201 253 327 382
#     4  10  19  35  52  87 113 146 202 243 301 345
#
# _framework density 23.926608000000002
#
# number of rings (size 3 to 8) (size 9 to 14) (size 15 to 20)
#    0.000    1.500    5.000    2.250    0.000    3.000 
#    0.000    0.000    0.000   36.000    0.000    0.000 
#    0.000    0.000    0.000    0.000    0.000    0.000 
#
# Total GULP energy -198253.971490 kJ/mol
# GULP energy per Si atom -12390.873218 kJ/mol
# Density = 2.387215 g / cm^3
# Si number density = 23.926608 Si / 1000 Ang^3
#
#
#
# Elastic Constant Matrix: (Units=GPa)
#
#
# Indices 1 2 3 4 5 6 
#
# 1 37.1610 17.5111 -18.5133 0.0000 0.0000 0.0000
# 2 17.5111 164.6761 3.3571 0.0000 0.0000 0.0000
# 3 -18.5133 3.3571 224.8408 0.0000 0.0000 0.0000
# 4 0.0000 0.0000 0.0000 44.4467 0.0000 0.0000
# 5 0.0000 0.0000 0.0000 0.0000 -37.6027 0.0000
# 6 0.0000 0.0000 0.0000 0.0000 0.0000 30.3395
#
#
#
# Elastic Compliance Matrix: (Units=1/GPa)
#
#
# Indices 1 2 3 4 5 6 
#
# 1 0.029661 -0.003205 0.002490 0.000000 0.000000 0.000000
# 2 -0.003205 0.006421 -0.000360 0.000000 0.000000 0.000000
# 3 0.002490 -0.000360 0.004658 0.000000 0.000000 0.000000
# 4 0.000000 0.000000 0.000000 0.022499 0.000000 0.000000
# 5 0.000000 0.000000 0.000000 0.000000 -0.026594 0.000000
# 6 0.000000 0.000000 0.000000 0.000000 0.000000 0.032960
#
#
# Mechanical properties :
#
#
# Convention : Reuss Voigt Hill
#
# Bulk Modulus (GPa) = 25.91319 47.93198 36.92259
# Shear Modulus (GPa) = 59.08981 35.72489 47.40735
#
# Velocity S-wave (km/s) = 4.97493 3.86826 4.45608
# Velocity P-wave (km/s) = 6.62221 6.32674 6.47616
#
# Compressibility (1/GPa) = 0.03859038
#
# Stress axis : x y z
#
# Youngs Moduli (GPa) = 33.71476 155.74761 214.68461
#
# Poissons Ratio (x) = 0.49914 -0.53458
# Poissons Ratio (y) = 0.10805 0.07723
# Poissons Ratio (z) = -0.08395 0.05603
#
# Static dielectric constant tensor:
#      x y z
#    x 3.682440 0.000000 0.000000 
#    y 0.000000 4.342610 0.000000 
#    z 0.000000 0.000000 7.067210 
# 
# 
# High freq. dielectric constant tensor:
#      x y z
#    x 1.898420 0.000000 0.000000 
#    y 0.000000 1.955110 0.000000 
#    z 0.000000 0.000000 2.000810 
# 
# From -- ./inp_files/144.got.cif
#   From: 2010.03.12/outbox.cif.g09.slc.cpg/sg37_1_cif.got.tgz:144.got - 2010.04.14 02:25:27.
