data_PCOD8176390
_publ_section_title
;
Structure prediction by ZEFSAII (Michael W. Deem and Ramdas Pophale) SiO2 
 PCOD8176390
Probable space group: C C C 2
;
_chemical_formula_sum "Si O2"
_cell_formula_units_Z 64
_cell_length_a 27.172012
_cell_length_b 29.664924
_cell_length_c 5.214051
_cell_angle_alpha 90.000000
_cell_angle_beta 90.000000
_cell_angle_gamma 90.000000
_cell_volume 4202.815377
_symmetry_space_group_name_H-M "C C C 2"
_symmetry_group_IT_number 37
_symmetry_cell_setting 'orthorhombic'
loop_
_space_group_symop_operation_xyz
x,y,z
-x,-y,z
-x,y,1/2+z
x,-y,1/2+z
1/2+x,1/2+y,z
1/2-x,1/2-y,z
1/2-x,1/2+y,1/2+z
1/2+x,1/2-y,1/2+z
loop_
_atom_site_type_symbol
_atom_site_label
_atom_site_fract_x
_atom_site_fract_y
_atom_site_fract_z
Si Si1 0.887570 0.525608 0.820070
Si Si2 0.672145 0.763327 0.256218
Si Si3 0.225955 0.528222 0.279503
Si Si4 0.269141 0.320528 0.248057
Si Si5 0.975747 0.324646 0.215040
Si Si6 0.477981 0.926836 0.197211
Si Si7 0.361273 0.809755 0.256169
Si Si8 0.262776 0.132125 0.750065
O O1 0.900194 0.486618 0.613468
O O2 0.831561 0.538081 0.781386
O O3 0.919573 0.569218 0.746308
O O4 0.680655 0.709150 0.251301
O O5 0.724471 0.786457 0.247386
O O6 0.645240 0.776342 0.517871
O O7 0.641093 0.779952 0.012819
O O8 0.242637 0.501919 0.536242
O O9 0.246358 0.578585 0.261009
O O10 0.265312 0.352242 0.495334
O O11 0.267516 0.349715 0.991333
O O12 0.995419 0.375434 0.188078
O O13 0.916783 0.327647 0.237618
O O14 0.002844 0.300585 0.457601
O O15 0.506883 0.951137 0.431903
O O16 0.320090 0.850209 0.254488
#
# Coordination Sequence:
#
# PCOD8176390 Si02
#       8
#     8   8   8   8   8   8   8   8
#     4  10  20  31  42  54  69  89 117 159 205 249
#     4   9  17  28  43  65  87 103 124 158 202 253
#     4  10  20  32  43  57  77 101 133 169 200 233
#     4   9  17  28  43  65  87 103 124 158 202 253
#     4  10  20  32  43  57  77 101 133 169 200 233
#     4  10  20  31  42  54  69  89 117 159 205 249
#     4  10  18  29  46  62  80 108 135 163 209 258
#     4  10  18  29  46  62  80 108 135 163 209 258
#
# _framework density 15.227887000000001
#
# number of rings (size 3 to 8) (size 9 to 14) (size 15 to 20)
#    0.000    2.250    0.000    3.750    0.000    4.500 
#    0.000    7.500    0.000    0.000    0.000    0.000 
#    0.000    0.000    0.000    0.000    0.000    0.000 
#
# Total GULP energy -396492.449535 kJ/mol
# GULP energy per Si atom -12390.389048 kJ/mol
# Density = 1.519323 g / cm^3
# Si number density = 15.227887 Si / 1000 Ang^3
#
#
#
# Elastic Constant Matrix: (Units=GPa)
#
#
# Indices 1 2 3 4 5 6 
#
# 1 203.9263 -409.8427 31.7592 0.0000 0.0000 0.0000
# 2 -409.8427 1042.0014 -10.7395 0.0000 0.0000 0.0000
# 3 31.7592 -10.7395 130.8576 0.0000 0.0000 0.0000
# 4 0.0000 0.0000 0.0000 9.9048 0.0000 0.0000
# 5 0.0000 0.0000 0.0000 0.0000 15.4134 0.0000
# 6 0.0000 0.0000 0.0000 0.0000 0.0000 14.3697
#
#
#
# Elastic Compliance Matrix: (Units=1/GPa)
#
#
# Indices 1 2 3 4 5 6 
#
# 1 0.027080 0.010593 -0.005703 0.000000 0.000000 0.000000
# 2 0.010593 0.005104 -0.002152 0.000000 0.000000 0.000000
# 3 -0.005703 -0.002152 0.008849 0.000000 0.000000 0.000000
# 4 0.000000 0.000000 0.000000 0.100961 0.000000 0.000000
# 5 0.000000 0.000000 0.000000 0.000000 0.064879 0.000000
# 6 0.000000 0.000000 0.000000 0.000000 0.000000 0.069591
#
#
# Mechanical properties :
#
#
# Convention : Reuss Voigt Hill
#
# Bulk Modulus (GPa) = 21.50134 66.57103 44.03618
# Shear Modulus (GPa) = 17.45251 125.64481 71.54866
#
# Velocity S-wave (km/s) = 3.38907 9.09334 6.86202
# Velocity P-wave (km/s) = 5.42814 12.41222 9.57935
#
# Compressibility (1/GPa) = 0.04650873
#
# Stress axis : x y z
#
# Youngs Moduli (GPa) = 36.92699 195.93195 113.00158
#
# Poissons Ratio (x) = -2.07542 0.64446
# Poissons Ratio (y) = -0.39115 0.24317
# Poissons Ratio (z) = 0.21060 0.42164
#
# Static dielectric constant tensor:
#      x y z
#    x 2.606800 0.000000 0.000000 
#    y 0.000000 2.778160 0.000000 
#    z 0.000000 0.000000 -17.100460 
# 
# 
# High freq. dielectric constant tensor:
#      x y z
#    x 1.531140 0.000000 0.000000 
#    y 0.000000 1.552950 0.000000 
#    z 0.000000 0.000000 1.615490 
# 
# From -- ./inp_files/1277.got.cif
#   From: 2010.03.12/outbox.cif.g09.slc.cpg/sg37_1_cif.got.tgz:1277.got - 2010.04.14 02:25:27.
