data_PCOD8176830
_publ_section_title
;
Structure prediction by ZEFSAII (Michael W. Deem and Ramdas Pophale) SiO2 
 PCOD8176830
Probable space group: C C C 2
;
_chemical_formula_sum "Si O2"
_cell_formula_units_Z 48
_cell_length_a 21.031664
_cell_length_b 11.601808
_cell_length_c 8.434554
_cell_angle_alpha 90.000000
_cell_angle_beta 90.000000
_cell_angle_gamma 90.000000
_cell_volume 2058.076112
_symmetry_space_group_name_H-M "C C C 2"
_symmetry_group_IT_number 37
_symmetry_cell_setting 'orthorhombic'
loop_
_space_group_symop_operation_xyz
x,y,z
-x,-y,z
-x,y,1/2+z
x,-y,1/2+z
1/2+x,1/2+y,z
1/2-x,1/2-y,z
1/2-x,1/2+y,1/2+z
1/2+x,1/2-y,1/2+z
loop_
_atom_site_type_symbol
_atom_site_label
_atom_site_fract_x
_atom_site_fract_y
_atom_site_fract_z
Si Si1 0.939108 0.355101 0.410220
Si Si2 0.500000 0.500000 0.460861
Si Si3 0.060892 0.855101 0.220695
Si Si4 0.500000 0.000000 0.170054
Si Si5 0.699521 0.348066 0.113925
Si Si6 0.250000 0.549063 0.815457
Si Si7 0.699521 0.151933 0.516990
O O1 0.972332 0.250000 0.315458
O O2 0.940783 0.461179 0.283154
O O3 0.870587 0.308828 0.468052
O O4 0.978692 0.391391 0.564581
O O5 0.559217 0.461179 0.347761
O O6 0.478692 0.391391 0.566334
O O7 0.129413 0.808828 0.162862
O O8 0.750000 0.250000 0.168143
O O9 0.707683 0.469830 0.202087
O O10 0.705765 0.369515 0.925172
O O11 0.205765 0.630485 0.705743
O O12 0.207683 0.469830 0.928828
O O13 0.750000 0.250000 0.462772
#
# Coordination Sequence:
#
# PCOD8176830 Si02
#       7
#     8   4   8   4   8   8   8
#     4  11  22  41  65  93 128 166 215 266 313 378
#     4  10  24  42  64  94 126 172 218 258 314 370
#     4  11  22  41  65  93 128 166 215 266 313 378
#     4  10  24  42  64  94 126 172 218 258 314 370
#     4  11  22  39  62  92 126 165 206 259 320 377
#     4  10  22  38  58  90 126 162 206 248 318 382
#     4  11  22  39  62  92 126 165 206 259 320 377
#
# _framework density 23.322752999999999
#
# number of rings (size 3 to 8) (size 9 to 14) (size 15 to 20)
#    0.000    1.333    0.000    6.000    0.000    2.667 
#    0.000   10.000    0.000    0.000    0.000    0.000 
#    0.000    0.000    0.000    0.000    0.000    0.000 
#
# Total GULP energy -297411.876178 kJ/mol
# GULP energy per Si atom -12392.161507 kJ/mol
# Density = 2.326967 g / cm^3
# Si number density = 23.322753 Si / 1000 Ang^3
#
#
#
# Elastic Constant Matrix: (Units=GPa)
#
#
# Indices 1 2 3 4 5 6 
#
# 1 118.0052 35.5843 54.3466 0.0000 0.0000 0.0000
# 2 35.5843 85.6559 51.7090 0.0000 0.0000 0.0000
# 3 54.3466 51.7090 168.0062 0.0000 0.0000 0.0000
# 4 0.0000 0.0000 0.0000 49.4180 0.0000 0.0000
# 5 0.0000 0.0000 0.0000 0.0000 -5.8244 0.0000
# 6 0.0000 0.0000 0.0000 0.0000 0.0000 32.1620
#
#
#
# Elastic Compliance Matrix: (Units=1/GPa)
#
#
# Indices 1 2 3 4 5 6 
#
# 1 0.010490 -0.002837 -0.002520 0.000000 0.000000 0.000000
# 2 -0.002837 0.015106 -0.003732 0.000000 0.000000 0.000000
# 3 -0.002520 -0.003732 0.007916 0.000000 0.000000 0.000000
# 4 0.000000 0.000000 0.000000 0.020236 0.000000 0.000000
# 5 0.000000 0.000000 0.000000 0.000000 -0.171691 0.000000
# 6 0.000000 0.000000 0.000000 0.000000 0.000000 0.031093
#
#
# Mechanical properties :
#
#
# Convention : Reuss Voigt Hill
#
# Bulk Modulus (GPa) = 65.21085 72.77192 68.99138
# Shear Modulus (GPa) = -78.66291 30.48628 -24.08831
#
# Velocity S-wave (km/s) = -5.81388 3.61937 -3.21725
# Velocity P-wave (km/s) = 4.12885 6.98114 3.98051
#
# Compressibility (1/GPa) = 0.01533487
#
# Stress axis : x y z
#
# Youngs Moduli (GPa) = 95.32624 66.19993 126.32645
#
# Poissons Ratio (x) = 0.18778 0.31839
# Poissons Ratio (y) = 0.27039 0.47141
# Poissons Ratio (z) = 0.24026 0.24704
#
# Static dielectric constant tensor:
#      x y z
#    x 3.653190 0.000000 0.000000 
#    y 0.000000 4.114850 0.000000 
#    z 0.000000 0.000000 4.608560 
# 
# 
# High freq. dielectric constant tensor:
#      x y z
#    x 1.877900 0.000000 0.000000 
#    y 0.000000 1.922600 0.000000 
#    z 0.000000 0.000000 1.955730 
# 
# From -- ./inp_files/4594.got.cif
#   From: 2010.03.12/outbox.cif.g09.slc.cpg/sg37_3_cif.got.tgz:4594.got - 2010.04.14 02:25:27.
