data_PCOD8176234
_publ_section_title
;
Structure prediction by ZEFSAII (Michael W. Deem and Ramdas Pophale) SiO2 
 PCOD8176234
Probable space group: C M C 21
;
_chemical_formula_sum "Si O2"
_cell_formula_units_Z 64
_cell_length_a 20.211566
_cell_length_b 9.209482
_cell_length_c 16.712033
_cell_angle_alpha 90.000000
_cell_angle_beta 90.000000
_cell_angle_gamma 90.000000
_cell_volume 3110.745289
_symmetry_space_group_name_H-M "C M C 21"
_symmetry_group_IT_number 36
_symmetry_cell_setting 'orthorhombic'
loop_
_space_group_symop_operation_xyz
x,y,z
-x,-y,1/2+z
x,-y,1/2+z
-x,y,z
1/2+x,1/2+y,z
1/2-x,1/2-y,1/2+z
1/2+x,1/2-y,1/2+z
1/2-x,1/2+y,z
loop_
_atom_site_type_symbol
_atom_site_label
_atom_site_fract_x
_atom_site_fract_y
_atom_site_fract_z
Si Si1 0.195137 0.470632 0.351550
Si Si2 0.695137 0.029368 0.532686
Si Si3 0.191531 0.156493 0.284836
Si Si4 0.573034 0.540407 0.787250
Si Si5 0.923933 0.632582 0.099160
Si Si6 0.191531 0.843507 0.599400
Si Si7 0.923932 0.367418 0.785075
Si Si8 0.426966 0.459593 0.096986
O O1 0.216481 0.500000 0.442118
O O2 0.200937 0.300264 0.336136
O O3 0.244230 0.555950 0.292718
O O4 0.120384 0.522772 0.336115
O O5 0.700937 0.199736 0.548100
O O6 0.620384 0.977228 0.548120
O O7 0.744230 0.944050 0.591518
O O8 0.181408 0.197141 0.192118
O O9 0.127666 0.071122 0.319912
O O10 0.500000 0.493927 0.818500
O O11 0.589827 0.703636 0.815839
O O12 0.573210 0.541332 0.692118
O O13 0.905489 0.616980 0.192118
O O14 0.910173 0.796364 0.068397
O O15 0.000000 0.589669 0.084746
O O16 0.127666 0.928878 0.564323
O O17 0.000000 0.410331 0.799489
O O18 0.500000 0.506073 0.065736
#
# Coordination Sequence:
#
# PCOD8176234 Si02
#       8
#     8   8   8   8   8   8   8   8
#     4  12  25  39  56  83 120 154 189 241 302 351
#     4  12  25  39  56  83 120 154 189 241 302 351
#     4  11  22  38  61  84 110 150 198 241 285 347
#     4   8  16  33  59  88 112 138 182 239 287 329
#     4   9  18  36  61  85 112 150 195 240 287 343
#     4  11  22  38  61  84 110 150 198 241 285 347
#     4   9  18  36  61  85 112 150 195 240 287 343
#     4   8  16  33  59  88 112 138 182 239 287 329
#
# _framework density 20.573848999999999
#
# number of rings (size 3 to 8) (size 9 to 14) (size 15 to 20)
#    0.000    2.000    0.000    6.000    0.000    3.500 
#    0.000    2.500    0.000    3.750    0.000    0.000 
#    0.000    0.000    0.000    0.000    0.000    0.000 
#
# Total GULP energy -396900.509098 kJ/mol
# GULP energy per Si atom -12403.140909 kJ/mol
# Density = 2.052702 g / cm^3
# Si number density = 20.573849 Si / 1000 Ang^3
#
#
#
# Elastic Constant Matrix: (Units=GPa)
#
#
# Indices 1 2 3 4 5 6 
#
# 1 114.5315 54.5063 10.0553 0.0000 0.0000 0.0000
# 2 54.5063 108.5016 3.8966 0.0000 0.0000 0.0000
# 3 10.0553 3.8966 39.4625 0.0000 0.0000 0.0000
# 4 0.0000 0.0000 0.0000 23.9583 0.0000 0.0000
# 5 0.0000 0.0000 0.0000 0.0000 10.8004 0.0000
# 6 0.0000 0.0000 0.0000 0.0000 0.0000 41.0473
#
#
#
# Elastic Compliance Matrix: (Units=1/GPa)
#
#
# Indices 1 2 3 4 5 6 
#
# 1 0.011698 -0.005790 -0.002409 0.000000 0.000000 0.000000
# 2 -0.005790 0.012115 0.000279 0.000000 0.000000 0.000000
# 3 -0.002409 0.000279 0.025927 0.000000 0.000000 0.000000
# 4 0.000000 0.000000 0.000000 0.041739 0.000000 0.000000
# 5 0.000000 0.000000 0.000000 0.000000 0.092589 0.000000
# 6 0.000000 0.000000 0.000000 0.000000 0.000000 0.024362
#
#
# Mechanical properties :
#
#
# Convention : Reuss Voigt Hill
#
# Bulk Modulus (GPa) = 29.49856 44.37912 36.93884
# Shear Modulus (GPa) = 21.22503 28.09702 24.66103
#
# Velocity S-wave (km/s) = 3.21542 3.69950 3.46592
# Velocity P-wave (km/s) = 5.30606 6.31394 5.83181
#
# Compressibility (1/GPa) = 0.03389996
#
# Stress axis : x y z
#
# Youngs Moduli (GPa) = 85.48240 82.54116 38.57013
#
# Poissons Ratio (x) = 0.47793 0.09292
# Poissons Ratio (y) = 0.49496 -0.01076
# Poissons Ratio (z) = 0.20593 -0.02304
#
# Static dielectric constant tensor:
#      x y z
#    x 4.019510 0.000000 0.000000 
#    y 0.000000 3.709870 0.000000 
#    z 0.000000 0.000000 3.310260 
# 
# 
# High freq. dielectric constant tensor:
#      x y z
#    x 1.818540 0.000000 0.000000 
#    y 0.000000 1.805960 0.000000 
#    z 0.000000 0.000000 1.771590 
# 
# From -- ./inp_files/15040.got.cif
#   From: 2010.03.12/outbox.cif.g09.slc.cpg/sg36_8_cif.got.tgz:15040.got - 2010.04.14 02:13:53.
