data_PCOD8176549
_publ_section_title
;
Structure prediction by ZEFSAII (Michael W. Deem and Ramdas Pophale) SiO2 
 PCOD8176549
Probable space group: C C C 2
;
_chemical_formula_sum "Si O2"
_cell_formula_units_Z 52
_cell_length_a 10.170490
_cell_length_b 10.134087
_cell_length_c 26.090797
_cell_angle_alpha 90.000000
_cell_angle_beta 90.000000
_cell_angle_gamma 90.000000
_cell_volume 2689.142715
_symmetry_space_group_name_H-M "C C C 2"
_symmetry_group_IT_number 37
_symmetry_cell_setting 'orthorhombic'
loop_
_space_group_symop_operation_xyz
x,y,z
-x,-y,z
-x,y,1/2+z
x,-y,1/2+z
1/2+x,1/2+y,z
1/2-x,1/2-y,z
1/2-x,1/2+y,1/2+z
1/2+x,1/2-y,1/2+z
loop_
_atom_site_type_symbol
_atom_site_label
_atom_site_fract_x
_atom_site_fract_y
_atom_site_fract_z
Si Si1 0.135342 0.648310 0.769450
Si Si2 0.881946 0.594639 0.933193
Si Si3 0.023340 0.210666 0.845656
Si Si4 0.500000 0.000000 0.181948
Si Si5 0.705752 0.525325 0.355096
Si Si6 0.645380 0.146825 0.546612
Si Si7 0.634252 0.138224 0.091231
O O1 0.250000 0.750000 0.756274
O O2 0.180067 0.546761 0.813612
O O3 0.002134 0.713379 0.792230
O O4 0.103395 0.578212 0.716502
O O5 0.918615 0.702328 0.890920
O O6 0.763572 0.507505 0.910696
O O7 0.000000 0.500000 0.947545
O O8 0.837700 0.661649 0.985588
O O9 0.881916 0.155238 0.863894
O O10 0.122351 0.094588 0.832226
O O11 0.413015 0.897733 0.148647
O O12 0.750000 0.250000 0.571224
O O13 0.496650 0.189279 0.561878
O O14 0.682468 0.998200 0.564707
O O15 0.750000 0.250000 0.090690
#
# Coordination Sequence:
#
# PCOD8176549 Si02
#       7
#     8   8   8   4   8   8   8
#     4  10  20  35  56  82 116 152 190 236 283 334
#     4  12  20  35  59  84 117 159 192 233 279 332
#     4  10  21  35  53  82 119 157 195 231 272 329
#     4  10  22  38  60  86 110 148 192 240 300 358
#     4  10  21  35  53  82 119 157 195 231 272 329
#     4  10  22  42  64  89 119 154 198 244 296 357
#     4  10  24  44  63  88 118 147 191 252 310 364
#
# _framework density 19.337016999999999
#
# number of rings (size 3 to 8) (size 9 to 14) (size 15 to 20)
#    0.000    1.846    3.077    2.308    0.000    5.538 
#    0.000    0.000    0.000    0.000    0.000    0.000 
#    0.000    0.000    0.000    0.000    0.000    0.000 
#
# Total GULP energy -322309.785313 kJ/mol
# GULP energy per Si atom -12396.530204 kJ/mol
# Density = 1.929301 g / cm^3
# Si number density = 19.337017 Si / 1000 Ang^3
#
#
#
# Elastic Constant Matrix: (Units=GPa)
#
#
# Indices 1 2 3 4 5 6 
#
# 1 97.2957 47.1199 33.4155 0.0000 0.0000 0.0000
# 2 47.1199 80.3002 25.1477 0.0000 0.0000 0.0000
# 3 33.4155 25.1477 114.6423 0.0000 0.0000 0.0000
# 4 0.0000 0.0000 0.0000 16.3291 0.0000 0.0000
# 5 0.0000 0.0000 0.0000 0.0000 29.2942 0.0000
# 6 0.0000 0.0000 0.0000 0.0000 0.0000 44.7847
#
#
#
# Elastic Compliance Matrix: (Units=1/GPa)
#
#
# Indices 1 2 3 4 5 6 
#
# 1 0.015064 -0.008015 -0.002633 0.000000 0.000000 0.000000
# 2 -0.008015 0.017636 -0.001533 0.000000 0.000000 0.000000
# 3 -0.002633 -0.001533 0.009826 0.000000 0.000000 0.000000
# 4 0.000000 0.000000 0.000000 0.061240 0.000000 0.000000
# 5 0.000000 0.000000 0.000000 0.000000 0.034136 0.000000
# 6 0.000000 0.000000 0.000000 0.000000 0.000000 0.022329
#
#
# Mechanical properties :
#
#
# Convention : Reuss Voigt Hill
#
# Bulk Modulus (GPa) = 55.04686 55.95603 55.50145
# Shear Modulus (GPa) = 26.22644 30.51862 28.37253
#
# Velocity S-wave (km/s) = 3.68677 3.97703 3.83465
# Velocity P-wave (km/s) = 6.83022 7.07736 6.95489
#
# Compressibility (1/GPa) = 0.01816634
#
# Stress axis : x y z
#
# Youngs Moduli (GPa) = 66.38500 56.70126 101.76780
#
# Poissons Ratio (x) = 0.45445 0.26791
# Poissons Ratio (y) = 0.53207 0.15596
# Poissons Ratio (z) = 0.17476 0.08690
#
# Static dielectric constant tensor:
#      x y z
#    x 3.686850 0.000000 0.000000 
#    y 0.000000 3.641930 0.000000 
#    z 0.000000 0.000000 3.441750 
# 
# 
# High freq. dielectric constant tensor:
#      x y z
#    x 1.760410 0.000000 0.000000 
#    y 0.000000 1.758740 0.000000 
#    z 0.000000 0.000000 1.742020 
# 
# From -- ./inp_files/19743.got.cif
#   From: 2010.03.12/outbox.cif.g09.slc.cpg/sg37_10_cif.got.tgz:19743.got - 2010.04.14 02:25:27.
