data_PCOD8176661
_publ_section_title
;
Structure prediction by ZEFSAII (Michael W. Deem and Ramdas Pophale) SiO2 
 PCOD8176661
Probable space group: C C C 2
;
_chemical_formula_sum "Si O2"
_cell_formula_units_Z 48
_cell_length_a 10.225362
_cell_length_b 11.787351
_cell_length_c 19.268210
_cell_angle_alpha 90.000000
_cell_angle_beta 90.000000
_cell_angle_gamma 90.000000
_cell_volume 2322.396022
_symmetry_space_group_name_H-M "C C C 2"
_symmetry_group_IT_number 37
_symmetry_cell_setting 'orthorhombic'
loop_
_space_group_symop_operation_xyz
x,y,z
-x,-y,z
-x,y,1/2+z
x,-y,1/2+z
1/2+x,1/2+y,z
1/2-x,1/2-y,z
1/2-x,1/2+y,1/2+z
1/2+x,1/2-y,1/2+z
loop_
_atom_site_type_symbol
_atom_site_label
_atom_site_fract_x
_atom_site_fract_y
_atom_site_fract_z
Si Si1 0.750000 0.250000 0.591060
Si Si2 0.784940 0.625734 0.575179
Si Si3 0.538327 0.163637 0.496492
Si Si4 0.746780 0.383978 0.816037
Si Si5 0.646442 0.453855 0.671001
Si Si6 0.588802 0.604992 0.453882
Si Si7 0.500000 0.000000 0.378151
O O1 0.668678 0.168011 0.541412
O O2 0.654947 0.328011 0.637910
O O3 0.750000 0.750000 0.605235
O O4 0.934183 0.612348 0.551013
O O5 0.750108 0.536442 0.634460
O O6 0.710265 0.604072 0.504243
O O7 0.495626 0.283265 0.465069
O O8 0.570862 0.088577 0.429245
O O9 0.750000 0.250000 0.800857
O O10 0.687492 0.449990 0.750828
O O11 0.644497 0.405186 0.877016
O O12 0.890772 0.435972 0.831687
O O13 0.500000 0.500000 0.661420
O O14 0.500000 0.500000 0.473473
#
# Coordination Sequence:
#
# PCOD8176661 Si02
#       7
#     4   8   8   8   8   8   4
#     4  12  26  42  72 104 140 180 230 296 354 422
#     4  10  20  42  71 101 138 179 228 297 350 413
#     4  11  23  40  70 107 137 174 234 297 356 413
#     4  12  25  49  68  99 145 192 230 297 357 419
#     4  12  26  48  70 100 143 189 235 281 360 433
#     4  11  21  41  71 101 137 182 231 291 353 412
#     4  12  24  44  72 100 138 176 244 288 354 422
#
# _framework density 20.668310999999999
#
# number of rings (size 3 to 8) (size 9 to 14) (size 15 to 20)
#    0.000    0.667    4.167    5.500    2.333    1.333 
#    3.000    0.000    0.000    0.000    0.000    0.000 
#    0.000    0.000    0.000    0.000    0.000    0.000 
#
# Total GULP energy -297658.826563 kJ/mol
# GULP energy per Si atom -12402.451107 kJ/mol
# Density = 2.062127 g / cm^3
# Si number density = 20.668311 Si / 1000 Ang^3
#
#
#
# Elastic Constant Matrix: (Units=GPa)
#
#
# Indices 1 2 3 4 5 6 
#
# 1 107.7224 45.3060 33.3293 0.0000 0.0000 0.0000
# 2 45.3060 115.3585 49.7504 0.0000 0.0000 0.0000
# 3 33.3293 49.7504 117.1409 0.0000 0.0000 0.0000
# 4 0.0000 0.0000 0.0000 22.4614 0.0000 0.0000
# 5 0.0000 0.0000 0.0000 0.0000 21.9335 0.0000
# 6 0.0000 0.0000 0.0000 0.0000 0.0000 37.1443
#
#
#
# Elastic Compliance Matrix: (Units=1/GPa)
#
#
# Indices 1 2 3 4 5 6 
#
# 1 0.011371 -0.003759 -0.001639 0.000000 0.000000 0.000000
# 2 -0.003759 0.011855 -0.003965 0.000000 0.000000 0.000000
# 3 -0.001639 -0.003965 0.010687 0.000000 0.000000 0.000000
# 4 0.000000 0.000000 0.000000 0.044521 0.000000 0.000000
# 5 0.000000 0.000000 0.000000 0.000000 0.045592 0.000000
# 6 0.000000 0.000000 0.000000 0.000000 0.000000 0.026922
#
#
# Mechanical properties :
#
#
# Convention : Reuss Voigt Hill
#
# Bulk Modulus (GPa) = 65.84694 66.33259 66.08977
# Shear Modulus (GPa) = 28.61435 30.43027 29.52231
#
# Velocity S-wave (km/s) = 3.72486 3.84124 3.78350
# Velocity P-wave (km/s) = 7.10123 7.19979 7.15068
#
# Compressibility (1/GPa) = 0.01518673
#
# Stress axis : x y z
#
# Youngs Moduli (GPa) = 87.94146 84.35158 93.57040
#
# Poissons Ratio (x) = 0.31709 0.15335
# Poissons Ratio (y) = 0.33059 0.37104
# Poissons Ratio (z) = 0.14412 0.33449
#
# Static dielectric constant tensor:
#      x y z
#    x 3.957800 0.000000 0.000000 
#    y 0.000000 4.104410 0.000000 
#    z 0.000000 0.000000 3.725370 
# 
# 
# High freq. dielectric constant tensor:
#      x y z
#    x 1.810430 0.000000 0.000000 
#    y 0.000000 1.827680 0.000000 
#    z 0.000000 0.000000 1.807220 
# 
# From -- ./inp_files/15013.got.cif
#   From: 2010.03.12/outbox.cif.g09.slc.cpg/sg37_8_cif.got.tgz:15013.got - 2010.04.14 02:25:27.
