data_PCOD8176610
_publ_section_title
;
Structure prediction by ZEFSAII (Michael W. Deem and Ramdas Pophale) SiO2 
 PCOD8176610
Probable space group: C C C 2
;
_chemical_formula_sum "Si O2"
_cell_formula_units_Z 64
_cell_length_a 8.825981
_cell_length_b 15.210709
_cell_length_c 23.407133
_cell_angle_alpha 90.000000
_cell_angle_beta 90.000000
_cell_angle_gamma 90.000000
_cell_volume 3142.394231
_symmetry_space_group_name_H-M "C C C 2"
_symmetry_group_IT_number 37
_symmetry_cell_setting 'orthorhombic'
loop_
_space_group_symop_operation_xyz
x,y,z
-x,-y,z
-x,y,1/2+z
x,-y,1/2+z
1/2+x,1/2+y,z
1/2-x,1/2-y,z
1/2-x,1/2+y,1/2+z
1/2+x,1/2-y,1/2+z
loop_
_atom_site_type_symbol
_atom_site_label
_atom_site_fract_x
_atom_site_fract_y
_atom_site_fract_z
Si Si1 0.068974 0.253887 0.224400
Si Si2 0.487032 0.138120 0.116603
Si Si3 0.748173 0.990653 0.615183
Si Si4 0.654837 0.836648 0.806253
Si Si5 0.910865 0.589792 0.927618
Si Si6 0.387698 0.568055 0.500960
Si Si7 0.422061 0.239764 0.003520
Si Si8 0.398592 0.425186 0.728792
O O1 0.250000 0.250000 0.224563
O O2 0.991575 0.297868 0.169622
O O3 0.005148 0.307574 0.278767
O O4 0.010045 0.155864 0.223017
O O5 0.645269 0.093495 0.097890
O O6 0.426052 0.195152 0.064742
O O7 0.362484 0.067686 0.136133
O O8 0.855871 0.962624 0.666698
O O9 0.844904 0.026561 0.562253
O O10 0.750000 0.750000 0.822523
O O11 0.617604 0.893482 0.861482
O O12 0.748459 0.900165 0.763971
O O13 0.755822 0.578388 0.961286
O O14 0.000000 0.500000 0.936437
O O15 0.998830 0.674128 0.956350
O O16 0.500000 0.500000 0.470112
O O17 0.483285 0.660070 0.506766
O O18 0.250000 0.250000 0.983909
O O19 0.500000 0.500000 0.760299
#
# Coordination Sequence:
#
# PCOD8176610 Si02
#       8
#     8   8   8   8   8   8   8   8
#     4  11  24  41  65  97 132 177 224 274 343 413
#     4  11  21  36  61  91 131 169 218 267 335 397
#     4  11  22  37  59  91 134 170 217 276 327 403
#     4  10  23  46  67  94 129 178 222 284 335 403
#     4  11  23  44  71  91 128 172 228 273 338 403
#     4  11  24  40  62  98 131 170 223 274 335 400
#     4  10  20  38  62  91 125 172 211 263 332 391
#     4  11  24  41  62  94 136 174 220 276 341 397
#
# _framework density 20.366637000000001
#
# number of rings (size 3 to 8) (size 9 to 14) (size 15 to 20)
#    0.000    1.250    3.750    3.375    3.500    2.500 
#    0.000    4.375    0.000    0.000    0.000    0.000 
#    0.000    0.000    0.000    0.000    0.000    0.000 
#
# Total GULP energy -396667.785607 kJ/mol
# GULP energy per Si atom -12395.868300 kJ/mol
# Density = 2.032028 g / cm^3
# Si number density = 20.366637 Si / 1000 Ang^3
#
#
#
# Elastic Constant Matrix: (Units=GPa)
#
#
# Indices 1 2 3 4 5 6 
#
# 1 73.3961 61.3289 31.7949 0.0000 0.0000 0.0000
# 2 61.3289 175.4879 63.8965 0.0000 0.0000 0.0000
# 3 31.7949 63.8965 117.4530 0.0000 0.0000 0.0000
# 4 0.0000 0.0000 0.0000 35.5314 0.0000 0.0000
# 5 0.0000 0.0000 0.0000 0.0000 -7.4244 0.0000
# 6 0.0000 0.0000 0.0000 0.0000 0.0000 26.4337
#
#
#
# Elastic Compliance Matrix: (Units=1/GPa)
#
#
# Indices 1 2 3 4 5 6 
#
# 1 0.019603 -0.006134 -0.001970 0.000000 0.000000 0.000000
# 2 -0.006134 0.009025 -0.003249 0.000000 0.000000 0.000000
# 3 -0.001970 -0.003249 0.010815 0.000000 0.000000 0.000000
# 4 0.000000 0.000000 0.000000 0.028144 0.000000 0.000000
# 5 0.000000 0.000000 0.000000 0.000000 -0.134691 0.000000
# 6 0.000000 0.000000 0.000000 0.000000 0.000000 0.037830
#
#
# Mechanical properties :
#
#
# Convention : Reuss Voigt Hill
#
# Bulk Modulus (GPa) = 59.74592 75.59750 67.67171
# Shear Modulus (GPa) = -5059.16019 24.86259 -2517.14880
#
# Velocity S-wave (km/s) = -49.89424 3.49771 -35.19376
# Velocity P-wave (km/s) = 57.35720 7.31511 40.22647
#
# Compressibility (1/GPa) = 0.01673754
#
# Stress axis : x y z
#
# Youngs Moduli (GPa) = 51.01204 110.80221 92.46388
#
# Poissons Ratio (x) = 0.67962 0.18214
# Poissons Ratio (y) = 0.31289 0.30045
# Poissons Ratio (z) = 0.10049 0.36004
#
# Static dielectric constant tensor:
#      x y z
#    x 3.780070 0.000000 0.000000 
#    y 0.000000 4.736110 0.000000 
#    z 0.000000 0.000000 3.613030 
# 
# 
# High freq. dielectric constant tensor:
#      x y z
#    x 1.783770 0.000000 0.000000 
#    y 0.000000 1.824420 0.000000 
#    z 0.000000 0.000000 1.783840 
# 
# From -- ./inp_files/18519.got.cif
#   From: 2010.03.12/outbox.cif.g09.slc.cpg/sg37_10_cif.got.tgz:18519.got - 2010.04.14 02:25:27.
