data_PCOD8176620
_publ_section_title
;
Structure prediction by ZEFSAII (Michael W. Deem and Ramdas Pophale) SiO2 
 PCOD8176620
Probable space group: C C C 2
;
_chemical_formula_sum "Si O2"
_cell_formula_units_Z 40
_cell_length_a 5.194530
_cell_length_b 25.698154
_cell_length_c 15.337413
_cell_angle_alpha 90.000000
_cell_angle_beta 90.000000
_cell_angle_gamma 90.000000
_cell_volume 2047.388683
_symmetry_space_group_name_H-M "C C C 2"
_symmetry_group_IT_number 37
_symmetry_cell_setting 'orthorhombic'
loop_
_space_group_symop_operation_xyz
x,y,z
-x,-y,z
-x,y,1/2+z
x,-y,1/2+z
1/2+x,1/2+y,z
1/2-x,1/2-y,z
1/2-x,1/2+y,1/2+z
1/2+x,1/2-y,1/2+z
loop_
_atom_site_type_symbol
_atom_site_label
_atom_site_fract_x
_atom_site_fract_y
_atom_site_fract_z
Si Si1 0.818366 0.309036 0.912440
Si Si2 0.527099 0.122281 0.758182
Si Si3 0.022607 0.897580 0.980199
Si Si4 0.486007 0.867164 0.562814
Si Si5 0.023175 0.941136 0.301683
O O1 0.750000 0.250000 0.893113
O O2 0.556454 0.342496 0.927242
O O3 0.976190 0.332218 0.830355
O O4 0.990646 0.315750 0.000857
O O5 0.499086 0.149301 0.663572
O O6 0.296499 0.082320 0.774054
O O7 0.793601 0.091239 0.758686
O O8 0.996488 0.941955 0.907204
O O9 0.778031 0.897152 0.043167
O O10 0.278685 0.906612 0.038870
O O11 0.000000 0.000000 0.267886
#
# Coordination Sequence:
#
# PCOD8176620 Si02
#       5
#     8   8   8   8   8
#     4   9  21  40  61  91 121 165 200 241 306 366
#     4  11  22  40  63  88 127 157 201 260 302 362
#     4   9  19  39  59  83 120 159 190 257 291 353
#     4  10  20  39  60  84 123 158 196 251 300 346
#     4  11  21  40  64  88 119 163 202 251 314 369
#
# _framework density 19.53708
#
# number of rings (size 3 to 8) (size 9 to 14) (size 15 to 20)
#    1.200    0.800    2.000    1.800    0.000    0.800 
#    3.600    6.000    0.000    0.000    0.000    0.000 
#    0.000    0.000    0.000    0.000    0.000    0.000 
#
# Total GULP energy -247826.132411 kJ/mol
# GULP energy per Si atom -12391.306621 kJ/mol
# Density = 1.949261 g / cm^3
# Si number density = 19.537080 Si / 1000 Ang^3
#
#
#
# Elastic Constant Matrix: (Units=GPa)
#
#
# Indices 1 2 3 4 5 6 
#
# 1 118.3486 14.4505 31.5035 0.0000 0.0000 0.0000
# 2 14.4505 91.1395 39.9038 0.0000 0.0000 0.0000
# 3 31.5035 39.9038 164.8187 0.0000 0.0000 0.0000
# 4 0.0000 0.0000 0.0000 7.7113 0.0000 0.0000
# 5 0.0000 0.0000 0.0000 0.0000 26.0410 0.0000
# 6 0.0000 0.0000 0.0000 0.0000 0.0000 20.3455
#
#
#
# Elastic Compliance Matrix: (Units=1/GPa)
#
#
# Indices 1 2 3 4 5 6 
#
# 1 0.008948 -0.000749 -0.001529 0.000000 0.000000 0.000000
# 2 -0.000749 0.012336 -0.002843 0.000000 0.000000 0.000000
# 3 -0.001529 -0.002843 0.007048 0.000000 0.000000 0.000000
# 4 0.000000 0.000000 0.000000 0.129679 0.000000 0.000000
# 5 0.000000 0.000000 0.000000 0.000000 0.038401 0.000000
# 6 0.000000 0.000000 0.000000 0.000000 0.000000 0.049151
#
#
# Mechanical properties :
#
#
# Convention : Reuss Voigt Hill
#
# Bulk Modulus (GPa) = 55.28331 60.66915 57.97623
# Shear Modulus (GPa) = 19.09592 30.04948 24.57270
#
# Velocity S-wave (km/s) = 3.12976 3.92608 3.55032
# Velocity P-wave (km/s) = 6.43573 7.18839 6.82245
#
# Compressibility (1/GPa) = 0.01808864
#
# Stress axis : x y z
#
# Youngs Moduli (GPa) = 111.75560 81.06398 141.88581
#
# Poissons Ratio (x) = 0.06074 0.21693
# Poissons Ratio (y) = 0.08374 0.40344
# Poissons Ratio (z) = 0.17087 0.23050
#
# Static dielectric constant tensor:
#      x y z
#    x 3.606610 0.000000 0.000000 
#    y 0.000000 3.035240 0.000000 
#    z 0.000000 0.000000 3.610200 
# 
# 
# High freq. dielectric constant tensor:
#      x y z
#    x 1.773900 0.000000 0.000000 
#    y 0.000000 1.712860 0.000000 
#    z 0.000000 0.000000 1.766090 
# 
# From -- ./inp_files/9622.got.cif
#   From: 2010.03.12/outbox.cif.g09.slc.cpg/sg37_5_cif.got.tgz:9622.got - 2010.04.14 02:25:27.
