data_PCOD8176755
_publ_section_title
;
Structure prediction by ZEFSAII (Michael W. Deem and Ramdas Pophale) SiO2 
 PCOD8176755
Probable space group: C C C 2
;
_chemical_formula_sum "Si O2"
_cell_formula_units_Z 48
_cell_length_a 5.196512
_cell_length_b 19.173849
_cell_length_c 20.535575
_cell_angle_alpha 90.000000
_cell_angle_beta 90.000000
_cell_angle_gamma 90.000000
_cell_volume 2046.105888
_symmetry_space_group_name_H-M "C C C 2"
_symmetry_group_IT_number 37
_symmetry_cell_setting 'orthorhombic'
loop_
_space_group_symop_operation_xyz
x,y,z
-x,-y,z
-x,y,1/2+z
x,-y,1/2+z
1/2+x,1/2+y,z
1/2-x,1/2-y,z
1/2-x,1/2+y,1/2+z
1/2+x,1/2-y,1/2+z
loop_
_atom_site_type_symbol
_atom_site_label
_atom_site_fract_x
_atom_site_fract_y
_atom_site_fract_z
Si Si1 0.962633 0.660056 0.099740
Si Si2 0.750000 0.750000 0.344913
Si Si3 0.950251 0.079317 0.287710
Si Si4 0.500000 0.366146 0.423228
Si Si5 0.750000 0.750000 0.001543
Si Si6 0.537367 0.839944 0.246716
Si Si7 0.450251 0.579317 0.058746
O O1 0.951869 0.688504 0.173228
O O2 0.693991 0.623412 0.081460
O O3 0.195590 0.605980 0.094510
O O4 0.985757 0.726655 0.050232
O O5 0.711445 0.684355 0.391773
O O6 0.514243 0.773345 0.296224
O O7 0.892787 0.085289 0.365378
O O8 0.193991 0.123412 0.264996
O O9 0.695591 0.105980 0.251945
O O10 0.000000 0.000000 0.267914
O O11 0.711445 0.315645 0.454683
O O12 0.392788 0.414711 0.481078
O O13 0.500000 0.500000 0.078542
#
# Coordination Sequence:
#
# PCOD8176755 Si02
#       7
#     8   4   8   8   4   8   8
#     4  11  24  41  64  93 126 166 209 258 315 377
#     4  10  21  40  66  94 127 164 210 266 322 380
#     4  11  24  41  64  92 125 166 209 258 313 375
#     4  10  21  40  64  92 123 160 206 260 316 374
#     4  10  21  40  66  94 127 164 210 266 322 380
#     4  11  24  41  64  93 126 166 209 258 315 377
#     4  11  24  41  64  92 125 166 209 258 313 375
#
# _framework density 23.459195000000001
#
# number of rings (size 3 to 8) (size 9 to 14) (size 15 to 20)
#    0.000    1.333    0.000    5.000    0.000   12.000 
#    0.000   15.000    0.000    0.000    0.000    0.000 
#    0.000    0.000    0.000    0.000    0.000    0.000 
#
# Total GULP energy -297427.193851 kJ/mol
# GULP energy per Si atom -12392.799744 kJ/mol
# Density = 2.340580 g / cm^3
# Si number density = 23.459195 Si / 1000 Ang^3
#
#
#
# Elastic Constant Matrix: (Units=GPa)
#
#
# Indices 1 2 3 4 5 6 
#
# 1 124.6585 25.7743 33.7951 0.0000 0.0000 0.0000
# 2 25.7743 76.2842 -2.8299 0.0000 0.0000 0.0000
# 3 33.7951 -2.8299 126.3004 0.0000 0.0000 0.0000
# 4 0.0000 0.0000 0.0000 -4.5979 0.0000 0.0000
# 5 0.0000 0.0000 0.0000 0.0000 14.9572 0.0000
# 6 0.0000 0.0000 0.0000 0.0000 0.0000 31.7378
#
#
#
# Elastic Compliance Matrix: (Units=1/GPa)
#
#
# Indices 1 2 3 4 5 6 
#
# 1 0.009400 -0.003272 -0.002589 0.000000 0.000000 0.000000
# 2 -0.003272 0.014259 0.001195 0.000000 0.000000 0.000000
# 3 -0.002589 0.001195 0.008637 0.000000 0.000000 0.000000
# 4 0.000000 0.000000 0.000000 -0.217492 0.000000 0.000000
# 5 0.000000 0.000000 0.000000 0.000000 0.066858 0.000000
# 6 0.000000 0.000000 0.000000 0.000000 0.000000 0.031508
#
#
# Mechanical properties :
#
#
# Convention : Reuss Voigt Hill
#
# Bulk Modulus (GPa) = 43.54513 48.96912 46.25712
# Shear Modulus (GPa) = -71.58859 26.45300 -22.56780
#
# Velocity S-wave (km/s) = -5.53014 3.36164 -3.10498
# Velocity P-wave (km/s) = 4.70895 5.99892 2.62800
#
# Compressibility (1/GPa) = 0.02296468
#
# Stress axis : x y z
#
# Youngs Moduli (GPa) = 106.38044 70.13238 115.78015
#
# Poissons Ratio (x) = 0.22948 0.29971
# Poissons Ratio (y) = 0.34809 -0.13836
# Poissons Ratio (z) = 0.27538 -0.08381
#
# Static dielectric constant tensor:
#      x y z
#    x 3.922520 0.000000 0.000000 
#    y 0.000000 4.402540 0.000000 
#    z 0.000000 0.000000 4.987410 
# 
# 
# High freq. dielectric constant tensor:
#      x y z
#    x 1.909950 0.000000 0.000000 
#    y 0.000000 1.925410 0.000000 
#    z 0.000000 0.000000 1.955420 
# 
# From -- ./inp_files/15806.got.cif
#   From: 2010.03.12/outbox.cif.g09.slc.cpg/sg37_8_cif.got.tgz:15806.got - 2010.04.14 02:25:27.
