data_PCOD8177485
_publ_section_title
;
Structure prediction by ZEFSAII (Michael W. Deem and Ramdas Pophale) SiO2 
 PCOD8177485
Probable space group: A M M 2
;
_chemical_formula_sum "Si O2"
_cell_formula_units_Z 64
_cell_length_a 9.045519
_cell_length_b 28.379696
_cell_length_c 14.276979
_cell_angle_alpha 90.000000
_cell_angle_beta 90.000000
_cell_angle_gamma 90.000000
_cell_volume 3665.030135
_symmetry_space_group_name_H-M "A M M 2"
_symmetry_group_IT_number 38
_symmetry_cell_setting 'orthorhombic'
loop_
_space_group_symop_operation_xyz
x,y,z
-x,-y,z
-x,y,z
x,-y,z
x,1/2+y,1/2+z
-x,1/2-y,1/2+z
-x,1/2+y,1/2+z
x,1/2-y,1/2+z
loop_
_atom_site_type_symbol
_atom_site_label
_atom_site_fract_x
_atom_site_fract_y
_atom_site_fract_z
Si Si1 0.828707 0.945238 0.276070
Si Si2 0.824230 0.864453 0.615645
Si Si3 0.671383 0.364023 0.674963
Si Si4 0.175747 0.948018 0.486769
Si Si5 0.170496 0.276898 0.994097
Si Si6 0.668933 0.683849 0.489381
Si Si7 0.675202 0.818669 0.778684
Si Si8 0.826954 0.721530 0.777245
O O1 0.732546 0.914910 0.203877
O O2 0.773256 0.934108 0.381767
O O3 0.000000 0.931281 0.264727
O O4 0.804206 0.000000 0.252250
O O5 0.765264 0.911371 0.563724
O O6 0.770114 0.820924 0.552615
O O7 0.744269 0.860420 0.715910
O O8 0.000000 0.865757 0.629213
O O9 0.500000 0.359678 0.703037
O O10 0.692213 0.358875 0.562394
O O11 0.762699 0.323216 0.724775
O O12 0.000000 0.948468 0.485820
O O13 0.236208 0.000000 0.512990
O O14 0.247761 0.229456 0.029152
O O15 0.000000 0.269060 0.013874
O O16 0.203340 0.287440 0.886171
O O17 0.500000 0.699214 0.482054
O O18 0.724185 0.669582 0.385519
O O19 0.500000 0.816886 0.765952
O O20 0.744727 0.769112 0.745042
O O21 0.000000 0.727121 0.754619
#
# Coordination Sequence:
#
# PCOD8177485 Si02
#       8
#     8   8   8   8   8   8   8   8
#     4   9  18  34  55  77 100 126 155 189 234 287
#     4  10  18  29  48  73  96 122 159 196 234 284
#     4  11  21  32  49  73  98 127 163 199 238 283
#     4   8  15  30  52  75  99 126 155 190 235 287
#     4   9  18  30  46  69  97 126 156 193 235 282
#     4   9  20  35  47  62  91 129 164 196 232 278
#     4  10  20  34  48  65  94 130 165 201 240 279
#     4  10  19  32  49  71  99 129 161 196 236 283
#
# _framework density 17.462340000000001
#
# number of rings (size 3 to 8) (size 9 to 14) (size 15 to 20)
#    0.000    2.500    0.000    3.375    0.000    6.750 
#    0.000    1.875    0.000    1.875    0.000    3.500 
#    0.000    0.000    0.000    0.000    0.000    0.000 
#
# Total GULP energy -396777.846342 kJ/mol
# GULP energy per Si atom -12399.307698 kJ/mol
# Density = 1.742259 g / cm^3
# Si number density = 17.462340 Si / 1000 Ang^3
#
#
#
# Elastic Constant Matrix: (Units=GPa)
#
#
# Indices 1 2 3 4 5 6 
#
# 1 54.7624 36.2904 37.0238 0.0000 0.0000 0.0000
# 2 36.2904 103.4788 69.7393 0.0000 0.0000 0.0000
# 3 37.0238 69.7393 90.6230 0.0000 0.0000 0.0000
# 4 0.0000 0.0000 0.0000 31.2115 0.0000 0.0000
# 5 0.0000 0.0000 0.0000 0.0000 25.8316 0.0000
# 6 0.0000 0.0000 0.0000 0.0000 0.0000 13.0587
#
#
#
# Elastic Compliance Matrix: (Units=1/GPa)
#
#
# Indices 1 2 3 4 5 6 
#
# 1 0.026031 -0.004076 -0.007499 0.000000 0.000000 0.000000
# 2 -0.004076 0.020714 -0.014276 0.000000 0.000000 0.000000
# 3 -0.007499 -0.014276 0.025084 0.000000 0.000000 0.000000
# 4 0.000000 0.000000 0.000000 0.032039 0.000000 0.000000
# 5 0.000000 0.000000 0.000000 0.000000 0.038712 0.000000
# 6 0.000000 0.000000 0.000000 0.000000 0.000000 0.076577
#
#
# Mechanical properties :
#
#
# Convention : Reuss Voigt Hill
#
# Bulk Modulus (GPa) = 49.67731 59.44124 54.55927
# Shear Modulus (GPa) = 18.01360 21.07440 19.54400
#
# Velocity S-wave (km/s) = 3.21529 3.47774 3.34909
# Velocity P-wave (km/s) = 6.50339 7.08801 6.80198
#
# Compressibility (1/GPa) = 0.02012992
#
# Stress axis : x y z
#
# Youngs Moduli (GPa) = 38.41539 48.27630 39.86601
#
# Poissons Ratio (x) = 0.19676 0.29894
# Poissons Ratio (y) = 0.15657 0.56911
# Poissons Ratio (z) = 0.28806 0.68917
#
# Static dielectric constant tensor:
#      x y z
#    x 3.124940 0.000000 0.000000 
#    y 0.000000 3.305340 0.000000 
#    z 0.000000 0.000000 3.433620 
# 
# 
# High freq. dielectric constant tensor:
#      x y z
#    x 1.664350 0.000000 0.000000 
#    y 0.000000 1.656310 0.000000 
#    z 0.000000 0.000000 1.677990 
# 
# From -- ./inp_files/13084.got.cif
#   From: 2010.03.12/outbox.cif.g09.slc.cpg/sg38_7_cif.got.tgz:13084.got - 2010.04.14 02:38:36.
