data_PCOD8177809
_publ_section_title
;
Structure prediction by ZEFSAII (Michael W. Deem and Ramdas Pophale) SiO2 
 PCOD8177809
Probable space group: A M M 2
;
_chemical_formula_sum "Si O2"
_cell_formula_units_Z 64
_cell_length_a 15.353169
_cell_length_b 8.904558
_cell_length_c 23.829989
_cell_angle_alpha 90.000000
_cell_angle_beta 90.000000
_cell_angle_gamma 90.000000
_cell_volume 3257.873667
_symmetry_space_group_name_H-M "A M M 2"
_symmetry_group_IT_number 38
_symmetry_cell_setting 'orthorhombic'
loop_
_space_group_symop_operation_xyz
x,y,z
-x,-y,z
-x,y,z
x,-y,z
x,1/2+y,1/2+z
-x,1/2-y,1/2+z
-x,1/2+y,1/2+z
x,1/2-y,1/2+z
loop_
_atom_site_type_symbol
_atom_site_label
_atom_site_fract_x
_atom_site_fract_y
_atom_site_fract_z
Si Si1 0.098749 0.324622 0.770870
Si Si2 0.099060 0.674237 0.011179
Si Si3 0.156497 0.177747 0.390785
Si Si4 0.596164 0.672961 0.502690
Si Si5 0.750045 0.322749 0.201186
Si Si6 0.351858 0.675788 0.892193
Si Si7 0.598303 0.826840 0.268537
Si Si8 0.248206 0.678060 0.580342
O O1 0.123637 0.500000 0.767153
O O2 0.107925 0.264735 0.834856
O O3 0.162595 0.233489 0.730991
O O4 0.000000 0.296559 0.750776
O O5 0.127194 0.500000 0.015753
O O6 0.158649 0.773433 0.051312
O O7 0.000000 0.696881 0.030821
O O8 0.107907 0.732454 0.947025
O O9 0.254248 0.242067 0.390848
O O10 0.156980 0.000000 0.389186
O O11 0.500000 0.696147 0.529673
O O12 0.616625 0.500000 0.491970
O O13 0.595437 0.751940 0.442683
O O14 0.669810 0.738631 0.544030
O O15 0.754657 0.500000 0.195928
O O16 0.663838 0.278065 0.235006
O O17 0.744049 0.252114 0.140353
O O18 0.350160 0.500000 0.903189
O O19 0.398912 0.715539 0.834072
O O20 0.500000 0.800261 0.246614
O O21 0.626729 0.000000 0.260016
O O22 0.250036 0.500000 0.587382
#
# Coordination Sequence:
#
# PCOD8177809 Si02
#       8
#     8   8   8   8   8   8   8   8
#     4  10  20  38  65  92 119 156 200 241 287 349
#     4  10  20  36  60  90 122 154 189 235 292 347
#     4   9  16  31  59  91 122 152 188 233 285 347
#     4  10  22  39  59  86 119 153 190 237 293 347
#     4  12  26  42  61  85 118 155 198 250 303 352
#     4  10  18  33  61  91 121 155 192 233 281 343
#     4  10  21  39  63  90 121 158 199 241 288 346
#     4  11  24  42  62  82 111 153 203 248 293 347
#
# _framework density 19.644715000000001
#
# number of rings (size 3 to 8) (size 9 to 14) (size 15 to 20)
#    0.000    1.750    2.500    2.250    0.000    5.000 
#    0.000    1.875    0.000    1.500    0.000    0.000 
#    0.000    0.000    0.000    0.000    0.000    0.000 
#
# Total GULP energy -396842.577753 kJ/mol
# GULP energy per Si atom -12401.330555 kJ/mol
# Density = 1.960000 g / cm^3
# Si number density = 19.644715 Si / 1000 Ang^3
#
#
#
# Elastic Constant Matrix: (Units=GPa)
#
#
# Indices 1 2 3 4 5 6 
#
# 1 126.0527 42.4211 50.5435 0.0000 0.0000 0.0000
# 2 42.4211 72.9718 49.4445 0.0000 0.0000 0.0000
# 3 50.5435 49.4445 125.0311 0.0000 0.0000 0.0000
# 4 0.0000 0.0000 0.0000 -8.8411 0.0000 0.0000
# 5 0.0000 0.0000 0.0000 0.0000 3.8432 0.0000
# 6 0.0000 0.0000 0.0000 0.0000 0.0000 26.6157
#
#
#
# Elastic Compliance Matrix: (Units=1/GPa)
#
#
# Indices 1 2 3 4 5 6 
#
# 1 0.010395 -0.004365 -0.002476 0.000000 0.000000 0.000000
# 2 -0.004365 0.020553 -0.006363 0.000000 0.000000 0.000000
# 3 -0.002476 -0.006363 0.011515 0.000000 0.000000 0.000000
# 4 0.000000 0.000000 0.000000 -0.113108 0.000000 0.000000
# 5 0.000000 0.000000 0.000000 0.000000 0.260203 0.000000
# 6 0.000000 0.000000 0.000000 0.000000 0.000000 0.037572
#
#
# Mechanical properties :
#
#
# Convention : Reuss Voigt Hill
#
# Bulk Modulus (GPa) = 62.28743 67.65266 64.97004
# Shear Modulus (GPa) = 19.31315 16.43331 17.87323
#
# Velocity S-wave (km/s) = 3.13888 2.89541 3.01960
# Velocity P-wave (km/s) = 6.70168 6.75949 6.73065
#
# Compressibility (1/GPa) = 0.01605460
#
# Stress axis : x y z
#
# Youngs Moduli (GPa) = 96.19971 48.65389 86.84134
#
# Poissons Ratio (x) = 0.21240 0.21500
# Poissons Ratio (y) = 0.41995 0.55259
# Poissons Ratio (z) = 0.23817 0.30960
#
# Static dielectric constant tensor:
#      x y z
#    x 3.728890 0.000000 0.000000 
#    y 0.000000 3.367430 0.000000 
#    z 0.000000 0.000000 3.676920 
# 
# 
# High freq. dielectric constant tensor:
#      x y z
#    x 1.781250 0.000000 0.000000 
#    y 0.000000 1.739480 0.000000 
#    z 0.000000 0.000000 1.766130 
# 
# From -- ./inp_files/22906.got.cif
#   From: 2010.03.12/outbox.cif.g09.slc.cpg/sg38_12_cif.got.tgz:22906.got - 2010.04.14 02:38:36.
