data_PCOD8177726
_publ_section_title
;
Structure prediction by ZEFSAII (Michael W. Deem and Ramdas Pophale) SiO2 
 PCOD8177726
Probable space group: A M M 2
;
_chemical_formula_sum "Si O2"
_cell_formula_units_Z 64
_cell_length_a 9.035654
_cell_length_b 20.809991
_cell_length_c 19.658378
_cell_angle_alpha 90.000000
_cell_angle_beta 90.000000
_cell_angle_gamma 90.000000
_cell_volume 3696.401742
_symmetry_space_group_name_H-M "A M M 2"
_symmetry_group_IT_number 38
_symmetry_cell_setting 'orthorhombic'
loop_
_space_group_symop_operation_xyz
x,y,z
-x,-y,z
-x,y,z
x,-y,z
x,1/2+y,1/2+z
-x,1/2-y,1/2+z
-x,1/2+y,1/2+z
x,1/2-y,1/2+z
loop_
_atom_site_type_symbol
_atom_site_label
_atom_site_fract_x
_atom_site_fract_y
_atom_site_fract_z
Si Si1 0.175548 0.125689 0.010840
Si Si2 0.671140 0.187030 0.651944
Si Si3 0.824735 0.569893 0.650475
Si Si4 0.174215 0.573143 0.223162
Si Si5 0.831274 0.729660 0.874790
Si Si6 0.169363 0.879778 0.864275
Si Si7 0.330066 0.758906 0.507835
Si Si8 0.175405 0.305284 0.727059
O O1 0.221284 0.078249 0.071433
O O2 0.000000 0.135808 0.006274
O O3 0.235862 0.098724 0.937954
O O4 0.241690 0.195041 0.026683
O O5 0.500000 0.187093 0.673123
O O6 0.744017 0.119184 0.670432
O O7 0.690371 0.192814 0.570730
O O8 0.748063 0.245342 0.691234
O O9 0.763121 0.500000 0.674381
O O10 0.761130 0.628186 0.695554
O O11 0.000000 0.570664 0.657135
O O12 0.206051 0.500000 0.201763
O O13 0.241975 0.585349 0.299159
O O14 0.000000 0.589194 0.221664
O O15 0.808220 0.803965 0.856522
O O16 0.731590 0.708300 0.938774
O O17 0.785277 0.690983 0.807054
O O18 0.000000 0.715408 0.894950
O O19 0.000000 0.900524 0.863657
O O20 0.500000 0.740751 0.496005
O O21 0.000000 0.297444 0.715857
#
# Coordination Sequence:
#
# PCOD8177726 Si02
#       8
#     8   8   8   8   8   8   8   8
#     4   9  16  28  48  71 100 137 170 202 241 293
#     4  11  22  34  51  75 103 135 171 212 259 304
#     4   9  17  28  47  77 106 133 167 207 252 297
#     4  10  20  34  52  74 103 138 173 212 255 301
#     4   9  17  30  50  74  98 130 168 208 257 300
#     4   8  14  26  44  70  99 127 164 201 238 287
#     4  10  20  32  48  73 102 131 167 211 255 298
#     4  10  18  32  54  76 102 134 170 212 254 300
#
# _framework density 17.314136000000001
#
# number of rings (size 3 to 8) (size 9 to 14) (size 15 to 20)
#    0.000    2.500    2.500    1.500    0.000    2.750 
#    0.000    2.500    0.000    2.250    0.000    1.750 
#    0.000    0.000    0.000    0.000    0.000    0.000 
#
# Total GULP energy -396597.751510 kJ/mol
# GULP energy per Si atom -12393.679735 kJ/mol
# Density = 1.727473 g / cm^3
# Si number density = 17.314136 Si / 1000 Ang^3
#
#
#
# Elastic Constant Matrix: (Units=GPa)
#
#
# Indices 1 2 3 4 5 6 
#
# 1 48.6918 31.4205 41.5681 0.0000 0.0000 0.0000
# 2 31.4205 97.5974 58.0748 0.0000 0.0000 0.0000
# 3 41.5681 58.0748 110.0648 0.0000 0.0000 0.0000
# 4 0.0000 0.0000 0.0000 23.0460 0.0000 0.0000
# 5 0.0000 0.0000 0.0000 0.0000 20.6393 0.0000
# 6 0.0000 0.0000 0.0000 0.0000 0.0000 8.4101
#
#
#
# Elastic Compliance Matrix: (Units=1/GPa)
#
#
# Indices 1 2 3 4 5 6 
#
# 1 0.031597 -0.004477 -0.009571 0.000000 0.000000 0.000000
# 2 -0.004477 0.015570 -0.006524 0.000000 0.000000 0.000000
# 3 -0.009571 -0.006524 0.016143 0.000000 0.000000 0.000000
# 4 0.000000 0.000000 0.000000 0.043392 0.000000 0.000000
# 5 0.000000 0.000000 0.000000 0.000000 0.048451 0.000000
# 6 0.000000 0.000000 0.000000 0.000000 0.000000 0.118905
#
#
# Mechanical properties :
#
#
# Convention : Reuss Voigt Hill
#
# Bulk Modulus (GPa) = 45.11686 57.60896 51.36291
# Shear Modulus (GPa) = 15.49949 18.77177 17.13563
#
# Velocity S-wave (km/s) = 2.99522 3.29627 3.14935
# Velocity P-wave (km/s) = 6.17059 6.91609 6.55395
#
# Compressibility (1/GPa) = 0.02216466
#
# Stress axis : x y z
#
# Youngs Moduli (GPa) = 31.64846 64.22652 61.94745
#
# Poissons Ratio (x) = 0.28756 0.59289
# Poissons Ratio (y) = 0.14170 0.40417
# Poissons Ratio (z) = 0.30290 0.41904
#
# Static dielectric constant tensor:
#      x y z
#    x 3.002390 0.000000 0.000000 
#    y 0.000000 3.149270 0.000000 
#    z 0.000000 0.000000 3.577280 
# 
# 
# High freq. dielectric constant tensor:
#      x y z
#    x 1.638480 0.000000 0.000000 
#    y 0.000000 1.642720 0.000000 
#    z 0.000000 0.000000 1.679770 
# 
# From -- ./inp_files/20254.got.cif
#   From: 2010.03.12/outbox.cif.g09.slc.cpg/sg38_11_cif.got.tgz:20254.got - 2010.04.14 02:38:36.
