data_PCOD8177129
_publ_section_title
;
Structure prediction by ZEFSAII (Michael W. Deem and Ramdas Pophale) SiO2 
 PCOD8177129
Probable space group: C C C 2
;
_chemical_formula_sum "Si O2"
_cell_formula_units_Z 56
_cell_length_a 15.639429
_cell_length_b 12.744842
_cell_length_c 12.206491
_cell_angle_alpha 90.000000
_cell_angle_beta 90.000000
_cell_angle_gamma 90.000000
_cell_volume 2433.022829
_symmetry_space_group_name_H-M "C C C 2"
_symmetry_group_IT_number 37
_symmetry_cell_setting 'orthorhombic'
loop_
_space_group_symop_operation_xyz
x,y,z
-x,-y,z
-x,y,1/2+z
x,-y,1/2+z
1/2+x,1/2+y,z
1/2-x,1/2-y,z
1/2-x,1/2+y,1/2+z
1/2+x,1/2-y,1/2+z
loop_
_atom_site_type_symbol
_atom_site_label
_atom_site_fract_x
_atom_site_fract_y
_atom_site_fract_z
Si Si1 0.000000 0.000000 0.173391
Si Si2 0.175358 0.675594 0.133141
Si Si3 0.907317 0.499075 0.759500
Si Si4 0.618307 0.150806 0.569057
Si Si5 0.129609 0.915514 0.838885
Si Si6 0.784552 0.516134 0.445602
Si Si7 0.470197 0.695301 0.020194
Si Si8 0.250000 0.250000 0.228801
O O1 0.085697 0.015175 0.245181
O O2 0.994707 0.102465 0.100717
O O3 0.250000 0.750000 0.181096
O O4 0.129849 0.615022 0.233227
O O5 0.110513 0.746625 0.067678
O O6 0.214934 0.592776 0.048718
O O7 0.924466 0.438064 0.645387
O O8 0.842144 0.441479 0.843045
O O9 0.000000 0.500000 0.818783
O O10 0.548303 0.223098 0.508490
O O11 0.673573 0.217617 0.651207
O O12 0.677192 0.097458 0.476587
O O13 0.183771 0.996600 0.914807
O O14 0.207049 0.839661 0.802321
O O15 0.054740 0.852340 0.901759
#
# Coordination Sequence:
#
# PCOD8177129 Si02
#       8
#     4   8   8   8   8   8   8   4
#     4  12  30  46  72 102 150 190 246 298 362 434
#     4  11  24  44  69 100 140 190 232 295 360 434
#     4  11  24  42  69 106 142 179 233 300 363 420
#     4  11  26  45  72 105 144 187 236 302 357 429
#     4  12  26  46  75 105 144 195 245 298 367 437
#     4  11  26  42  73 109 141 184 242 298 362 431
#     4  12  26  47  71 104 145 189 240 296 367 433
#     4  12  24  48  72 104 146 196 242 290 370 436
#
# _framework density 23.016634
#
# number of rings (size 3 to 8) (size 9 to 14) (size 15 to 20)
#    0.000    0.571    5.714    1.286    6.000    2.286 
#    1.286    0.000    0.000    0.000    0.000    0.000 
#    0.000    0.000    0.000    0.000    0.000    0.000 
#
# Total GULP energy -347187.646244 kJ/mol
# GULP energy per Si atom -12399.558794 kJ/mol
# Density = 2.296425 g / cm^3
# Si number density = 23.016634 Si / 1000 Ang^3
#
#
#
# Elastic Constant Matrix: (Units=GPa)
#
#
# Indices 1 2 3 4 5 6 
#
# 1 110.6027 42.9862 23.6713 0.0000 0.0000 0.0000
# 2 42.9862 94.6930 12.3088 0.0000 0.0000 0.0000
# 3 23.6713 12.3088 53.7337 0.0000 0.0000 0.0000
# 4 0.0000 0.0000 0.0000 26.9930 0.0000 0.0000
# 5 0.0000 0.0000 0.0000 0.0000 43.2759 0.0000
# 6 0.0000 0.0000 0.0000 0.0000 0.0000 42.1002
#
#
#
# Elastic Compliance Matrix: (Units=1/GPa)
#
#
# Indices 1 2 3 4 5 6 
#
# 1 0.011790 -0.004821 -0.004090 0.000000 0.000000 0.000000
# 2 -0.004821 0.012856 -0.000821 0.000000 0.000000 0.000000
# 3 -0.004090 -0.000821 0.020600 0.000000 0.000000 0.000000
# 4 0.000000 0.000000 0.000000 0.037047 0.000000 0.000000
# 5 0.000000 0.000000 0.000000 0.000000 0.023108 0.000000
# 6 0.000000 0.000000 0.000000 0.000000 0.000000 0.023753
#
#
# Mechanical properties :
#
#
# Convention : Reuss Voigt Hill
#
# Bulk Modulus (GPa) = 38.78554 46.32910 42.55732
# Shear Modulus (GPa) = 31.80460 34.47803 33.14132
#
# Velocity S-wave (km/s) = 3.72130 3.87455 3.79870
# Velocity P-wave (km/s) = 5.94574 6.33943 6.14574
#
# Compressibility (1/GPa) = 0.02578281
#
# Stress axis : x y z
#
# Youngs Moduli (GPa) = 84.81627 77.78769 48.54357
#
# Poissons Ratio (x) = 0.37498 0.19853
# Poissons Ratio (y) = 0.40886 0.03986
# Poissons Ratio (z) = 0.34687 0.06388
#
# Static dielectric constant tensor:
#      x y z
#    x 4.339700 0.000000 0.000000 
#    y 0.000000 3.776700 0.000000 
#    z 0.000000 0.000000 4.166610 
# 
# 
# High freq. dielectric constant tensor:
#      x y z
#    x 1.925730 0.000000 0.000000 
#    y 0.000000 1.906890 0.000000 
#    z 0.000000 0.000000 1.903940 
# 
# From -- ./inp_files/7878.got.cif
#   From: 2010.03.12/outbox.cif.g09.slc.cpg/sg37_4_cif.got.tgz:7878.got - 2010.04.14 02:25:27.
