data_PCOD8177561
_publ_section_title
;
Structure prediction by ZEFSAII (Michael W. Deem and Ramdas Pophale) SiO2 
 PCOD8177561
Probable space group: A M M 2
;
_chemical_formula_sum "Si O2"
_cell_formula_units_Z 64
_cell_length_a 8.961526
_cell_length_b 30.147535
_cell_length_c 14.402017
_cell_angle_alpha 90.000000
_cell_angle_beta 90.000000
_cell_angle_gamma 90.000000
_cell_volume 3890.962959
_symmetry_space_group_name_H-M "A M M 2"
_symmetry_group_IT_number 38
_symmetry_cell_setting 'orthorhombic'
loop_
_space_group_symop_operation_xyz
x,y,z
-x,-y,z
-x,y,z
x,-y,z
x,1/2+y,1/2+z
-x,1/2-y,1/2+z
-x,1/2+y,1/2+z
x,1/2-y,1/2+z
loop_
_atom_site_type_symbol
_atom_site_label
_atom_site_fract_x
_atom_site_fract_y
_atom_site_fract_z
Si Si1 0.822348 0.951673 0.343730
Si Si2 0.826381 0.050592 0.554943
Si Si3 0.324451 0.132998 0.619986
Si Si4 0.665851 0.175704 0.428557
Si Si5 0.823063 0.704172 0.608502
Si Si6 0.824305 0.862924 0.260243
Si Si7 0.668418 0.722603 0.424065
Si Si8 0.822958 0.210428 0.728423
O O1 0.768849 0.942625 0.449049
O O2 0.759687 0.912957 0.275464
O O3 0.000000 0.952260 0.343406
O O4 0.762713 0.000000 0.309980
O O5 0.734759 0.082399 0.624950
O O6 0.000000 0.062669 0.562320
O O7 0.797509 0.000000 0.586208
O O8 0.500000 0.134963 0.639288
O O9 0.278901 0.149507 0.518178
O O10 0.242201 0.163808 0.694070
O O11 0.500000 0.160316 0.398384
O O12 0.779703 0.167879 0.345825
O O13 0.666359 0.226779 0.455599
O O14 0.769216 0.660734 0.666361
O O15 0.745196 0.697202 0.509559
O O16 0.770751 0.748717 0.662804
O O17 0.000000 0.705315 0.594606
O O18 0.000000 0.865065 0.259521
O O19 0.500000 0.704756 0.408685
O O20 0.763133 0.717189 0.331559
O O21 0.000000 0.207680 0.731607
#
# Coordination Sequence:
#
# PCOD8177561 Si02
#       8
#     8   8   8   8   8   8   8   8
#     4   8  14  25  44  70  98 127 160 201 246 289
#     4   9  17  30  49  73 100 132 169 208 251 297
#     4  11  21  33  48  72 103 137 173 203 247 302
#     4  10  20  30  44  68  99 131 164 201 242 289
#     4  10  21  33  48  72  97 127 165 205 248 294
#     4  10  18  30  49  71  96 129 169 204 239 289
#     4  11  22  36  51  68  97 133 166 207 250 293
#     4  11  22  35  52  73  98 129 168 211 251 293
#
# _framework density 16.448369
#
# number of rings (size 3 to 8) (size 9 to 14) (size 15 to 20)
#    0.000    2.000    3.750    1.875    0.000    2.250 
#    0.000    0.000    0.000    0.375    0.000    0.875 
#    0.000    5.000    0.000    0.000    0.000    0.000 
#
# Total GULP energy -396684.627484 kJ/mol
# GULP energy per Si atom -12396.394609 kJ/mol
# Density = 1.641093 g / cm^3
# Si number density = 16.448369 Si / 1000 Ang^3
#
#
#
# Elastic Constant Matrix: (Units=GPa)
#
#
# Indices 1 2 3 4 5 6 
#
# 1 46.2923 32.7641 32.1431 0.0000 0.0000 0.0000
# 2 32.7641 96.0766 34.2001 0.0000 0.0000 0.0000
# 3 32.1431 34.2001 76.0249 0.0000 0.0000 0.0000
# 4 0.0000 0.0000 0.0000 24.3234 0.0000 0.0000
# 5 0.0000 0.0000 0.0000 0.0000 21.7024 0.0000
# 6 0.0000 0.0000 0.0000 0.0000 0.0000 17.3605
#
#
#
# Elastic Compliance Matrix: (Units=1/GPa)
#
#
# Indices 1 2 3 4 5 6 
#
# 1 0.035026 -0.007945 -0.011235 0.000000 0.000000 0.000000
# 2 -0.007945 0.014195 -0.003026 0.000000 0.000000 0.000000
# 3 -0.011235 -0.003026 0.019265 0.000000 0.000000 0.000000
# 4 0.000000 0.000000 0.000000 0.041113 0.000000 0.000000
# 5 0.000000 0.000000 0.000000 0.000000 0.046078 0.000000
# 6 0.000000 0.000000 0.000000 0.000000 0.000000 0.057602
#
#
# Mechanical properties :
#
#
# Convention : Reuss Voigt Hill
#
# Bulk Modulus (GPa) = 41.53987 46.28981 43.91484
# Shear Modulus (GPa) = 18.81704 20.62969 19.72336
#
# Velocity S-wave (km/s) = 3.38599 3.54532 3.46657
# Velocity P-wave (km/s) = 6.37150 6.70542 6.54059
#
# Compressibility (1/GPa) = 0.02407326
#
# Stress axis : x y z
#
# Youngs Moduli (GPa) = 28.55011 70.44607 51.90755
#
# Poissons Ratio (x) = 0.55973 0.58316
# Poissons Ratio (y) = 0.22684 0.15710
# Poissons Ratio (z) = 0.32075 0.21320
#
# Static dielectric constant tensor:
#      x y z
#    x 3.009840 0.000000 0.000000 
#    y 0.000000 3.388980 0.000000 
#    z 0.000000 0.000000 2.921980 
# 
# 
# High freq. dielectric constant tensor:
#      x y z
#    x 1.626840 0.000000 0.000000 
#    y 0.000000 1.629630 0.000000 
#    z 0.000000 0.000000 1.604970 
# 
# From -- ./inp_files/8652.got.cif
#   From: 2010.03.12/outbox.cif.g09.slc.cpg/sg38_5_cif.got.tgz:8652.got - 2010.04.14 02:38:36.
