data_PCOD8177821
_publ_section_title
;
Structure prediction by ZEFSAII (Michael W. Deem and Ramdas Pophale) SiO2 
 PCOD8177821
Probable space group: A M M 2
;
_chemical_formula_sum "Si O2"
_cell_formula_units_Z 48
_cell_length_a 8.952888
_cell_length_b 16.477722
_cell_length_c 18.393120
_cell_angle_alpha 90.000000
_cell_angle_beta 90.000000
_cell_angle_gamma 90.000000
_cell_volume 2713.411912
_symmetry_space_group_name_H-M "A M M 2"
_symmetry_group_IT_number 38
_symmetry_cell_setting 'orthorhombic'
loop_
_space_group_symop_operation_xyz
x,y,z
-x,-y,z
-x,y,z
x,-y,z
x,1/2+y,1/2+z
-x,1/2-y,1/2+z
-x,1/2+y,1/2+z
x,1/2-y,1/2+z
loop_
_atom_site_type_symbol
_atom_site_label
_atom_site_fract_x
_atom_site_fract_y
_atom_site_fract_z
Si Si1 0.830057 0.174150 0.361480
Si Si2 0.828834 0.273654 0.219401
Si Si3 0.674823 0.192878 0.943188
Si Si4 0.676316 0.000000 0.161755
Si Si5 0.171291 0.000000 0.313227
Si Si6 0.176498 0.843264 0.093920
Si Si7 0.675787 0.091269 0.802807
O O1 0.799220 0.205156 0.279972
O O2 0.717044 0.216494 0.417480
O O3 0.798656 0.078187 0.363397
O O4 0.000000 0.193898 0.384888
O O5 0.778609 0.234880 0.142738
O O6 0.737585 0.355433 0.236087
O O7 0.000000 0.300056 0.217316
O O8 0.500000 0.188182 0.961511
O O9 0.722378 0.130053 0.879976
O O10 0.772370 0.171479 0.012384
O O11 0.717123 0.000000 0.246109
O O12 0.740989 0.078317 0.122916
O O13 0.500000 0.000000 0.152694
O O14 0.000000 0.000000 0.284060
O O15 0.000000 0.858251 0.097656
O O16 0.500000 0.090236 0.795110
O O17 0.740990 0.000000 0.798666
#
# Coordination Sequence:
#
# PCOD8177821 Si02
#       7
#     8   8   8   4   4   8   8
#     4   9  17  33  55  78 106 142 180 218 264 314
#     4   9  18  33  55  78 103 136 179 223 260 310
#     4  10  21  35  53  79 111 143 177 218 270 326
#     4  12  24  34  52  84 116 143 174 217 274 326
#     4  10  18  34  58  82 110 141 180 225 264 318
#     4  11  22  38  56  78 110 145 181 220 268 323
#     4   9  19  35  54  77 108 140 172 216 268 317
#
# _framework density 17.689906000000001
#
# number of rings (size 3 to 8) (size 9 to 14) (size 15 to 20)
#    0.000    2.167    1.667    1.750    1.167    3.000 
#    0.000    0.000    1.833    0.000    0.000    0.000 
#    0.000    0.000    0.000    0.000    0.000    0.000 
#
# Total GULP energy -297633.933278 kJ/mol
# GULP energy per Si atom -12401.413887 kJ/mol
# Density = 1.764964 g / cm^3
# Si number density = 17.689906 Si / 1000 Ang^3
#
#
#
# Elastic Constant Matrix: (Units=GPa)
#
#
# Indices 1 2 3 4 5 6 
#
# 1 72.3048 49.9991 46.2966 0.0000 0.0000 0.0000
# 2 49.9991 150.8415 53.6111 0.0000 0.0000 0.0000
# 3 46.2966 53.6111 80.4634 0.0000 0.0000 0.0000
# 4 0.0000 0.0000 0.0000 21.8045 0.0000 0.0000
# 5 0.0000 0.0000 0.0000 0.0000 28.2571 0.0000
# 6 0.0000 0.0000 0.0000 0.0000 0.0000 31.6332
#
#
#
# Elastic Compliance Matrix: (Units=1/GPa)
#
#
# Indices 1 2 3 4 5 6 
#
# 1 0.023540 -0.003916 -0.010935 0.000000 0.000000 0.000000
# 2 -0.003916 0.009338 -0.003968 0.000000 0.000000 0.000000
# 3 -0.010935 -0.003968 0.021364 0.000000 0.000000 0.000000
# 4 0.000000 0.000000 0.000000 0.045862 0.000000 0.000000
# 5 0.000000 0.000000 0.000000 0.000000 0.035389 0.000000
# 6 0.000000 0.000000 0.000000 0.000000 0.000000 0.031612
#
#
# Mechanical properties :
#
#
# Convention : Reuss Voigt Hill
#
# Bulk Modulus (GPa) = 60.23192 67.04703 63.63947
# Shear Modulus (GPa) = 23.77786 26.58582 25.18184
#
# Velocity S-wave (km/s) = 3.67024 3.88091 3.77704
# Velocity P-wave (km/s) = 7.21689 7.62007 7.42122
#
# Compressibility (1/GPa) = 0.01660249
#
# Stress axis : x y z
#
# Youngs Moduli (GPa) = 42.48048 107.08896 46.80807
#
# Poissons Ratio (x) = 0.41940 0.51185
# Poissons Ratio (y) = 0.16637 0.18575
# Poissons Ratio (z) = 0.46453 0.42497
#
# Static dielectric constant tensor:
#      x y z
#    x 3.273410 0.000000 0.000000 
#    y 0.000000 3.521850 0.000000 
#    z 0.000000 0.000000 3.194210 
# 
# 
# High freq. dielectric constant tensor:
#      x y z
#    x 1.685100 0.000000 0.000000 
#    y 0.000000 1.688460 0.000000 
#    z 0.000000 0.000000 1.665950 
# 
# From -- ./inp_files/12072.got.cif
#   From: 2010.03.12/outbox.cif.g09.slc.cpg/sg38_7_cif.got.tgz:12072.got - 2010.04.14 02:38:36.
