data_PCOD8177576
_publ_section_title
;
Structure prediction by ZEFSAII (Michael W. Deem and Ramdas Pophale) SiO2 
 PCOD8177576
Probable space group: A M M 2
;
_chemical_formula_sum "Si O2"
_cell_formula_units_Z 56
_cell_length_a 8.966424
_cell_length_b 16.248444
_cell_length_c 22.765921
_cell_angle_alpha 90.000000
_cell_angle_beta 90.000000
_cell_angle_gamma 90.000000
_cell_volume 3316.777008
_symmetry_space_group_name_H-M "A M M 2"
_symmetry_group_IT_number 38
_symmetry_cell_setting 'orthorhombic'
loop_
_space_group_symop_operation_xyz
x,y,z
-x,-y,z
-x,y,z
x,-y,z
x,1/2+y,1/2+z
-x,1/2-y,1/2+z
-x,1/2+y,1/2+z
x,1/2-y,1/2+z
loop_
_atom_site_type_symbol
_atom_site_label
_atom_site_fract_x
_atom_site_fract_y
_atom_site_fract_z
Si Si1 0.675094 0.000000 0.252700
Si Si2 0.676632 0.594725 0.443197
Si Si3 0.170346 0.500000 0.630492
Si Si4 0.326321 0.739544 0.151531
Si Si5 0.170684 0.405658 0.207281
Si Si6 0.825942 0.840810 0.055855
Si Si7 0.324775 0.679446 0.774233
Si Si8 0.827354 0.672624 0.331638
O O1 0.725739 0.084270 0.285261
O O2 0.500000 0.000000 0.248150
O O3 0.727936 0.000000 0.186589
O O4 0.500000 0.601220 0.445561
O O5 0.729614 0.500000 0.450378
O O6 0.745227 0.652321 0.493490
O O7 0.733166 0.629677 0.381911
O O8 0.210714 0.577727 0.591639
O O9 0.000000 0.500000 0.651325
O O10 0.500000 0.743521 0.137597
O O11 0.279126 0.646439 0.165785
O O12 0.238102 0.765179 0.093185
O O13 0.283668 0.797349 0.206980
O O14 0.212441 0.500000 0.197251
O O15 0.197751 0.383733 0.274968
O O16 0.000000 0.386733 0.190109
O O17 0.000000 0.827270 0.044785
O O18 0.500000 0.693133 0.785496
O O19 0.232843 0.735232 0.819542
O O20 0.000000 0.678191 0.349871
#
# Coordination Sequence:
#
# PCOD8177576 Si02
#       8
#     4   8   4   8   8   8   8   8
#     4  10  18  30  50  74 104 138 168 203 248 295
#     4  11  23  36  52  74 101 134 170 207 248 297
#     4  10  20  30  46  72 104 136 168 205 240 287
#     4  10  19  31  49  74 104 135 167 207 252 299
#     4   9  18  33  52  74 101 134 170 209 253 299
#     4  11  21  34  50  73 104 137 171 205 244 295
#     4   9  18  31  48  72 102 135 169 205 248 297
#     4  10  20  34  52  73 101 134 169 210 251 295
#
# _framework density 16.883861
#
# number of rings (size 3 to 8) (size 9 to 14) (size 15 to 20)
#    0.000    2.000    2.143    2.143    0.000    4.000 
#    0.000    0.000    0.000    0.000    1.857    0.000 
#    0.000    0.000    0.000    0.000    0.000    0.000 
#
# Total GULP energy -347241.599957 kJ/mol
# GULP energy per Si atom -12401.485713 kJ/mol
# Density = 1.684543 g / cm^3
# Si number density = 16.883861 Si / 1000 Ang^3
#
#
#
# Elastic Constant Matrix: (Units=GPa)
#
#
# Indices 1 2 3 4 5 6 
#
# 1 67.1517 41.2839 40.1620 0.0000 0.0000 0.0000
# 2 41.2839 92.7140 38.1161 0.0000 0.0000 0.0000
# 3 40.1620 38.1161 75.6321 0.0000 0.0000 0.0000
# 4 0.0000 0.0000 0.0000 155.6246 0.0000 0.0000
# 5 0.0000 0.0000 0.0000 0.0000 31.2092 0.0000
# 6 0.0000 0.0000 0.0000 0.0000 0.0000 10.0044
#
#
#
# Elastic Compliance Matrix: (Units=1/GPa)
#
#
# Indices 1 2 3 4 5 6 
#
# 1 0.025125 -0.007193 -0.009717 0.000000 0.000000 0.000000
# 2 -0.007193 0.015664 -0.004074 0.000000 0.000000 0.000000
# 3 -0.009717 -0.004074 0.020435 0.000000 0.000000 0.000000
# 4 0.000000 0.000000 0.000000 0.006426 0.000000 0.000000
# 5 0.000000 0.000000 0.000000 0.000000 0.032042 0.000000
# 6 0.000000 0.000000 0.000000 0.000000 0.000000 0.099956
#
#
# Mechanical properties :
#
#
# Convention : Reuss Voigt Hill
#
# Bulk Modulus (GPa) = 51.93326 52.73574 52.33450
# Shear Modulus (GPa) = 20.15846 47.09672 33.62759
#
# Velocity S-wave (km/s) = 3.45910 5.28726 4.46769
# Velocity P-wave (km/s) = 6.83957 8.28104 7.59458
#
# Compressibility (1/GPa) = 0.01925548
#
# Stress axis : x y z
#
# Youngs Moduli (GPa) = 39.80045 63.84120 48.93536
#
# Poissons Ratio (x) = 0.45922 0.47550
# Poissons Ratio (y) = 0.28629 0.19938
# Poissons Ratio (z) = 0.38674 0.26012
#
# Static dielectric constant tensor:
#      x y z
#    x 3.196530 0.000000 0.000000 
#    y 0.000000 2.970530 0.000000 
#    z 0.000000 0.000000 2.940190 
# 
# 
# High freq. dielectric constant tensor:
#      x y z
#    x 1.660430 0.000000 0.000000 
#    y 0.000000 1.648980 0.000000 
#    z 0.000000 0.000000 1.625660 
# 
# From -- ./inp_files/19896.got.cif
#   From: 2010.03.12/outbox.cif.g09.slc.cpg/sg38_10_cif.got.tgz:19896.got - 2010.04.14 02:38:36.
