data_PCOD8177940
_publ_section_title
;
Structure prediction by ZEFSAII (Michael W. Deem and Ramdas Pophale) SiO2 
 PCOD8177940
Probable space group: A M M 2
;
_chemical_formula_sum "Si O2"
_cell_formula_units_Z 64
_cell_length_a 19.424369
_cell_length_b 9.118165
_cell_length_c 20.237726
_cell_angle_alpha 90.000000
_cell_angle_beta 90.000000
_cell_angle_gamma 90.000000
_cell_volume 3584.396777
_symmetry_space_group_name_H-M "A M M 2"
_symmetry_group_IT_number 38
_symmetry_cell_setting 'orthorhombic'
loop_
_space_group_symop_operation_xyz
x,y,z
-x,-y,z
-x,y,z
x,-y,z
x,1/2+y,1/2+z
-x,1/2-y,1/2+z
-x,1/2+y,1/2+z
x,1/2-y,1/2+z
loop_
_atom_site_type_symbol
_atom_site_label
_atom_site_fract_x
_atom_site_fract_y
_atom_site_fract_z
Si Si1 0.281562 0.325982 0.852330
Si Si2 0.427449 0.835515 0.364475
Si Si3 0.921171 0.326600 0.536781
Si Si4 0.080271 0.665400 0.770246
Si Si5 0.424629 0.835529 0.207252
Si Si6 0.293002 0.831997 0.715852
Si Si7 0.849173 0.332341 0.155573
Si Si8 0.138510 0.830327 0.411523
O O1 0.286895 0.500000 0.839619
O O2 0.353541 0.266691 0.886451
O O3 0.269083 0.253001 0.781431
O O4 0.218684 0.288904 0.900752
O O5 0.500000 0.755221 0.386859
O O6 0.424273 0.836065 0.285867
O O7 0.431769 0.000000 0.392087
O O8 0.915766 0.500000 0.538244
O O9 0.875234 0.264721 0.595524
O O10 0.891966 0.270782 0.467845
O O11 0.000000 0.274793 0.545655
O O12 0.106679 0.500000 0.755267
O O13 0.117971 0.780424 0.723985
O O14 0.095794 0.705237 0.845798
O O15 0.000000 0.677435 0.756392
O O16 0.500000 0.779642 0.182189
O O17 0.362808 0.731540 0.182633
O O18 0.411721 0.000000 0.180678
O O19 0.233298 0.817054 0.661102
O O20 0.305957 0.000000 0.735514
O O21 0.870866 0.500000 0.143186
O O22 0.130634 0.000000 0.432075
#
# Coordination Sequence:
#
# PCOD8177940 Si02
#       8
#     8   8   8   8   8   8   8   8
#     4   9  16  28  48  72 100 137 174 207 248 302
#     4   7  10  18  35  62  95 128 163 200 234 275
#     4  11  25  42  58  76 100 132 172 220 272 324
#     4  10  20  34  54  79 104 132 169 211 259 316
#     4   8  14  25  42  65  96 136 176 209 247 300
#     4  10  19  29  45  73 106 136 168 212 261 304
#     4  11  23  37  54  77 105 138 174 214 263 315
#     4  10  20  35  56  79 104 136 172 213 262 315
#
# _framework density 17.855167000000002
#
# number of rings (size 3 to 8) (size 9 to 14) (size 15 to 20)
#    0.000    2.500    1.250    3.375    0.000    6.000 
#    0.000    0.000    0.000    0.000    0.000    0.875 
#    0.000    5.000    0.000    0.000    0.000    0.000 
#
# Total GULP energy -396533.280148 kJ/mol
# GULP energy per Si atom -12391.665005 kJ/mol
# Density = 1.781453 g / cm^3
# Si number density = 17.855167 Si / 1000 Ang^3
#
#
#
# Elastic Constant Matrix: (Units=GPa)
#
#
# Indices 1 2 3 4 5 6 
#
# 1 122.3667 56.5378 38.1073 0.0000 0.0000 0.0000
# 2 56.5378 71.8766 35.2762 0.0000 0.0000 0.0000
# 3 38.1073 35.2762 58.4563 0.0000 0.0000 0.0000
# 4 0.0000 0.0000 0.0000 25.4444 0.0000 0.0000
# 5 0.0000 0.0000 0.0000 0.0000 15.8960 0.0000
# 6 0.0000 0.0000 0.0000 0.0000 0.0000 26.6573
#
#
#
# Elastic Compliance Matrix: (Units=1/GPa)
#
#
# Indices 1 2 3 4 5 6 
#
# 1 0.013283 -0.008807 -0.003344 0.000000 0.000000 0.000000
# 2 -0.008807 0.025606 -0.009711 0.000000 0.000000 0.000000
# 3 -0.003344 -0.009711 0.025147 0.000000 0.000000 0.000000
# 4 0.000000 0.000000 0.000000 0.039301 0.000000 0.000000
# 5 0.000000 0.000000 0.000000 0.000000 0.062909 0.000000
# 6 0.000000 0.000000 0.000000 0.000000 0.000000 0.037513
#
#
# Mechanical properties :
#
#
# Convention : Reuss Voigt Hill
#
# Bulk Modulus (GPa) = 49.23335 56.94913 53.09124
# Shear Modulus (GPa) = 19.66529 21.78478 20.72503
#
# Velocity S-wave (km/s) = 3.32230 3.49676 3.41065
# Velocity P-wave (km/s) = 6.50773 6.94747 6.73119
#
# Compressibility (1/GPa) = 0.02031144
#
# Stress axis : x y z
#
# Youngs Moduli (GPa) = 75.28613 39.05294 39.76548
#
# Poissons Ratio (x) = 0.34393 0.13299
# Poissons Ratio (y) = 0.66302 0.38618
# Poissons Ratio (z) = 0.25178 0.37926
#
# Static dielectric constant tensor:
#      x y z
#    x 4.151680 0.000000 0.000000 
#    y 0.000000 3.225700 0.000000 
#    z 0.000000 0.000000 2.882250 
# 
# 
# High freq. dielectric constant tensor:
#      x y z
#    x 1.721240 0.000000 0.000000 
#    y 0.000000 1.676620 0.000000 
#    z 0.000000 0.000000 1.637480 
# 
# From -- ./inp_files/18934.got.cif
#   From: 2010.03.12/outbox.cif.g09.slc.cpg/sg38_10_cif.got.tgz:18934.got - 2010.04.14 02:38:36.
