data_PCOD8177860
_publ_section_title
;
Structure prediction by ZEFSAII (Michael W. Deem and Ramdas Pophale) SiO2 
 PCOD8177860
Probable space group: A M M 2
;
_chemical_formula_sum "Si O2"
_cell_formula_units_Z 56
_cell_length_a 9.202908
_cell_length_b 13.931130
_cell_length_c 29.290447
_cell_angle_alpha 90.000000
_cell_angle_beta 90.000000
_cell_angle_gamma 90.000000
_cell_volume 3755.237636
_symmetry_space_group_name_H-M "A M M 2"
_symmetry_group_IT_number 38
_symmetry_cell_setting 'orthorhombic'
loop_
_space_group_symop_operation_xyz
x,y,z
-x,-y,z
-x,y,z
x,-y,z
x,1/2+y,1/2+z
-x,1/2-y,1/2+z
-x,1/2+y,1/2+z
x,1/2-y,1/2+z
loop_
_atom_site_type_symbol
_atom_site_label
_atom_site_fract_x
_atom_site_fract_y
_atom_site_fract_z
Si Si1 0.172251 0.894033 0.362530
Si Si2 0.670771 0.111064 0.996446
Si Si3 0.829010 0.791530 0.914164
Si Si4 0.826626 0.289373 0.773065
Si Si5 0.173132 0.392633 0.684408
Si Si6 0.172366 0.605487 0.322180
Si Si7 0.161544 0.613952 0.584816
O O1 0.216368 0.817963 0.401763
O O2 0.230782 0.859618 0.313123
O O3 0.000000 0.897877 0.359796
O O4 0.235929 0.000000 0.373813
O O5 0.500000 0.125718 0.995704
O O6 0.741651 0.177370 0.958404
O O7 0.714179 0.000000 0.988163
O O8 0.729286 0.147782 0.045363
O O9 0.781500 0.860042 0.872525
O O10 0.000000 0.800306 0.924113
O O11 0.763774 0.324024 0.724326
O O12 0.771273 0.181055 0.784058
O O13 0.000000 0.291075 0.772588
O O14 0.235481 0.500000 0.691999
O O15 0.218954 0.350675 0.634633
O O16 0.000000 0.396528 0.686709
O O17 0.239701 0.500000 0.312662
O O18 0.000000 0.601151 0.320199
O O19 0.153302 0.500000 0.587435
O O20 0.000000 0.654963 0.574502
#
# Coordination Sequence:
#
# PCOD8177860 Si02
#       7
#     8   8   8   8   8   8   8
#     4   8  13  21  34  55  81 103 124 153 187 221
#     4  10  19  28  38  54  76 100 126 158 193 226
#     4   9  16  25  39  57  76 102 131 155 184 223
#     4   8  12  17  28  49  76 102 123 146 181 218
#     4   8  12  18  30  49  71  92 115 146 183 222
#     4   8  13  20  30  48  75 103 128 151 175 210
#     4   8  14  24  37  53  73  96 121 150 186 227
#
# _framework density 14.912504999999999
#
# number of rings (size 3 to 8) (size 9 to 14) (size 15 to 20)
#    0.000    3.571    0.000    3.857    0.000    3.143 
#    0.000    0.000    0.000    0.429    0.000    5.000 
#    0.000   10.286    0.000    0.000    0.000    0.000 
#
# Total GULP energy -346906.811999 kJ/mol
# GULP energy per Si atom -12389.529000 kJ/mol
# Density = 1.487856 g / cm^3
# Si number density = 14.912505 Si / 1000 Ang^3
#
#
#
# Elastic Constant Matrix: (Units=GPa)
#
#
# Indices 1 2 3 4 5 6 
#
# 1 25.8450 19.0928 32.4555 0.0000 0.0000 0.0000
# 2 19.0928 111.6334 67.4298 0.0000 0.0000 0.0000
# 3 32.4555 67.4298 141.5553 0.0000 0.0000 0.0000
# 4 0.0000 0.0000 0.0000 23.4768 0.0000 0.0000
# 5 0.0000 0.0000 0.0000 0.0000 -0.5088 0.0000
# 6 0.0000 0.0000 0.0000 0.0000 0.0000 6.7568
#
#
#
# Elastic Compliance Matrix: (Units=1/GPa)
#
#
# Indices 1 2 3 4 5 6 
#
# 1 0.054831 -0.002505 -0.011378 0.000000 0.000000 0.000000
# 2 -0.002505 0.012691 -0.005471 0.000000 0.000000 0.000000
# 3 -0.011378 -0.005471 0.012279 0.000000 0.000000 0.000000
# 4 0.000000 0.000000 0.000000 0.042595 0.000000 0.000000
# 5 0.000000 0.000000 0.000000 0.000000 -1.965517 0.000000
# 6 0.000000 0.000000 0.000000 0.000000 0.000000 0.147998
#
#
# Mechanical properties :
#
#
# Convention : Reuss Voigt Hill
#
# Bulk Modulus (GPa) = 24.33513 57.44332 40.88922
# Shear Modulus (GPa) = -3.04374 16.61536 6.78581
#
# Velocity S-wave (km/s) = -1.43021 3.34157 2.13548
# Velocity P-wave (km/s) = 3.69144 7.31382 5.79304
#
# Compressibility (1/GPa) = 0.04109285
#
# Stress axis : x y z
#
# Youngs Moduli (GPa) = 18.23777 78.79622 81.43801
#
# Poissons Ratio (x) = 0.19739 0.92663
# Poissons Ratio (y) = 0.04569 0.44555
# Poissons Ratio (z) = 0.20752 0.43109
#
# Static dielectric constant tensor:
#      x y z
#    x 2.395700 0.000000 0.000000 
#    y 0.000000 3.136230 0.000000 
#    z 0.000000 0.000000 3.098950 
# 
# 
# High freq. dielectric constant tensor:
#      x y z
#    x 1.517010 0.000000 0.000000 
#    y 0.000000 1.548830 0.000000 
#    z 0.000000 0.000000 1.571590 
# 
# From -- ./inp_files/24634.got.cif
#   From: 2010.03.12/outbox.cif.g09.slc.cpg/sg38_13_cif.got.tgz:24634.got - 2010.04.14 02:38:36.
