data_PCOD8177270
_publ_section_title
;
Structure prediction by ZEFSAII (Michael W. Deem and Ramdas Pophale) SiO2 
 PCOD8177270
Probable space group: A M M 2
;
_chemical_formula_sum "Si O2"
_cell_formula_units_Z 64
_cell_length_a 18.266628
_cell_length_b 9.133754
_cell_length_c 23.168521
_cell_angle_alpha 90.000000
_cell_angle_beta 90.000000
_cell_angle_gamma 90.000000
_cell_volume 3865.502921
_symmetry_space_group_name_H-M "A M M 2"
_symmetry_group_IT_number 38
_symmetry_cell_setting 'orthorhombic'
loop_
_space_group_symop_operation_xyz
x,y,z
-x,-y,z
-x,y,z
x,-y,z
x,1/2+y,1/2+z
-x,1/2-y,1/2+z
-x,1/2+y,1/2+z
x,1/2-y,1/2+z
loop_
_atom_site_type_symbol
_atom_site_label
_atom_site_fract_x
_atom_site_fract_y
_atom_site_fract_z
Si Si1 0.916452 0.330951 0.821780
Si Si2 0.581167 0.831586 0.947567
Si Si3 0.357804 0.831801 0.343885
Si Si4 0.725725 0.671688 0.510096
Si Si5 0.750705 0.825700 0.140071
Si Si6 0.157542 0.663850 0.223659
Si Si7 0.681154 0.835801 0.736123
Si Si8 0.793479 0.332598 0.907734
O O1 0.898099 0.500000 0.808231
O O2 0.902874 0.240605 0.763344
O O3 0.865337 0.274936 0.874070
O O4 0.000000 0.308614 0.841090
O O5 0.500000 0.808691 0.974353
O O6 0.586412 0.735704 0.889880
O O7 0.594231 0.000000 0.930049
O O8 0.642362 0.782041 0.993887
O O9 0.367650 0.746399 0.283627
O O10 0.275397 0.812478 0.365946
O O11 0.378308 0.000000 0.333578
O O12 0.736473 0.500000 0.505920
O O13 0.742250 0.726912 0.574372
O O14 0.783836 0.742021 0.466392
O O15 0.827157 0.759010 0.165241
O O16 0.682106 0.757054 0.176133
O O17 0.750263 0.000000 0.146757
O O18 0.130708 0.500000 0.207227
O O19 0.234544 0.655749 0.258547
O O20 0.650214 0.000000 0.725668
O O21 0.803390 0.500000 0.926289
#
# Coordination Sequence:
#
# PCOD8177270 Si02
#       8
#     8   8   8   8   8   8   8   8
#     4  10  19  31  48  70  98 129 158 192 241 296
#     4   9  18  32  48  68  98 130 157 192 240 290
#     4  10  17  27  47  70  93 121 154 193 233 278
#     4   9  18  30  48  71  92 122 164 201 236 278
#     4   9  16  28  46  68  91 115 151 198 238 276
#     4   9  18  29  45  68  94 121 153 197 239 283
#     4   9  17  27  44  69  94 119 150 191 236 280
#     4   9  17  28  43  66  92 119 153 191 232 276
#
# _framework density 16.556708
#
# number of rings (size 3 to 8) (size 9 to 14) (size 15 to 20)
#    0.750    2.000    1.250    1.125    0.000    2.500 
#    0.000    0.000    0.000    1.500    0.000    5.250 
#    0.000    0.000    0.000    0.000    0.000    0.000 
#
# Total GULP energy -396580.170071 kJ/mol
# GULP energy per Si atom -12393.130315 kJ/mol
# Density = 1.651902 g / cm^3
# Si number density = 16.556708 Si / 1000 Ang^3
#
#
#
# Elastic Constant Matrix: (Units=GPa)
#
#
# Indices 1 2 3 4 5 6 
#
# 1 68.6482 23.0612 39.0154 0.0000 0.0000 0.0000
# 2 23.0612 86.7534 55.7723 0.0000 0.0000 0.0000
# 3 39.0154 55.7723 128.1727 0.0000 0.0000 0.0000
# 4 0.0000 0.0000 0.0000 27.7003 0.0000 0.0000
# 5 0.0000 0.0000 0.0000 0.0000 17.4562 0.0000
# 6 0.0000 0.0000 0.0000 0.0000 0.0000 17.2315
#
#
#
# Elastic Compliance Matrix: (Units=1/GPa)
#
#
# Indices 1 2 3 4 5 6 
#
# 1 0.017800 -0.001733 -0.004664 0.000000 0.000000 0.000000
# 2 -0.001733 0.016173 -0.006510 0.000000 0.000000 0.000000
# 3 -0.004664 -0.006510 0.012054 0.000000 0.000000 0.000000
# 4 0.000000 0.000000 0.000000 0.036101 0.000000 0.000000
# 5 0.000000 0.000000 0.000000 0.000000 0.057286 0.000000
# 6 0.000000 0.000000 0.000000 0.000000 0.000000 0.058033
#
#
# Mechanical properties :
#
#
# Convention : Reuss Voigt Hill
#
# Bulk Modulus (GPa) = 49.47316 57.69690 53.58503
# Shear Modulus (GPa) = 21.73923 23.52594 22.63259
#
# Velocity S-wave (km/s) = 3.62749 3.77361 3.70127
# Velocity P-wave (km/s) = 6.89136 7.34238 7.12044
#
# Compressibility (1/GPa) = 0.02021298
#
# Stress axis : x y z
#
# Youngs Moduli (GPa) = 56.17953 61.83291 82.95797
#
# Poissons Ratio (x) = 0.10717 0.38692
# Poissons Ratio (y) = 0.09737 0.54003
# Poissons Ratio (z) = 0.26203 0.40251
#
# Static dielectric constant tensor:
#      x y z
#    x 2.832690 0.000000 0.000000 
#    y 0.000000 3.152010 0.000000 
#    z 0.000000 0.000000 2.981630 
# 
# 
# High freq. dielectric constant tensor:
#      x y z
#    x 1.600500 0.000000 0.000000 
#    y 0.000000 1.646880 0.000000 
#    z 0.000000 0.000000 1.621180 
# 
# From -- ./inp_files/24034.got.cif
#   From: 2010.03.12/outbox.cif.g09.slc.cpg/sg38_13_cif.got.tgz:24034.got - 2010.04.14 02:38:36.
