data_PCOD8177373
_publ_section_title
;
Structure prediction by ZEFSAII (Michael W. Deem and Ramdas Pophale) SiO2 
 PCOD8177373
Probable space group: A M M 2
;
_chemical_formula_sum "Si O2"
_cell_formula_units_Z 48
_cell_length_a 9.284882
_cell_length_b 23.605927
_cell_length_c 13.763999
_cell_angle_alpha 90.000000
_cell_angle_beta 90.000000
_cell_angle_gamma 90.000000
_cell_volume 3016.769168
_symmetry_space_group_name_H-M "A M M 2"
_symmetry_group_IT_number 38
_symmetry_cell_setting 'orthorhombic'
loop_
_space_group_symop_operation_xyz
x,y,z
-x,-y,z
-x,y,z
x,-y,z
x,1/2+y,1/2+z
-x,1/2-y,1/2+z
-x,1/2+y,1/2+z
x,1/2-y,1/2+z
loop_
_atom_site_type_symbol
_atom_site_label
_atom_site_fract_x
_atom_site_fract_y
_atom_site_fract_z
Si Si1 0.834108 0.767737 0.748370
Si Si2 0.835943 0.339817 0.429623
Si Si3 0.670800 0.562214 0.745410
Si Si4 0.832247 0.723942 0.027874
Si Si5 0.667445 0.564624 0.528275
Si Si6 0.671397 0.171717 0.357553
O O1 0.810369 0.821734 0.817850
O O2 0.793582 0.786724 0.639858
O O3 0.731611 0.716810 0.780663
O O4 0.000000 0.746846 0.754299
O O5 0.789903 0.288009 0.499548
O O6 0.742602 0.394793 0.450950
O O7 0.000000 0.356452 0.448844
O O8 0.500000 0.560598 0.738682
O O9 0.727479 0.500000 0.778902
O O10 0.728688 0.575989 0.636925
O O11 0.721427 0.609627 0.821509
O O12 0.000000 0.713262 0.004840
O O13 0.738840 0.680446 0.964033
O O14 0.500000 0.578532 0.524264
O O15 0.698308 0.500000 0.497594
O O16 0.500000 0.177699 0.362906
#
# Coordination Sequence:
#
# PCOD8177373 Si02
#       6
#     8   8   8   8   8   8
#     4   9  18  32  47  63  88 122 151 176 215 264
#     4   9  17  28  44  66  87 111 144 179 216 254
#     4   8  15  28  44  63  89 118 144 172 213 264
#     4   9  18  32  47  63  89 122 149 176 216 265
#     4   9  17  29  45  64  87 116 145 174 214 261
#     4  10  18  27  45  71  92 113 145 184 222 258
#
# _framework density 15.911061
#
# number of rings (size 3 to 8) (size 9 to 14) (size 15 to 20)
#    0.000    3.000    0.000    3.500    0.000    3.667 
#    0.000    0.833    0.000    5.000    0.000    4.667 
#    0.000    0.000    0.000    0.000    0.000    0.000 
#
# Total GULP energy -297533.845804 kJ/mol
# GULP energy per Si atom -12397.243575 kJ/mol
# Density = 1.587485 g / cm^3
# Si number density = 15.911061 Si / 1000 Ang^3
#
#
#
# Elastic Constant Matrix: (Units=GPa)
#
#
# Indices 1 2 3 4 5 6 
#
# 1 52.6668 49.3747 42.3396 0.0000 0.0000 0.0000
# 2 49.3747 111.0658 66.3784 0.0000 0.0000 0.0000
# 3 42.3396 66.3784 127.1672 0.0000 0.0000 0.0000
# 4 0.0000 0.0000 0.0000 24.4498 0.0000 0.0000
# 5 0.0000 0.0000 0.0000 0.0000 25.2816 0.0000
# 6 0.0000 0.0000 0.0000 0.0000 0.0000 19.3694
#
#
#
# Elastic Compliance Matrix: (Units=1/GPa)
#
#
# Indices 1 2 3 4 5 6 
#
# 1 0.034680 -0.012378 -0.005086 0.000000 0.000000 0.000000
# 2 -0.012378 0.017504 -0.005015 0.000000 0.000000 0.000000
# 3 -0.005086 -0.005015 0.012175 0.000000 0.000000 0.000000
# 4 0.000000 0.000000 0.000000 0.040900 0.000000 0.000000
# 5 0.000000 0.000000 0.000000 0.000000 0.039554 0.000000
# 6 0.000000 0.000000 0.000000 0.000000 0.000000 0.051628
#
#
# Mechanical properties :
#
#
# Convention : Reuss Voigt Hill
#
# Bulk Modulus (GPa) = 51.54411 67.45392 59.49902
# Shear Modulus (GPa) = 20.17231 22.67396 21.42314
#
# Velocity S-wave (km/s) = 3.56450 3.77907 3.67335
# Velocity P-wave (km/s) = 7.02897 7.84399 7.44764
#
# Compressibility (1/GPa) = 0.01940086
#
# Stress axis : x y z
#
# Youngs Moduli (GPa) = 28.83547 57.13096 82.13659
#
# Poissons Ratio (x) = 0.70714 0.41771
# Poissons Ratio (y) = 0.35691 0.41195
# Poissons Ratio (z) = 0.14664 0.28654
#
# Static dielectric constant tensor:
#      x y z
#    x 2.867780 0.000000 0.000000 
#    y 0.000000 3.022230 0.000000 
#    z 0.000000 0.000000 3.069580 
# 
# 
# High freq. dielectric constant tensor:
#      x y z
#    x 1.599850 0.000000 0.000000 
#    y 0.000000 1.598740 0.000000 
#    z 0.000000 0.000000 1.606190 
# 
# From -- ./inp_files/12239.got.cif
#   From: 2010.03.12/outbox.cif.g09.slc.cpg/sg38_7_cif.got.tgz:12239.got - 2010.04.14 02:38:36.
