data_PCOD8177341
_publ_section_title
;
Structure prediction by ZEFSAII (Michael W. Deem and Ramdas Pophale) SiO2 
 PCOD8177341
Probable space group: A M M 2
;
_chemical_formula_sum "Si O2"
_cell_formula_units_Z 64
_cell_length_a 9.080803
_cell_length_b 25.750250
_cell_length_c 18.543472
_cell_angle_alpha 90.000000
_cell_angle_beta 90.000000
_cell_angle_gamma 90.000000
_cell_volume 4336.074714
_symmetry_space_group_name_H-M "A M M 2"
_symmetry_group_IT_number 38
_symmetry_cell_setting 'orthorhombic'
loop_
_space_group_symop_operation_xyz
x,y,z
-x,-y,z
-x,y,z
x,-y,z
x,1/2+y,1/2+z
-x,1/2-y,1/2+z
-x,1/2+y,1/2+z
x,1/2-y,1/2+z
loop_
_atom_site_type_symbol
_atom_site_label
_atom_site_fract_x
_atom_site_fract_y
_atom_site_fract_z
Si Si1 0.837870 0.694909 0.332820
Si Si2 0.329632 0.347178 0.207629
Si Si3 0.331348 0.058786 0.609916
Si Si4 0.170955 0.060412 0.464474
Si Si5 0.826343 0.741473 0.962528
Si Si6 0.325381 0.147871 0.383021
Si Si7 0.172547 0.256252 0.126324
Si Si8 0.162936 0.305707 0.756954
O O1 0.732074 0.655960 0.289382
O O2 0.782026 0.708209 0.413954
O O3 0.843218 0.749304 0.292046
O O4 0.000000 0.669462 0.335143
O O5 0.500000 0.333588 0.211078
O O6 0.298204 0.404896 0.178355
O O7 0.256524 0.307078 0.152760
O O8 0.500000 0.065252 0.583969
O O9 0.227459 0.075268 0.543982
O O10 0.298419 0.000000 0.634644
O O11 0.262239 0.091995 0.405094
O O12 0.000000 0.075426 0.459785
O O13 0.198348 0.000000 0.448382
O O14 0.738528 0.690715 0.937488
O O15 0.000000 0.729597 0.953173
O O16 0.783026 0.755298 0.044093
O O17 0.500000 0.147985 0.387675
O O18 0.277086 0.158298 0.300128
O O19 0.213680 0.205025 0.174096
O O20 0.000000 0.268162 0.134298
O O21 0.000000 0.331381 0.759789
#
# Coordination Sequence:
#
# PCOD8177341 Si02
#       8
#     8   8   8   8   8   8   8   8
#     4   8  15  27  41  56  77 105 133 163 198 233
#     4  10  18  26  39  58  79 105 135 164 197 236
#     4   9  18  31  43  57  80 107 135 169 205 237
#     4  10  20  32  45  60  78 103 136 171 202 233
#     4   9  17  29  43  59  80 107 138 167 197 236
#     4  11  20  28  41  60  82 109 136 163 199 237
#     4   9  17  28  42  58  78 105 134 164 197 233
#     4   8  15  28  42  56  76 103 133 163 195 233
#
# _framework density 14.759893
#
# number of rings (size 3 to 8) (size 9 to 14) (size 15 to 20)
#    0.000    2.750    0.000    4.125    0.000    8.750 
#    0.000    0.000    0.000    0.000    0.000    0.000 
#    0.000    1.000    0.000    9.250    0.000    1.875 
#
# Total GULP energy -396656.203607 kJ/mol
# GULP energy per Si atom -12395.506363 kJ/mol
# Density = 1.472630 g / cm^3
# Si number density = 14.759893 Si / 1000 Ang^3
#
#
#
# Elastic Constant Matrix: (Units=GPa)
#
#
# Indices 1 2 3 4 5 6 
#
# 1 82.0722 40.7484 47.0841 0.0000 0.0000 0.0000
# 2 40.7484 60.0925 47.6765 0.0000 0.0000 0.0000
# 3 47.0841 47.6765 118.4046 0.0000 0.0000 0.0000
# 4 0.0000 0.0000 0.0000 23.5459 0.0000 0.0000
# 5 0.0000 0.0000 0.0000 0.0000 17.6272 0.0000
# 6 0.0000 0.0000 0.0000 0.0000 0.0000 19.5451
#
#
#
# Elastic Compliance Matrix: (Units=1/GPa)
#
#
# Indices 1 2 3 4 5 6 
#
# 1 0.019328 -0.010298 -0.003539 0.000000 0.000000 0.000000
# 2 -0.010298 0.029940 -0.007960 0.000000 0.000000 0.000000
# 3 -0.003539 -0.007960 0.013058 0.000000 0.000000 0.000000
# 4 0.000000 0.000000 0.000000 0.042470 0.000000 0.000000
# 5 0.000000 0.000000 0.000000 0.000000 0.056731 0.000000
# 6 0.000000 0.000000 0.000000 0.000000 0.000000 0.051164
#
#
# Mechanical properties :
#
#
# Convention : Reuss Voigt Hill
#
# Bulk Modulus (GPa) = 53.38891 59.06526 56.22708
# Shear Modulus (GPa) = 19.04552 20.48100 19.76326
#
# Velocity S-wave (km/s) = 3.59605 3.72911 3.66318
# Velocity P-wave (km/s) = 7.31384 7.65806 7.48793
#
# Compressibility (1/GPa) = 0.01873048
#
# Stress axis : x y z
#
# Youngs Moduli (GPa) = 51.73916 33.40043 76.57979
#
# Poissons Ratio (x) = 0.34396 0.27103
# Poissons Ratio (y) = 0.53282 0.60960
# Poissons Ratio (z) = 0.18311 0.26588
#
# Static dielectric constant tensor:
#      x y z
#    x 2.915170 0.000000 0.000000 
#    y 0.000000 2.673340 0.000000 
#    z 0.000000 0.000000 3.253050 
# 
# 
# High freq. dielectric constant tensor:
#      x y z
#    x 1.570360 0.000000 0.000000 
#    y 0.000000 1.525630 0.000000 
#    z 0.000000 0.000000 1.559310 
# 
# From -- ./inp_files/17354.got.cif
#   From: 2010.03.12/outbox.cif.g09.slc.cpg/sg38_9_cif.got.tgz:17354.got - 2010.04.14 02:38:36.
