data_PCOD8177447
_publ_section_title
;
Structure prediction by ZEFSAII (Michael W. Deem and Ramdas Pophale) SiO2 
 PCOD8177447
Probable space group: A M M 2
;
_chemical_formula_sum "Si O2"
_cell_formula_units_Z 64
_cell_length_a 9.338905
_cell_length_b 23.476047
_cell_length_c 19.025501
_cell_angle_alpha 90.000000
_cell_angle_beta 90.000000
_cell_angle_gamma 90.000000
_cell_volume 4171.161735
_symmetry_space_group_name_H-M "A M M 2"
_symmetry_group_IT_number 38
_symmetry_cell_setting 'orthorhombic'
loop_
_space_group_symop_operation_xyz
x,y,z
-x,-y,z
-x,y,z
x,-y,z
x,1/2+y,1/2+z
-x,1/2-y,1/2+z
-x,1/2+y,1/2+z
x,1/2-y,1/2+z
loop_
_atom_site_type_symbol
_atom_site_label
_atom_site_fract_x
_atom_site_fract_y
_atom_site_fract_z
Si Si1 0.331490 0.232231 0.244930
Si Si2 0.168493 0.618059 0.099380
Si Si3 0.834022 0.249767 0.111171
Si Si4 0.835504 0.236825 0.956547
Si Si5 0.334037 0.435536 0.970199
Si Si6 0.830995 0.062539 0.743176
Si Si7 0.166648 0.329695 0.323032
Si Si8 0.664256 0.168157 0.380467
O O1 0.500000 0.241258 0.235282
O O2 0.260796 0.217996 0.169874
O O3 0.262060 0.289876 0.274030
O O4 0.295586 0.180627 0.299057
O O5 0.209459 0.684199 0.104901
O O6 0.225904 0.587345 0.169584
O O7 0.000000 0.610199 0.089005
O O8 0.244607 0.588595 0.034426
O O9 0.000000 0.243023 0.131644
O O10 0.797964 0.219624 0.036528
O O11 0.803414 0.183379 0.905153
O O12 0.750203 0.292334 0.933712
O O13 0.000000 0.255547 0.952216
O O14 0.500000 0.432660 0.991476
O O15 0.286604 0.500000 0.952708
O O16 0.304577 0.397588 0.900239
O O17 0.789053 0.105105 0.806925
O O18 0.000000 0.057170 0.738350
O O19 0.763170 0.000000 0.757307
O O20 0.000000 0.319024 0.303330
O O21 0.500000 0.184368 0.392752
#
# Coordination Sequence:
#
# PCOD8177447 Si02
#       8
#     8   8   8   8   8   8   8   8
#     4  10  19  29  44  64  86 113 143 178 220 260
#     4  10  18  29  43  62  88 118 150 178 204 246
#     4  10  18  29  44  65  88 114 144 174 213 259
#     4   9  17  28  45  64  84 110 142 177 215 256
#     4  10  20  32  45  62  87 119 150 181 217 255
#     4   9  16  26  41  60  83 112 143 172 202 239
#     4   9  16  29  45  62  84 111 143 179 212 250
#     4   9  18  31  44  62  87 113 144 180 217 257
#
# _framework density 15.343448
#
# number of rings (size 3 to 8) (size 9 to 14) (size 15 to 20)
#    0.000    2.500    2.500    0.750    0.000    2.250 
#    0.000    0.000    0.000    0.375    0.000    0.875 
#    0.000    1.000    0.000    0.000    0.000    0.000 
#
# Total GULP energy -396660.259101 kJ/mol
# GULP energy per Si atom -12395.633097 kJ/mol
# Density = 1.530853 g / cm^3
# Si number density = 15.343448 Si / 1000 Ang^3
#
#
#
# Elastic Constant Matrix: (Units=GPa)
#
#
# Indices 1 2 3 4 5 6 
#
# 1 42.8510 26.1543 42.7275 0.0000 0.0000 0.0000
# 2 26.1543 88.1823 64.0774 0.0000 0.0000 0.0000
# 3 42.7275 64.0774 128.3281 0.0000 0.0000 0.0000
# 4 0.0000 0.0000 0.0000 21.8062 0.0000 0.0000
# 5 0.0000 0.0000 0.0000 0.0000 23.2786 0.0000
# 6 0.0000 0.0000 0.0000 0.0000 0.0000 12.4530
#
#
#
# Elastic Compliance Matrix: (Units=1/GPa)
#
#
# Indices 1 2 3 4 5 6 
#
# 1 0.035447 -0.003040 -0.010284 0.000000 0.000000 0.000000
# 2 -0.003040 0.018059 -0.008005 0.000000 0.000000 0.000000
# 3 -0.010284 -0.008005 0.015214 0.000000 0.000000 0.000000
# 4 0.000000 0.000000 0.000000 0.045859 0.000000 0.000000
# 5 0.000000 0.000000 0.000000 0.000000 0.042958 0.000000
# 6 0.000000 0.000000 0.000000 0.000000 0.000000 0.080302
#
#
# Mechanical properties :
#
#
# Convention : Reuss Voigt Hill
#
# Bulk Modulus (GPa) = 38.37220 58.36441 48.36831
# Shear Modulus (GPa) = 17.29011 19.93438 18.61225
#
# Velocity S-wave (km/s) = 3.36053 3.60837 3.48665
# Velocity P-wave (km/s) = 6.33409 7.44860 6.91384
#
# Compressibility (1/GPa) = 0.02606053
#
# Stress axis : x y z
#
# Youngs Moduli (GPa) = 28.21134 55.37547 65.73061
#
# Poissons Ratio (x) = 0.16836 0.67597
# Poissons Ratio (y) = 0.08577 0.52616
# Poissons Ratio (z) = 0.29013 0.44327
#
# Static dielectric constant tensor:
#      x y z
#    x 2.886920 0.000000 0.000000 
#    y 0.000000 3.026640 0.000000 
#    z 0.000000 0.000000 3.155580 
# 
# 
# High freq. dielectric constant tensor:
#      x y z
#    x 1.579660 0.000000 0.000000 
#    y 0.000000 1.562640 0.000000 
#    z 0.000000 0.000000 1.587450 
# 
# From -- ./inp_files/17312.got.cif
#   From: 2010.03.12/outbox.cif.g09.slc.cpg/sg38_9_cif.got.tgz:17312.got - 2010.04.14 02:38:36.
