data_PCOD8177537
_publ_section_title
;
Structure prediction by ZEFSAII (Michael W. Deem and Ramdas Pophale) SiO2 
 PCOD8177537
Probable space group: A M M 2
;
_chemical_formula_sum "Si O2"
_cell_formula_units_Z 56
_cell_length_a 12.716357
_cell_length_b 8.893536
_cell_length_c 30.686002
_cell_angle_alpha 90.000000
_cell_angle_beta 90.000000
_cell_angle_gamma 90.000000
_cell_volume 3470.383647
_symmetry_space_group_name_H-M "A M M 2"
_symmetry_group_IT_number 38
_symmetry_cell_setting 'orthorhombic'
loop_
_space_group_symop_operation_xyz
x,y,z
-x,-y,z
-x,y,z
x,-y,z
x,1/2+y,1/2+z
-x,1/2-y,1/2+z
-x,1/2+y,1/2+z
x,1/2-y,1/2+z
loop_
_atom_site_type_symbol
_atom_site_label
_atom_site_fract_x
_atom_site_fract_y
_atom_site_fract_z
Si Si1 0.874925 0.667094 0.385910
Si Si2 0.117552 0.819993 0.981418
Si Si3 0.500000 0.176385 0.650881
Si Si4 0.500000 0.671238 0.561200
Si Si5 0.714339 0.178665 0.151163
Si Si6 0.122981 0.174872 0.714135
Si Si7 0.726352 0.672910 0.552236
Si Si8 0.124828 0.832722 0.301759
O O1 0.827693 0.500000 0.380132
O O2 0.844714 0.735194 0.433424
O O3 0.828299 0.769454 0.347149
O O4 0.000000 0.658287 0.382823
O O5 0.000000 0.762249 0.991728
O O6 0.119886 0.000000 0.980820
O O7 0.193722 0.748198 0.018377
O O8 0.500000 0.208318 0.599591
O O9 0.393310 0.249697 0.670630
O O10 0.500000 0.000000 0.660793
O O11 0.500000 0.500000 0.581082
O O12 0.606917 0.694036 0.533570
O O13 0.814365 0.231822 0.178263
O O14 0.733027 0.236605 0.101429
O O15 0.703946 0.000000 0.153117
O O16 0.160324 0.227446 0.761909
O O17 0.000000 0.208959 0.707000
O O18 0.148621 0.000000 0.709205
O O19 0.759014 0.500000 0.553971
O O20 0.000000 0.836159 0.304791
O O21 0.169820 0.000000 0.294264
#
# Coordination Sequence:
#
# PCOD8177537 Si02
#       8
#     8   8   4   4   8   8   8   8
#     4   8  13  22  37  56  78 104 135 173 214 254
#     4   8  13  21  35  58  85 110 138 171 208 253
#     4  10  18  30  48  66  85 112 149 190 230 267
#     4   8  14  26  42  60  81 106 141 184 222 251
#     4  10  19  31  47  67  91 118 151 189 226 262
#     4  10  20  32  45  64  92 122 150 180 219 270
#     4   8  14  24  39  59  83 110 140 176 213 250
#     4   9  16  26  41  60  82 109 142 179 217 257
#
# _framework density 16.136544000000001
#
# number of rings (size 3 to 8) (size 9 to 14) (size 15 to 20)
#    0.000    3.143    0.000    3.643    0.000    3.143 
#    0.000    1.429    0.000    4.286    0.000    3.000 
#    0.000    3.429    0.000    0.000    0.000    0.000 
#
# Total GULP energy -346931.467672 kJ/mol
# GULP energy per Si atom -12390.409560 kJ/mol
# Density = 1.609982 g / cm^3
# Si number density = 16.136544 Si / 1000 Ang^3
#
#
#
# Elastic Constant Matrix: (Units=GPa)
#
#
# Indices 1 2 3 4 5 6 
#
# 1 75.0800 26.6495 55.2749 0.0000 0.0000 0.0000
# 2 26.6495 64.8225 28.7897 0.0000 0.0000 0.0000
# 3 55.2749 28.7897 104.6477 0.0000 0.0000 0.0000
# 4 0.0000 0.0000 0.0000 18.0314 0.0000 0.0000
# 5 0.0000 0.0000 0.0000 0.0000 2.7671 0.0000
# 6 0.0000 0.0000 0.0000 0.0000 0.0000 17.1607
#
#
#
# Elastic Compliance Matrix: (Units=1/GPa)
#
#
# Indices 1 2 3 4 5 6 
#
# 1 0.022945 -0.004614 -0.010850 0.000000 0.000000 0.000000
# 2 -0.004614 0.018502 -0.002653 0.000000 0.000000 0.000000
# 3 -0.010850 -0.002653 0.016017 0.000000 0.000000 0.000000
# 4 0.000000 0.000000 0.000000 0.055459 0.000000 0.000000
# 5 0.000000 0.000000 0.000000 0.000000 0.361383 0.000000
# 6 0.000000 0.000000 0.000000 0.000000 0.000000 0.058273
#
#
# Mechanical properties :
#
#
# Convention : Reuss Voigt Hill
#
# Bulk Modulus (GPa) = 47.10470 51.77539 49.44004
# Shear Modulus (GPa) = 8.68223 16.51426 12.59825
#
# Velocity S-wave (km/s) = 2.32210 3.20254 2.79718
# Velocity P-wave (km/s) = 6.03691 6.76982 6.41384
#
# Compressibility (1/GPa) = 0.02122931
#
# Stress axis : x y z
#
# Youngs Moduli (GPa) = 43.58267 54.04847 62.43471
#
# Poissons Ratio (x) = 0.24939 0.67742
# Poissons Ratio (y) = 0.20110 0.16563
# Poissons Ratio (z) = 0.47288 0.14339
#
# Static dielectric constant tensor:
#      x y z
#    x 3.014270 0.000000 0.000000 
#    y 0.000000 2.922910 0.000000 
#    z 0.000000 0.000000 3.192640 
# 
# 
# High freq. dielectric constant tensor:
#      x y z
#    x 1.588890 0.000000 0.000000 
#    y 0.000000 1.601760 0.000000 
#    z 0.000000 0.000000 1.609960 
# 
# From -- ./inp_files/25020.got.cif
#   From: 2010.03.12/outbox.cif.g09.slc.cpg/sg38_13_cif.got.tgz:25020.got - 2010.04.14 02:38:36.
