data_PCOD8177410
_publ_section_title
;
Structure prediction by ZEFSAII (Michael W. Deem and Ramdas Pophale) SiO2 
 PCOD8177410
Probable space group: A M M 2
;
_chemical_formula_sum "Si O2"
_cell_formula_units_Z 56
_cell_length_a 8.877733
_cell_length_b 29.601184
_cell_length_c 13.465817
_cell_angle_alpha 90.000000
_cell_angle_beta 90.000000
_cell_angle_gamma 90.000000
_cell_volume 3538.701010
_symmetry_space_group_name_H-M "A M M 2"
_symmetry_group_IT_number 38
_symmetry_cell_setting 'orthorhombic'
loop_
_space_group_symop_operation_xyz
x,y,z
-x,-y,z
-x,y,z
x,-y,z
x,1/2+y,1/2+z
-x,1/2-y,1/2+z
-x,1/2+y,1/2+z
x,1/2-y,1/2+z
loop_
_atom_site_type_symbol
_atom_site_label
_atom_site_fract_x
_atom_site_fract_y
_atom_site_fract_z
Si Si1 0.674976 0.817907 0.595180
Si Si2 0.823526 0.233399 0.997210
Si Si3 0.825723 0.500000 0.006235
Si Si4 0.675411 0.317747 0.667534
Si Si5 0.820528 0.902442 0.504161
Si Si6 0.673312 0.401649 0.791289
Si Si7 0.328084 0.731665 0.294929
Si Si8 0.669957 0.000000 0.305979
O O1 0.500000 0.821398 0.569208
O O2 0.743495 0.780422 0.522694
O O3 0.753587 0.865721 0.578150
O O4 0.702206 0.805088 0.709447
O O5 0.782138 0.219930 0.885094
O O6 0.000000 0.240095 0.008129
O O7 0.770151 0.193186 0.069281
O O8 0.762020 0.451780 0.045895
O O9 0.796708 0.500000 0.889153
O O10 0.000000 0.500000 0.027857
O O11 0.500000 0.316452 0.638085
O O12 0.728729 0.366583 0.707579
O O13 0.709493 0.281252 0.752963
O O14 0.766002 0.894472 0.391868
O O15 0.000000 0.899642 0.504333
O O16 0.500000 0.390949 0.817146
O O17 0.691772 0.452794 0.746024
O O18 0.500000 0.729297 0.332051
O O19 0.500000 0.000000 0.352127
#
# Coordination Sequence:
#
# PCOD8177410 Si02
#       8
#     8   8   4   8   8   8   8   4
#     4  10  20  33  48  65  87 117 150 180 215 260
#     4  11  21  31  46  67  90 114 143 183 222 259
#     4   8  16  28  40  60  91 122 145 170 215 264
#     4   9  18  31  46  63  86 119 151 177 212 260
#     4  10  18  28  44  66  93 121 148 180 216 257
#     4   9  16  27  44  65  91 122 152 182 217 257
#     4   9  18  32  47  62  85 117 149 180 215 258
#     4   8  14  24  40  64  89 114 149 186 215 250
#
# _framework density 15.825016
#
# number of rings (size 3 to 8) (size 9 to 14) (size 15 to 20)
#    0.000    2.571    0.000    3.857    0.000    5.143 
#    0.000    0.000    0.000    0.000    0.000    1.000 
#    0.000    2.286    0.000    0.000    0.000    0.000 
#
# Total GULP energy -347017.871513 kJ/mol
# GULP energy per Si atom -12393.495411 kJ/mol
# Density = 1.578900 g / cm^3
# Si number density = 15.825016 Si / 1000 Ang^3
#
#
#
# Elastic Constant Matrix: (Units=GPa)
#
#
# Indices 1 2 3 4 5 6 
#
# 1 63.8383 36.9604 34.0485 0.0000 0.0000 0.0000
# 2 36.9604 146.1048 49.0762 0.0000 0.0000 0.0000
# 3 34.0485 49.0762 72.3608 0.0000 0.0000 0.0000
# 4 0.0000 0.0000 0.0000 20.8884 0.0000 0.0000
# 5 0.0000 0.0000 0.0000 0.0000 13.5667 0.0000
# 6 0.0000 0.0000 0.0000 0.0000 0.0000 20.5558
#
#
#
# Elastic Compliance Matrix: (Units=1/GPa)
#
#
# Indices 1 2 3 4 5 6 
#
# 1 0.021686 -0.002666 -0.008396 0.000000 0.000000 0.000000
# 2 -0.002666 0.009191 -0.004979 0.000000 0.000000 0.000000
# 3 -0.008396 -0.004979 0.021147 0.000000 0.000000 0.000000
# 4 0.000000 0.000000 0.000000 0.047873 0.000000 0.000000
# 5 0.000000 0.000000 0.000000 0.000000 0.073710 0.000000
# 6 0.000000 0.000000 0.000000 0.000000 0.000000 0.048648
#
#
# Mechanical properties :
#
#
# Convention : Reuss Voigt Hill
#
# Bulk Modulus (GPa) = 50.14468 58.05265 54.09867
# Shear Modulus (GPa) = 19.15809 21.81677 20.48743
#
# Velocity S-wave (km/s) = 3.48317 3.71701 3.60199
# Velocity P-wave (km/s) = 6.92332 7.42868 7.18045
#
# Compressibility (1/GPa) = 0.01994230
#
# Stress axis : x y z
#
# Youngs Moduli (GPa) = 46.11254 108.79849 47.28705
#
# Poissons Ratio (x) = 0.29002 0.39703
# Poissons Ratio (y) = 0.12292 0.23546
# Poissons Ratio (z) = 0.38717 0.54175
#
# Static dielectric constant tensor:
#      x y z
#    x 3.012030 0.000000 0.000000 
#    y 0.000000 3.381450 0.000000 
#    z 0.000000 0.000000 2.712300 
# 
# 
# High freq. dielectric constant tensor:
#      x y z
#    x 1.611630 0.000000 0.000000 
#    y 0.000000 1.614170 0.000000 
#    z 0.000000 0.000000 1.568600 
# 
# From -- ./inp_files/13022.got.cif
#   From: 2010.03.12/outbox.cif.g09.slc.cpg/sg38_7_cif.got.tgz:13022.got - 2010.04.14 02:38:36.
