data_PCOD8177408
_publ_section_title
;
Structure prediction by ZEFSAII (Michael W. Deem and Ramdas Pophale) SiO2 
 PCOD8177408
Probable space group: A M M 2
;
_chemical_formula_sum "Si O2"
_cell_formula_units_Z 64
_cell_length_a 14.234084
_cell_length_b 8.900275
_cell_length_c 31.657982
_cell_angle_alpha 90.000000
_cell_angle_beta 90.000000
_cell_angle_gamma 90.000000
_cell_volume 4010.663059
_symmetry_space_group_name_H-M "A M M 2"
_symmetry_group_IT_number 38
_symmetry_cell_setting 'orthorhombic'
loop_
_space_group_symop_operation_xyz
x,y,z
-x,-y,z
-x,y,z
x,-y,z
x,1/2+y,1/2+z
-x,1/2-y,1/2+z
-x,1/2+y,1/2+z
x,1/2-y,1/2+z
loop_
_atom_site_type_symbol
_atom_site_label
_atom_site_fract_x
_atom_site_fract_y
_atom_site_fract_z
Si Si1 0.223741 0.176742 0.511040
Si Si2 0.888382 0.335278 0.841560
Si Si3 0.890956 0.825083 0.594481
Si Si4 0.105310 0.179928 0.432143
Si Si5 0.606221 0.324100 0.137731
Si Si6 0.781955 0.322002 0.670770
Si Si7 0.606467 0.674102 0.548610
Si Si8 0.894656 0.320220 0.751118
O O1 0.157536 0.218131 0.550405
O O2 0.174127 0.237770 0.468680
O O3 0.322917 0.263125 0.513384
O O4 0.242943 0.000000 0.508722
O O5 0.841551 0.500000 0.841699
O O6 0.860017 0.255124 0.886078
O O7 0.859475 0.254933 0.797081
O O8 0.000000 0.351903 0.841289
O O9 0.843785 0.730649 0.631469
O O10 0.000000 0.781596 0.591123
O O11 0.877221 0.000000 0.604674
O O12 0.000000 0.237403 0.442277
O O13 0.104632 0.000000 0.430418
O O14 0.500000 0.285970 0.151788
O O15 0.626075 0.500000 0.137679
O O16 0.676805 0.243826 0.169887
O O17 0.626944 0.265430 0.091020
O O18 0.777156 0.500000 0.670056
O O19 0.827449 0.260898 0.714115
O O20 0.500000 0.700266 0.532768
O O21 0.625881 0.500000 0.557870
O O22 0.894362 0.500000 0.753371
O O23 0.000000 0.262950 0.741117
#
# Coordination Sequence:
#
# PCOD8177408 Si02
#       8
#     8   8   8   8   8   8   8   8
#     4  10  18  28  44  66  91 118 147 181 219 258
#     4   7  10  19  36  58  86 117 146 178 216 254
#     4  10  20  31  41  57  88 127 157 178 207 252
#     4   8  13  22  39  64  91 118 148 180 214 255
#     4  10  20  34  50  65  83 110 145 186 229 269
#     4  11  20  29  44  66  91 118 149 184 221 263
#     4  10  20  33  48  65  85 111 145 185 225 264
#     4   8  14  24  38  60  91 122 148 177 215 257
#
# _framework density 15.957462
#
# number of rings (size 3 to 8) (size 9 to 14) (size 15 to 20)
#    0.000    2.750    1.250    3.375    0.000    3.750 
#    0.000    0.000    0.000    1.125    0.000    2.625 
#    0.000   13.000    0.000    0.000    0.000    0.000 
#
# Total GULP energy -396550.814818 kJ/mol
# GULP energy per Si atom -12392.212963 kJ/mol
# Density = 1.592114 g / cm^3
# Si number density = 15.957462 Si / 1000 Ang^3
#
#
#
# Elastic Constant Matrix: (Units=GPa)
#
#
# Indices 1 2 3 4 5 6 
#
# 1 107.8789 30.6821 69.8607 0.0000 0.0000 0.0000
# 2 30.6821 36.1015 32.5404 0.0000 0.0000 0.0000
# 3 69.8607 32.5404 147.0119 0.0000 0.0000 0.0000
# 4 0.0000 0.0000 0.0000 12.6176 0.0000 0.0000
# 5 0.0000 0.0000 0.0000 0.0000 13.7031 0.0000
# 6 0.0000 0.0000 0.0000 0.0000 0.0000 22.0423
#
#
#
# Elastic Compliance Matrix: (Units=1/GPa)
#
#
# Indices 1 2 3 4 5 6 
#
# 1 0.015000 -0.007899 -0.005380 0.000000 0.000000 0.000000
# 2 -0.007899 0.038763 -0.004826 0.000000 0.000000 0.000000
# 3 -0.005380 -0.004826 0.010427 0.000000 0.000000 0.000000
# 4 0.000000 0.000000 0.000000 0.079254 0.000000 0.000000
# 5 0.000000 0.000000 0.000000 0.000000 0.072976 0.000000
# 6 0.000000 0.000000 0.000000 0.000000 0.000000 0.045367
#
#
# Mechanical properties :
#
#
# Convention : Reuss Voigt Hill
#
# Bulk Modulus (GPa) = 35.74004 61.90653 48.82329
# Shear Modulus (GPa) = 16.26940 20.19988 18.23464
#
# Velocity S-wave (km/s) = 3.19650 3.56175 3.38406
# Velocity P-wave (km/s) = 6.00576 7.46952 6.77727
#
# Compressibility (1/GPa) = 0.02797982
#
# Stress axis : x y z
#
# Youngs Moduli (GPa) = 66.66635 25.79751 95.90610
#
# Poissons Ratio (x) = 0.20378 0.51594
# Poissons Ratio (y) = 0.52662 0.46287
# Poissons Ratio (z) = 0.35864 0.12451
#
# Static dielectric constant tensor:
#      x y z
#    x 3.053650 0.000000 0.000000 
#    y 0.000000 2.733900 0.000000 
#    z 0.000000 0.000000 3.361550 
# 
# 
# High freq. dielectric constant tensor:
#      x y z
#    x 1.597410 0.000000 0.000000 
#    y 0.000000 1.582990 0.000000 
#    z 0.000000 0.000000 1.609610 
# 
# From -- ./inp_files/25100.got.cif
#   From: 2010.03.12/outbox.cif.g09.slc.cpg/sg38_13_cif.got.tgz:25100.got - 2010.04.14 02:38:36.
