data_PCOD8177514
_publ_section_title
;
Structure prediction by ZEFSAII (Michael W. Deem and Ramdas Pophale) SiO2 
 PCOD8177514
Probable space group: A M M 2
;
_chemical_formula_sum "Si O2"
_cell_formula_units_Z 64
_cell_length_a 9.022170
_cell_length_b 14.315396
_cell_length_c 28.284512
_cell_angle_alpha 90.000000
_cell_angle_beta 90.000000
_cell_angle_gamma 90.000000
_cell_volume 3653.112631
_symmetry_space_group_name_H-M "A M M 2"
_symmetry_group_IT_number 38
_symmetry_cell_setting 'orthorhombic'
loop_
_space_group_symop_operation_xyz
x,y,z
-x,-y,z
-x,y,z
x,-y,z
x,1/2+y,1/2+z
-x,1/2-y,1/2+z
-x,1/2+y,1/2+z
x,1/2-y,1/2+z
loop_
_atom_site_type_symbol
_atom_site_label
_atom_site_fract_x
_atom_site_fract_y
_atom_site_fract_z
Si Si1 0.325362 0.606172 0.372560
Si Si2 0.676064 0.770466 0.784506
Si Si3 0.172964 0.607150 0.741616
Si Si4 0.674758 0.397284 0.199933
Si Si5 0.826633 0.106615 0.968162
Si Si6 0.671026 0.108667 0.143585
Si Si7 0.824841 0.280915 0.559937
Si Si8 0.673038 0.607454 0.093082
O O1 0.500000 0.610956 0.378228
O O2 0.274467 0.500000 0.361222
O O3 0.271073 0.673558 0.330690
O O4 0.254034 0.642389 0.421063
O O5 0.500000 0.757054 0.783830
O O6 0.755934 0.669806 0.783331
O O7 0.737082 0.825872 0.738582
O O8 0.203438 0.500000 0.755330
O O9 0.252126 0.633944 0.692775
O O10 0.000000 0.627742 0.736244
O O11 0.500000 0.405338 0.205992
O O12 0.744068 0.500000 0.208964
O O13 0.713305 0.363920 0.146979
O O14 0.000000 0.115433 0.959263
O O15 0.781277 0.000000 0.979914
O O16 0.774383 0.171485 0.011161
O O17 0.500000 0.138941 0.147469
O O18 0.747692 0.165347 0.102342
O O19 0.688877 0.000000 0.131705
O O20 0.769386 0.173646 0.558980
O O21 0.000000 0.286024 0.566693
O O22 0.500000 0.623272 0.083121
O O23 0.716322 0.500000 0.083275
#
# Coordination Sequence:
#
# PCOD8177514 Si02
#       8
#     8   8   8   8   8   8   8   8
#     4   9  18  32  51  77 105 129 156 195 244 295
#     4  10  18  29  50  76  99 126 161 199 239 288
#     4  10  21  35  49  68  98 134 169 206 246 287
#     4   8  14  26  45  69  97 127 156 186 225 277
#     4   9  19  35  52  71  98 131 163 197 244 300
#     4  10  20  33  50  73 101 133 168 205 247 297
#     4  11  21  32  50  74 100 131 167 208 252 299
#     4   9  18  32  49  70  98 133 170 204 239 285
#
# _framework density 17.519307000000001
#
# number of rings (size 3 to 8) (size 9 to 14) (size 15 to 20)
#    0.000    2.500    0.000    3.375    0.000    6.250 
#    0.000    1.250    0.000    2.625    0.000    0.000 
#    0.000    0.000    0.000    0.000    0.000    0.000 
#
# Total GULP energy -396810.964155 kJ/mol
# GULP energy per Si atom -12400.342630 kJ/mol
# Density = 1.747943 g / cm^3
# Si number density = 17.519307 Si / 1000 Ang^3
#
#
#
# Elastic Constant Matrix: (Units=GPa)
#
#
# Indices 1 2 3 4 5 6 
#
# 1 60.5137 49.2576 47.2111 0.0000 0.0000 0.0000
# 2 49.2576 106.7356 83.0870 0.0000 0.0000 0.0000
# 3 47.2111 83.0870 113.0327 0.0000 0.0000 0.0000
# 4 0.0000 0.0000 0.0000 28.6062 0.0000 0.0000
# 5 0.0000 0.0000 0.0000 0.0000 27.4352 0.0000
# 6 0.0000 0.0000 0.0000 0.0000 0.0000 27.7504
#
#
#
# Elastic Compliance Matrix: (Units=1/GPa)
#
#
# Indices 1 2 3 4 5 6 
#
# 1 0.027658 -0.008816 -0.005072 0.000000 0.000000 0.000000
# 2 -0.008816 0.024711 -0.014482 0.000000 0.000000 0.000000
# 3 -0.005072 -0.014482 0.021611 0.000000 0.000000 0.000000
# 4 0.000000 0.000000 0.000000 0.034957 0.000000 0.000000
# 5 0.000000 0.000000 0.000000 0.000000 0.036450 0.000000
# 6 0.000000 0.000000 0.000000 0.000000 0.000000 0.036035
#
#
# Mechanical properties :
#
#
# Convention : Reuss Voigt Hill
#
# Bulk Modulus (GPa) = 58.00417 71.04370 64.52394
# Shear Modulus (GPa) = 20.49957 23.47347 21.98652
#
# Velocity S-wave (km/s) = 3.42440 3.66439 3.54642
# Velocity P-wave (km/s) = 6.98684 7.65136 7.32664
#
# Compressibility (1/GPa) = 0.01724014
#
# Stress axis : x y z
#
# Youngs Moduli (GPa) = 36.15572 40.46844 46.27366
#
# Poissons Ratio (x) = 0.35676 0.23469
# Poissons Ratio (y) = 0.31874 0.67013
# Poissons Ratio (z) = 0.18338 0.58606
#
# Static dielectric constant tensor:
#      x y z
#    x 3.098030 0.000000 0.000000 
#    y 0.000000 3.465330 0.000000 
#    z 0.000000 0.000000 3.198570 
# 
# 
# High freq. dielectric constant tensor:
#      x y z
#    x 1.665130 0.000000 0.000000 
#    y 0.000000 1.682420 0.000000 
#    z 0.000000 0.000000 1.658330 
# 
# From -- ./inp_files/22200.got.cif
#   From: 2010.03.12/outbox.cif.g09.slc.cpg/sg38_12_cif.got.tgz:22200.got - 2010.04.14 02:38:36.
