data_PCOD8177415
_publ_section_title
;
Structure prediction by ZEFSAII (Michael W. Deem and Ramdas Pophale) SiO2 
 PCOD8177415
Probable space group: A M M 2
;
_chemical_formula_sum "Si O2"
_cell_formula_units_Z 52
_cell_length_a 13.551149
_cell_length_b 18.418822
_cell_length_c 12.719543
_cell_angle_alpha 90.000000
_cell_angle_beta 90.000000
_cell_angle_gamma 90.000000
_cell_volume 3174.749615
_symmetry_space_group_name_H-M "A M M 2"
_symmetry_group_IT_number 38
_symmetry_cell_setting 'orthorhombic'
loop_
_space_group_symop_operation_xyz
x,y,z
-x,-y,z
-x,y,z
x,-y,z
x,1/2+y,1/2+z
-x,1/2-y,1/2+z
-x,1/2+y,1/2+z
x,1/2-y,1/2+z
loop_
_atom_site_type_symbol
_atom_site_label
_atom_site_fract_x
_atom_site_fract_y
_atom_site_fract_z
Si Si1 0.890639 0.500000 0.575210
Si Si2 0.385688 0.716571 0.005782
Si Si3 0.613292 0.356568 0.796081
Si Si4 0.383281 0.500000 0.689157
Si Si5 0.729688 0.155905 0.905467
Si Si6 0.885337 0.341289 0.589005
Si Si7 0.707129 0.000000 0.957917
Si Si8 0.742987 0.736372 0.196353
O O1 0.873175 0.423545 0.638834
O O2 0.824952 0.500000 0.470814
O O3 0.000000 0.500000 0.529306
O O4 0.500000 0.720889 0.042653
O O5 0.370814 0.652347 0.920835
O O6 0.356333 0.793086 0.951947
O O7 0.309916 0.695827 0.098814
O O8 0.500000 0.350691 0.765585
O O9 0.656825 0.432436 0.756191
O O10 0.663734 0.294543 0.730367
O O11 0.500000 0.500000 0.678240
O O12 0.338474 0.500000 0.573904
O O13 0.681053 0.074833 0.897620
O O14 0.764618 0.179422 0.789096
O O15 0.825492 0.160527 0.979622
O O16 0.843395 0.279044 0.666168
O O17 0.000000 0.323354 0.567803
#
# Coordination Sequence:
#
# PCOD8177415 Si02
#       8
#     4   8   8   4   8   8   4   8
#     4   8  14  26  44  65  86 108 136 171 216 263
#     4   9  17  30  46  63  87 119 152 187 225 267
#     4   9  17  28  44  66  90 117 148 182 221 265
#     4  10  18  28  45  68  91 116 149 186 226 269
#     4   9  19  31  45  66  91 117 152 188 224 269
#     4   9  17  29  46  67  91 117 145 182 225 267
#     4  10  18  30  45  63  89 118 145 187 230 264
#     4  10  18  29  45  66  90 118 152 185 222 270
#
# _framework density 16.379242999999999
#
# number of rings (size 3 to 8) (size 9 to 14) (size 15 to 20)
#    0.000    2.769    0.000    3.231    0.000    3.077 
#    0.000    0.769    0.000    0.000    0.000    0.000 
#    0.000    0.000    0.000    0.000    0.000    0.000 
#
# Total GULP energy -322118.273917 kJ/mol
# GULP energy per Si atom -12389.164381 kJ/mol
# Density = 1.634196 g / cm^3
# Si number density = 16.379243 Si / 1000 Ang^3
#
#
#
# Elastic Constant Matrix: (Units=GPa)
#
#
# Indices 1 2 3 4 5 6 
#
# 1 50.9600 19.9829 28.2606 0.0000 0.0000 0.0000
# 2 19.9829 108.7904 57.7451 0.0000 0.0000 0.0000
# 3 28.2606 57.7451 89.5371 0.0000 0.0000 0.0000
# 4 0.0000 0.0000 0.0000 24.4006 0.0000 0.0000
# 5 0.0000 0.0000 0.0000 0.0000 15.4624 0.0000
# 6 0.0000 0.0000 0.0000 0.0000 0.0000 16.9331
#
#
#
# Elastic Compliance Matrix: (Units=1/GPa)
#
#
# Indices 1 2 3 4 5 6 
#
# 1 0.023811 -0.000585 -0.007139 0.000000 0.000000 0.000000
# 2 -0.000585 0.013991 -0.008839 0.000000 0.000000 0.000000
# 3 -0.007139 -0.008839 0.019122 0.000000 0.000000 0.000000
# 4 0.000000 0.000000 0.000000 0.040983 0.000000 0.000000
# 5 0.000000 0.000000 0.000000 0.000000 0.064673 0.000000
# 6 0.000000 0.000000 0.000000 0.000000 0.000000 0.059056
#
#
# Mechanical properties :
#
#
# Convention : Reuss Voigt Hill
#
# Bulk Modulus (GPa) = 42.01575 51.25162 46.63369
# Shear Modulus (GPa) = 19.03367 20.91248 19.97308
#
# Velocity S-wave (km/s) = 3.41260 3.57706 3.49580
# Velocity P-wave (km/s) = 6.42147 6.95838 6.69531
#
# Compressibility (1/GPa) = 0.02380060
#
# Stress axis : x y z
#
# Youngs Moduli (GPa) = 41.99694 71.47551 52.29598
#
# Poissons Ratio (x) = 0.04179 0.37331
# Poissons Ratio (y) = 0.02455 0.46222
# Poissons Ratio (z) = 0.29980 0.63174
#
# Static dielectric constant tensor:
#      x y z
#    x 3.108970 0.000000 0.000000 
#    y 0.000000 3.341730 0.000000 
#    z 0.000000 0.000000 3.061920 
# 
# 
# High freq. dielectric constant tensor:
#      x y z
#    x 1.629140 0.000000 0.000000 
#    y 0.000000 1.627960 0.000000 
#    z 0.000000 0.000000 1.606460 
# 
# From -- ./inp_files/10202.got.cif
#   From: 2010.03.12/outbox.cif.g09.slc.cpg/sg38_6_cif.got.tgz:10202.got - 2010.04.14 02:38:36.
