data_PCOD8177990
_publ_section_title
;
Structure prediction by ZEFSAII (Michael W. Deem and Ramdas Pophale) SiO2 
 PCOD8177990
Probable space group: A M M 2
;
_chemical_formula_sum "Si O2"
_cell_formula_units_Z 64
_cell_length_a 17.955338
_cell_length_b 9.217724
_cell_length_c 22.654737
_cell_angle_alpha 90.000000
_cell_angle_beta 90.000000
_cell_angle_gamma 90.000000
_cell_volume 3749.525486
_symmetry_space_group_name_H-M "A M M 2"
_symmetry_group_IT_number 38
_symmetry_cell_setting 'orthorhombic'
loop_
_space_group_symop_operation_xyz
x,y,z
-x,-y,z
-x,y,z
x,-y,z
x,1/2+y,1/2+z
-x,1/2-y,1/2+z
-x,1/2+y,1/2+z
x,1/2-y,1/2+z
loop_
_atom_site_type_symbol
_atom_site_label
_atom_site_fract_x
_atom_site_fract_y
_atom_site_fract_z
Si Si1 0.731524 0.831438 0.390820
Si Si2 0.916163 0.830527 0.067936
Si Si3 0.296911 0.337600 0.625824
Si Si4 0.222874 0.828526 0.522425
Si Si5 0.201033 0.338436 0.288104
Si Si6 0.141013 0.340454 0.690146
Si Si7 0.417826 0.333551 0.829836
Si Si8 0.640819 0.837099 0.724943
O O1 0.747837 0.789519 0.457757
O O2 0.789349 0.747258 0.349172
O O3 0.645825 0.786829 0.376556
O O4 0.744991 0.000000 0.378889
O O5 0.911312 0.783309 0.136918
O O6 0.000000 0.803445 0.045202
O O7 0.893226 0.000000 0.062564
O O8 0.860491 0.734650 0.028828
O O9 0.325160 0.500000 0.609773
O O10 0.280261 0.247333 0.566794
O O11 0.224032 0.349248 0.665390
O O12 0.359331 0.252334 0.663586
O O13 0.221293 0.000000 0.534742
O O14 0.173753 0.500000 0.303150
O O15 0.137870 0.264472 0.246913
O O16 0.277547 0.340369 0.252698
O O17 0.114858 0.500000 0.710909
O O18 0.500000 0.311346 0.858438
O O19 0.405127 0.500000 0.811139
O O20 0.414710 0.238926 0.770609
O O21 0.612682 0.000000 0.712144
#
# Coordination Sequence:
#
# PCOD8177990 Si02
#       8
#     8   8   8   8   8   8   8   8
#     4   9  18  31  46  66  93 124 159 198 237 279
#     4   9  18  32  49  69  93 122 155 192 238 291
#     4   9  16  27  44  65  89 118 150 184 225 273
#     4  10  19  30  46  69  95 124 161 202 240 278
#     4   9  16  25  41  65  89 113 143 181 223 267
#     4   8  14  25  42  63  87 113 140 174 220 272
#     4   9  17  30  48  68  91 122 158 194 236 289
#     4   9  16  26  42  66  93 116 142 182 231 277
#
# _framework density 17.068826000000001
#
# number of rings (size 3 to 8) (size 9 to 14) (size 15 to 20)
#    0.000    3.000    0.000    2.250    0.000    7.500 
#    0.000    0.000    0.000    1.500    0.000    3.500 
#    0.000    0.000    0.000    0.000    0.000    0.000 
#
# Total GULP energy -396655.998459 kJ/mol
# GULP energy per Si atom -12395.499952 kJ/mol
# Density = 1.702998 g / cm^3
# Si number density = 17.068826 Si / 1000 Ang^3
#
#
#
# Elastic Constant Matrix: (Units=GPa)
#
#
# Indices 1 2 3 4 5 6 
#
# 1 56.8625 33.2420 42.6514 0.0000 0.0000 0.0000
# 2 33.2420 108.3355 69.9402 0.0000 0.0000 0.0000
# 3 42.6514 69.9402 119.5946 0.0000 0.0000 0.0000
# 4 0.0000 0.0000 0.0000 28.5475 0.0000 0.0000
# 5 0.0000 0.0000 0.0000 0.0000 15.1928 0.0000
# 6 0.0000 0.0000 0.0000 0.0000 0.0000 15.8406
#
#
#
# Elastic Compliance Matrix: (Units=1/GPa)
#
#
# Indices 1 2 3 4 5 6 
#
# 1 0.024612 -0.003029 -0.007006 0.000000 0.000000 0.000000
# 2 -0.003029 0.015202 -0.007810 0.000000 0.000000 0.000000
# 3 -0.007006 -0.007810 0.015428 0.000000 0.000000 0.000000
# 4 0.000000 0.000000 0.000000 0.035029 0.000000 0.000000
# 5 0.000000 0.000000 0.000000 0.000000 0.065820 0.000000
# 6 0.000000 0.000000 0.000000 0.000000 0.000000 0.063129
#
#
# Mechanical properties :
#
#
# Convention : Reuss Voigt Hill
#
# Bulk Modulus (GPa) = 51.14708 64.05107 57.59908
# Shear Modulus (GPa) = 19.12571 21.18013 20.15292
#
# Velocity S-wave (km/s) = 3.35103 3.52641 3.43984
# Velocity P-wave (km/s) = 6.70841 7.36121 7.04238
#
# Compressibility (1/GPa) = 0.01955146
#
# Stress axis : x y z
#
# Youngs Moduli (GPa) = 40.63025 65.78014 64.81872
#
# Poissons Ratio (x) = 0.19925 0.45413
# Poissons Ratio (y) = 0.12307 0.50624
# Poissons Ratio (z) = 0.28466 0.51375
#
# Static dielectric constant tensor:
#      x y z
#    x 2.929320 0.000000 0.000000 
#    y 0.000000 3.417410 0.000000 
#    z 0.000000 0.000000 3.089020 
# 
# 
# High freq. dielectric constant tensor:
#      x y z
#    x 1.618410 0.000000 0.000000 
#    y 0.000000 1.668480 0.000000 
#    z 0.000000 0.000000 1.641080 
# 
# From -- ./inp_files/21536.got.cif
#   From: 2010.03.12/outbox.cif.g09.slc.cpg/sg38_11_cif.got.tgz:21536.got - 2010.04.14 02:38:36.
