data_PCOD8177059
_publ_section_title
;
Structure prediction by ZEFSAII (Michael W. Deem and Ramdas Pophale) SiO2 
 PCOD8177059
Probable space group: C C C 2
;
_chemical_formula_sum "Si O2"
_cell_formula_units_Z 64
_cell_length_a 16.631151
_cell_length_b 14.846754
_cell_length_c 13.043159
_cell_angle_alpha 90.000000
_cell_angle_beta 90.000000
_cell_angle_gamma 90.000000
_cell_volume 3220.598659
_symmetry_space_group_name_H-M "C C C 2"
_symmetry_group_IT_number 37
_symmetry_cell_setting 'orthorhombic'
loop_
_space_group_symop_operation_xyz
x,y,z
-x,-y,z
-x,y,1/2+z
x,-y,1/2+z
1/2+x,1/2+y,z
1/2-x,1/2-y,z
1/2-x,1/2+y,1/2+z
1/2+x,1/2-y,1/2+z
loop_
_atom_site_type_symbol
_atom_site_label
_atom_site_fract_x
_atom_site_fract_y
_atom_site_fract_z
Si Si1 0.569050 0.285063 0.203260
Si Si2 0.700042 0.595192 0.159591
Si Si3 0.305093 0.837470 0.271530
Si Si4 0.799959 0.095193 0.103718
Si Si5 0.489124 0.607961 0.881655
Si Si6 0.569050 0.285064 0.560050
Si Si7 0.700067 0.655119 0.381654
Si Si8 0.805094 0.662531 0.991778
O O1 0.603618 0.196973 0.259519
O O2 0.636844 0.327308 0.129459
O O3 0.536205 0.358985 0.281681
O O4 0.499999 0.247019 0.131656
O O5 0.658909 0.500000 0.131653
O O6 0.636846 0.672693 0.133849
O O7 0.726959 0.603129 0.278369
O O8 0.778896 0.599993 0.086447
O O9 0.250000 0.750000 0.273874
O O10 0.278894 0.900007 0.176861
O O11 0.297227 0.888450 0.381654
O O12 0.773041 0.103130 0.984939
O O13 0.500000 0.500000 0.881654
O O14 0.398611 0.650499 0.881654
O O15 0.536202 0.641014 0.981631
O O16 0.603617 0.196974 0.503789
O O17 0.750000 0.750000 0.381653
O O18 0.750000 0.750000 0.989434
#
# Coordination Sequence:
#
# PCOD8177059 Si02
#       8
#     8   8   8   8   8   8   8   8
#     4  11  21  36  57  87 119 155 195 242 308 370
#     4  11  24  37  60  87 122 158 202 257 308 367
#     4   9  19  37  57  81 112 156 203 239 290 366
#     4  11  24  37  60  87 122 158 202 257 308 367
#     4  12  24  36  58  91 127 157 197 258 312 368
#     4  11  21  36  57  87 119 155 195 242 308 370
#     4  12  24  42  59  91 133 171 206 247 326 396
#     4   9  19  37  57  81 112 156 203 239 290 366
#
# _framework density 19.872081000000001
#
# number of rings (size 3 to 8) (size 9 to 14) (size 15 to 20)
#    0.000    1.250    3.750    3.750    3.500    0.000 
#    0.000    0.000    0.000    0.750    0.000    3.500 
#    0.000    0.000    0.000    0.000    0.000    0.000 
#
# Total GULP energy -396464.821903 kJ/mol
# GULP energy per Si atom -12389.525684 kJ/mol
# Density = 1.982685 g / cm^3
# Si number density = 19.872081 Si / 1000 Ang^3
#
#
#
# Elastic Constant Matrix: (Units=GPa)
#
#
# Indices 1 2 3 4 5 6 
#
# 1 98.2190 26.7022 46.4929 0.0000 0.0000 0.0000
# 2 26.7022 31.8790 26.7958 0.0000 0.0000 0.0000
# 3 46.4929 26.7958 192.1413 0.0000 0.0000 0.0000
# 4 0.0000 0.0000 0.0000 26.3072 0.0000 0.0000
# 5 0.0000 0.0000 0.0000 0.0000 20.6741 0.0000
# 6 0.0000 0.0000 0.0000 0.0000 0.0000 21.2045
#
#
#
# Elastic Compliance Matrix: (Units=1/GPa)
#
#
# Indices 1 2 3 4 5 6 
#
# 1 0.013804 -0.009917 -0.001957 0.000000 0.000000 0.000000
# 2 -0.009917 0.042659 -0.003549 0.000000 0.000000 0.000000
# 3 -0.001957 -0.003549 0.006173 0.000000 0.000000 0.000000
# 4 0.000000 0.000000 0.000000 0.038012 0.000000 0.000000
# 5 0.000000 0.000000 0.000000 0.000000 0.048370 0.000000
# 6 0.000000 0.000000 0.000000 0.000000 0.000000 0.047160
#
#
# Mechanical properties :
#
#
# Convention : Reuss Voigt Hill
#
# Bulk Modulus (GPa) = 31.45817 58.02458 44.74137
# Shear Modulus (GPa) = 21.04186 28.45373 24.74780
#
# Velocity S-wave (km/s) = 3.25755 3.78808 3.53279
# Velocity P-wave (km/s) = 5.47846 6.95666 6.26134
#
# Compressibility (1/GPa) = 0.03178825
#
# Stress axis : x y z
#
# Youngs Moduli (GPa) = 72.44331 23.44173 161.99392
#
# Poissons Ratio (x) = 0.23248 0.31704
# Poissons Ratio (y) = 0.71844 0.57499
# Poissons Ratio (z) = 0.14178 0.08321
#
# Static dielectric constant tensor:
#      x y z
#    x 3.886210 0.000000 0.000000 
#    y 0.000000 3.341410 0.000000 
#    z 0.000000 0.000000 4.186800 
# 
# 
# High freq. dielectric constant tensor:
#      x y z
#    x 1.759840 0.000000 0.000000 
#    y 0.000000 1.732680 0.000000 
#    z 0.000000 0.000000 1.807120 
# 
# From -- ./inp_files/7993.got.cif
#   From: 2010.03.12/outbox.cif.g09.slc.cpg/sg37_4_cif.got.tgz:7993.got - 2010.04.14 02:25:27.
