data_PCOD8177511
_publ_section_title
;
Structure prediction by ZEFSAII (Michael W. Deem and Ramdas Pophale) SiO2 
 PCOD8177511
Probable space group: A M M 2
;
_chemical_formula_sum "Si O2"
_cell_formula_units_Z 64
_cell_length_a 9.114837
_cell_length_b 14.099010
_cell_length_c 28.597216
_cell_angle_alpha 90.000000
_cell_angle_beta 90.000000
_cell_angle_gamma 90.000000
_cell_volume 3675.033319
_symmetry_space_group_name_H-M "A M M 2"
_symmetry_group_IT_number 38
_symmetry_cell_setting 'orthorhombic'
loop_
_space_group_symop_operation_xyz
x,y,z
-x,-y,z
-x,y,z
x,-y,z
x,1/2+y,1/2+z
-x,1/2-y,1/2+z
-x,1/2+y,1/2+z
x,1/2-y,1/2+z
loop_
_atom_site_type_symbol
_atom_site_label
_atom_site_fract_x
_atom_site_fract_y
_atom_site_fract_z
Si Si1 0.828910 0.889737 0.777940
Si Si2 0.829232 0.207567 0.598707
Si Si3 0.673608 0.895140 0.410875
Si Si4 0.830692 0.894017 0.147623
Si Si5 0.326311 0.733604 0.827428
Si Si6 0.329395 0.890061 0.516593
Si Si7 0.328449 0.607609 0.739992
Si Si8 0.333595 0.112180 0.684009
O O1 0.757784 0.833326 0.821508
O O2 0.750169 0.854515 0.730585
O O3 0.000000 0.867055 0.773420
O O4 0.799671 0.000000 0.787435
O O5 0.803048 0.320680 0.605218
O O6 0.767116 0.178267 0.548583
O O7 0.746143 0.150565 0.638586
O O8 0.000000 0.181410 0.601425
O O9 0.500000 0.901846 0.406032
O O10 0.732837 0.816841 0.374586
O O11 0.716335 0.865641 0.463467
O O12 0.738278 0.000000 0.399336
O O13 0.746778 0.853745 0.192942
O O14 0.000000 0.897110 0.161366
O O15 0.775514 0.000000 0.133308
O O16 0.500000 0.751620 0.829226
O O17 0.278422 0.667747 0.784347
O O18 0.500000 0.868464 0.525411
O O19 0.296037 0.000000 0.527838
O O20 0.500000 0.615079 0.731892
O O21 0.278413 0.500000 0.749406
O O22 0.500000 0.151122 0.686551
O O23 0.332280 0.000000 0.680106
#
# Coordination Sequence:
#
# PCOD8177511 Si02
#       8
#     8   8   8   8   8   8   8   8
#     4  10  21  35  48  65  95 132 165 199 238 278
#     4  11  21  31  48  72  96 125 160 199 242 285
#     4   8  15  30  52  76 100 125 154 190 235 286
#     4   9  19  34  47  61  88 126 162 192 226 272
#     4  10  18  29  50  75  96 123 159 196 233 278
#     4   9  18  33  52  73  98 127 156 189 234 288
#     4   9  17  28  44  70 100 124 149 185 229 276
#     4  10  20  33  49  70  97 128 161 196 235 283
#
# _framework density 17.414807
#
# number of rings (size 3 to 8) (size 9 to 14) (size 15 to 20)
#    0.000    2.500    0.000    3.375    0.000    8.250 
#    0.000    0.625    0.000    2.625    0.000    3.500 
#    0.000    0.000    0.000    0.000    0.000    0.000 
#
# Total GULP energy -396782.930809 kJ/mol
# GULP energy per Si atom -12399.466588 kJ/mol
# Density = 1.737517 g / cm^3
# Si number density = 17.414807 Si / 1000 Ang^3
#
#
#
# Elastic Constant Matrix: (Units=GPa)
#
#
# Indices 1 2 3 4 5 6 
#
# 1 71.7463 43.5808 50.9284 0.0000 0.0000 0.0000
# 2 43.5808 70.5049 69.1805 0.0000 0.0000 0.0000
# 3 50.9284 69.1805 121.9545 0.0000 0.0000 0.0000
# 4 0.0000 0.0000 0.0000 29.0618 0.0000 0.0000
# 5 0.0000 0.0000 0.0000 0.0000 5.2222 0.0000
# 6 0.0000 0.0000 0.0000 0.0000 0.0000 24.8571
#
#
#
# Elastic Compliance Matrix: (Units=1/GPa)
#
#
# Indices 1 2 3 4 5 6 
#
# 1 0.022949 -0.010785 -0.003466 0.000000 0.000000 0.000000
# 2 -0.010785 0.037057 -0.016517 0.000000 0.000000 0.000000
# 3 -0.003466 -0.016517 0.019017 0.000000 0.000000 0.000000
# 4 0.000000 0.000000 0.000000 0.034409 0.000000 0.000000
# 5 0.000000 0.000000 0.000000 0.000000 0.191491 0.000000
# 6 0.000000 0.000000 0.000000 0.000000 0.000000 0.040230
#
#
# Mechanical properties :
#
#
# Convention : Reuss Voigt Hill
#
# Bulk Modulus (GPa) = 57.18521 65.73169 61.45845
# Shear Modulus (GPa) = 12.12071 18.52927 15.32499
#
# Velocity S-wave (km/s) = 2.64104 3.26543 2.96969
# Velocity P-wave (km/s) = 6.49681 7.21416 6.86486
#
# Compressibility (1/GPa) = 0.01748704
#
# Stress axis : x y z
#
# Youngs Moduli (GPa) = 43.57470 26.98575 52.58524
#
# Poissons Ratio (x) = 0.29103 0.18225
# Poissons Ratio (y) = 0.46994 0.86856
# Poissons Ratio (z) = 0.15102 0.44573
#
# Static dielectric constant tensor:
#      x y z
#    x 3.152620 0.000000 0.000000 
#    y 0.000000 3.418970 0.000000 
#    z 0.000000 0.000000 3.238950 
# 
# 
# High freq. dielectric constant tensor:
#      x y z
#    x 1.662870 0.000000 0.000000 
#    y 0.000000 1.675160 0.000000 
#    z 0.000000 0.000000 1.655780 
# 
# From -- ./inp_files/24790.got.cif
#   From: 2010.03.12/outbox.cif.g09.slc.cpg/sg38_13_cif.got.tgz:24790.got - 2010.04.14 02:38:36.
