data_PCOD8177946
_publ_section_title
;
Structure prediction by ZEFSAII (Michael W. Deem and Ramdas Pophale) SiO2 
 PCOD8177946
Probable space group: A M M 2
;
_chemical_formula_sum "Si O2"
_cell_formula_units_Z 40
_cell_length_a 7.856477
_cell_length_b 9.406292
_cell_length_c 29.414938
_cell_angle_alpha 90.000000
_cell_angle_beta 90.000000
_cell_angle_gamma 90.000000
_cell_volume 2173.773235
_symmetry_space_group_name_H-M "A M M 2"
_symmetry_group_IT_number 38
_symmetry_cell_setting 'orthorhombic'
loop_
_space_group_symop_operation_xyz
x,y,z
-x,-y,z
-x,y,z
x,-y,z
x,1/2+y,1/2+z
-x,1/2-y,1/2+z
-x,1/2+y,1/2+z
x,1/2-y,1/2+z
loop_
_atom_site_type_symbol
_atom_site_label
_atom_site_fract_x
_atom_site_fract_y
_atom_site_fract_z
Si Si1 0.810302 0.336348 0.282610
Si Si2 0.190557 0.170049 0.006122
Si Si3 0.500000 0.331205 0.343454
Si Si4 0.199411 0.658205 0.605348
Si Si5 0.500000 0.669647 0.445370
Si Si6 0.693608 0.664334 0.700290
O O1 0.769253 0.500000 0.271363
O O2 0.670484 0.276610 0.318089
O O3 0.807221 0.250178 0.235772
O O4 0.000000 0.320242 0.303812
O O5 0.329927 0.226828 0.970443
O O6 0.000000 0.221212 0.991815
O O7 0.190906 0.000000 0.008786
O O8 0.238448 0.231838 0.056487
O O9 0.500000 0.500000 0.346414
O O10 0.500000 0.268125 0.394411
O O11 0.276428 0.500000 0.603123
O O12 0.283772 0.732301 0.649591
O O13 0.000000 0.654620 0.613665
O O14 0.500000 0.500000 0.445493
O O15 0.500000 0.680040 0.715953
O O16 0.753504 0.500000 0.700380
#
# Coordination Sequence:
#
# PCOD8177946 Si02
#       6
#     8   8   4   8   4   8
#     4  10  20  34  51  67  90 127 161 192 235 279
#     4   8  14  23  35  55  83 114 147 179 216 267
#     4   9  18  32  44  61  87 115 155 199 234 275
#     4   8  14  24  37  57  89 123 150 181 222 267
#     4   9  16  24  39  57  79 113 147 185 228 267
#     4  10  19  29  46  72  98 125 157 192 230 274
#
# _framework density 18.401184000000001
#
# number of rings (size 3 to 8) (size 9 to 14) (size 15 to 20)
#    0.000    3.000    1.000    1.800    1.400    2.000 
#    0.000    4.000    0.000    0.000    0.000    0.000 
#    0.000    3.200    0.000    3.200    0.000    2.000 
#
# Total GULP energy -247817.561912 kJ/mol
# GULP energy per Si atom -12390.878096 kJ/mol
# Density = 1.835930 g / cm^3
# Si number density = 18.401184 Si / 1000 Ang^3
#
#
#
# Elastic Constant Matrix: (Units=GPa)
#
#
# Indices 1 2 3 4 5 6 
#
# 1 123.0410 15.9369 79.2903 0.0000 0.0000 0.0000
# 2 15.9369 17.5062 20.1230 0.0000 0.0000 0.0000
# 3 79.2903 20.1230 156.9758 0.0000 0.0000 0.0000
# 4 0.0000 0.0000 0.0000 15.1710 0.0000 0.0000
# 5 0.0000 0.0000 0.0000 0.0000 29.1659 0.0000
# 6 0.0000 0.0000 0.0000 0.0000 0.0000 11.1983
#
#
#
# Elastic Compliance Matrix: (Units=1/GPa)
#
#
# Indices 1 2 3 4 5 6 
#
# 1 0.012383 -0.004789 -0.005641 0.000000 0.000000 0.000000
# 2 -0.004789 0.068847 -0.006407 0.000000 0.000000 0.000000
# 3 -0.005641 -0.006407 0.010041 0.000000 0.000000 0.000000
# 4 0.000000 0.000000 0.000000 0.065915 0.000000 0.000000
# 5 0.000000 0.000000 0.000000 0.000000 0.034287 0.000000
# 6 0.000000 0.000000 0.000000 0.000000 0.000000 0.089299
#
#
# Mechanical properties :
#
#
# Convention : Reuss Voigt Hill
#
# Bulk Modulus (GPa) = 17.36178 58.69149 38.02664
# Shear Modulus (GPa) = 14.98608 23.25190 19.11899
#
# Velocity S-wave (km/s) = 2.85688 3.55858 3.22686
# Velocity P-wave (km/s) = 4.50977 6.98924 5.88164
#
# Compressibility (1/GPa) = 0.05759777
#
# Stress axis : x y z
#
# Youngs Moduli (GPa) = 80.75816 14.52503 99.59266
#
# Poissons Ratio (x) = 0.06956 0.56178
# Poissons Ratio (y) = 0.38673 0.63806
# Poissons Ratio (z) = 0.45554 0.09306
#
# Static dielectric constant tensor:
#      x y z
#    x 3.510870 0.000000 0.000000 
#    y 0.000000 2.669110 0.000000 
#    z 0.000000 0.000000 3.606580 
# 
# 
# High freq. dielectric constant tensor:
#      x y z
#    x 1.726590 0.000000 0.000000 
#    y 0.000000 1.623390 0.000000 
#    z 0.000000 0.000000 1.719520 
# 
# From -- ./inp_files/23214.got.cif
#   From: 2010.03.12/outbox.cif.g09.slc.cpg/sg38_12_cif.got.tgz:23214.got - 2010.04.14 02:38:36.
