data_PCOD8177128
_publ_section_title
;
Structure prediction by ZEFSAII (Michael W. Deem and Ramdas Pophale) SiO2 
 PCOD8177128
Probable space group: C C C 2
;
_chemical_formula_sum "Si O2"
_cell_formula_units_Z 56
_cell_length_a 19.244744
_cell_length_b 9.410677
_cell_length_c 13.254321
_cell_angle_alpha 90.000000
_cell_angle_beta 90.000000
_cell_angle_gamma 90.000000
_cell_volume 2400.437983
_symmetry_space_group_name_H-M "C C C 2"
_symmetry_group_IT_number 37
_symmetry_cell_setting 'orthorhombic'
loop_
_space_group_symop_operation_xyz
x,y,z
-x,-y,z
-x,y,1/2+z
x,-y,1/2+z
1/2+x,1/2+y,z
1/2-x,1/2-y,z
1/2-x,1/2+y,1/2+z
1/2+x,1/2-y,1/2+z
loop_
_atom_site_type_symbol
_atom_site_label
_atom_site_fract_x
_atom_site_fract_y
_atom_site_fract_z
Si Si1 0.943159 0.603029 0.681510
Si Si2 0.537140 0.361408 0.682796
Si Si3 0.750000 0.750000 0.185504
Si Si4 0.850907 0.134272 0.838390
Si Si5 0.750000 0.750000 0.484887
Si Si6 0.065056 0.588507 0.410434
Si Si7 0.320609 0.992868 0.562490
Si Si8 0.431466 0.590925 0.460281
O O1 0.928391 0.550884 0.794022
O O2 0.869685 0.591246 0.629141
O O3 0.000000 0.500000 0.631091
O O4 0.972976 0.758522 0.661900
O O5 0.500000 0.500000 0.725010
O O6 0.583914 0.303029 0.775344
O O7 0.582904 0.392132 0.581357
O O8 0.789592 0.869475 0.253964
O O9 0.799808 0.655048 0.115095
O O10 0.822518 0.244402 0.921858
O O11 0.868947 0.985108 0.896075
O O12 0.744633 0.900818 0.543237
O O13 0.138170 0.551276 0.462028
O O14 0.051613 0.756232 0.415649
O O15 0.000000 0.500000 0.457124
O O16 0.500000 0.500000 0.446493
#
# Coordination Sequence:
#
# PCOD8177128 Si02
#       8
#     8   8   4   8   4   8   8   8
#     4  11  24  43  72 106 141 179 233 316 382 435
#     4  11  24  42  73 108 141 183 231 309 375 433
#     4  11  28  50  77  94 156 205 248 314 365 450
#     4  11  25  47  72 103 145 195 248 301 370 447
#     4  11  32  44  75  96 148 207 246 304 343 464
#     4  11  25  43  74 110 145 189 242 321 382 438
#     4  12  28  49  70 108 144 201 255 304 372 447
#     4  11  24  41  76 110 144 187 240 307 378 457
#
# _framework density 23.329073999999999
#
# number of rings (size 3 to 8) (size 9 to 14) (size 15 to 20)
#    0.000    0.857    0.000    6.000   18.000    1.143 
#    0.000    0.714    0.000    0.000    0.000    0.000 
#    0.000    0.000    0.000    0.000    0.000    0.000 
#
# Total GULP energy -346959.673138 kJ/mol
# GULP energy per Si atom -12391.416898 kJ/mol
# Density = 2.327598 g / cm^3
# Si number density = 23.329074 Si / 1000 Ang^3
#
#
#
# Elastic Constant Matrix: (Units=GPa)
#
#
# Indices 1 2 3 4 5 6 
#
# 1 102.3535 55.5269 52.5211 0.0000 0.0000 0.0000
# 2 55.5269 155.4482 36.8116 0.0000 0.0000 0.0000
# 3 52.5211 36.8116 121.6622 0.0000 0.0000 0.0000
# 4 0.0000 0.0000 0.0000 30.9977 0.0000 0.0000
# 5 0.0000 0.0000 0.0000 0.0000 40.6988 0.0000
# 6 0.0000 0.0000 0.0000 0.0000 0.0000 42.3571
#
#
#
# Elastic Compliance Matrix: (Units=1/GPa)
#
#
# Indices 1 2 3 4 5 6 
#
# 1 0.014536 -0.003992 -0.005067 0.000000 0.000000 0.000000
# 2 -0.003992 0.008026 -0.000705 0.000000 0.000000 0.000000
# 3 -0.005067 -0.000705 0.010620 0.000000 0.000000 0.000000
# 4 0.000000 0.000000 0.000000 0.032260 0.000000 0.000000
# 5 0.000000 0.000000 0.000000 0.000000 0.024571 0.000000
# 6 0.000000 0.000000 0.000000 0.000000 0.000000 0.023609
#
#
# Mechanical properties :
#
#
# Convention : Reuss Voigt Hill
#
# Bulk Modulus (GPa) = 73.24225 74.35368 73.79796
# Shear Modulus (GPa) = 36.31012 38.45101 37.38056
#
# Velocity S-wave (km/s) = 3.94944 4.06421 4.00724
# Velocity P-wave (km/s) = 7.22917 7.34606 7.28785
#
# Compressibility (1/GPa) = 0.01365332
#
# Stress axis : x y z
#
# Youngs Moduli (GPa) = 68.79424 124.59408 94.15967
#
# Poissons Ratio (x) = 0.49743 0.47712
# Poissons Ratio (y) = 0.27466 0.06638
# Poissons Ratio (z) = 0.34859 0.08783
#
# Static dielectric constant tensor:
#      x y z
#    x 4.046200 0.000000 0.000000 
#    y 0.000000 4.088080 0.000000 
#    z 0.000000 0.000000 4.541120 
# 
# 
# High freq. dielectric constant tensor:
#      x y z
#    x 1.910810 0.000000 0.000000 
#    y 0.000000 1.920450 0.000000 
#    z 0.000000 0.000000 1.943320 
# 
# From -- ./inp_files/12963.got.cif
#   From: 2010.03.12/outbox.cif.g09.slc.cpg/sg37_7_cif.got.tgz:12963.got - 2010.04.14 02:25:27.
