data_PCOD8177050
_publ_section_title
;
Structure prediction by ZEFSAII (Michael W. Deem and Ramdas Pophale) SiO2 
 PCOD8177050
Probable space group: C C C 2
;
_chemical_formula_sum "Si O2"
_cell_formula_units_Z 64
_cell_length_a 11.813372
_cell_length_b 17.713725
_cell_length_c 14.999688
_cell_angle_alpha 90.000000
_cell_angle_beta 90.000000
_cell_angle_gamma 90.000000
_cell_volume 3138.817055
_symmetry_space_group_name_H-M "C C C 2"
_symmetry_group_IT_number 37
_symmetry_cell_setting 'orthorhombic'
loop_
_space_group_symop_operation_xyz
x,y,z
-x,-y,z
-x,y,1/2+z
x,-y,1/2+z
1/2+x,1/2+y,z
1/2-x,1/2-y,z
1/2-x,1/2+y,1/2+z
1/2+x,1/2-y,1/2+z
loop_
_atom_site_type_symbol
_atom_site_label
_atom_site_fract_x
_atom_site_fract_y
_atom_site_fract_z
Si Si1 0.674074 0.493126 0.073530
Si Si2 0.501640 0.618240 0.620151
Si Si3 0.160832 0.500000 0.725065
Si Si4 0.001641 0.118240 0.329979
Si Si5 0.000001 0.629998 0.225064
Si Si6 0.674075 0.506873 0.376601
Si Si7 0.380638 0.767512 0.374150
Si Si8 0.880638 0.267513 0.575979
O O1 0.572277 0.550682 0.083351
O O2 0.629998 0.407480 0.094501
O O3 0.766356 0.525133 0.140940
O O4 0.726410 0.495672 0.975066
O O5 0.499998 0.629948 0.725065
O O6 0.458653 0.693380 0.572530
O O7 0.093793 0.572509 0.762902
O O8 0.233641 0.474867 0.809193
O O9 0.093797 0.427490 0.687226
O O10 0.958652 0.193380 0.377600
O O11 0.129998 0.092520 0.355631
O O12 0.927722 0.050682 0.366776
O O13 0.942858 0.677739 0.145946
O O14 0.057141 0.677740 0.304182
O O15 0.250000 0.750000 0.344536
O O16 0.379510 0.801584 0.475064
O O17 0.750000 0.250000 0.605592
#
# Coordination Sequence:
#
# PCOD8177050 Si02
#       8
#     8   8   8   8   8   8   8   8
#     4  11  21  37  63  93 125 159 201 255 305 360
#     4  11  19  37  63  93 124 159 204 256 304 363
#     4  11  24  43  60  90 120 163 210 247 314 372
#     4  11  19  37  63  93 124 159 204 256 304 363
#     4  11  26  42  64  87 124 164 204 259 308 370
#     4  11  21  37  63  93 125 159 201 255 305 360
#     4  11  24  42  65  93 125 166 210 254 311 373
#     4  11  24  42  65  93 125 166 210 254 311 373
#
# _framework density 20.389847
#
# number of rings (size 3 to 8) (size 9 to 14) (size 15 to 20)
#    0.000    1.000    3.750    5.250    0.000    4.000 
#    0.000    2.500    0.000    3.750    0.000    0.000 
#    0.000    0.000    0.000    0.000    0.000    0.000 
#
# Total GULP energy -396465.112939 kJ/mol
# GULP energy per Si atom -12389.534779 kJ/mol
# Density = 2.034344 g / cm^3
# Si number density = 20.389847 Si / 1000 Ang^3
#
#
#
# Elastic Constant Matrix: (Units=GPa)
#
#
# Indices 1 2 3 4 5 6 
#
# 1 87.3846 45.2540 52.2496 0.0000 0.0000 0.0000
# 2 45.2540 105.6087 24.9883 0.0000 0.0000 0.0000
# 3 52.2496 24.9883 161.7386 0.0000 0.0000 0.0000
# 4 0.0000 0.0000 0.0000 17.2401 0.0000 0.0000
# 5 0.0000 0.0000 0.0000 0.0000 20.6170 0.0000
# 6 0.0000 0.0000 0.0000 0.0000 0.0000 22.9130
#
#
#
# Elastic Compliance Matrix: (Units=1/GPa)
#
#
# Indices 1 2 3 4 5 6 
#
# 1 0.017569 -0.006420 -0.004684 0.000000 0.000000 0.000000
# 2 -0.006420 0.012174 0.000193 0.000000 0.000000 0.000000
# 3 -0.004684 0.000193 0.007666 0.000000 0.000000 0.000000
# 4 0.000000 0.000000 0.000000 0.058004 0.000000 0.000000
# 5 0.000000 0.000000 0.000000 0.000000 0.048504 0.000000
# 6 0.000000 0.000000 0.000000 0.000000 0.000000 0.043643
#
#
# Mechanical properties :
#
#
# Convention : Reuss Voigt Hill
#
# Bulk Modulus (GPa) = 64.15290 66.63506 65.39398
# Shear Modulus (GPa) = 23.30149 27.63668 25.46908
#
# Velocity S-wave (km/s) = 3.38420 3.68559 3.53810
# Velocity P-wave (km/s) = 6.84119 7.13182 6.98802
#
# Compressibility (1/GPa) = 0.01558776
#
# Stress axis : x y z
#
# Youngs Moduli (GPa) = 56.91828 82.14017 130.44505
#
# Poissons Ratio (x) = 0.52736 0.61097
# Poissons Ratio (y) = 0.36543 -0.02519
# Poissons Ratio (z) = 0.26659 -0.01586
#
# Static dielectric constant tensor:
#      x y z
#    x 4.118670 0.000000 0.000000 
#    y 0.000000 3.757880 0.000000 
#    z 0.000000 0.000000 3.760470 
# 
# 
# High freq. dielectric constant tensor:
#      x y z
#    x 1.790180 0.000000 0.000000 
#    y 0.000000 1.792340 0.000000 
#    z 0.000000 0.000000 1.803510 
# 
# From -- ./inp_files/11783.got.cif
#   From: 2010.03.12/outbox.cif.g09.slc.cpg/sg37_6_cif.got.tgz:11783.got - 2010.04.14 02:25:27.
