data_PCOD8177379
_publ_section_title
;
Structure prediction by ZEFSAII (Michael W. Deem and Ramdas Pophale) SiO2 
 PCOD8177379
Probable space group: A M M 2
;
_chemical_formula_sum "Si O2"
_cell_formula_units_Z 64
_cell_length_a 8.901029
_cell_length_b 18.439886
_cell_length_c 26.704810
_cell_angle_alpha 90.000000
_cell_angle_beta 90.000000
_cell_angle_gamma 90.000000
_cell_volume 4383.166217
_symmetry_space_group_name_H-M "A M M 2"
_symmetry_group_IT_number 38
_symmetry_cell_setting 'orthorhombic'
loop_
_space_group_symop_operation_xyz
x,y,z
-x,-y,z
-x,y,z
x,-y,z
x,1/2+y,1/2+z
-x,1/2-y,1/2+z
-x,1/2+y,1/2+z
x,1/2-y,1/2+z
loop_
_atom_site_type_symbol
_atom_site_label
_atom_site_fract_x
_atom_site_fract_y
_atom_site_fract_z
Si Si1 0.823815 0.416856 0.451650
Si Si2 0.833016 0.705242 0.705122
Si Si3 0.322070 0.335929 0.251500
Si Si4 0.676744 0.582159 0.350609
Si Si5 0.164182 0.709808 0.101725
Si Si6 0.326067 0.916393 0.149213
Si Si7 0.820740 0.582161 0.161360
Si Si8 0.819504 0.651108 0.554409
O O1 0.777830 0.500000 0.460327
O O2 0.746910 0.386104 0.401676
O O3 0.764791 0.372506 0.499662
O O4 0.000000 0.407466 0.445417
O O5 0.745200 0.755251 0.745176
O O6 0.846574 0.749201 0.654220
O O7 0.745025 0.630544 0.694404
O O8 0.000000 0.687539 0.725770
O O9 0.500000 0.332285 0.244978
O O10 0.273230 0.365409 0.305778
O O11 0.257656 0.393882 0.212329
O O12 0.500000 0.581794 0.356865
O O13 0.735484 0.500000 0.340630
O O14 0.241180 0.632169 0.114696
O O15 0.243862 0.766113 0.063459
O O16 0.000000 0.693253 0.079597
O O17 0.500000 0.895418 0.143966
O O18 0.246894 0.902554 0.095931
O O19 0.303602 0.000000 0.163740
O O20 0.776544 0.500000 0.149044
O O21 0.000000 0.592655 0.167377
O O22 0.000000 0.648809 0.559899
#
# Coordination Sequence:
#
# PCOD8177379 Si02
#       8
#     8   8   8   8   8   8   8   8
#     4   9  17  27  39  56  76 100 134 174 209 239
#     4   9  17  29  43  58  78 105 135 165 199 238
#     4  10  18  28  42  58  78 104 134 167 204 245
#     4   9  18  30  41  55  78 107 135 165 205 248
#     4   7  12  23  37  53  73  98 127 159 194 231
#     4  10  19  28  40  61  86 110 137 167 198 235
#     4   9  16  25  38  57  80 106 136 165 193 234
#     4   9  16  27  42  57  77 107 140 171 204 242
#
# _framework density 14.601317
#
# number of rings (size 3 to 8) (size 9 to 14) (size 15 to 20)
#    0.000    3.000    0.000    3.375    0.000    3.750 
#    0.000    2.500    0.000    0.000    0.000    0.000 
#    0.000    1.000    0.000    4.250    0.000    1.625 
#
# Total GULP energy -396505.647473 kJ/mol
# GULP energy per Si atom -12390.801484 kJ/mol
# Density = 1.456808 g / cm^3
# Si number density = 14.601317 Si / 1000 Ang^3
#
#
#
# Elastic Constant Matrix: (Units=GPa)
#
#
# Indices 1 2 3 4 5 6 
#
# 1 48.2230 34.6333 29.4326 0.0000 0.0000 0.0000
# 2 34.6333 107.6468 61.3427 0.0000 0.0000 0.0000
# 3 29.4326 61.3427 93.9280 0.0000 0.0000 0.0000
# 4 0.0000 0.0000 0.0000 24.8203 0.0000 0.0000
# 5 0.0000 0.0000 0.0000 0.0000 19.0690 0.0000
# 6 0.0000 0.0000 0.0000 0.0000 0.0000 19.1463
#
#
#
# Elastic Compliance Matrix: (Units=1/GPa)
#
#
# Indices 1 2 3 4 5 6 
#
# 1 0.028180 -0.006426 -0.004634 0.000000 0.000000 0.000000
# 2 -0.006426 0.016261 -0.008606 0.000000 0.000000 0.000000
# 3 -0.004634 -0.008606 0.017719 0.000000 0.000000 0.000000
# 4 0.000000 0.000000 0.000000 0.040290 0.000000 0.000000
# 5 0.000000 0.000000 0.000000 0.000000 0.052441 0.000000
# 6 0.000000 0.000000 0.000000 0.000000 0.000000 0.052230
#
#
# Mechanical properties :
#
#
# Convention : Reuss Voigt Hill
#
# Bulk Modulus (GPa) = 43.80464 55.62389 49.71427
# Shear Modulus (GPa) = 19.68017 20.89972 20.28995
#
# Velocity S-wave (km/s) = 3.67527 3.78743 3.73177
# Velocity P-wave (km/s) = 6.93367 7.56994 7.25878
#
# Compressibility (1/GPa) = 0.02282863
#
# Stress axis : x y z
#
# Youngs Moduli (GPa) = 35.48594 61.49497 56.43608
#
# Poissons Ratio (x) = 0.39516 0.26151
# Poissons Ratio (y) = 0.22803 0.48572
# Poissons Ratio (z) = 0.16443 0.52926
#
# Static dielectric constant tensor:
#      x y z
#    x 2.816830 0.000000 0.000000 
#    y 0.000000 3.080740 0.000000 
#    z 0.000000 0.000000 2.749210 
# 
# 
# High freq. dielectric constant tensor:
#      x y z
#    x 1.554380 0.000000 0.000000 
#    y 0.000000 1.551800 0.000000 
#    z 0.000000 0.000000 1.525380 
# 
# From -- ./inp_files/23632.got.cif
#   From: 2010.03.12/outbox.cif.g09.slc.cpg/sg38_12_cif.got.tgz:23632.got - 2010.04.14 02:38:36.
