data_PCOD8177425
_publ_section_title
;
Structure prediction by ZEFSAII (Michael W. Deem and Ramdas Pophale) SiO2 
 PCOD8177425
Probable space group: A M M 2
;
_chemical_formula_sum "Si O2"
_cell_formula_units_Z 64
_cell_length_a 9.469545
_cell_length_b 30.023154
_cell_length_c 14.186608
_cell_angle_alpha 90.000000
_cell_angle_beta 90.000000
_cell_angle_gamma 90.000000
_cell_volume 4033.332211
_symmetry_space_group_name_H-M "A M M 2"
_symmetry_group_IT_number 38
_symmetry_cell_setting 'orthorhombic'
loop_
_space_group_symop_operation_xyz
x,y,z
-x,-y,z
-x,y,z
x,-y,z
x,1/2+y,1/2+z
-x,1/2-y,1/2+z
-x,1/2+y,1/2+z
x,1/2-y,1/2+z
loop_
_atom_site_type_symbol
_atom_site_label
_atom_site_fract_x
_atom_site_fract_y
_atom_site_fract_z
Si Si1 0.158950 0.222887 0.482300
Si Si2 0.162676 0.871228 0.159278
Si Si3 0.337426 0.361110 0.311496
Si Si4 0.667533 0.951770 0.890603
Si Si5 0.336433 0.050547 0.105392
Si Si6 0.334819 0.706153 0.154813
Si Si7 0.166816 0.282675 0.764677
Si Si8 0.843355 0.676431 0.469347
O O1 0.266991 0.197858 0.551947
O O2 0.207198 0.217665 0.374534
O O3 0.165058 0.274371 0.512598
O O4 0.000000 0.204045 0.495863
O O5 0.252382 0.916195 0.175246
O O6 0.210664 0.831542 0.228158
O O7 0.000000 0.882662 0.176879
O O8 0.193644 0.857181 0.052280
O O9 0.500000 0.361205 0.340601
O O10 0.276871 0.411688 0.323001
O O11 0.314848 0.341366 0.207456
O O12 0.263554 0.327892 0.383873
O O13 0.500000 0.954093 0.888947
O O14 0.726987 0.000000 0.855384
O O15 0.717428 0.943475 0.997838
O O16 0.500000 0.062850 0.113047
O O17 0.308708 0.000000 0.139091
O O18 0.500000 0.718589 0.145807
O O19 0.255605 0.745089 0.211252
O O20 0.000000 0.273159 0.748431
O O21 0.000000 0.667552 0.429132
#
# Coordination Sequence:
#
# PCOD8177425 Si02
#       8
#     8   8   8   8   8   8   8   8
#     4  10  20  35  51  64  89 129 166 199 228 270
#     4  10  19  30  45  69  95 120 156 196 233 269
#     4  10  19  30  45  68  95 124 156 190 230 277
#     4   8  14  26  44  64  88 119 153 185 218 268
#     4   9  17  29  46  68  93 124 157 185 224 282
#     4  11  22  31  45  71  99 123 153 197 243 283
#     4  10  20  35  51  67  90 125 168 199 226 279
#     4  10  18  28  46  68  91 123 158 191 227 268
#
# _framework density 15.867774000000001
#
# number of rings (size 3 to 8) (size 9 to 14) (size 15 to 20)
#    0.000    2.250    3.750    1.125    0.000    2.250 
#    0.000    0.000    0.000    0.375    0.000    0.875 
#    0.000    3.000    0.000    0.000    0.000    0.000 
#
# Total GULP energy -396643.171311 kJ/mol
# GULP energy per Si atom -12395.099103 kJ/mol
# Density = 1.583166 g / cm^3
# Si number density = 15.867774 Si / 1000 Ang^3
#
#
#
# Elastic Constant Matrix: (Units=GPa)
#
#
# Indices 1 2 3 4 5 6 
#
# 1 56.0044 36.4305 37.8002 0.0000 0.0000 0.0000
# 2 36.4305 95.6016 36.9181 0.0000 0.0000 0.0000
# 3 37.8002 36.9181 58.0682 0.0000 0.0000 0.0000
# 4 0.0000 0.0000 0.0000 21.0540 0.0000 0.0000
# 5 0.0000 0.0000 0.0000 0.0000 23.1919 0.0000
# 6 0.0000 0.0000 0.0000 0.0000 0.0000 22.2613
#
#
#
# Elastic Compliance Matrix: (Units=1/GPa)
#
#
# Indices 1 2 3 4 5 6 
#
# 1 0.034168 -0.005873 -0.018508 0.000000 0.000000 0.000000
# 2 -0.005873 0.014873 -0.005633 0.000000 0.000000 0.000000
# 3 -0.018508 -0.005633 0.032851 0.000000 0.000000 0.000000
# 4 0.000000 0.000000 0.000000 0.047497 0.000000 0.000000
# 5 0.000000 0.000000 0.000000 0.000000 0.043118 0.000000
# 6 0.000000 0.000000 0.000000 0.000000 0.000000 0.044921
#
#
# Mechanical properties :
#
#
# Convention : Reuss Voigt Hill
#
# Bulk Modulus (GPa) = 45.73806 47.99687 46.86746
# Shear Modulus (GPa) = 17.55956 19.86980 18.71468
#
# Velocity S-wave (km/s) = 3.33020 3.54250 3.43799
# Velocity P-wave (km/s) = 6.60863 6.85901 6.73499
#
# Compressibility (1/GPa) = 0.02186363
#
# Stress axis : x y z
#
# Youngs Moduli (GPa) = 29.26685 67.23434 30.44087
#
# Poissons Ratio (x) = 0.39487 0.56341
# Poissons Ratio (y) = 0.17189 0.17147
# Poissons Ratio (z) = 0.54168 0.37872
#
# Static dielectric constant tensor:
#      x y z
#    x 2.942330 0.000000 0.000000 
#    y 0.000000 3.191140 0.000000 
#    z 0.000000 0.000000 2.858210 
# 
# 
# High freq. dielectric constant tensor:
#      x y z
#    x 1.601030 0.000000 0.000000 
#    y 0.000000 1.603950 0.000000 
#    z 0.000000 0.000000 1.581270 
# 
# From -- ./inp_files/13064.got.cif
#   From: 2010.03.12/outbox.cif.g09.slc.cpg/sg38_7_cif.got.tgz:13064.got - 2010.04.14 02:38:36.
