data_PCOD8177673
_publ_section_title
;
Structure prediction by ZEFSAII (Michael W. Deem and Ramdas Pophale) SiO2 
 PCOD8177673
Probable space group: A M M 2
;
_chemical_formula_sum "Si O2"
_cell_formula_units_Z 64
_cell_length_a 14.635819
_cell_length_b 8.838092
_cell_length_c 24.957355
_cell_angle_alpha 90.000000
_cell_angle_beta 90.000000
_cell_angle_gamma 90.000000
_cell_volume 3228.301624
_symmetry_space_group_name_H-M "A M M 2"
_symmetry_group_IT_number 38
_symmetry_cell_setting 'orthorhombic'
loop_
_space_group_symop_operation_xyz
x,y,z
-x,-y,z
-x,y,z
x,-y,z
x,1/2+y,1/2+z
-x,1/2-y,1/2+z
-x,1/2+y,1/2+z
x,1/2-y,1/2+z
loop_
_atom_site_type_symbol
_atom_site_label
_atom_site_fract_x
_atom_site_fract_y
_atom_site_fract_z
Si Si1 0.171646 0.823063 0.271390
Si Si2 0.223804 0.321394 0.461042
Si Si3 0.397809 0.674456 0.917969
Si Si4 0.099241 0.170996 0.864058
Si Si5 0.646164 0.176858 0.808567
Si Si6 0.402786 0.177215 0.690035
Si Si7 0.894768 0.178890 0.554503
Si Si8 0.795341 0.679611 0.163076
O O1 0.090588 0.781631 0.312260
O O2 0.252117 0.735260 0.301519
O O3 0.152408 0.756828 0.212587
O O4 0.190302 0.000000 0.266937
O O5 0.225950 0.500000 0.468717
O O6 0.327251 0.259493 0.457520
O O7 0.173996 0.271836 0.406472
O O8 0.167758 0.252005 0.509681
O O9 0.500000 0.693593 0.942020
O O10 0.368745 0.500000 0.915563
O O11 0.400688 0.739088 0.857872
O O12 0.000000 0.177037 0.892499
O O13 0.121726 0.000000 0.845495
O O14 0.594111 0.212564 0.753358
O O15 0.646774 0.000000 0.822125
O O16 0.500000 0.242740 0.666680
O O17 0.310459 0.242234 0.662160
O O18 0.401064 0.000000 0.680026
O O19 0.849771 0.229214 0.610597
O O20 0.000000 0.236329 0.551891
O O21 0.891381 0.000000 0.547901
O O22 0.796106 0.500000 0.171734
#
# Coordination Sequence:
#
# PCOD8177673 Si02
#       8
#     8   8   8   8   8   8   8   8
#     4  11  21  33  53  83 120 157 192 239 297 349
#     4  11  23  40  63  87 115 152 197 248 299 354
#     4  11  23  37  56  86 122 158 197 242 292 346
#     4  10  21  37  57  82 113 151 192 236 295 365
#     4  10  18  31  52  79 114 158 202 239 284 345
#     4   8  14  26  48  78 109 143 188 237 280 332
#     4  10  22  41  64  87 113 151 199 252 308 361
#     4   9  19  36  57  81 112 152 198 244 295 356
#
# _framework density 19.824665
#
# number of rings (size 3 to 8) (size 9 to 14) (size 15 to 20)
#    0.000    2.000    1.250    3.750    0.000    4.000 
#    0.000    1.875    0.000    5.625    0.000    0.000 
#    0.000    0.000    0.000    0.000    0.000    0.000 
#
# Total GULP energy -396594.032057 kJ/mol
# GULP energy per Si atom -12393.563502 kJ/mol
# Density = 1.977954 g / cm^3
# Si number density = 19.824665 Si / 1000 Ang^3
#
#
#
# Elastic Constant Matrix: (Units=GPa)
#
#
# Indices 1 2 3 4 5 6 
#
# 1 129.9367 32.2882 62.1234 0.0000 0.0000 0.0000
# 2 32.2882 32.3445 46.2304 0.0000 0.0000 0.0000
# 3 62.1234 46.2304 120.1730 0.0000 0.0000 0.0000
# 4 0.0000 0.0000 0.0000 29.3477 0.0000 0.0000
# 5 0.0000 0.0000 0.0000 0.0000 15.6072 0.0000
# 6 0.0000 0.0000 0.0000 0.0000 0.0000 20.3943
#
#
#
# Elastic Compliance Matrix: (Units=1/GPa)
#
#
# Indices 1 2 3 4 5 6 
#
# 1 0.010754 -0.006197 -0.003176 0.000000 0.000000 0.000000
# 2 -0.006197 0.072253 -0.024592 0.000000 0.000000 0.000000
# 3 -0.003176 -0.024592 0.019424 0.000000 0.000000 0.000000
# 4 0.000000 0.000000 0.000000 0.034074 0.000000 0.000000
# 5 0.000000 0.000000 0.000000 0.000000 0.064073 0.000000
# 6 0.000000 0.000000 0.000000 0.000000 0.000000 0.049033
#
#
# Mechanical properties :
#
#
# Convention : Reuss Voigt Hill
#
# Bulk Modulus (GPa) = 28.98390 62.63758 45.81074
# Shear Modulus (GPa) = 15.19566 22.52397 18.85982
#
# Velocity S-wave (km/s) = 2.77158 3.37435 3.08771
# Velocity P-wave (km/s) = 4.98940 6.84442 5.98916
#
# Compressibility (1/GPa) = 0.03450192
#
# Stress axis : x y z
#
# Youngs Moduli (GPa) = 92.98796 13.84021 51.48379
#
# Poissons Ratio (x) = 0.08576 0.16349
# Poissons Ratio (y) = 0.57621 1.26611
# Poissons Ratio (z) = 0.29528 0.34036
#
# Static dielectric constant tensor:
#      x y z
#    x 3.890630 0.000000 0.000000 
#    y 0.000000 3.429660 0.000000 
#    z 0.000000 0.000000 3.505900 
# 
# 
# High freq. dielectric constant tensor:
#      x y z
#    x 1.789080 0.000000 0.000000 
#    y 0.000000 1.755930 0.000000 
#    z 0.000000 0.000000 1.751610 
# 
# From -- ./inp_files/22982.got.cif
#   From: 2010.03.12/outbox.cif.g09.slc.cpg/sg38_12_cif.got.tgz:22982.got - 2010.04.14 02:38:36.
