data_PCOD8178376
_publ_section_title
;
Structure prediction by ZEFSAII (Michael W. Deem and Ramdas Pophale) SiO2 
 PCOD8178376
Probable space group: A M M 2
;
_chemical_formula_sum "Si O2"
_cell_formula_units_Z 64
_cell_length_a 9.014384
_cell_length_b 25.028456
_cell_length_c 14.955426
_cell_angle_alpha 90.000000
_cell_angle_beta 90.000000
_cell_angle_gamma 90.000000
_cell_volume 3374.185087
_symmetry_space_group_name_H-M "A M M 2"
_symmetry_group_IT_number 38
_symmetry_cell_setting 'orthorhombic'
loop_
_space_group_symop_operation_xyz
x,y,z
-x,-y,z
-x,y,z
x,-y,z
x,1/2+y,1/2+z
-x,1/2-y,1/2+z
-x,1/2+y,1/2+z
x,1/2-y,1/2+z
loop_
_atom_site_type_symbol
_atom_site_label
_atom_site_fract_x
_atom_site_fract_y
_atom_site_fract_z
Si Si1 0.170127 0.260555 0.532680
Si Si2 0.325072 0.941259 0.439421
Si Si3 0.326483 0.885446 0.258674
Si Si4 0.824279 0.134362 0.930210
Si Si5 0.324579 0.669918 0.262240
Si Si6 0.672527 0.437606 0.572365
Si Si7 0.325023 0.845964 0.559516
Si Si8 0.171398 0.722147 0.738764
O O1 0.226217 0.308665 0.470617
O O2 0.261671 0.207089 0.512423
O O3 0.195980 0.280126 0.633119
O O4 0.000000 0.246919 0.513881
O O5 0.500000 0.943306 0.452718
O O6 0.286701 0.926374 0.337566
O O7 0.259246 0.897868 0.508978
O O8 0.256956 0.000000 0.459502
O O9 0.500000 0.871288 0.257442
O O10 0.275801 0.911758 0.165729
O O11 0.235527 0.832017 0.279490
O O12 0.748752 0.129064 0.832785
O O13 0.000000 0.129724 0.921704
O O14 0.767209 0.086571 0.991863
O O15 0.500000 0.670602 0.274337
O O16 0.277518 0.650564 0.163248
O O17 0.260175 0.728669 0.281286
O O18 0.500000 0.426120 0.554638
O O19 0.706545 0.500000 0.577203
O O20 0.500000 0.842467 0.549048
O O21 0.000000 0.728439 0.765558
#
# Coordination Sequence:
#
# PCOD8178376 Si02
#       8
#     8   8   8   8   8   8   8   8
#     4   9  19  34  52  76 108 144 179 220 272 329
#     4   9  18  34  56  82 110 141 182 229 275 327
#     4  10  19  32  54  84 114 147 184 226 275 332
#     4  11  22  37  56  82 112 149 191 232 284 342
#     4  10  21  36  54  80 113 147 187 236 283 334
#     4  10  21  37  57  82 114 152 192 236 284 335
#     4   9  19  35  56  81 108 142 186 230 277 328
#     4  10  19  34  53  78 113 150 184 221 271 334
#
# _framework density 18.967542999999999
#
# number of rings (size 3 to 8) (size 9 to 14) (size 15 to 20)
#    0.000    2.250    1.250    1.500    1.750    3.750 
#    0.000    0.625    0.000    4.500    0.000    0.000 
#    0.000    0.000    0.000    0.000    0.000    0.000 
#
# Total GULP energy -396858.323092 kJ/mol
# GULP energy per Si atom -12401.822597 kJ/mol
# Density = 1.892437 g / cm^3
# Si number density = 18.967543 Si / 1000 Ang^3
#
#
#
# Elastic Constant Matrix: (Units=GPa)
#
#
# Indices 1 2 3 4 5 6 
#
# 1 53.6184 32.7120 30.1143 0.0000 0.0000 0.0000
# 2 32.7120 111.4396 39.5143 0.0000 0.0000 0.0000
# 3 30.1143 39.5143 75.9479 0.0000 0.0000 0.0000
# 4 0.0000 0.0000 0.0000 28.3519 0.0000 0.0000
# 5 0.0000 0.0000 0.0000 0.0000 20.6809 0.0000
# 6 0.0000 0.0000 0.0000 0.0000 0.0000 15.4057
#
#
#
# Elastic Compliance Matrix: (Units=1/GPa)
#
#
# Indices 1 2 3 4 5 6 
#
# 1 0.025987 -0.004874 -0.007768 0.000000 0.000000 0.000000
# 2 -0.004874 0.011917 -0.004268 0.000000 0.000000 0.000000
# 3 -0.007768 -0.004268 0.018468 0.000000 0.000000 0.000000
# 4 0.000000 0.000000 0.000000 0.035271 0.000000 0.000000
# 5 0.000000 0.000000 0.000000 0.000000 0.048354 0.000000
# 6 0.000000 0.000000 0.000000 0.000000 0.000000 0.064911
#
#
# Mechanical properties :
#
#
# Convention : Reuss Voigt Hill
#
# Bulk Modulus (GPa) = 44.34219 49.52080 46.93149
# Shear Modulus (GPa) = 20.30498 22.13205 21.21851
#
# Velocity S-wave (km/s) = 3.27542 3.41961 3.34829
# Velocity P-wave (km/s) = 6.14273 6.46192 6.30435
#
# Compressibility (1/GPa) = 0.02255188
#
# Stress axis : x y z
#
# Youngs Moduli (GPa) = 38.48124 83.91088 54.14854
#
# Poissons Ratio (x) = 0.40895 0.42065
# Poissons Ratio (y) = 0.18754 0.23110
# Poissons Ratio (z) = 0.29894 0.35813
#
# Static dielectric constant tensor:
#      x y z
#    x 3.291640 0.000000 0.000000 
#    y 0.000000 3.543310 0.000000 
#    z 0.000000 0.000000 3.579230 
# 
# 
# High freq. dielectric constant tensor:
#      x y z
#    x 1.720420 0.000000 0.000000 
#    y 0.000000 1.730600 0.000000 
#    z 0.000000 0.000000 1.742720 
# 
# From -- ./inp_files/12730.got.cif
#   From: 2010.03.12/outbox.cif.g09.slc.cpg/sg38_7_cif.got.tgz:12730.got - 2010.04.14 02:38:36.
