data_PCOD8178159
_publ_section_title
;
Structure prediction by ZEFSAII (Michael W. Deem and Ramdas Pophale) SiO2 
 PCOD8178159
Probable space group: A M M 2
;
_chemical_formula_sum "Si O2"
_cell_formula_units_Z 52
_cell_length_a 30.994218
_cell_length_b 17.281374
_cell_length_c 5.150898
_cell_angle_alpha 90.000000
_cell_angle_beta 90.000000
_cell_angle_gamma 90.000000
_cell_volume 2758.937756
_symmetry_space_group_name_H-M "A M M 2"
_symmetry_group_IT_number 38
_symmetry_cell_setting 'orthorhombic'
loop_
_space_group_symop_operation_xyz
x,y,z
-x,-y,z
-x,y,z
x,-y,z
x,1/2+y,1/2+z
-x,1/2-y,1/2+z
-x,1/2+y,1/2+z
x,1/2-y,1/2+z
loop_
_atom_site_type_symbol
_atom_site_label
_atom_site_fract_x
_atom_site_fract_y
_atom_site_fract_z
Si Si1 0.178420 0.407981 0.937130
Si Si2 0.275151 0.908090 0.448238
Si Si3 0.873103 0.091691 0.936525
Si Si4 0.673045 0.908158 0.948410
Si Si5 0.592699 0.698098 0.411844
Si Si6 0.950853 0.799636 0.984307
Si Si7 0.500000 0.297463 0.505592
O O1 0.180653 0.500000 0.941150
O O2 0.226796 0.373537 0.944557
O O3 0.154659 0.378455 0.679739
O O4 0.151803 0.377603 0.183514
O O5 0.299708 0.878560 0.702859
O O6 0.272615 0.000000 0.446281
O O7 0.301132 0.878281 0.198993
O O8 0.920839 0.126301 0.943901
O O9 0.878392 0.000000 0.936661
O O10 0.626071 0.871011 0.947207
O O11 0.666981 0.000000 0.947520
O O12 0.598818 0.763959 0.629728
O O13 0.544906 0.658544 0.439889
O O14 0.941292 0.735977 0.765448
O O15 0.000000 0.829231 0.962884
O O16 0.500000 0.276923 0.811137
#
# Coordination Sequence:
#
# PCOD8178159 Si02
#       7
#     8   8   8   8   8   8   4
#     4   9  17  30  50  76 101 128 164 204 244 286
#     4   9  17  30  49  72 100 132 165 199 238 292
#     4  10  19  32  54  80 101 124 164 213 248 277
#     4  10  19  31  50  75  99 128 166 204 242 286
#     4  10  19  33  52  72  97 129 163 202 246 294
#     4  10  21  37  55  74 101 137 168 194 239 304
#     4   8  16  30  49  70  91 124 166 196 234 298
#
# _framework density 18.847833999999999
#
# number of rings (size 3 to 8) (size 9 to 14) (size 15 to 20)
#    0.000    2.462    0.000    2.769    0.000    4.000 
#    0.000    0.385    0.000   24.000    0.000    9.692 
#    0.000    0.000    0.000    0.000    0.000    0.000 
#
# Total GULP energy -322353.991206 kJ/mol
# GULP energy per Si atom -12398.230431 kJ/mol
# Density = 1.880494 g / cm^3
# Si number density = 18.847834 Si / 1000 Ang^3
#
#
#
# Elastic Constant Matrix: (Units=GPa)
#
#
# Indices 1 2 3 4 5 6 
#
# 1 171.0679 42.6968 50.8573 0.0000 0.0000 0.0000
# 2 42.6968 25.8501 15.1525 0.0000 0.0000 0.0000
# 3 50.8573 15.1525 134.7536 0.0000 0.0000 0.0000
# 4 0.0000 0.0000 0.0000 8.3864 0.0000 0.0000
# 5 0.0000 0.0000 0.0000 0.0000 30.8390 0.0000
# 6 0.0000 0.0000 0.0000 0.0000 0.0000 29.2456
#
#
#
# Elastic Compliance Matrix: (Units=1/GPa)
#
#
# Indices 1 2 3 4 5 6 
#
# 1 0.010499 -0.016079 -0.002155 0.000000 0.000000 0.000000
# 2 -0.016079 0.066038 -0.001357 0.000000 0.000000 0.000000
# 3 -0.002155 -0.001357 0.008387 0.000000 0.000000 0.000000
# 4 0.000000 0.000000 0.000000 0.119240 0.000000 0.000000
# 5 0.000000 0.000000 0.000000 0.000000 0.032426 0.000000
# 6 0.000000 0.000000 0.000000 0.000000 0.000000 0.034193
#
#
# Mechanical properties :
#
#
# Convention : Reuss Voigt Hill
#
# Bulk Modulus (GPa) = 21.86161 61.00942 41.43551
# Shear Modulus (GPa) = 15.37456 28.55854 21.96655
#
# Velocity S-wave (km/s) = 2.85918 3.89680 3.41760
# Velocity P-wave (km/s) = 4.74595 7.25854 6.13231
#
# Compressibility (1/GPa) = 0.04574229
#
# Stress axis : x y z
#
# Youngs Moduli (GPa) = 95.24479 15.14286 119.23609
#
# Poissons Ratio (x) = 0.24348 0.25690
# Poissons Ratio (y) = 1.53142 0.16185
# Poissons Ratio (z) = 0.20521 0.02055
#
# Static dielectric constant tensor:
#      x y z
#    x 3.753080 0.000000 0.000000 
#    y 0.000000 2.810660 0.000000 
#    z 0.000000 0.000000 3.808520 
# 
# 
# High freq. dielectric constant tensor:
#      x y z
#    x 1.752490 0.000000 0.000000 
#    y 0.000000 1.670730 0.000000 
#    z 0.000000 0.000000 1.757070 
# 
# From -- ./inp_files/2218.got.cif
#   From: 2010.03.12/outbox.cif.g09.slc.cpg/sg38_2_cif.got.tgz:2218.got - 2010.04.14 02:38:36.
