data_PCOD8178190
_publ_section_title
;
Structure prediction by ZEFSAII (Michael W. Deem and Ramdas Pophale) SiO2 
 PCOD8178190
Probable space group: A M M 2
;
_chemical_formula_sum "Si O2"
_cell_formula_units_Z 64
_cell_length_a 24.680850
_cell_length_b 8.971581
_cell_length_c 15.139568
_cell_angle_alpha 90.000000
_cell_angle_beta 90.000000
_cell_angle_gamma 90.000000
_cell_volume 3352.297692
_symmetry_space_group_name_H-M "A M M 2"
_symmetry_group_IT_number 38
_symmetry_cell_setting 'orthorhombic'
loop_
_space_group_symop_operation_xyz
x,y,z
-x,-y,z
-x,y,z
x,-y,z
x,1/2+y,1/2+z
-x,1/2-y,1/2+z
-x,1/2+y,1/2+z
x,1/2-y,1/2+z
loop_
_atom_site_type_symbol
_atom_site_label
_atom_site_fract_x
_atom_site_fract_y
_atom_site_fract_z
Si Si1 0.139920 0.176425 0.677500
Si Si2 0.561723 0.323511 0.038010
Si Si3 0.131483 0.678747 0.863625
Si Si4 0.246781 0.662087 0.883800
Si Si5 0.367622 0.823293 0.183431
Si Si6 0.248100 0.336622 0.675064
Si Si7 0.060458 0.176911 0.524503
Si Si8 0.637699 0.321645 0.882510
O O1 0.120415 0.249655 0.768716
O O2 0.200221 0.224878 0.646542
O O3 0.097582 0.234574 0.604419
O O4 0.139290 0.000000 0.687863
O O5 0.500000 0.269995 0.029618
O O6 0.566135 0.500000 0.044495
O O7 0.586752 0.254647 0.125737
O O8 0.592977 0.263682 0.951136
O O9 0.134811 0.500000 0.852417
O O10 0.189040 0.740988 0.904295
O O11 0.084607 0.729640 0.930455
O O12 0.245512 0.500000 0.929806
O O13 0.249504 0.643710 0.779167
O O14 0.302734 0.744550 0.912412
O O15 0.307730 0.775790 0.147516
O O16 0.377288 0.767236 0.284043
O O17 0.374320 0.000000 0.177137
O O18 0.237352 0.500000 0.632460
O O19 0.000000 0.243630 0.534104
O O20 0.058859 0.000000 0.526547
O O21 0.642378 0.500000 0.881948
#
# Coordination Sequence:
#
# PCOD8178190 Si02
#       8
#     8   8   8   8   8   8   8   8
#     4  10  19  31  51  78 104 130 163 207 256 299
#     4  10  21  34  48  72 104 133 165 208 252 291
#     4   9  17  32  53  72  95 130 167 204 250 302
#     4   7  11  23  46  72  91 114 155 200 237 282
#     4   9  18  34  56  77  97 129 170 208 246 294
#     4   8  15  30  51  75 103 130 159 199 250 306
#     4   9  19  34  50  71 100 135 176 214 246 290
#     4   8  15  30  51  71  94 127 165 201 239 291
#
# _framework density 19.091384000000001
#
# number of rings (size 3 to 8) (size 9 to 14) (size 15 to 20)
#    0.000    3.250    0.000    2.625    0.000    2.750 
#    0.000    5.625    0.000    8.625    0.000    0.000 
#    0.000    0.000    0.000    0.000    0.000    0.000 
#
# Total GULP energy -396450.810038 kJ/mol
# GULP energy per Si atom -12389.087814 kJ/mol
# Density = 1.904793 g / cm^3
# Si number density = 19.091384 Si / 1000 Ang^3
#
#
#
# Elastic Constant Matrix: (Units=GPa)
#
#
# Indices 1 2 3 4 5 6 
#
# 1 149.8958 24.5310 54.1505 0.0000 0.0000 0.0000
# 2 24.5310 28.9709 19.9240 0.0000 0.0000 0.0000
# 3 54.1505 19.9240 84.2391 0.0000 0.0000 0.0000
# 4 0.0000 0.0000 0.0000 22.3415 0.0000 0.0000
# 5 0.0000 0.0000 0.0000 0.0000 35.9380 0.0000
# 6 0.0000 0.0000 0.0000 0.0000 0.0000 21.3082
#
#
#
# Elastic Compliance Matrix: (Units=1/GPa)
#
#
# Indices 1 2 3 4 5 6 
#
# 1 0.009139 -0.004417 -0.004830 0.000000 0.000000 0.000000
# 2 -0.004417 0.043357 -0.007416 0.000000 0.000000 0.000000
# 3 -0.004830 -0.007416 0.016730 0.000000 0.000000 0.000000
# 4 0.000000 0.000000 0.000000 0.044760 0.000000 0.000000
# 5 0.000000 0.000000 0.000000 0.000000 0.027826 0.000000
# 6 0.000000 0.000000 0.000000 0.000000 0.000000 0.046930
#
#
# Mechanical properties :
#
#
# Convention : Reuss Voigt Hill
#
# Bulk Modulus (GPa) = 27.85424 51.14630 39.50027
# Shear Modulus (GPa) = 21.36448 26.88422 24.12435
#
# Velocity S-wave (km/s) = 3.34887 3.75665 3.55861
# Velocity P-wave (km/s) = 5.43828 6.75759 6.13351
#
# Compressibility (1/GPa) = 0.03590118
#
# Stress axis : x y z
#
# Youngs Moduli (GPa) = 109.42108 23.06430 59.77365
#
# Poissons Ratio (x) = 0.10187 0.28871
# Poissons Ratio (y) = 0.48327 0.44326
# Poissons Ratio (z) = 0.52852 0.17103
#
# Static dielectric constant tensor:
#      x y z
#    x 4.000550 0.000000 0.000000 
#    y 0.000000 3.017430 0.000000 
#    z 0.000000 0.000000 3.369070 
# 
# 
# High freq. dielectric constant tensor:
#      x y z
#    x 1.754910 0.000000 0.000000 
#    y 0.000000 1.692320 0.000000 
#    z 0.000000 0.000000 1.732370 
# 
# From -- ./inp_files/15809.got.cif
#   From: 2010.03.12/outbox.cif.g09.slc.cpg/sg38_8_cif.got.tgz:15809.got - 2010.04.14 02:38:36.
