data_PCOD8178661
_publ_section_title
;
Structure prediction by ZEFSAII (Michael W. Deem and Ramdas Pophale) SiO2 
 PCOD8178661
Probable space group: A M M 2
;
_chemical_formula_sum "Si O2"
_cell_formula_units_Z 36
_cell_length_a 15.797356
_cell_length_b 23.533636
_cell_length_c 4.973729
_cell_angle_alpha 90.000000
_cell_angle_beta 90.000000
_cell_angle_gamma 90.000000
_cell_volume 1849.079380
_symmetry_space_group_name_H-M "A M M 2"
_symmetry_group_IT_number 38
_symmetry_cell_setting 'orthorhombic'
loop_
_space_group_symop_operation_xyz
x,y,z
-x,-y,z
-x,y,z
x,-y,z
x,1/2+y,1/2+z
-x,1/2-y,1/2+z
-x,1/2+y,1/2+z
x,1/2-y,1/2+z
loop_
_atom_site_type_symbol
_atom_site_label
_atom_site_fract_x
_atom_site_fract_y
_atom_site_fract_z
Si Si1 0.000000 0.289404 0.616441
Si Si2 0.851463 0.622491 0.609095
Si Si3 0.257545 0.000000 0.716095
Si Si4 0.849980 0.000000 0.215874
Si Si5 0.264846 0.620940 0.108325
Si Si6 0.404380 0.786951 0.719570
O O1 0.917945 0.327956 0.660972
O O2 0.000000 0.263211 0.319859
O O3 0.896761 0.559914 0.645145
O O4 0.813451 0.629243 0.312012
O O5 0.773054 0.629218 0.812579
O O6 0.306721 0.941962 0.643356
O O7 0.171889 0.000000 0.532004
O O8 0.235063 0.000000 0.031791
O O9 0.340437 0.663497 0.153882
O O10 0.500000 0.809958 0.682624
O O11 0.388259 0.734008 0.521542
#
# Coordination Sequence:
#
# PCOD8178661 Si02
#       6
#     4   8   4   4   8   8
#     4  12  26  39  50  75 112 138 170 218 256 296
#     4  10  21  36  56  77 102 137 172 212 256 304
#     4   8  16  30  51  79 104 124 162 216 252 297
#     4   8  16  33  54  76  97 126 172 214 251 296
#     4  10  19  35  57  78 102 136 172 206 259 313
#     4  10  21  35  52  77 106 135 173 217 250 292
#
# _framework density 19.469145999999999
#
# number of rings (size 3 to 8) (size 9 to 14) (size 15 to 20)
#    0.000    2.222    0.000    2.667    0.000    5.778 
#    0.000    0.556    0.000    9.333    0.000   14.000 
#    0.000    0.000    0.000    0.000    0.000    0.000 
#
# Total GULP energy -223088.290748 kJ/mol
# GULP energy per Si atom -12393.793930 kJ/mol
# Density = 1.942483 g / cm^3
# Si number density = 19.469146 Si / 1000 Ang^3
#
#
#
# Elastic Constant Matrix: (Units=GPa)
#
#
# Indices 1 2 3 4 5 6 
#
# 1 64.8431 58.6417 4.4318 0.0000 0.0000 0.0000
# 2 58.6417 130.1668 2.8802 0.0000 0.0000 0.0000
# 3 4.4318 2.8802 72.1106 0.0000 0.0000 0.0000
# 4 0.0000 0.0000 0.0000 27.5931 0.0000 0.0000
# 5 0.0000 0.0000 0.0000 0.0000 20.0151 0.0000
# 6 0.0000 0.0000 0.0000 0.0000 0.0000 -69.7181
#
#
#
# Elastic Compliance Matrix: (Units=1/GPa)
#
#
# Indices 1 2 3 4 5 6 
#
# 1 0.026118 -0.011741 -0.001136 0.000000 0.000000 0.000000
# 2 -0.011741 0.012968 0.000204 0.000000 0.000000 0.000000
# 3 -0.001136 0.000204 0.013929 0.000000 0.000000 0.000000
# 4 0.000000 0.000000 0.000000 0.036241 0.000000 0.000000
# 5 0.000000 0.000000 0.000000 0.000000 0.049962 0.000000
# 6 0.000000 0.000000 0.000000 0.000000 0.000000 -0.014343
#
#
# Mechanical properties :
#
#
# Convention : Reuss Voigt Hill
#
# Bulk Modulus (GPa) = 36.14410 44.33644 40.24027
# Shear Modulus (GPa) = 31.35888 8.98912 20.17400
#
# Velocity S-wave (km/s) = 4.01770 2.15108 3.22250
# Velocity P-wave (km/s) = 6.33464 5.38439 5.87875
#
# Compressibility (1/GPa) = 0.02766703
#
# Stress axis : x y z
#
# Youngs Moduli (GPa) = 38.28798 77.11572 71.79123
#
# Poissons Ratio (x) = 0.90544 0.08157
# Poissons Ratio (y) = 0.44955 -0.01462
# Poissons Ratio (z) = 0.04350 -0.01571
#
# Static dielectric constant tensor:
#      x y z
#    x 3.057760 0.000000 0.000000 
#    y 0.000000 3.842100 0.000000 
#    z 0.000000 0.000000 3.778280 
# 
# 
# High freq. dielectric constant tensor:
#      x y z
#    x 1.705190 0.000000 0.000000 
#    y 0.000000 1.775930 0.000000 
#    z 0.000000 0.000000 1.782310 
# 
# From -- ./inp_files/1576.got.cif
#   From: 2010.03.12/outbox.cif.g09.slc.cpg/sg38_1_cif.got.tgz:1576.got - 2010.04.14 02:38:36.
