data_PCOD8178942
_publ_section_title
;
Structure prediction by ZEFSAII (Michael W. Deem and Ramdas Pophale) SiO2 
 PCOD8178942
Probable space group: A M M 2
;
_chemical_formula_sum "Si O2"
_cell_formula_units_Z 64
_cell_length_a 22.359134
_cell_length_b 13.183804
_cell_length_c 12.522962
_cell_angle_alpha 90.000000
_cell_angle_beta 90.000000
_cell_angle_gamma 90.000000
_cell_volume 3691.499206
_symmetry_space_group_name_H-M "A M M 2"
_symmetry_group_IT_number 38
_symmetry_cell_setting 'orthorhombic'
loop_
_space_group_symop_operation_xyz
x,y,z
-x,-y,z
-x,y,z
x,-y,z
x,1/2+y,1/2+z
-x,1/2-y,1/2+z
-x,1/2+y,1/2+z
x,1/2-y,1/2+z
loop_
_atom_site_type_symbol
_atom_site_label
_atom_site_fract_x
_atom_site_fract_y
_atom_site_fract_z
Si Si1 0.153601 0.270185 0.403110
Si Si2 0.737178 0.222798 0.551178
Si Si3 0.755796 0.382021 0.263932
Si Si4 0.431658 0.885063 0.980984
Si Si5 0.069213 0.881797 0.288524
Si Si6 0.655653 0.249304 0.865992
Si Si7 0.065389 0.119292 0.050154
Si Si8 0.337245 0.883887 0.164051
O O1 0.201449 0.231220 0.488057
O O2 0.184439 0.323463 0.301402
O O3 0.113295 0.176058 0.367997
O O4 0.112663 0.351875 0.461181
O O5 0.744583 0.134388 0.638242
O O6 0.683530 0.194415 0.469762
O O7 0.719987 0.328116 0.611416
O O8 0.762875 0.500000 0.288738
O O9 0.700294 0.340409 0.331626
O O10 0.500000 0.856511 0.005114
O O11 0.406694 0.805838 0.893780
O O12 0.426100 0.000000 0.936678
O O13 0.395395 0.874530 0.090677
O O14 0.082952 0.842051 0.168633
O O15 0.000000 0.860214 0.317822
O O16 0.083812 0.000000 0.301166
O O17 0.645121 0.332785 0.775888
O O18 0.000000 0.163358 0.019134
O O19 0.061308 0.000000 0.056738
O O20 0.318389 0.000000 0.183511
#
# Coordination Sequence:
#
# PCOD8178942 Si02
#       8
#     8   8   8   8   8   8   8   8
#     4  11  19  31  50  73  94 122 159 197 239 288
#     4   9  20  33  46  69  98 127 159 197 244 291
#     4  10  20  33  48  69  98 128 158 197 243 290
#     4   9  17  30  50  75 101 130 165 206 249 291
#     4   9  19  35  52  70  95 127 161 198 241 290
#     4   9  18  33  51  72  97 131 169 201 241 289
#     4   9  18  32  49  69  92 119 153 194 238 283
#     4   9  18  33  51  72  99 130 167 207 245 289
#
# _framework density 17.337130999999999
#
# number of rings (size 3 to 8) (size 9 to 14) (size 15 to 20)
#    0.000    2.625    0.000    2.625    0.000    5.000 
#    0.000    7.500    0.000    0.000    0.000    5.250 
#    0.000    0.000    0.000    0.000    0.000    0.000 
#
# Total GULP energy -396750.864239 kJ/mol
# GULP energy per Si atom -12398.464507 kJ/mol
# Density = 1.729767 g / cm^3
# Si number density = 17.337131 Si / 1000 Ang^3
#
#
#
# Elastic Constant Matrix: (Units=GPa)
#
#
# Indices 1 2 3 4 5 6 
#
# 1 98.2439 35.6912 38.6476 0.0000 0.0000 0.0000
# 2 35.6912 78.3887 35.2182 0.0000 0.0000 0.0000
# 3 38.6476 35.2182 91.6375 0.0000 0.0000 0.0000
# 4 0.0000 0.0000 0.0000 28.1267 0.0000 0.0000
# 5 0.0000 0.0000 0.0000 0.0000 19.8724 0.0000
# 6 0.0000 0.0000 0.0000 0.0000 0.0000 23.2641
#
#
#
# Elastic Compliance Matrix: (Units=1/GPa)
#
#
# Indices 1 2 3 4 5 6 
#
# 1 0.013289 -0.004270 -0.003964 0.000000 0.000000 0.000000
# 2 -0.004270 0.016791 -0.004652 0.000000 0.000000 0.000000
# 3 -0.003964 -0.004652 0.014372 0.000000 0.000000 0.000000
# 4 0.000000 0.000000 0.000000 0.035553 0.000000 0.000000
# 5 0.000000 0.000000 0.000000 0.000000 0.050321 0.000000
# 6 0.000000 0.000000 0.000000 0.000000 0.000000 0.042985
#
#
# Mechanical properties :
#
#
# Convention : Reuss Voigt Hill
#
# Bulk Modulus (GPa) = 53.53102 54.15378 53.84240
# Shear Modulus (GPa) = 24.35331 24.83350 24.59340
#
# Velocity S-wave (km/s) = 3.75199 3.78880 3.77044
# Velocity P-wave (km/s) = 7.05077 7.10236 7.07661
#
# Compressibility (1/GPa) = 0.01868076
#
# Stress axis : x y z
#
# Youngs Moduli (GPa) = 75.24896 59.55453 69.57867
#
# Poissons Ratio (x) = 0.25430 0.27578
# Poissons Ratio (y) = 0.32131 0.32371
# Poissons Ratio (z) = 0.29826 0.27707
#
# Static dielectric constant tensor:
#      x y z
#    x 3.248810 0.000000 0.000000 
#    y 0.000000 3.025450 0.000000 
#    z 0.000000 0.000000 3.318370 
# 
# 
# High freq. dielectric constant tensor:
#      x y z
#    x 1.669870 0.000000 0.000000 
#    y 0.000000 1.654540 0.000000 
#    z 0.000000 0.000000 1.673510 
# 
# From -- ./inp_files/10870.got.cif
#   From: 2010.03.12/outbox.cif.g09.slc.cpg/sg38_6_cif.got.tgz:10870.got - 2010.04.14 02:38:36.
