data_PCOD8178411
_publ_section_title
;
Structure prediction by ZEFSAII (Michael W. Deem and Ramdas Pophale) SiO2 
 PCOD8178411
Probable space group: A M M 2
;
_chemical_formula_sum "Si O2"
_cell_formula_units_Z 64
_cell_length_a 9.009783
_cell_length_b 20.664616
_cell_length_c 19.536026
_cell_angle_alpha 90.000000
_cell_angle_beta 90.000000
_cell_angle_gamma 90.000000
_cell_volume 3637.289720
_symmetry_space_group_name_H-M "A M M 2"
_symmetry_group_IT_number 38
_symmetry_cell_setting 'orthorhombic'
loop_
_space_group_symop_operation_xyz
x,y,z
-x,-y,z
-x,y,z
x,-y,z
x,1/2+y,1/2+z
-x,1/2-y,1/2+z
-x,1/2+y,1/2+z
x,1/2-y,1/2+z
loop_
_atom_site_type_symbol
_atom_site_label
_atom_site_fract_x
_atom_site_fract_y
_atom_site_fract_z
Si Si1 0.170734 0.262824 0.934880
Si Si2 0.671000 0.123239 0.075045
Si Si3 0.327121 0.630357 0.427142
Si Si4 0.329132 0.426671 0.284934
Si Si5 0.672602 0.274423 0.071947
Si Si6 0.675855 0.072252 0.214665
Si Si7 0.169981 0.686064 0.788436
Si Si8 0.175787 0.687301 0.207038
O O1 0.236155 0.194590 0.910560
O O2 0.187474 0.309604 0.870017
O O3 0.000000 0.253259 0.955932
O O4 0.258102 0.294064 0.998735
O O5 0.500000 0.105804 0.078344
O O6 0.701441 0.199014 0.084733
O O7 0.745597 0.085976 0.138834
O O8 0.730469 0.100958 0.000070
O O9 0.500000 0.650318 0.435160
O O10 0.301899 0.579447 0.366612
O O11 0.500000 0.410314 0.267820
O O12 0.289608 0.500000 0.263914
O O13 0.224296 0.378277 0.244334
O O14 0.500000 0.292424 0.071685
O O15 0.752520 0.313753 0.131975
O O16 0.500000 0.080953 0.213733
O O17 0.739186 0.122881 0.268357
O O18 0.721984 0.000000 0.236958
O O19 0.231817 0.750404 0.750287
O O20 0.000000 0.676411 0.766966
O O21 0.000000 0.687037 0.200319
#
# Coordination Sequence:
#
# PCOD8178411 Si02
#       8
#     8   8   8   8   8   8   8   8
#     4  10  19  33  52  78 108 138 174 220 267 318
#     4   8  15  28  46  72 104 137 172 210 255 304
#     4   9  17  30  49  74 105 143 182 218 258 309
#     4  10  21  35  52  77 109 146 185 226 272 319
#     4  10  19  33  54  81 107 137 173 219 272 317
#     4  10  20  33  51  76 106 141 180 221 264 310
#     4  10  21  35  53  77 106 141 179 218 264 312
#     4  11  21  35  55  80 106 141 182 222 268 318
#
# _framework density 17.59552
#
# number of rings (size 3 to 8) (size 9 to 14) (size 15 to 20)
#    0.000    2.250    2.500    1.875    0.000    2.500 
#    0.000    2.500    0.000    0.750    0.000    5.250 
#    0.000    0.000    0.000    0.000    0.000    0.000 
#
# Total GULP energy -396714.020311 kJ/mol
# GULP energy per Si atom -12397.313135 kJ/mol
# Density = 1.755547 g / cm^3
# Si number density = 17.595520 Si / 1000 Ang^3
#
#
#
# Elastic Constant Matrix: (Units=GPa)
#
#
# Indices 1 2 3 4 5 6 
#
# 1 70.4958 44.7708 47.6699 0.0000 0.0000 0.0000
# 2 44.7708 91.0200 48.9613 0.0000 0.0000 0.0000
# 3 47.6699 48.9613 104.0288 0.0000 0.0000 0.0000
# 4 0.0000 0.0000 0.0000 22.9331 0.0000 0.0000
# 5 0.0000 0.0000 0.0000 0.0000 27.3255 0.0000
# 6 0.0000 0.0000 0.0000 0.0000 0.0000 20.3157
#
#
#
# Elastic Compliance Matrix: (Units=1/GPa)
#
#
# Indices 1 2 3 4 5 6 
#
# 1 0.024205 -0.007953 -0.007349 0.000000 0.000000 0.000000
# 2 -0.007953 0.017324 -0.004509 0.000000 0.000000 0.000000
# 3 -0.007349 -0.004509 0.015102 0.000000 0.000000 0.000000
# 4 0.000000 0.000000 0.000000 0.043605 0.000000 0.000000
# 5 0.000000 0.000000 0.000000 0.000000 0.036596 0.000000
# 6 0.000000 0.000000 0.000000 0.000000 0.000000 0.049223
#
#
# Mechanical properties :
#
#
# Convention : Reuss Voigt Hill
#
# Bulk Modulus (GPa) = 58.78915 60.92763 59.85839
# Shear Modulus (GPa) = 21.61245 22.39102 22.00173
#
# Velocity S-wave (km/s) = 3.50850 3.57114 3.53996
# Velocity P-wave (km/s) = 7.06376 7.19069 7.12751
#
# Compressibility (1/GPa) = 0.01700994
#
# Stress axis : x y z
#
# Youngs Moduli (GPa) = 41.31311 57.72285 66.21456
#
# Poissons Ratio (x) = 0.45908 0.48659
# Poissons Ratio (y) = 0.32857 0.29858
# Poissons Ratio (z) = 0.30360 0.26028
#
# Static dielectric constant tensor:
#      x y z
#    x 3.169010 0.000000 0.000000 
#    y 0.000000 3.003980 0.000000 
#    z 0.000000 0.000000 3.430670 
# 
# 
# High freq. dielectric constant tensor:
#      x y z
#    x 1.669880 0.000000 0.000000 
#    y 0.000000 1.649430 0.000000 
#    z 0.000000 0.000000 1.690320 
# 
# From -- ./inp_files/20046.got.cif
#   From: 2010.03.12/outbox.cif.g09.slc.cpg/sg38_11_cif.got.tgz:20046.got - 2010.04.14 02:38:36.
