data_PCOD8178354
_publ_section_title
;
Structure prediction by ZEFSAII (Michael W. Deem and Ramdas Pophale) SiO2 
 PCOD8178354
Probable space group: A M M 2
;
_chemical_formula_sum "Si O2"
_cell_formula_units_Z 64
_cell_length_a 14.411420
_cell_length_b 8.923827
_cell_length_c 24.855525
_cell_angle_alpha 90.000000
_cell_angle_beta 90.000000
_cell_angle_gamma 90.000000
_cell_volume 3196.545263
_symmetry_space_group_name_H-M "A M M 2"
_symmetry_group_IT_number 38
_symmetry_cell_setting 'orthorhombic'
loop_
_space_group_symop_operation_xyz
x,y,z
-x,-y,z
-x,y,z
x,-y,z
x,1/2+y,1/2+z
-x,1/2-y,1/2+z
-x,1/2+y,1/2+z
x,1/2-y,1/2+z
loop_
_atom_site_type_symbol
_atom_site_label
_atom_site_fract_x
_atom_site_fract_y
_atom_site_fract_z
Si Si1 0.607393 0.176171 0.216960
Si Si2 0.279172 0.323195 0.121544
Si Si3 0.280251 0.676315 0.822544
Si Si4 0.897486 0.172479 0.858238
Si Si5 0.602871 0.831632 0.034557
Si Si6 0.896038 0.826799 0.079839
Si Si7 0.136416 0.668250 0.968504
Si Si8 0.344253 0.666402 0.937097
O O1 0.500000 0.227067 0.218196
O O2 0.662479 0.261350 0.171061
O O3 0.655022 0.221553 0.273011
O O4 0.615236 0.000000 0.206058
O O5 0.271757 0.500000 0.126046
O O6 0.331193 0.279763 0.066819
O O7 0.175313 0.256129 0.120068
O O8 0.260940 0.500000 0.825649
O O9 0.179636 0.755190 0.818851
O O10 0.333893 0.728993 0.876460
O O11 0.902323 0.252567 0.915646
O O12 0.000000 0.188403 0.831532
O O13 0.871020 0.000000 0.867344
O O14 0.500000 0.828760 0.060122
O O15 0.643498 0.000000 0.036961
O O16 0.593607 0.778115 0.972534
O O17 0.000000 0.807979 0.103561
O O18 0.867310 0.000000 0.076452
O O19 0.895123 0.759569 0.020281
O O20 0.095730 0.500000 0.971801
O O21 0.246378 0.661713 0.966833
O O22 0.388903 0.500000 0.935821
#
# Coordination Sequence:
#
# PCOD8178354 Si02
#       8
#     8   8   8   8   8   8   8   8
#     4  10  22  43  69  92 115 150 198 252 307 363
#     4  12  25  41  62  88 119 155 197 248 301 355
#     4   9  20  38  61  88 117 151 196 247 302 358
#     4  10  20  33  52  82 121 164 205 243 289 346
#     4  11  23  37  56  84 118 158 199 241 295 357
#     4  11  23  38  59  87 119 157 199 243 295 355
#     4  10  19  32  53  83 119 160 202 244 290 345
#     4   9  18  33  54  84 120 156 192 237 293 351
#
# _framework density 20.021615000000001
#
# number of rings (size 3 to 8) (size 9 to 14) (size 15 to 20)
#    0.000    1.750    1.250    4.125    0.000    9.250 
#    0.000    1.875    0.000    0.750    0.000    0.000 
#    0.000    0.000    0.000    0.000    0.000    0.000 
#
# Total GULP energy -396778.505325 kJ/mol
# GULP energy per Si atom -12399.328291 kJ/mol
# Density = 1.997604 g / cm^3
# Si number density = 20.021615 Si / 1000 Ang^3
#
#
#
# Elastic Constant Matrix: (Units=GPa)
#
#
# Indices 1 2 3 4 5 6 
#
# 1 134.5407 63.6613 61.9944 0.0000 0.0000 0.0000
# 2 63.6613 108.5186 57.4832 0.0000 0.0000 0.0000
# 3 61.9944 57.4832 109.5194 0.0000 0.0000 0.0000
# 4 0.0000 0.0000 0.0000 31.2610 0.0000 0.0000
# 5 0.0000 0.0000 0.0000 0.0000 16.1384 0.0000
# 6 0.0000 0.0000 0.0000 0.0000 0.0000 18.6382
#
#
#
# Elastic Compliance Matrix: (Units=1/GPa)
#
#
# Indices 1 2 3 4 5 6 
#
# 1 0.011483 -0.004561 -0.004106 0.000000 0.000000 0.000000
# 2 -0.004561 0.014576 -0.005068 0.000000 0.000000 0.000000
# 3 -0.004106 -0.005068 0.014115 0.000000 0.000000 0.000000
# 4 0.000000 0.000000 0.000000 0.031989 0.000000 0.000000
# 5 0.000000 0.000000 0.000000 0.000000 0.061964 0.000000
# 6 0.000000 0.000000 0.000000 0.000000 0.000000 0.053653
#
#
# Mechanical properties :
#
#
# Convention : Reuss Voigt Hill
#
# Bulk Modulus (GPa) = 78.72399 79.87294 79.29846
# Shear Modulus (GPa) = 22.78057 24.50350 23.64203
#
# Velocity S-wave (km/s) = 3.37679 3.50216 3.44004
# Velocity P-wave (km/s) = 7.38975 7.50556 7.44788
#
# Compressibility (1/GPa) = 0.01270261
#
# Stress axis : x y z
#
# Youngs Moduli (GPa) = 87.08528 68.60775 70.84600
#
# Poissons Ratio (x) = 0.31295 0.29089
# Poissons Ratio (y) = 0.39724 0.35906
# Poissons Ratio (z) = 0.35756 0.34772
#
# Static dielectric constant tensor:
#      x y z
#    x 3.811280 0.000000 0.000000 
#    y 0.000000 3.679320 0.000000 
#    z 0.000000 0.000000 3.534530 
# 
# 
# High freq. dielectric constant tensor:
#      x y z
#    x 1.791830 0.000000 0.000000 
#    y 0.000000 1.783860 0.000000 
#    z 0.000000 0.000000 1.759030 
# 
# From -- ./inp_files/23010.got.cif
#   From: 2010.03.12/outbox.cif.g09.slc.cpg/sg38_12_cif.got.tgz:23010.got - 2010.04.14 02:38:36.
