data_PCOD8178447
_publ_section_title
;
Structure prediction by ZEFSAII (Michael W. Deem and Ramdas Pophale) SiO2 
 PCOD8178447
Probable space group: A M M 2
;
_chemical_formula_sum "Si O2"
_cell_formula_units_Z 64
_cell_length_a 8.898295
_cell_length_b 20.426114
_cell_length_c 19.643118
_cell_angle_alpha 90.000000
_cell_angle_beta 90.000000
_cell_angle_gamma 90.000000
_cell_volume 3570.285750
_symmetry_space_group_name_H-M "A M M 2"
_symmetry_group_IT_number 38
_symmetry_cell_setting 'orthorhombic'
loop_
_space_group_symop_operation_xyz
x,y,z
-x,-y,z
-x,y,z
x,-y,z
x,1/2+y,1/2+z
-x,1/2-y,1/2+z
-x,1/2+y,1/2+z
x,1/2-y,1/2+z
loop_
_atom_site_type_symbol
_atom_site_label
_atom_site_fract_x
_atom_site_fract_y
_atom_site_fract_z
Si Si1 0.827201 0.573265 0.988200
Si Si2 0.675520 0.772338 0.113626
Si Si3 0.672415 0.574974 0.391869
Si Si4 0.826980 0.117901 0.757502
Si Si5 0.324289 0.878856 0.619033
Si Si6 0.178115 0.691272 0.897112
Si Si7 0.173014 0.771601 0.251589
Si Si8 0.178442 0.816157 0.980119
O O1 0.811101 0.500000 0.958526
O O2 0.766573 0.623932 0.931617
O O3 0.000000 0.589553 0.006697
O O4 0.728097 0.578127 0.055683
O O5 0.500000 0.785213 0.106405
O O6 0.718397 0.696358 0.104120
O O7 0.728907 0.796001 0.188003
O O8 0.760980 0.814280 0.056941
O O9 0.500000 0.598166 0.391971
O O10 0.687215 0.500000 0.415377
O O11 0.736586 0.581510 0.316141
O O12 0.765797 0.617924 0.444902
O O13 0.761585 0.094792 0.685266
O O14 0.806197 0.195146 0.766427
O O15 0.000000 0.096957 0.762000
O O16 0.500000 0.887707 0.631503
O O17 0.234769 0.691783 0.819060
O O18 0.242295 0.753207 0.939050
O O19 0.000000 0.696956 0.896199
O O20 0.000000 0.788326 0.235979
O O21 0.000000 0.816519 0.981457
#
# Coordination Sequence:
#
# PCOD8178447 Si02
#       8
#     8   8   8   8   8   8   8   8
#     4  10  20  34  53  77 107 144 182 222 268 319
#     4  10  20  33  51  81 111 138 175 221 272 323
#     4  11  24  39  54  77 112 147 177 219 273 326
#     4  10  19  33  54  78 104 140 185 225 262 315
#     4  10  20  33  50  75 109 147 182 221 268 319
#     4   9  17  32  54  80 106 134 176 225 271 311
#     4   9  17  32  53  78 105 137 175 220 270 316
#     4  11  20  35  59  82 105 140 182 228 269 314
#
# _framework density 17.925736000000001
#
# number of rings (size 3 to 8) (size 9 to 14) (size 15 to 20)
#    0.000    2.000    2.500    1.875    0.000    3.250 
#    0.000    0.625    0.000    0.750    0.000    1.750 
#    0.000    0.000    0.000    0.000    0.000    0.000 
#
# Total GULP energy -396895.234296 kJ/mol
# GULP energy per Si atom -12402.976072 kJ/mol
# Density = 1.788494 g / cm^3
# Si number density = 17.925736 Si / 1000 Ang^3
#
#
#
# Elastic Constant Matrix: (Units=GPa)
#
#
# Indices 1 2 3 4 5 6 
#
# 1 74.1273 31.4814 41.7840 0.0000 0.0000 0.0000
# 2 31.4814 78.7156 54.6794 0.0000 0.0000 0.0000
# 3 41.7840 54.6794 129.8463 0.0000 0.0000 0.0000
# 4 0.0000 0.0000 0.0000 23.0269 0.0000 0.0000
# 5 0.0000 0.0000 0.0000 0.0000 23.8144 0.0000
# 6 0.0000 0.0000 0.0000 0.0000 0.0000 20.8492
#
#
#
# Elastic Compliance Matrix: (Units=1/GPa)
#
#
# Indices 1 2 3 4 5 6 
#
# 1 0.017477 -0.004358 -0.003789 0.000000 0.000000 0.000000
# 2 -0.004358 0.019043 -0.006617 0.000000 0.000000 0.000000
# 3 -0.003789 -0.006617 0.011707 0.000000 0.000000 0.000000
# 4 0.000000 0.000000 0.000000 0.043428 0.000000 0.000000
# 5 0.000000 0.000000 0.000000 0.000000 0.041991 0.000000
# 6 0.000000 0.000000 0.000000 0.000000 0.000000 0.047964
#
#
# Mechanical properties :
#
#
# Convention : Reuss Voigt Hill
#
# Bulk Modulus (GPa) = 53.47604 59.84211 56.65908
# Shear Modulus (GPa) = 23.00225 23.85436 23.42831
#
# Velocity S-wave (km/s) = 3.58606 3.65188 3.61912
# Velocity P-wave (km/s) = 6.85880 7.15803 7.01002
#
# Compressibility (1/GPa) = 0.01869996
#
# Stress axis : x y z
#
# Youngs Moduli (GPa) = 57.21902 52.51208 85.41806
#
# Poissons Ratio (x) = 0.22883 0.32364
# Poissons Ratio (y) = 0.24934 0.56521
# Poissons Ratio (z) = 0.21680 0.34747
#
# Static dielectric constant tensor:
#      x y z
#    x 3.250440 0.000000 0.000000 
#    y 0.000000 3.151730 0.000000 
#    z 0.000000 0.000000 3.428440 
# 
# 
# High freq. dielectric constant tensor:
#      x y z
#    x 1.690840 0.000000 0.000000 
#    y 0.000000 1.667280 0.000000 
#    z 0.000000 0.000000 1.698360 
# 
# From -- ./inp_files/17197.got.cif
#   From: 2010.03.12/outbox.cif.g09.slc.cpg/sg38_9_cif.got.tgz:17197.got - 2010.04.14 02:38:36.
