data_PCOD8178599
_publ_section_title
;
Structure prediction by ZEFSAII (Michael W. Deem and Ramdas Pophale) SiO2 
 PCOD8178599
Probable space group: A M M 2
;
_chemical_formula_sum "Si O2"
_cell_formula_units_Z 64
_cell_length_a 19.522399
_cell_length_b 8.944550
_cell_length_c 19.918771
_cell_angle_alpha 90.000000
_cell_angle_beta 90.000000
_cell_angle_gamma 90.000000
_cell_volume 3478.197347
_symmetry_space_group_name_H-M "A M M 2"
_symmetry_group_IT_number 38
_symmetry_cell_setting 'orthorhombic'
loop_
_space_group_symop_operation_xyz
x,y,z
-x,-y,z
-x,y,z
x,-y,z
x,1/2+y,1/2+z
-x,1/2-y,1/2+z
-x,1/2+y,1/2+z
x,1/2-y,1/2+z
loop_
_atom_site_type_symbol
_atom_site_label
_atom_site_fract_x
_atom_site_fract_y
_atom_site_fract_z
Si Si1 0.844186 0.673286 0.241160
Si Si2 0.317833 0.176409 0.068201
Si Si3 0.080451 0.672018 0.624812
Si Si4 0.178221 0.825400 0.523265
Si Si5 0.688070 0.173926 0.705395
Si Si6 0.655041 0.174059 0.338419
Si Si7 0.578571 0.827733 0.953077
Si Si8 0.808776 0.328681 0.871298
O O1 0.863421 0.500000 0.237698
O O2 0.897802 0.765771 0.197256
O O3 0.768877 0.705629 0.212269
O O4 0.849263 0.726292 0.318344
O O5 0.245636 0.238389 0.044132
O O6 0.339471 0.246565 0.138952
O O7 0.312097 0.000000 0.076228
O O8 0.376068 0.224929 0.015836
O O9 0.103394 0.500000 0.619171
O O10 0.114228 0.766954 0.565381
O O11 0.000000 0.690644 0.616998
O O12 0.161540 0.796847 0.445090
O O13 0.190121 0.000000 0.538341
O O14 0.647126 0.241429 0.768010
O O15 0.671861 0.000000 0.701236
O O16 0.596312 0.230603 0.388007
O O17 0.728344 0.211311 0.371734
O O18 0.645205 0.000000 0.325061
O O19 0.500000 0.800466 0.972565
O O20 0.593527 0.000000 0.935730
O O21 0.819554 0.500000 0.849777
#
# Coordination Sequence:
#
# PCOD8178599 Si02
#       8
#     8   8   8   8   8   8   8   8
#     4  10  20  34  56  84 112 145 186 232 281 335
#     4  11  21  34  57  85 114 151 192 238 288 339
#     4  11  24  40  58  82 115 154 193 234 285 344
#     4  11  21  36  58  86 116 148 188 237 287 340
#     4  10  20  34  55  84 115 145 185 235 285 335
#     4  10  19  34  56  83 113 146 188 234 282 338
#     4  10  22  39  57  81 116 155 193 235 288 347
#     4   9  19  34  55  83 115 145 182 232 283 333
#
# _framework density 18.400337
#
# number of rings (size 3 to 8) (size 9 to 14) (size 15 to 20)
#    0.000    1.750    2.500    2.250    0.000    4.250 
#    0.000    1.250    0.000    3.000    0.000    0.000 
#    0.000    0.000    0.000    0.000    0.000    0.000 
#
# Total GULP energy -396969.037898 kJ/mol
# GULP energy per Si atom -12405.282434 kJ/mol
# Density = 1.835846 g / cm^3
# Si number density = 18.400337 Si / 1000 Ang^3
#
#
#
# Elastic Constant Matrix: (Units=GPa)
#
#
# Indices 1 2 3 4 5 6 
#
# 1 68.0610 33.5080 47.4005 0.0000 0.0000 0.0000
# 2 33.5080 89.3148 64.2977 0.0000 0.0000 0.0000
# 3 47.4005 64.2977 139.6780 0.0000 0.0000 0.0000
# 4 0.0000 0.0000 0.0000 39.0359 0.0000 0.0000
# 5 0.0000 0.0000 0.0000 0.0000 26.2533 0.0000
# 6 0.0000 0.0000 0.0000 0.0000 0.0000 22.9257
#
#
#
# Elastic Compliance Matrix: (Units=1/GPa)
#
#
# Indices 1 2 3 4 5 6 
#
# 1 0.020126 -0.003939 -0.005016 0.000000 0.000000 0.000000
# 2 -0.003939 0.017517 -0.006727 0.000000 0.000000 0.000000
# 3 -0.005016 -0.006727 0.011958 0.000000 0.000000 0.000000
# 4 0.000000 0.000000 0.000000 0.025617 0.000000 0.000000
# 5 0.000000 0.000000 0.000000 0.000000 0.038090 0.000000
# 6 0.000000 0.000000 0.000000 0.000000 0.000000 0.043619
#
#
# Mechanical properties :
#
#
# Convention : Reuss Voigt Hill
#
# Bulk Modulus (GPa) = 54.83654 65.27402 60.05528
# Shear Modulus (GPa) = 25.72402 27.76615 26.74508
#
# Velocity S-wave (km/s) = 3.74307 3.88880 3.81663
# Velocity P-wave (km/s) = 6.96759 7.46425 7.22019
#
# Compressibility (1/GPa) = 0.01823602
#
# Stress axis : x y z
#
# Youngs Moduli (GPa) = 49.68770 57.08826 83.62493
#
# Poissons Ratio (x) = 0.22488 0.41950
# Poissons Ratio (y) = 0.19573 0.56252
# Poissons Ratio (z) = 0.24926 0.38401
#
# Static dielectric constant tensor:
#      x y z
#    x 3.117850 0.000000 0.000000 
#    y 0.000000 3.501490 0.000000 
#    z 0.000000 0.000000 3.576060 
# 
# 
# High freq. dielectric constant tensor:
#      x y z
#    x 1.682630 0.000000 0.000000 
#    y 0.000000 1.727070 0.000000 
#    z 0.000000 0.000000 1.727410 
# 
# From -- ./inp_files/21362.got.cif
#   From: 2010.03.12/outbox.cif.g09.slc.cpg/sg38_11_cif.got.tgz:21362.got - 2010.04.14 02:38:36.
