data_PCOD8178378
_publ_section_title
;
Structure prediction by ZEFSAII (Michael W. Deem and Ramdas Pophale) SiO2 
 PCOD8178378
Probable space group: A M M 2
;
_chemical_formula_sum "Si O2"
_cell_formula_units_Z 24
_cell_length_a 7.839233
_cell_length_b 9.040313
_cell_length_c 18.502287
_cell_angle_alpha 90.000000
_cell_angle_beta 90.000000
_cell_angle_gamma 90.000000
_cell_volume 1311.240798
_symmetry_space_group_name_H-M "A M M 2"
_symmetry_group_IT_number 38
_symmetry_cell_setting 'orthorhombic'
loop_
_space_group_symop_operation_xyz
x,y,z
-x,-y,z
-x,y,z
x,-y,z
x,1/2+y,1/2+z
-x,1/2-y,1/2+z
-x,1/2+y,1/2+z
x,1/2-y,1/2+z
loop_
_atom_site_type_symbol
_atom_site_label
_atom_site_fract_x
_atom_site_fract_y
_atom_site_fract_z
Si Si1 0.310559 0.668538 0.679330
Si Si2 0.188227 0.835581 0.811475
Si Si3 0.000000 0.325366 0.579264
Si Si4 0.000000 0.175604 0.426034
O O1 0.500000 0.684753 0.645020
O O2 0.269210 0.500000 0.700361
O O3 0.311212 0.760446 0.753531
O O4 0.169548 0.723435 0.622577
O O5 0.000000 0.845531 0.775414
O O6 0.170023 0.739103 0.885383
O O7 0.257071 0.000000 0.830561
O O8 0.000000 0.231162 0.507172
O O9 0.000000 0.500000 0.561671
O O10 0.000000 0.000000 0.423175
#
# Coordination Sequence:
#
# PCOD8178378 Si02
#       4
#     8   8   4   4
#     4  10  20  34  56  83 108 140 180 218 262 317
#     4   9  18  33  54  79 105 136 177 217 262 315
#     4  10  19  34  53  75 111 145 173 218 269 318
#     4  10  19  32  55  79 103 141 183 224 269 314
#
# _framework density 18.303274999999999
#
# number of rings (size 3 to 8) (size 9 to 14) (size 15 to 20)
#    1.000    1.333    1.667    2.000    0.000    2.000 
#    0.000    1.667    0.000    6.000    0.000    0.000 
#    0.000    0.000    0.000    0.000    0.000    0.000 
#
# Total GULP energy -148696.353170 kJ/mol
# GULP energy per Si atom -12391.362764 kJ/mol
# Density = 1.826162 g / cm^3
# Si number density = 18.303275 Si / 1000 Ang^3
#
#
#
# Elastic Constant Matrix: (Units=GPa)
#
#
# Indices 1 2 3 4 5 6 
#
# 1 93.4409 31.5022 49.5199 0.0000 0.0000 0.0000
# 2 31.5022 127.9390 74.6464 0.0000 0.0000 0.0000
# 3 49.5199 74.6464 133.0275 0.0000 0.0000 0.0000
# 4 0.0000 0.0000 0.0000 36.9505 0.0000 0.0000
# 5 0.0000 0.0000 0.0000 0.0000 11.5359 0.0000
# 6 0.0000 0.0000 0.0000 0.0000 0.0000 15.5621
#
#
#
# Elastic Compliance Matrix: (Units=1/GPa)
#
#
# Indices 1 2 3 4 5 6 
#
# 1 0.013361 -0.000577 -0.004650 0.000000 0.000000 0.000000
# 2 -0.000577 0.011646 -0.006320 0.000000 0.000000 0.000000
# 3 -0.004650 -0.006320 0.012795 0.000000 0.000000 0.000000
# 4 0.000000 0.000000 0.000000 0.027063 0.000000 0.000000
# 5 0.000000 0.000000 0.000000 0.000000 0.086686 0.000000
# 6 0.000000 0.000000 0.000000 0.000000 0.000000 0.064259
#
#
# Mechanical properties :
#
#
# Convention : Reuss Voigt Hill
#
# Bulk Modulus (GPa) = 67.99285 73.97160 70.98223
# Shear Modulus (GPa) = 20.50818 26.05895 23.28356
#
# Velocity S-wave (km/s) = 3.35097 3.77733 3.57052
# Velocity P-wave (km/s) = 7.22499 7.71534 7.47419
#
# Compressibility (1/GPa) = 0.01470743
#
# Stress axis : x y z
#
# Youngs Moduli (GPa) = 74.84664 85.86827 78.15778
#
# Poissons Ratio (x) = 0.04953 0.36343
# Poissons Ratio (y) = 0.04317 0.49397
# Poissons Ratio (z) = 0.34803 0.54270
#
# Static dielectric constant tensor:
#      x y z
#    x 3.190390 0.000000 0.000000 
#    y 0.000000 3.352470 0.000000 
#    z 0.000000 0.000000 3.084290 
# 
# 
# High freq. dielectric constant tensor:
#      x y z
#    x 1.687360 0.000000 0.000000 
#    y 0.000000 1.713430 0.000000 
#    z 0.000000 0.000000 1.689850 
# 
# From -- ./inp_files/11190.got.cif
#   From: 2010.03.12/outbox.cif.g09.slc.cpg/sg38_6_cif.got.tgz:11190.got - 2010.04.14 02:38:36.
