data_PCOD8178876
_publ_section_title
;
Structure prediction by ZEFSAII (Michael W. Deem and Ramdas Pophale) SiO2 
 PCOD8178876
Probable space group: A M M 2
;
_chemical_formula_sum "Si O2"
_cell_formula_units_Z 64
_cell_length_a 9.101481
_cell_length_b 14.233175
_cell_length_c 28.062476
_cell_angle_alpha 90.000000
_cell_angle_beta 90.000000
_cell_angle_gamma 90.000000
_cell_volume 3635.296538
_symmetry_space_group_name_H-M "A M M 2"
_symmetry_group_IT_number 38
_symmetry_cell_setting 'orthorhombic'
loop_
_space_group_symop_operation_xyz
x,y,z
-x,-y,z
-x,y,z
x,-y,z
x,1/2+y,1/2+z
-x,1/2-y,1/2+z
-x,1/2+y,1/2+z
x,1/2-y,1/2+z
loop_
_atom_site_type_symbol
_atom_site_label
_atom_site_fract_x
_atom_site_fract_y
_atom_site_fract_z
Si Si1 0.167674 0.105376 0.709430
Si Si2 0.329299 0.893371 0.351300
Si Si3 0.173583 0.779092 0.886982
Si Si4 0.168881 0.790270 0.160068
Si Si5 0.170810 0.392264 0.479498
Si Si6 0.334100 0.610371 0.742112
Si Si7 0.327157 0.892345 0.075933
Si Si8 0.332203 0.890073 0.804751
O O1 0.191111 0.177853 0.665866
O O2 0.273177 0.135387 0.752519
O O3 0.000000 0.110577 0.727962
O O4 0.205277 0.000000 0.691284
O O5 0.500000 0.884019 0.364033
O O6 0.235948 0.826682 0.385990
O O7 0.301702 0.862199 0.296725
O O8 0.275849 0.000000 0.359398
O O9 0.223173 0.827082 0.936201
O O10 0.237519 0.837943 0.843769
O O11 0.000000 0.777184 0.882145
O O12 0.216585 0.838301 0.209290
O O13 0.266548 0.824982 0.116643
O O14 0.000000 0.816153 0.150031
O O15 0.206037 0.500000 0.465954
O O16 0.260317 0.360303 0.525773
O O17 0.000000 0.378549 0.490868
O O18 0.500000 0.640347 0.728059
O O19 0.316061 0.500000 0.734801
O O20 0.500000 0.879959 0.073272
O O21 0.283140 0.000000 0.087566
O O22 0.500000 0.855587 0.808002
O O23 0.317162 0.000000 0.814554
#
# Coordination Sequence:
#
# PCOD8178876 Si02
#       8
#     8   8   8   8   8   8   8   8
#     4   9  19  35  51  69  98 134 170 208 248 289
#     4   9  19  35  52  71 100 138 175 212 252 290
#     4  11  21  32  51  77 103 133 168 206 251 301
#     4  11  21  31  49  75  99 128 165 202 244 294
#     4   9  19  36  55  75 101 130 159 196 244 296
#     4   9  18  32  48  68  98 134 168 202 242 287
#     4  10  21  36  54  76 101 128 157 194 244 298
#     4  10  20  32  48  73 104 137 172 208 247 295
#
# _framework density 17.605167000000002
#
# number of rings (size 3 to 8) (size 9 to 14) (size 15 to 20)
#    0.000    2.250    0.000    3.750    0.000    8.500 
#    0.000    2.500    0.000    0.750    0.000    1.750 
#    0.000    0.000    0.000    0.000    0.000    0.000 
#
# Total GULP energy -396872.276540 kJ/mol
# GULP energy per Si atom -12402.258642 kJ/mol
# Density = 1.756510 g / cm^3
# Si number density = 17.605167 Si / 1000 Ang^3
#
#
#
# Elastic Constant Matrix: (Units=GPa)
#
#
# Indices 1 2 3 4 5 6 
#
# 1 64.2460 45.0757 46.4714 0.0000 0.0000 0.0000
# 2 45.0757 77.5165 73.4010 0.0000 0.0000 0.0000
# 3 46.4714 73.4010 98.0259 0.0000 0.0000 0.0000
# 4 0.0000 0.0000 0.0000 28.6878 0.0000 0.0000
# 5 0.0000 0.0000 0.0000 0.0000 24.9113 0.0000
# 6 0.0000 0.0000 0.0000 0.0000 0.0000 28.8919
#
#
#
# Elastic Compliance Matrix: (Units=1/GPa)
#
#
# Indices 1 2 3 4 5 6 
#
# 1 0.026644 -0.012142 -0.003539 0.000000 0.000000 0.000000
# 2 -0.012142 0.049871 -0.031586 0.000000 0.000000 0.000000
# 3 -0.003539 -0.031586 0.035531 0.000000 0.000000 0.000000
# 4 0.000000 0.000000 0.000000 0.034858 0.000000 0.000000
# 5 0.000000 0.000000 0.000000 0.000000 0.040142 0.000000
# 6 0.000000 0.000000 0.000000 0.000000 0.000000 0.034612
#
#
# Mechanical properties :
#
#
# Convention : Reuss Voigt Hill
#
# Bulk Modulus (GPa) = 57.11036 63.29828 60.20432
# Shear Modulus (GPa) = 15.52645 21.48757 18.50701
#
# Velocity S-wave (km/s) = 2.97295 3.49739 3.24578
# Velocity P-wave (km/s) = 6.65541 7.23474 6.95111
#
# Compressibility (1/GPa) = 0.01750996
#
# Stress axis : x y z
#
# Youngs Moduli (GPa) = 37.53132 20.05189 28.14440
#
# Poissons Ratio (x) = 0.24347 0.09962
# Poissons Ratio (y) = 0.45571 0.88898
# Poissons Ratio (z) = 0.13284 0.63337
#
# Static dielectric constant tensor:
#      x y z
#    x 3.320580 0.000000 0.000000 
#    y 0.000000 3.421930 0.000000 
#    z 0.000000 0.000000 3.123370 
# 
# 
# High freq. dielectric constant tensor:
#      x y z
#    x 1.687620 0.000000 0.000000 
#    y 0.000000 1.684170 0.000000 
#    z 0.000000 0.000000 1.658640 
# 
# From -- ./inp_files/22150.got.cif
#   From: 2010.03.12/outbox.cif.g09.slc.cpg/sg38_12_cif.got.tgz:22150.got - 2010.04.14 02:38:36.
