data_PCOD8178646
_publ_section_title
;
Structure prediction by ZEFSAII (Michael W. Deem and Ramdas Pophale) SiO2 
 PCOD8178646
Probable space group: A M M 2
;
_chemical_formula_sum "Si O2"
_cell_formula_units_Z 64
_cell_length_a 8.941446
_cell_length_b 15.220848
_cell_length_c 23.890928
_cell_angle_alpha 90.000000
_cell_angle_beta 90.000000
_cell_angle_gamma 90.000000
_cell_volume 3251.469066
_symmetry_space_group_name_H-M "A M M 2"
_symmetry_group_IT_number 38
_symmetry_cell_setting 'orthorhombic'
loop_
_space_group_symop_operation_xyz
x,y,z
-x,-y,z
-x,y,z
x,-y,z
x,1/2+y,1/2+z
-x,1/2-y,1/2+z
-x,1/2+y,1/2+z
x,1/2-y,1/2+z
loop_
_atom_site_type_symbol
_atom_site_label
_atom_site_fract_x
_atom_site_fract_y
_atom_site_fract_z
Si Si1 0.670947 0.352257 0.107490
Si Si2 0.829184 0.098951 0.221901
Si Si3 0.676390 0.258034 0.916683
Si Si4 0.329204 0.853532 0.112478
Si Si5 0.829115 0.598502 0.217405
Si Si6 0.173618 0.898412 0.491794
Si Si7 0.322390 0.597221 0.490139
Si Si8 0.675320 0.251701 0.287310
O O1 0.500000 0.384087 0.105807
O O2 0.681663 0.249996 0.120961
O O3 0.756674 0.403108 0.156086
O O4 0.743545 0.373796 0.048506
O O5 0.771952 0.099594 0.158372
O O6 0.731302 0.161657 0.260513
O O7 0.000000 0.131332 0.223138
O O8 0.814811 0.000000 0.245295
O O9 0.500000 0.270071 0.926366
O O10 0.759246 0.342912 0.940773
O O11 0.718446 0.248774 0.852116
O O12 0.738022 0.170096 0.947052
O O13 0.500000 0.885893 0.119041
O O14 0.263649 0.880424 0.052160
O O15 0.817515 0.500000 0.241994
O O16 0.746680 0.662999 0.259607
O O17 0.000000 0.629115 0.211453
O O18 0.000000 0.876018 0.499130
O O19 0.199165 0.000000 0.476974
O O20 0.500000 0.600619 0.490352
O O21 0.265722 0.500000 0.472259
O O22 0.500000 0.257914 0.277144
#
# Coordination Sequence:
#
# PCOD8178646 Si02
#       8
#     8   8   8   8   8   8   8   8
#     4  11  21  36  62  93 123 156 197 247 300 356
#     4  11  24  40  60  87 121 159 197 244 302 363
#     4  10  22  41  62  87 117 152 201 252 297 348
#     4  10  19  34  60  90 120 154 192 238 293 355
#     4  11  24  41  62  89 123 161 200 246 302 365
#     4  11  24  40  60  88 122 161 201 243 299 362
#     4   9  17  33  59  88 117 148 182 228 287 347
#     4  11  24  41  63  88 117 157 204 256 306 355
#
# _framework density 19.683409000000001
#
# number of rings (size 3 to 8) (size 9 to 14) (size 15 to 20)
#    0.000    1.500    2.500    2.625    0.000    7.500 
#    0.000    3.750    0.000    0.375    0.000    0.000 
#    0.000    0.000    0.000    0.000    0.000    0.000 
#
# Total GULP energy -396923.260505 kJ/mol
# GULP energy per Si atom -12403.851891 kJ/mol
# Density = 1.963861 g / cm^3
# Si number density = 19.683409 Si / 1000 Ang^3
#
#
#
# Elastic Constant Matrix: (Units=GPa)
#
#
# Indices 1 2 3 4 5 6 
#
# 1 103.3920 43.9310 64.2557 0.0000 0.0000 0.0000
# 2 43.9310 107.1306 48.3296 0.0000 0.0000 0.0000
# 3 64.2557 48.3296 125.1817 0.0000 0.0000 0.0000
# 4 0.0000 0.0000 0.0000 10.2190 0.0000 0.0000
# 5 0.0000 0.0000 0.0000 0.0000 6.0409 0.0000
# 6 0.0000 0.0000 0.0000 0.0000 0.0000 20.3373
#
#
#
# Elastic Compliance Matrix: (Units=1/GPa)
#
#
# Indices 1 2 3 4 5 6 
#
# 1 0.015088 -0.003261 -0.006486 0.000000 0.000000 0.000000
# 2 -0.003261 0.012008 -0.002962 0.000000 0.000000 0.000000
# 3 -0.006486 -0.002962 0.012461 0.000000 0.000000 0.000000
# 4 0.000000 0.000000 0.000000 0.097857 0.000000 0.000000
# 5 0.000000 0.000000 0.000000 0.000000 0.165538 0.000000
# 6 0.000000 0.000000 0.000000 0.000000 0.000000 0.049171
#
#
# Mechanical properties :
#
#
# Convention : Reuss Voigt Hill
#
# Bulk Modulus (GPa) = 70.72461 72.08188 71.40325
# Shear Modulus (GPa) = 13.08030 19.26531 16.17281
#
# Velocity S-wave (km/s) = 2.58065 3.13191 2.86955
# Velocity P-wave (km/s) = 6.69991 7.05539 6.87995
#
# Compressibility (1/GPa) = 0.01413935
#
# Stress axis : x y z
#
# Youngs Moduli (GPa) = 66.27607 83.27775 80.25018
#
# Poissons Ratio (x) = 0.27160 0.52048
# Poissons Ratio (y) = 0.21615 0.23770
# Poissons Ratio (z) = 0.42985 0.24666
#
# Static dielectric constant tensor:
#      x y z
#    x 3.669090 0.000000 0.000000 
#    y 0.000000 3.841920 0.000000 
#    z 0.000000 0.000000 3.581090 
# 
# 
# High freq. dielectric constant tensor:
#      x y z
#    x 1.760390 0.000000 0.000000 
#    y 0.000000 1.783470 0.000000 
#    z 0.000000 0.000000 1.764850 
# 
# From -- ./inp_files/22190.got.cif
#   From: 2010.03.12/outbox.cif.g09.slc.cpg/sg38_12_cif.got.tgz:22190.got - 2010.04.14 02:38:36.
