data_PCOD8178951
_publ_section_title
;
Structure prediction by ZEFSAII (Michael W. Deem and Ramdas Pophale) SiO2 
 PCOD8178951
Probable space group: A M M 2
;
_chemical_formula_sum "Si O2"
_cell_formula_units_Z 56
_cell_length_a 14.281908
_cell_length_b 9.026171
_cell_length_c 24.138625
_cell_angle_alpha 90.000000
_cell_angle_beta 90.000000
_cell_angle_gamma 90.000000
_cell_volume 3111.732931
_symmetry_space_group_name_H-M "A M M 2"
_symmetry_group_IT_number 38
_symmetry_cell_setting 'orthorhombic'
loop_
_space_group_symop_operation_xyz
x,y,z
-x,-y,z
-x,y,z
x,-y,z
x,1/2+y,1/2+z
-x,1/2-y,1/2+z
-x,1/2+y,1/2+z
x,1/2-y,1/2+z
loop_
_atom_site_type_symbol
_atom_site_label
_atom_site_fract_x
_atom_site_fract_y
_atom_site_fract_z
Si Si1 0.000000 0.664374 0.252610
Si Si2 0.812360 0.825245 0.250840
Si Si3 0.108567 0.672669 0.934994
Si Si4 0.187342 0.825276 0.124453
Si Si5 0.242951 0.171838 0.852686
Si Si6 0.392588 0.670156 0.443651
Si Si7 0.000000 0.335785 0.122290
Si Si8 0.738130 0.827513 0.524616
O O1 0.089572 0.757137 0.271147
O O2 0.000000 0.500000 0.279766
O O3 0.000000 0.646913 0.187375
O O4 0.787410 0.780239 0.187672
O O5 0.738714 0.755212 0.294022
O O6 0.816944 0.000000 0.257077
O O7 0.118165 0.500000 0.920334
O O8 0.152047 0.764140 0.884234
O O9 0.000000 0.718029 0.944145
O O10 0.167179 0.710282 0.990507
O O11 0.264668 0.760235 0.082940
O O12 0.090612 0.754057 0.103612
O O13 0.179225 0.000000 0.118685
O O14 0.337138 0.200379 0.887057
O O15 0.224922 0.000000 0.841207
O O16 0.500000 0.711136 0.432808
O O17 0.379989 0.500000 0.462389
O O18 0.353162 0.775412 0.491479
O O19 0.000000 0.500000 0.094316
O O20 0.729651 0.000000 0.537508
#
# Coordination Sequence:
#
# PCOD8178951 Si02
#       8
#     4   8   8   8   8   8   4   8
#     4   9  17  29  45  66  93 132 181 221 250 286
#     4  10  20  33  49  70 103 143 179 214 256 305
#     4   9  19  34  49  68 100 140 173 206 256 310
#     4  10  20  33  49  72 103 142 183 217 254 307
#     4  10  20  33  52  78 103 130 173 218 259 309
#     4   9  19  38  61  81 103 132 166 211 268 325
#     4   9  17  29  45  66  95 134 179 221 256 290
#     4  10  20  33  53  80 106 135 174 217 262 310
#
# _framework density 17.996402
#
# number of rings (size 3 to 8) (size 9 to 14) (size 15 to 20)
#    0.000    2.429    0.000    2.143    2.000    5.143 
#    0.000    0.000    0.000    0.857    0.000    4.000 
#    0.000    0.000    0.000    0.000    0.000    0.000 
#
# Total GULP energy -347179.368944 kJ/mol
# GULP energy per Si atom -12399.263177 kJ/mol
# Density = 1.795544 g / cm^3
# Si number density = 17.996402 Si / 1000 Ang^3
#
#
#
# Elastic Constant Matrix: (Units=GPa)
#
#
# Indices 1 2 3 4 5 6 
#
# 1 95.5353 36.3533 43.2309 0.0000 0.0000 0.0000
# 2 36.3533 98.9634 63.1116 0.0000 0.0000 0.0000
# 3 43.2309 63.1116 116.2839 0.0000 0.0000 0.0000
# 4 0.0000 0.0000 0.0000 33.6427 0.0000 0.0000
# 5 0.0000 0.0000 0.0000 0.0000 15.9538 0.0000
# 6 0.0000 0.0000 0.0000 0.0000 0.0000 23.3040
#
#
#
# Elastic Compliance Matrix: (Units=1/GPa)
#
#
# Indices 1 2 3 4 5 6 
#
# 1 0.013005 -0.002591 -0.003429 0.000000 0.000000 0.000000
# 2 -0.002591 0.015969 -0.007704 0.000000 0.000000 0.000000
# 3 -0.003429 -0.007704 0.014056 0.000000 0.000000 0.000000
# 4 0.000000 0.000000 0.000000 0.029724 0.000000 0.000000
# 5 0.000000 0.000000 0.000000 0.000000 0.062681 0.000000
# 6 0.000000 0.000000 0.000000 0.000000 0.000000 0.042911
#
#
# Mechanical properties :
#
#
# Convention : Reuss Voigt Hill
#
# Bulk Modulus (GPa) = 64.17277 66.24158 65.20717
# Shear Modulus (GPa) = 23.69813 25.78589 24.74201
#
# Velocity S-wave (km/s) = 3.63275 3.78939 3.71189
# Velocity P-wave (km/s) = 7.30287 7.48559 7.39479
#
# Compressibility (1/GPa) = 0.01558293
#
# Stress axis : x y z
#
# Youngs Moduli (GPa) = 76.89561 62.61943 71.14565
#
# Poissons Ratio (x) = 0.16222 0.24394
# Poissons Ratio (y) = 0.19920 0.54812
# Poissons Ratio (z) = 0.26366 0.48243
#
# Static dielectric constant tensor:
#      x y z
#    x 3.098900 0.000000 0.000000 
#    y 0.000000 3.418390 0.000000 
#    z 0.000000 0.000000 3.383680 
# 
# 
# High freq. dielectric constant tensor:
#      x y z
#    x 1.658530 0.000000 0.000000 
#    y 0.000000 1.709130 0.000000 
#    z 0.000000 0.000000 1.699600 
# 
# From -- ./inp_files/21117.got.cif
#   From: 2010.03.12/outbox.cif.g09.slc.cpg/sg38_11_cif.got.tgz:21117.got - 2010.04.14 02:38:36.
