data_PCOD8178282
_publ_section_title
;
Structure prediction by ZEFSAII (Michael W. Deem and Ramdas Pophale) SiO2 
 PCOD8178282
Probable space group: A M M 2
;
_chemical_formula_sum "Si O2"
_cell_formula_units_Z 40
_cell_length_a 12.704645
_cell_length_b 8.874144
_cell_length_c 20.163454
_cell_angle_alpha 90.000000
_cell_angle_beta 90.000000
_cell_angle_gamma 90.000000
_cell_volume 2273.285254
_symmetry_space_group_name_H-M "A M M 2"
_symmetry_group_IT_number 38
_symmetry_cell_setting 'orthorhombic'
loop_
_space_group_symop_operation_xyz
x,y,z
-x,-y,z
-x,y,z
x,-y,z
x,1/2+y,1/2+z
-x,1/2-y,1/2+z
-x,1/2+y,1/2+z
x,1/2-y,1/2+z
loop_
_atom_site_type_symbol
_atom_site_label
_atom_site_fract_x
_atom_site_fract_y
_atom_site_fract_z
Si Si1 0.268665 0.173359 0.921630
Si Si2 0.725858 0.819871 0.564453
Si Si3 0.500000 0.169832 0.936591
Si Si4 0.120650 0.324379 0.179528
Si Si5 0.500000 0.672846 0.069452
Si Si6 0.119897 0.677599 0.815331
O O1 0.390618 0.189906 0.896007
O O2 0.193777 0.262597 0.872828
O O3 0.233984 0.000000 0.922124
O O4 0.252443 0.238820 0.995088
O O5 0.813673 0.767702 0.616370
O O6 0.612401 0.763100 0.595172
O O7 0.726505 0.000000 0.552889
O O8 0.500000 0.000000 0.968192
O O9 0.500000 0.300321 0.990848
O O10 0.138772 0.500000 0.192234
O O11 0.160329 0.239202 0.244895
O O12 0.000000 0.285749 0.163793
O O13 0.500000 0.500000 0.087026
O O14 0.127269 0.500000 0.814051
O O15 0.000000 0.731861 0.828271
#
# Coordination Sequence:
#
# PCOD8178282 Si02
#       6
#     8   8   4   8   4   8
#     4  10  19  32  52  76 101 129 163 202 242 288
#     4   9  17  30  49  73  99 127 160 198 239 284
#     4   8  16  30  47  70  99 129 159 195 241 286
#     4   9  18  33  51  69  93 127 163 199 242 290
#     4   8  14  26  45  68  95 127 159 191 233 284
#     4  10  21  36  52  70  96 130 166 205 248 292
#
# _framework density 17.595680999999999
#
# number of rings (size 3 to 8) (size 9 to 14) (size 15 to 20)
#    0.000    2.800    0.000    1.200    0.000    3.600 
#    0.000    3.000    0.000    3.600    0.000    0.000 
#    0.000    0.000    0.000    0.000    0.000    0.000 
#
# Total GULP energy -247802.380237 kJ/mol
# GULP energy per Si atom -12390.119012 kJ/mol
# Density = 1.755563 g / cm^3
# Si number density = 17.595681 Si / 1000 Ang^3
#
#
#
# Elastic Constant Matrix: (Units=GPa)
#
#
# Indices 1 2 3 4 5 6 
#
# 1 113.2150 26.9771 74.7586 0.0000 0.0000 0.0000
# 2 26.9771 35.1518 30.5074 0.0000 0.0000 0.0000
# 3 74.7586 30.5074 105.9072 0.0000 0.0000 0.0000
# 4 0.0000 0.0000 0.0000 29.9504 0.0000 0.0000
# 5 0.0000 0.0000 0.0000 0.0000 -1.6054 0.0000
# 6 0.0000 0.0000 0.0000 0.0000 0.0000 21.6754
#
#
#
# Elastic Compliance Matrix: (Units=1/GPa)
#
#
# Indices 1 2 3 4 5 6 
#
# 1 0.016858 -0.003480 -0.010897 0.000000 0.000000 0.000000
# 2 -0.003480 0.038649 -0.008677 0.000000 0.000000 0.000000
# 3 -0.010897 -0.008677 0.019634 0.000000 0.000000 0.000000
# 4 0.000000 0.000000 0.000000 0.033389 0.000000 0.000000
# 5 0.000000 0.000000 0.000000 0.000000 -0.622897 0.000000
# 6 0.000000 0.000000 0.000000 0.000000 0.000000 0.046135
#
#
# Mechanical properties :
#
#
# Convention : Reuss Voigt Hill
#
# Bulk Modulus (GPa) = 34.44381 57.64000 46.04191
# Shear Modulus (GPa) = -12.12276 18.13947 3.00835
#
# Velocity S-wave (km/s) = -2.62766 3.21425 1.30898
# Velocity P-wave (km/s) = 3.22669 6.82674 5.33929
#
# Compressibility (1/GPa) = 0.02903279
#
# Stress axis : x y z
#
# Youngs Moduli (GPa) = 59.32032 25.87394 50.93252
#
# Poissons Ratio (x) = 0.09004 0.55502
# Poissons Ratio (y) = 0.20643 0.44193
# Poissons Ratio (z) = 0.64642 0.22450
#
# Static dielectric constant tensor:
#      x y z
#    x 3.717160 0.000000 0.000000 
#    y 0.000000 3.270580 0.000000 
#    z 0.000000 0.000000 3.044600 
# 
# 
# High freq. dielectric constant tensor:
#      x y z
#    x 1.696610 0.000000 0.000000 
#    y 0.000000 1.680160 0.000000 
#    z 0.000000 0.000000 1.649930 
# 
# From -- ./inp_files/14297.got.cif
#   From: 2010.03.12/outbox.cif.g09.slc.cpg/sg38_8_cif.got.tgz:14297.got - 2010.04.14 02:38:36.
