data_PCOD8178786
_publ_section_title
;
Structure prediction by ZEFSAII (Michael W. Deem and Ramdas Pophale) SiO2 
 PCOD8178786
Probable space group: A M M 2
;
_chemical_formula_sum "Si O2"
_cell_formula_units_Z 48
_cell_length_a 7.806359
_cell_length_b 9.333660
_cell_length_c 34.509457
_cell_angle_alpha 90.000000
_cell_angle_beta 90.000000
_cell_angle_gamma 90.000000
_cell_volume 2514.424631
_symmetry_space_group_name_H-M "A M M 2"
_symmetry_group_IT_number 38
_symmetry_cell_setting 'orthorhombic'
loop_
_space_group_symop_operation_xyz
x,y,z
-x,-y,z
-x,y,z
x,-y,z
x,1/2+y,1/2+z
-x,1/2-y,1/2+z
-x,1/2+y,1/2+z
x,1/2-y,1/2+z
loop_
_atom_site_type_symbol
_atom_site_label
_atom_site_fract_x
_atom_site_fract_y
_atom_site_fract_z
Si Si1 0.691675 0.828910 0.206640
Si Si2 0.301831 0.333923 0.397635
Si Si3 0.195222 0.336864 0.541134
Si Si4 0.695887 0.342927 0.970359
Si Si5 0.000000 0.170437 0.260051
Si Si6 0.298947 0.659273 0.622293
Si Si7 0.000000 0.666075 0.339695
O O1 0.500000 0.776377 0.218605
O O2 0.742115 0.766124 0.163844
O O3 0.830351 0.774656 0.237589
O O4 0.691147 0.000000 0.203627
O O5 0.500000 0.295859 0.386555
O O6 0.286897 0.500000 0.408658
O O7 0.228374 0.248293 0.434725
O O8 0.174335 0.295483 0.362583
O O9 0.268600 0.500000 0.540530
O O10 0.294506 0.239944 0.510757
O O11 0.216566 0.266651 0.584219
O O12 0.000000 0.335614 0.528296
O O13 0.500000 0.366071 0.960360
O O14 0.785852 0.500000 0.973070
O O15 0.000000 0.237151 0.302025
O O16 0.000000 0.000000 0.263612
O O17 0.500000 0.655448 0.616020
O O18 0.220553 0.500000 0.623758
O O19 0.000000 0.500000 0.327840
#
# Coordination Sequence:
#
# PCOD8178786 Si02
#       7
#     8   8   8   8   4   8   4
#     4   8  15  28  47  74 106 136 168 210 258 302
#     4   9  19  37  59  79 101 133 172 214 257 304
#     4  10  20  30  46  75 106 137 175 216 256 301
#     4  10  21  36  53  74 102 137 173 212 260 310
#     4  10  20  32  52  79 104 133 167 206 255 308
#     4   8  14  26  45  69  98 133 172 214 254 289
#     4  10  22  38  56  79 106 133 165 206 257 316
#
# _framework density 19.089853999999999
#
# number of rings (size 3 to 8) (size 9 to 14) (size 15 to 20)
#    0.000    2.833    0.000    2.000    2.333    3.333 
#    0.000    0.000    0.000    1.000    0.000    2.333 
#    0.000    0.000    0.000    0.000    0.000    0.000 
#
# Total GULP energy -297385.909828 kJ/mol
# GULP energy per Si atom -12391.079576 kJ/mol
# Density = 1.904641 g / cm^3
# Si number density = 19.089854 Si / 1000 Ang^3
#
#
#
# Elastic Constant Matrix: (Units=GPa)
#
#
# Indices 1 2 3 4 5 6 
#
# 1 86.1049 27.1710 62.8355 0.0000 0.0000 0.0000
# 2 27.1710 58.1264 55.2985 0.0000 0.0000 0.0000
# 3 62.8355 55.2985 161.2101 0.0000 0.0000 0.0000
# 4 0.0000 0.0000 0.0000 23.1100 0.0000 0.0000
# 5 0.0000 0.0000 0.0000 0.0000 32.3039 0.0000
# 6 0.0000 0.0000 0.0000 0.0000 0.0000 11.2809
#
#
#
# Elastic Compliance Matrix: (Units=1/GPa)
#
#
# Indices 1 2 3 4 5 6 
#
# 1 0.016445 -0.002359 -0.005601 0.000000 0.000000 0.000000
# 2 -0.002359 0.025876 -0.007957 0.000000 0.000000 0.000000
# 3 -0.005601 -0.007957 0.011115 0.000000 0.000000 0.000000
# 4 0.000000 0.000000 0.000000 0.043271 0.000000 0.000000
# 5 0.000000 0.000000 0.000000 0.000000 0.030956 0.000000
# 6 0.000000 0.000000 0.000000 0.000000 0.000000 0.088646
#
#
# Mechanical properties :
#
#
# Convention : Reuss Voigt Hill
#
# Bulk Modulus (GPa) = 46.28755 66.22795 56.25775
# Shear Modulus (GPa) = 19.58144 24.01470 21.79807
#
# Velocity S-wave (km/s) = 3.20621 3.55065 3.38282
# Velocity P-wave (km/s) = 6.16492 7.18175 6.69267
#
# Compressibility (1/GPa) = 0.02160408
#
# Stress axis : x y z
#
# Youngs Moduli (GPa) = 60.80744 38.64575 89.96534
#
# Poissons Ratio (x) = 0.09117 0.50388
# Poissons Ratio (y) = 0.14345 0.71581
# Poissons Ratio (z) = 0.34057 0.30749
#
# Static dielectric constant tensor:
#      x y z
#    x 3.597360 0.000000 0.000000 
#    y 0.000000 3.244530 0.000000 
#    z 0.000000 0.000000 3.525630 
# 
# 
# High freq. dielectric constant tensor:
#      x y z
#    x 1.745220 0.000000 0.000000 
#    y 0.000000 1.689950 0.000000 
#    z 0.000000 0.000000 1.747070 
# 
# From -- ./inp_files/24346.got.cif
#   From: 2010.03.12/outbox.cif.g09.slc.cpg/sg38_13_cif.got.tgz:24346.got - 2010.04.14 02:38:36.
