data_PCOD8178171
_publ_section_title
;
Structure prediction by ZEFSAII (Michael W. Deem and Ramdas Pophale) SiO2 
 PCOD8178171
Probable space group: A M M 2
;
_chemical_formula_sum "Si O2"
_cell_formula_units_Z 64
_cell_length_a 14.494293
_cell_length_b 8.931937
_cell_length_c 25.042712
_cell_angle_alpha 90.000000
_cell_angle_beta 90.000000
_cell_angle_gamma 90.000000
_cell_volume 3242.082384
_symmetry_space_group_name_H-M "A M M 2"
_symmetry_group_IT_number 38
_symmetry_cell_setting 'orthorhombic'
loop_
_space_group_symop_operation_xyz
x,y,z
-x,-y,z
-x,y,z
x,-y,z
x,1/2+y,1/2+z
-x,1/2-y,1/2+z
-x,1/2+y,1/2+z
x,1/2-y,1/2+z
loop_
_atom_site_type_symbol
_atom_site_label
_atom_site_fract_x
_atom_site_fract_y
_atom_site_fract_z
Si Si1 0.900524 0.328787 0.629030
Si Si2 0.398183 0.169535 0.298623
Si Si3 0.604932 0.321910 0.485820
Si Si4 0.703789 0.676476 0.592743
Si Si5 0.896021 0.173873 0.345220
Si Si6 0.139118 0.831275 0.734817
Si Si7 0.653396 0.169311 0.699378
Si Si8 0.721712 0.177357 0.885321
O O1 0.885051 0.500000 0.646663
O O2 0.813402 0.280532 0.592197
O O3 0.909122 0.231430 0.682166
O O4 0.000000 0.310180 0.598679
O O5 0.500000 0.173602 0.324773
O O6 0.409644 0.232996 0.238647
O O7 0.329577 0.273349 0.331715
O O8 0.359692 0.000000 0.297224
O O9 0.500000 0.259172 0.483847
O O10 0.602711 0.500000 0.484542
O O11 0.656943 0.263839 0.538689
O O12 0.663766 0.261005 0.435720
O O13 0.689135 0.500000 0.598990
O O14 0.652185 0.757746 0.641034
O O15 0.888482 0.232726 0.285134
O O16 0.825201 0.256776 0.385239
O O17 0.000000 0.201550 0.366444
O O18 0.870900 0.000000 0.344860
O O19 0.247345 0.826080 0.726285
O O20 0.104537 0.000000 0.744810
O O21 0.615979 0.000000 0.694622
O O22 0.729277 0.000000 0.886146
#
# Coordination Sequence:
#
# PCOD8178171 Si02
#       8
#     8   8   8   8   8   8   8   8
#     4   9  17  29  47  74 109 148 187 227 275 331
#     4  11  23  37  56  83 114 151 191 231 284 352
#     4   9  19  37  61  86 110 142 188 239 292 346
#     4   9  18  34  56  80 109 146 189 236 282 340
#     4  11  23  37  55  80 113 153 192 231 281 342
#     4  10  19  31  50  78 111 149 190 231 275 329
#     4  10  20  34  53  81 117 153 185 230 287 337
#     4  11  22  38  60  85 113 146 188 243 296 342
#
# _framework density 19.740399
#
# number of rings (size 3 to 8) (size 9 to 14) (size 15 to 20)
#    0.000    2.000    1.250    2.625    0.000    5.750 
#    0.000    3.125    0.000    3.750    0.000    0.000 
#    0.000    0.000    0.000    0.000    0.000    0.000 
#
# Total GULP energy -396723.704599 kJ/mol
# GULP energy per Si atom -12397.615769 kJ/mol
# Density = 1.969547 g / cm^3
# Si number density = 19.740399 Si / 1000 Ang^3
#
#
#
# Elastic Constant Matrix: (Units=GPa)
#
#
# Indices 1 2 3 4 5 6 
#
# 1 133.5695 39.2319 63.1818 0.0000 0.0000 0.0000
# 2 39.2319 85.8534 37.9643 0.0000 0.0000 0.0000
# 3 63.1818 37.9643 120.4645 0.0000 0.0000 0.0000
# 4 0.0000 0.0000 0.0000 23.3424 0.0000 0.0000
# 5 0.0000 0.0000 0.0000 0.0000 19.1289 0.0000
# 6 0.0000 0.0000 0.0000 0.0000 0.0000 18.7757
#
#
#
# Elastic Compliance Matrix: (Units=1/GPa)
#
#
# Indices 1 2 3 4 5 6 
#
# 1 0.010484 -0.002741 -0.004635 0.000000 0.000000 0.000000
# 2 -0.002741 0.014251 -0.003053 0.000000 0.000000 0.000000
# 3 -0.004635 -0.003053 0.011694 0.000000 0.000000 0.000000
# 4 0.000000 0.000000 0.000000 0.042840 0.000000 0.000000
# 5 0.000000 0.000000 0.000000 0.000000 0.052277 0.000000
# 6 0.000000 0.000000 0.000000 0.000000 0.000000 0.053260
#
#
# Mechanical properties :
#
#
# Convention : Reuss Voigt Hill
#
# Bulk Modulus (GPa) = 64.22529 68.96040 66.59284
# Shear Modulus (GPa) = 23.71282 25.55003 24.63143
#
# Velocity S-wave (km/s) = 3.46964 3.60154 3.53621
# Velocity P-wave (km/s) = 6.97544 7.23217 7.10497
#
# Compressibility (1/GPa) = 0.01557019
#
# Stress axis : x y z
#
# Youngs Moduli (GPa) = 95.37983 70.17234 85.51113
#
# Poissons Ratio (x) = 0.19237 0.39634
# Poissons Ratio (y) = 0.26148 0.26109
# Poissons Ratio (z) = 0.44208 0.21425
#
# Static dielectric constant tensor:
#      x y z
#    x 3.889630 0.000000 0.000000 
#    y 0.000000 3.538080 0.000000 
#    z 0.000000 0.000000 3.447550 
# 
# 
# High freq. dielectric constant tensor:
#      x y z
#    x 1.785600 0.000000 0.000000 
#    y 0.000000 1.761250 0.000000 
#    z 0.000000 0.000000 1.741660 
# 
# From -- ./inp_files/22900.got.cif
#   From: 2010.03.12/outbox.cif.g09.slc.cpg/sg38_12_cif.got.tgz:22900.got - 2010.04.14 02:38:36.
