data_PCOD8178225
_publ_section_title
;
Structure prediction by ZEFSAII (Michael W. Deem and Ramdas Pophale) SiO2 
 PCOD8178225
Probable space group: A M M 2
;
_chemical_formula_sum "Si O2"
_cell_formula_units_Z 64
_cell_length_a 19.080795
_cell_length_b 9.025177
_cell_length_c 20.120579
_cell_angle_alpha 90.000000
_cell_angle_beta 90.000000
_cell_angle_gamma 90.000000
_cell_volume 3464.915658
_symmetry_space_group_name_H-M "A M M 2"
_symmetry_group_IT_number 38
_symmetry_cell_setting 'orthorhombic'
loop_
_space_group_symop_operation_xyz
x,y,z
-x,-y,z
-x,y,z
x,-y,z
x,1/2+y,1/2+z
-x,1/2-y,1/2+z
-x,1/2+y,1/2+z
x,1/2-y,1/2+z
loop_
_atom_site_type_symbol
_atom_site_label
_atom_site_fract_x
_atom_site_fract_y
_atom_site_fract_z
Si Si1 0.080128 0.325755 0.644960
Si Si2 0.419288 0.823825 0.714680
Si Si3 0.808305 0.175794 0.038339
Si Si4 0.809836 0.323821 0.387667
Si Si5 0.340113 0.176181 0.844793
Si Si6 0.080148 0.174305 0.780445
Si Si7 0.577021 0.175833 0.968972
Si Si8 0.660934 0.674826 0.596519
O O1 0.088827 0.500000 0.655011
O O2 0.125627 0.270001 0.582129
O O3 0.107060 0.249678 0.712612
O O4 0.000000 0.280855 0.630005
O O5 0.500000 0.766002 0.709488
O O6 0.383396 0.764054 0.782020
O O7 0.368112 0.760422 0.659380
O O8 0.418838 0.000000 0.711183
O O9 0.738530 0.229924 0.076446
O O10 0.806135 0.000000 0.032696
O O11 0.813615 0.241293 0.963115
O O12 0.810001 0.500000 0.392804
O O13 0.740281 0.268591 0.348747
O O14 0.875349 0.267833 0.343612
O O15 0.377471 0.242751 0.909576
O O16 0.341924 0.000000 0.844977
O O17 0.000000 0.218706 0.794844
O O18 0.089530 0.000000 0.770912
O O19 0.500000 0.245145 0.964808
O O20 0.574701 0.000000 0.962743
O O21 0.609893 0.223680 0.037962
O O22 0.659538 0.500000 0.610465
#
# Coordination Sequence:
#
# PCOD8178225 Si02
#       8
#     8   8   8   8   8   8   8   8
#     4   9  18  32  50  72  99 132 165 195 234 287
#     4  10  21  34  48  70  99 128 160 199 242 290
#     4   9  17  30  48  73 101 126 159 203 244 282
#     4   9  16  28  47  71  98 125 156 199 244 280
#     4   9  16  28  45  68  95 122 155 196 238 279
#     4   9  18  31  49  75 102 127 158 197 240 285
#     4   9  15  25  45  69  90 116 154 197 235 272
#     4  10  19  32  50  73  98 124 158 201 243 287
#
# _framework density 18.470866999999998
#
# number of rings (size 3 to 8) (size 9 to 14) (size 15 to 20)
#    0.000    2.750    1.250    0.750    1.750    2.750 
#    0.000    2.500    0.000    2.250    0.000    3.500 
#    0.000    0.000    0.000    0.000    0.000    0.000 
#
# Total GULP energy -396645.236606 kJ/mol
# GULP energy per Si atom -12395.163644 kJ/mol
# Density = 1.842883 g / cm^3
# Si number density = 18.470867 Si / 1000 Ang^3
#
#
#
# Elastic Constant Matrix: (Units=GPa)
#
#
# Indices 1 2 3 4 5 6 
#
# 1 128.0383 12.9169 66.6986 0.0000 0.0000 0.0000
# 2 12.9169 10.1851 16.9579 0.0000 0.0000 0.0000
# 3 66.6986 16.9579 130.9865 0.0000 0.0000 0.0000
# 4 0.0000 0.0000 0.0000 21.8429 0.0000 0.0000
# 5 0.0000 0.0000 0.0000 0.0000 41.4666 0.0000
# 6 0.0000 0.0000 0.0000 0.0000 0.0000 14.9178
#
#
#
# Elastic Compliance Matrix: (Units=1/GPa)
#
#
# Indices 1 2 3 4 5 6 
#
# 1 0.010896 -0.005839 -0.004792 0.000000 0.000000 0.000000
# 2 -0.005839 0.128292 -0.013636 0.000000 0.000000 0.000000
# 3 -0.004792 -0.013636 0.011840 0.000000 0.000000 0.000000
# 4 0.000000 0.000000 0.000000 0.045781 0.000000 0.000000
# 5 0.000000 0.000000 0.000000 0.000000 0.024116 0.000000
# 6 0.000000 0.000000 0.000000 0.000000 0.000000 0.067034
#
#
# Mechanical properties :
#
#
# Convention : Reuss Voigt Hill
#
# Bulk Modulus (GPa) = 9.75677 51.37297 30.56487
# Shear Modulus (GPa) = 13.48958 27.15455 20.32206
#
# Velocity S-wave (km/s) = 2.70537 3.83839 3.32056
# Velocity P-wave (km/s) = 3.87974 6.89330 5.59330
#
# Compressibility (1/GPa) = 0.10249292
#
# Stress axis : x y z
#
# Youngs Moduli (GPa) = 91.78047 7.79475 84.46074
#
# Poissons Ratio (x) = 0.04552 0.40474
# Poissons Ratio (y) = 0.53593 1.15168
# Poissons Ratio (z) = 0.43982 0.10629
#
# Static dielectric constant tensor:
#      x y z
#    x 3.718250 0.000000 0.000000 
#    y 0.000000 2.801970 0.000000 
#    z 0.000000 0.000000 3.635150 
# 
# 
# High freq. dielectric constant tensor:
#      x y z
#    x 1.731890 0.000000 0.000000 
#    y 0.000000 1.650260 0.000000 
#    z 0.000000 0.000000 1.729550 
# 
# From -- ./inp_files/18786.got.cif
#   From: 2010.03.12/outbox.cif.g09.slc.cpg/sg38_10_cif.got.tgz:18786.got - 2010.04.14 02:38:36.
