data_PCOD8179342
_publ_section_title
;
Structure prediction by ZEFSAII (Michael W. Deem and Ramdas Pophale) SiO2 
 PCOD8179342
Probable space group: A M M 2
;
_chemical_formula_sum "Si O2"
_cell_formula_units_Z 64
_cell_length_a 18.995598
_cell_length_b 8.604220
_cell_length_c 20.255410
_cell_angle_alpha 90.000000
_cell_angle_beta 90.000000
_cell_angle_gamma 90.000000
_cell_volume 3310.590883
_symmetry_space_group_name_H-M "A M M 2"
_symmetry_group_IT_number 38
_symmetry_cell_setting 'orthorhombic'
loop_
_space_group_symop_operation_xyz
x,y,z
-x,-y,z
-x,y,z
x,-y,z
x,1/2+y,1/2+z
-x,1/2-y,1/2+z
-x,1/2+y,1/2+z
x,1/2-y,1/2+z
loop_
_atom_site_type_symbol
_atom_site_label
_atom_site_fract_x
_atom_site_fract_y
_atom_site_fract_z
Si Si1 0.079573 0.318302 0.549870
Si Si2 0.579474 0.179486 0.320746
Si Si3 0.920043 0.321584 0.190076
Si Si4 0.783864 0.320060 0.004489
Si Si5 0.420384 0.819263 0.678877
Si Si6 0.796290 0.319125 0.761295
Si Si7 0.713257 0.821291 0.128556
Si Si8 0.289397 0.682065 0.380911
O O1 0.090364 0.500000 0.538263
O O2 0.096191 0.282634 0.626167
O O3 0.133571 0.226293 0.502994
O O4 0.000000 0.265643 0.532170
O O5 0.500000 0.202793 0.347485
O O6 0.592464 0.276501 0.254766
O O7 0.633552 0.239500 0.375879
O O8 0.594755 0.000000 0.304214
O O9 0.904654 0.500000 0.171455
O O10 0.870747 0.265234 0.249515
O O11 0.000000 0.299124 0.214110
O O12 0.775998 0.500000 0.986573
O O13 0.753070 0.286620 0.076687
O O14 0.740920 0.218053 0.952670
O O15 0.500000 0.777728 0.657952
O O16 0.369188 0.722500 0.631029
O O17 0.404100 0.000000 0.669927
O O18 0.809967 0.500000 0.772192
O O19 0.744718 0.286243 0.700376
O O20 0.763101 0.249410 0.826728
O O21 0.722602 0.000000 0.107658
O O22 0.297506 0.500000 0.371119
#
# Coordination Sequence:
#
# PCOD8179342 Si02
#       8
#     8   8   8   8   8   8   8   8
#     4  10  20  36  59  87 119 154 195 242 292 349
#     4  10  20  36  59  87 119 154 195 242 292 349
#     4  10  20  34  56  88 121 154 196 245 297 350
#     4  12  25  41  62  87 121 158 199 246 296 353
#     4  10  20  34  56  88 121 154 196 245 297 350
#     4  11  22  37  60  88 119 154 196 243 293 348
#     4  11  22  37  60  88 119 154 196 243 293 348
#     4  12  25  41  62  87 121 158 199 246 296 353
#
# _framework density 19.331897999999999
#
# number of rings (size 3 to 8) (size 9 to 14) (size 15 to 20)
#    0.000    1.250    2.500    4.500    0.000    4.000 
#    0.000    1.250    0.000    7.500    0.000    0.000 
#    0.000    0.000    0.000    0.000    0.000    0.000 
#
# Total GULP energy -396976.350035 kJ/mol
# GULP energy per Si atom -12405.510939 kJ/mol
# Density = 1.928790 g / cm^3
# Si number density = 19.331898 Si / 1000 Ang^3
#
#
#
# Elastic Constant Matrix: (Units=GPa)
#
#
# Indices 1 2 3 4 5 6 
#
# 1 127.5645 34.3649 26.3313 0.0000 0.0000 0.0000
# 2 34.3649 72.0374 12.4261 0.0000 0.0000 0.0000
# 3 26.3313 12.4261 41.3350 0.0000 0.0000 0.0000
# 4 0.0000 0.0000 0.0000 30.6957 0.0000 0.0000
# 5 0.0000 0.0000 0.0000 0.0000 29.8631 0.0000
# 6 0.0000 0.0000 0.0000 0.0000 0.0000 36.8817
#
#
#
# Elastic Compliance Matrix: (Units=1/GPa)
#
#
# Indices 1 2 3 4 5 6 
#
# 1 0.009945 -0.003851 -0.005178 0.000000 0.000000 0.000000
# 2 -0.003851 0.016132 -0.002396 0.000000 0.000000 0.000000
# 3 -0.005178 -0.002396 0.028211 0.000000 0.000000 0.000000
# 4 0.000000 0.000000 0.000000 0.032578 0.000000 0.000000
# 5 0.000000 0.000000 0.000000 0.000000 0.033486 0.000000
# 6 0.000000 0.000000 0.000000 0.000000 0.000000 0.027114
#
#
# Mechanical properties :
#
#
# Convention : Reuss Voigt Hill
#
# Bulk Modulus (GPa) = 31.80827 43.02017 37.41422
# Shear Modulus (GPa) = 27.65539 30.67576 29.16557
#
# Velocity S-wave (km/s) = 3.78637 3.98778 3.88838
# Velocity P-wave (km/s) = 5.96699 6.59583 6.28928
#
# Compressibility (1/GPa) = 0.03143837
#
# Stress axis : x y z
#
# Youngs Moduli (GPa) = 100.54876 61.98767 35.44681
#
# Poissons Ratio (x) = 0.23873 0.18353
# Poissons Ratio (y) = 0.38724 0.08494
# Poissons Ratio (z) = 0.52061 0.14854
#
# Static dielectric constant tensor:
#      x y z
#    x 3.529000 0.000000 0.000000 
#    y 0.000000 3.601660 0.000000 
#    z 0.000000 0.000000 3.159860 
# 
# 
# High freq. dielectric constant tensor:
#      x y z
#    x 1.771010 0.000000 0.000000 
#    y 0.000000 1.768520 0.000000 
#    z 0.000000 0.000000 1.715070 
# 
# From -- ./inp_files/21343.got.cif
#   From: 2010.03.12/outbox.cif.g09.slc.cpg/sg38_11_cif.got.tgz:21343.got - 2010.04.14 02:38:36.
