data_PCOD8179991
_publ_section_title
;
Structure prediction by ZEFSAII (Michael W. Deem and Ramdas Pophale) SiO2 
 PCOD8179991
Probable space group: A M M 2
;
_chemical_formula_sum "Si O2"
_cell_formula_units_Z 64
_cell_length_a 18.907684
_cell_length_b 8.883778
_cell_length_c 19.696373
_cell_angle_alpha 90.000000
_cell_angle_beta 90.000000
_cell_angle_gamma 90.000000
_cell_volume 3308.432610
_symmetry_space_group_name_H-M "A M M 2"
_symmetry_group_IT_number 38
_symmetry_cell_setting 'orthorhombic'
loop_
_space_group_symop_operation_xyz
x,y,z
-x,-y,z
-x,y,z
x,-y,z
x,1/2+y,1/2+z
-x,1/2-y,1/2+z
-x,1/2+y,1/2+z
x,1/2-y,1/2+z
loop_
_atom_site_type_symbol
_atom_site_label
_atom_site_fract_x
_atom_site_fract_y
_atom_site_fract_z
Si Si1 0.078974 0.320988 0.485390
Si Si2 0.650481 0.328774 0.705322
Si Si3 0.341347 0.173636 0.440710
Si Si4 0.418371 0.172821 0.580153
Si Si5 0.079353 0.821310 0.136906
Si Si6 0.419616 0.328233 0.327266
Si Si7 0.806514 0.826963 0.241407
Si Si8 0.201358 0.821497 0.887623
O O1 0.080696 0.500000 0.486058
O O2 0.098460 0.261672 0.561205
O O3 0.134687 0.257907 0.430575
O O4 0.000000 0.265224 0.465496
O O5 0.629035 0.500000 0.723045
O O6 0.610580 0.282343 0.637473
O O7 0.629350 0.218412 0.765415
O O8 0.734729 0.313230 0.697778
O O9 0.369110 0.203632 0.515857
O O10 0.404439 0.223586 0.391427
O O11 0.271768 0.269577 0.425916
O O12 0.323500 0.000000 0.427580
O O13 0.500000 0.212157 0.563705
O O14 0.411962 0.000000 0.604162
O O15 0.132662 0.755300 0.193427
O O16 0.000000 0.770361 0.156343
O O17 0.085681 0.000000 0.136794
O O18 0.500000 0.306459 0.304257
O O19 0.402666 0.500000 0.346760
O O20 0.802426 0.737660 0.311372
O O21 0.822486 0.000000 0.259680
O O22 0.200981 0.000000 0.885263
#
# Coordination Sequence:
#
# PCOD8179991 Si02
#       8
#     8   8   8   8   8   8   8   8
#     4   8  16  32  55  84 114 146 188 234 280 333
#     4  11  23  37  57  85 118 153 190 234 283 341
#     4  11  23  40  60  84 115 152 192 237 288 346
#     4  10  23  42  61  82 111 147 188 237 292 347
#     4   8  15  31  56  83 111 147 191 235 279 330
#     4  11  23  39  61  86 113 147 190 239 287 339
#     4  10  21  36  55  82 116 150 189 235 280 334
#     4  11  22  35  57  85 116 153 191 236 286 338
#
# _framework density 19.344508000000001
#
# number of rings (size 3 to 8) (size 9 to 14) (size 15 to 20)
#    0.000    2.000    1.250    3.000    1.750    5.250 
#    0.000    0.000    0.000    1.125    0.000    3.500 
#    0.000    0.000    0.000    0.000    0.000    0.000 
#
# Total GULP energy -396804.547382 kJ/mol
# GULP energy per Si atom -12400.142106 kJ/mol
# Density = 1.930048 g / cm^3
# Si number density = 19.344508 Si / 1000 Ang^3
#
#
#
# Elastic Constant Matrix: (Units=GPa)
#
#
# Indices 1 2 3 4 5 6 
#
# 1 116.0356 35.4588 49.3588 0.0000 0.0000 0.0000
# 2 35.4588 45.3084 36.0955 0.0000 0.0000 0.0000
# 3 49.3588 36.0955 91.4754 0.0000 0.0000 0.0000
# 4 0.0000 0.0000 0.0000 26.0183 0.0000 0.0000
# 5 0.0000 0.0000 0.0000 0.0000 42.4849 0.0000
# 6 0.0000 0.0000 0.0000 0.0000 0.0000 17.8309
#
#
#
# Elastic Compliance Matrix: (Units=1/GPa)
#
#
# Indices 1 2 3 4 5 6 
#
# 1 0.012318 -0.006337 -0.004146 0.000000 0.000000 0.000000
# 2 -0.006337 0.035451 -0.010569 0.000000 0.000000 0.000000
# 3 -0.004146 -0.010569 0.017339 0.000000 0.000000 0.000000
# 4 0.000000 0.000000 0.000000 0.038434 0.000000 0.000000
# 5 0.000000 0.000000 0.000000 0.000000 0.023538 0.000000
# 6 0.000000 0.000000 0.000000 0.000000 0.000000 0.056083
#
#
# Mechanical properties :
#
#
# Convention : Reuss Voigt Hill
#
# Bulk Modulus (GPa) = 43.47170 54.96063 49.21616
# Shear Modulus (GPa) = 21.46515 26.06059 23.76287
#
# Velocity S-wave (km/s) = 3.33472 3.67438 3.50866
# Velocity P-wave (km/s) = 6.11132 6.81723 6.47390
#
# Compressibility (1/GPa) = 0.02300347
#
# Stress axis : x y z
#
# Youngs Moduli (GPa) = 81.17997 28.20831 57.67179
#
# Poissons Ratio (x) = 0.17877 0.23911
# Poissons Ratio (y) = 0.51447 0.60953
# Poissons Ratio (z) = 0.33658 0.29813
#
# Static dielectric constant tensor:
#      x y z
#    x 3.820530 0.000000 0.000000 
#    y 0.000000 3.339130 0.000000 
#    z 0.000000 0.000000 3.736230 
# 
# 
# High freq. dielectric constant tensor:
#      x y z
#    x 1.765190 0.000000 0.000000 
#    y 0.000000 1.730870 0.000000 
#    z 0.000000 0.000000 1.757640 
# 
# From -- ./inp_files/18902.got.cif
#   From: 2010.03.12/outbox.cif.g09.slc.cpg/sg38_10_cif.got.tgz:18902.got - 2010.04.14 02:38:36.
