data_PCOD8179261
_publ_section_title
;
Structure prediction by ZEFSAII (Michael W. Deem and Ramdas Pophale) SiO2 
 PCOD8179261
Probable space group: A M M 2
;
_chemical_formula_sum "Si O2"
_cell_formula_units_Z 40
_cell_length_a 7.839566
_cell_length_b 7.594509
_cell_length_c 32.699931
_cell_angle_alpha 90.000000
_cell_angle_beta 90.000000
_cell_angle_gamma 90.000000
_cell_volume 1946.877195
_symmetry_space_group_name_H-M "A M M 2"
_symmetry_group_IT_number 38
_symmetry_cell_setting 'orthorhombic'
loop_
_space_group_symop_operation_xyz
x,y,z
-x,-y,z
-x,y,z
x,-y,z
x,1/2+y,1/2+z
-x,1/2-y,1/2+z
-x,1/2+y,1/2+z
x,1/2-y,1/2+z
loop_
_atom_site_type_symbol
_atom_site_label
_atom_site_fract_x
_atom_site_fract_y
_atom_site_fract_z
Si Si1 0.697475 0.296525 0.567070
Si Si2 0.802262 0.697365 0.354538
Si Si3 0.000000 0.203529 0.127352
Si Si4 0.000000 0.800846 0.718584
Si Si5 0.699404 0.500000 0.004647
Si Si6 0.701520 0.000000 0.413871
Si Si7 0.685220 0.209528 0.767184
O O1 0.500000 0.259608 0.580352
O O2 0.721721 0.500000 0.554227
O O3 0.826561 0.245383 0.603478
O O4 0.753211 0.176347 0.528887
O O5 0.738364 0.500000 0.365816
O O6 0.710672 0.771114 0.313969
O O7 0.000000 0.694304 0.344012
O O8 0.765740 0.823682 0.392338
O O9 0.000000 0.304791 0.169835
O O10 0.000000 0.000000 0.137959
O O11 0.170155 0.709010 0.737181
O O12 0.000000 0.000000 0.734524
O O13 0.500000 0.500000 0.998620
O O14 0.782297 0.500000 0.959595
O O15 0.500000 0.000000 0.414634
O O16 0.500000 0.279122 0.752397
O O17 0.690835 0.000000 0.765621
#
# Coordination Sequence:
#
# PCOD8179261 Si02
#       7
#     8   8   4   4   4   4   8
#     4   9  19  38  61  83 114 153 190 238 293 347
#     4  10  20  38  60  82 118 164 203 247 297 350
#     4  10  22  38  56  84 113 147 192 233 290 362
#     4  10  20  34  54  82 113 143 186 246 295 343
#     4   9  20  38  60  86 117 153 197 242 289 351
#     4  11  23  37  57  93 125 153 205 254 297 361
#     4   9  17  33  56  80 111 154 199 238 288 350
#
# _framework density 20.545724
#
# number of rings (size 3 to 8) (size 9 to 14) (size 15 to 20)
#    0.000    2.400    1.000    0.900    1.400    2.800 
#    5.400    2.000    0.000    0.000    0.000    0.000 
#    0.000    0.000    0.000    0.000    0.000    0.000 
#
# Total GULP energy -247921.316549 kJ/mol
# GULP energy per Si atom -12396.065827 kJ/mol
# Density = 2.049896 g / cm^3
# Si number density = 20.545724 Si / 1000 Ang^3
#
#
#
# Elastic Constant Matrix: (Units=GPa)
#
#
# Indices 1 2 3 4 5 6 
#
# 1 138.3890 29.3883 73.0002 0.0000 0.0000 0.0000
# 2 29.3883 80.2619 52.3025 0.0000 0.0000 0.0000
# 3 73.0002 52.3025 158.9635 0.0000 0.0000 0.0000
# 4 0.0000 0.0000 0.0000 8.5029 0.0000 0.0000
# 5 0.0000 0.0000 0.0000 0.0000 29.8018 0.0000
# 6 0.0000 0.0000 0.0000 0.0000 0.0000 15.4025
#
#
#
# Elastic Compliance Matrix: (Units=1/GPa)
#
#
# Indices 1 2 3 4 5 6 
#
# 1 0.009578 -0.000816 -0.004130 0.000000 0.000000 0.000000
# 2 -0.000816 0.015929 -0.004866 0.000000 0.000000 0.000000
# 3 -0.004130 -0.004866 0.009789 0.000000 0.000000 0.000000
# 4 0.000000 0.000000 0.000000 0.117607 0.000000 0.000000
# 5 0.000000 0.000000 0.000000 0.000000 0.033555 0.000000
# 6 0.000000 0.000000 0.000000 0.000000 0.000000 0.064924
#
#
# Mechanical properties :
#
#
# Convention : Reuss Voigt Hill
#
# Bulk Modulus (GPa) = 63.81139 76.33296 70.07218
# Shear Modulus (GPa) = 18.10085 25.60299 21.85192
#
# Velocity S-wave (km/s) = 2.97139 3.53391 3.26479
# Velocity P-wave (km/s) = 6.54965 7.34062 6.95639
#
# Compressibility (1/GPa) = 0.01567118
#
# Stress axis : x y z
#
# Youngs Moduli (GPa) = 104.40812 62.77827 102.16032
#
# Poissons Ratio (x) = 0.05120 0.42192
# Poissons Ratio (y) = 0.08516 0.49716
# Poissons Ratio (z) = 0.43121 0.30551
#
# Static dielectric constant tensor:
#      x y z
#    x 4.035220 0.000000 0.000000 
#    y 0.000000 3.588000 0.000000 
#    z 0.000000 0.000000 3.676570 
# 
# 
# High freq. dielectric constant tensor:
#      x y z
#    x 1.814970 0.000000 0.000000 
#    y 0.000000 1.794090 0.000000 
#    z 0.000000 0.000000 1.787290 
# 
# From -- ./inp_files/23289.got.cif
#   From: 2010.03.12/outbox.cif.g09.slc.cpg/sg38_12_cif.got.tgz:23289.got - 2010.04.14 02:38:36.
