data_PCOD8179895
_publ_section_title
;
Structure prediction by ZEFSAII (Michael W. Deem and Ramdas Pophale) SiO2 
 PCOD8179895
Probable space group: A M M 2
;
_chemical_formula_sum "Si O2"
_cell_formula_units_Z 48
_cell_length_a 18.804576
_cell_length_b 8.686459
_cell_length_c 15.297735
_cell_angle_alpha 90.000000
_cell_angle_beta 90.000000
_cell_angle_gamma 90.000000
_cell_volume 2498.811253
_symmetry_space_group_name_H-M "A M M 2"
_symmetry_group_IT_number 38
_symmetry_cell_setting 'orthorhombic'
loop_
_space_group_symop_operation_xyz
x,y,z
-x,-y,z
-x,y,z
x,-y,z
x,1/2+y,1/2+z
-x,1/2-y,1/2+z
-x,1/2+y,1/2+z
x,1/2-y,1/2+z
loop_
_atom_site_type_symbol
_atom_site_label
_atom_site_fract_x
_atom_site_fract_y
_atom_site_fract_z
Si Si1 0.916992 0.321820 0.415150
Si Si2 0.081743 0.178783 0.233173
Si Si3 0.325542 0.818343 0.568469
Si Si4 0.835718 0.318990 0.073076
Si Si5 0.421189 0.316917 0.223107
Si Si6 0.581641 0.819771 0.919222
O O1 0.898778 0.500000 0.430729
O O2 0.893732 0.275128 0.317598
O O3 0.873964 0.217849 0.482399
O O4 0.000000 0.287949 0.429201
O O5 0.128115 0.227647 0.151252
O O6 0.000000 0.214505 0.210034
O O7 0.093397 0.000000 0.253580
O O8 0.245006 0.758340 0.566850
O O9 0.365568 0.747617 0.653309
O O10 0.365351 0.770810 0.480958
O O11 0.326332 0.000000 0.574536
O O12 0.840378 0.500000 0.091804
O O13 0.500000 0.254031 0.200036
O O14 0.422511 0.500000 0.219343
O O15 0.399777 0.265599 0.320772
O O16 0.500000 0.778028 0.941525
O O17 0.594810 0.000000 0.930891
#
# Coordination Sequence:
#
# PCOD8179895 Si02
#       6
#     8   8   8   8   8   8
#     4  10  21  38  60  83 106 139 185 231 276 327
#     4  10  21  38  60  84 109 140 180 226 277 331
#     4  10  21  35  52  77 107 141 179 216 261 317
#     4  11  23  36  52  80 116 149 184 226 271 324
#     4   8  15  31  54  75  98 133 174 213 256 309
#     4   9  18  33  54  79 104 134 176 223 269 317
#
# _framework density 19.209133999999999
#
# number of rings (size 3 to 8) (size 9 to 14) (size 15 to 20)
#    0.000    2.333    0.000    3.500    0.000    7.667 
#    0.000    2.500    0.000    1.000    0.000    0.000 
#    0.000    0.000    0.000    0.000    0.000    0.000 
#
# Total GULP energy -297633.370973 kJ/mol
# GULP energy per Si atom -12401.390457 kJ/mol
# Density = 1.916541 g / cm^3
# Si number density = 19.209134 Si / 1000 Ang^3
#
#
#
# Elastic Constant Matrix: (Units=GPa)
#
#
# Indices 1 2 3 4 5 6 
#
# 1 111.0712 22.0015 75.8200 0.0000 0.0000 0.0000
# 2 22.0015 28.9761 13.2401 0.0000 0.0000 0.0000
# 3 75.8200 13.2401 129.9306 0.0000 0.0000 0.0000
# 4 0.0000 0.0000 0.0000 34.7895 0.0000 0.0000
# 5 0.0000 0.0000 0.0000 0.0000 -83.7890 0.0000
# 6 0.0000 0.0000 0.0000 0.0000 0.0000 23.5826
#
#
#
# Elastic Compliance Matrix: (Units=1/GPa)
#
#
# Indices 1 2 3 4 5 6 
#
# 1 0.016821 -0.008692 -0.008930 0.000000 0.000000 0.000000
# 2 -0.008692 0.040688 0.000926 0.000000 0.000000 0.000000
# 3 -0.008930 0.000926 0.012813 0.000000 0.000000 0.000000
# 4 0.000000 0.000000 0.000000 0.028744 0.000000 0.000000
# 5 0.000000 0.000000 0.000000 0.000000 -0.011935 0.000000
# 6 0.000000 0.000000 0.000000 0.000000 0.000000 0.042404
#
#
# Mechanical properties :
#
#
# Convention : Reuss Voigt Hill
#
# Bulk Modulus (GPa) = 27.07822 54.67789 40.87806
# Shear Modulus (GPa) = 28.53290 5.51106 17.02198
#
# Velocity S-wave (km/s) = 3.85825 1.69564 2.98004
# Velocity P-wave (km/s) = 5.82883 5.68858 5.75913
#
# Compressibility (1/GPa) = 0.03693005
#
# Stress axis : x y z
#
# Youngs Moduli (GPa) = 59.45078 24.57745 78.04550
#
# Poissons Ratio (x) = 0.21362 0.69694
# Poissons Ratio (y) = 0.51672 -0.07225
# Poissons Ratio (z) = 0.53089 -0.02275
#
# Static dielectric constant tensor:
#      x y z
#    x 3.843250 0.000000 0.000000 
#    y 0.000000 3.299980 0.000000 
#    z 0.000000 0.000000 3.685180 
# 
# 
# High freq. dielectric constant tensor:
#      x y z
#    x 1.745330 0.000000 0.000000 
#    y 0.000000 1.730560 0.000000 
#    z 0.000000 0.000000 1.761280 
# 
# From -- ./inp_files/14972.got.cif
#   From: 2010.03.12/outbox.cif.g09.slc.cpg/sg38_8_cif.got.tgz:14972.got - 2010.04.14 02:38:36.
