data_PCOD8179806
_publ_section_title
;
Structure prediction by ZEFSAII (Michael W. Deem and Ramdas Pophale) SiO2 
 PCOD8179806
Probable space group: A M M 2
;
_chemical_formula_sum "Si O2"
_cell_formula_units_Z 48
_cell_length_a 15.768903
_cell_length_b 14.957347
_cell_length_c 10.269528
_cell_angle_alpha 90.000000
_cell_angle_beta 90.000000
_cell_angle_gamma 90.000000
_cell_volume 2422.180671
_symmetry_space_group_name_H-M "A M M 2"
_symmetry_group_IT_number 38
_symmetry_cell_setting 'orthorhombic'
loop_
_space_group_symop_operation_xyz
x,y,z
-x,-y,z
-x,y,z
x,-y,z
x,1/2+y,1/2+z
-x,1/2-y,1/2+z
-x,1/2+y,1/2+z
x,1/2-y,1/2+z
loop_
_atom_site_type_symbol
_atom_site_label
_atom_site_fract_x
_atom_site_fract_y
_atom_site_fract_z
Si Si1 0.824038 0.651014 0.248930
Si Si2 0.000000 0.604984 0.144689
Si Si3 0.183730 0.643591 0.757239
Si Si4 0.598426 0.000000 0.601130
Si Si5 0.726373 0.141771 0.998886
Si Si6 0.400206 0.500000 0.408416
Si Si7 0.281524 0.144278 0.508482
Si Si8 0.000000 0.896897 0.353139
O O1 0.923294 0.637766 0.233225
O O2 0.799073 0.753004 0.250677
O O3 0.790368 0.611562 0.384128
O O4 0.778023 0.608737 0.124818
O O5 0.000000 0.500000 0.132305
O O6 0.000000 0.649028 0.998292
O O7 0.225198 0.603939 0.626377
O O8 0.083037 0.627040 0.769320
O O9 0.235080 0.605955 0.880399
O O10 0.619445 0.000000 0.754647
O O11 0.631378 0.909223 0.530810
O O12 0.500000 0.000000 0.575429
O O13 0.638705 0.088954 0.975693
O O14 0.705284 0.248144 0.004653
O O15 0.500000 0.500000 0.436975
O O16 0.000000 0.000000 0.381781
#
# Coordination Sequence:
#
# PCOD8179806 Si02
#       8
#     8   4   8   4   8   4   8   4
#     4  10  20  39  59  86 121 166 213 251 300 369
#     4  11  23  33  57  89 118 161 214 266 299 348
#     4  10  22  39  60  85 126 169 203 256 313 363
#     4  11  24  41  71 100 123 161 210 262 313 383
#     4  10  23  40  65  95 124 167 207 256 320 373
#     4  11  24  43  69  96 127 163 202 262 327 385
#     4  10  21  40  67  91 125 165 209 255 308 377
#     4  11  23  35  53  87 122 161 210 262 311 354
#
# _framework density 19.816852999999998
#
# number of rings (size 3 to 8) (size 9 to 14) (size 15 to 20)
#    0.000    1.667    3.333    0.500    4.667    1.333 
#    0.000    2.500    0.000    0.000    0.000    0.000 
#    0.000    0.000    0.000    0.000    0.000    0.000 
#
# Total GULP energy -297466.534288 kJ/mol
# GULP energy per Si atom -12394.438929 kJ/mol
# Density = 1.977175 g / cm^3
# Si number density = 19.816853 Si / 1000 Ang^3
#
#
#
# Elastic Constant Matrix: (Units=GPa)
#
#
# Indices 1 2 3 4 5 6 
#
# 1 161.7706 39.0777 86.9333 0.0000 0.0000 0.0000
# 2 39.0777 60.3600 37.3672 0.0000 0.0000 0.0000
# 3 86.9333 37.3672 171.2136 0.0000 0.0000 0.0000
# 4 0.0000 0.0000 0.0000 10.4893 0.0000 0.0000
# 5 0.0000 0.0000 0.0000 0.0000 41.8752 0.0000
# 6 0.0000 0.0000 0.0000 0.0000 0.0000 34.4688
#
#
#
# Elastic Compliance Matrix: (Units=1/GPa)
#
#
# Indices 1 2 3 4 5 6 
#
# 1 0.009100 -0.003505 -0.003856 0.000000 0.000000 0.000000
# 2 -0.003505 0.020505 -0.002696 0.000000 0.000000 0.000000
# 3 -0.003856 -0.002696 0.008387 0.000000 0.000000 0.000000
# 4 0.000000 0.000000 0.000000 0.095335 0.000000 0.000000
# 5 0.000000 0.000000 0.000000 0.000000 0.023880 0.000000
# 6 0.000000 0.000000 0.000000 0.000000 0.000000 0.029012
#
#
# Mechanical properties :
#
#
# Convention : Reuss Voigt Hill
#
# Bulk Modulus (GPa) = 55.92894 80.01119 67.97007
# Shear Modulus (GPa) = 23.55251 32.69772 28.12512
#
# Velocity S-wave (km/s) = 3.45122 4.06642 3.77138
# Velocity P-wave (km/s) = 6.64570 7.90637 7.30329
#
# Compressibility (1/GPa) = 0.01787983
#
# Stress axis : x y z
#
# Youngs Moduli (GPa) = 109.88786 48.76845 119.23582
#
# Poissons Ratio (x) = 0.17091 0.45974
# Poissons Ratio (y) = 0.38511 0.32143
# Poissons Ratio (z) = 0.42370 0.13147
#
# Static dielectric constant tensor:
#      x y z
#    x 3.323910 0.000000 0.000000 
#    y 0.000000 3.508170 0.000000 
#    z 0.000000 0.000000 4.233710 
# 
# 
# High freq. dielectric constant tensor:
#      x y z
#    x 1.760890 0.000000 0.000000 
#    y 0.000000 1.770780 0.000000 
#    z 0.000000 0.000000 1.785000 
# 
# From -- ./inp_files/5543.got.cif
#   From: 2010.03.12/outbox.cif.g09.slc.cpg/sg38_3_cif.got.tgz:5543.got - 2010.04.14 02:38:36.
