data_PCOD8179850
_publ_section_title
;
Structure prediction by ZEFSAII (Michael W. Deem and Ramdas Pophale) SiO2 
 PCOD8179850
Probable space group: A M M 2
;
_chemical_formula_sum "Si O2"
_cell_formula_units_Z 48
_cell_length_a 7.656039
_cell_length_b 9.111151
_cell_length_c 34.159296
_cell_angle_alpha 90.000000
_cell_angle_beta 90.000000
_cell_angle_gamma 90.000000
_cell_volume 2382.792876
_symmetry_space_group_name_H-M "A M M 2"
_symmetry_group_IT_number 38
_symmetry_cell_setting 'orthorhombic'
loop_
_space_group_symop_operation_xyz
x,y,z
-x,-y,z
-x,y,z
x,-y,z
x,1/2+y,1/2+z
-x,1/2-y,1/2+z
-x,1/2+y,1/2+z
x,1/2-y,1/2+z
loop_
_atom_site_type_symbol
_atom_site_label
_atom_site_fract_x
_atom_site_fract_y
_atom_site_fract_z
Si Si1 0.000000 0.329041 0.458350
Si Si2 0.198747 0.835761 0.165560
Si Si3 0.700152 0.169961 0.018579
Si Si4 0.000000 0.324724 0.877005
Si Si5 0.301277 0.340949 0.092823
Si Si6 0.704237 0.827348 0.827841
Si Si7 0.294852 0.335026 0.750015
O O1 0.175358 0.291432 0.482357
O O2 0.000000 0.220276 0.422034
O O3 0.000000 0.500000 0.445344
O O4 0.299112 0.736999 0.134722
O O5 0.215466 0.772433 0.209580
O O6 0.000000 0.837255 0.152116
O O7 0.278751 0.000000 0.165022
O O8 0.500000 0.215178 0.008146
O O9 0.780088 0.248710 0.057108
O O10 0.710197 0.000000 0.028939
O O11 0.823390 0.258601 0.858573
O O12 0.000000 0.500000 0.872459
O O13 0.500000 0.363490 0.081224
O O14 0.207508 0.500000 0.095815
O O15 0.500000 0.791518 0.836123
O O16 0.761376 0.773053 0.784802
O O17 0.740876 0.000000 0.831052
O O18 0.500000 0.337812 0.745200
O O19 0.223823 0.500000 0.758705
#
# Coordination Sequence:
#
# PCOD8179850 Si02
#       7
#     4   8   8   4   8   8   8
#     4  10  22  40  62  89 118 149 192 238 289 356
#     4  10  21  34  51  79 114 152 195 238 284 340
#     4   9  19  37  61  86 114 151 192 237 290 348
#     4  12  26  42  64  93 126 161 198 242 297 362
#     4  10  21  36  54  78 110 149 193 241 290 339
#     4  10  22  41  65  92 123 160 202 249 301 358
#     4   9  18  34  56  82 113 151 195 243 294 348
#
# _framework density 20.14443
#
# number of rings (size 3 to 8) (size 9 to 14) (size 15 to 20)
#    0.000    2.167    0.000    2.250    2.333    5.000 
#    0.000    3.333    0.000    0.000    0.000    0.000 
#    0.000    0.000    0.000    0.000    0.000    0.000 
#
# Total GULP energy -297547.271077 kJ/mol
# GULP energy per Si atom -12397.802962 kJ/mol
# Density = 2.009858 g / cm^3
# Si number density = 20.144430 Si / 1000 Ang^3
#
#
#
# Elastic Constant Matrix: (Units=GPa)
#
#
# Indices 1 2 3 4 5 6 
#
# 1 77.1961 43.5066 51.7038 0.0000 0.0000 0.0000
# 2 43.5066 123.0858 82.8435 0.0000 0.0000 0.0000
# 3 51.7038 82.8435 150.1008 0.0000 0.0000 0.0000
# 4 0.0000 0.0000 0.0000 38.7937 0.0000 0.0000
# 5 0.0000 0.0000 0.0000 0.0000 26.0372 0.0000
# 6 0.0000 0.0000 0.0000 0.0000 0.0000 17.8609
#
#
#
# Elastic Compliance Matrix: (Units=1/GPa)
#
#
# Indices 1 2 3 4 5 6 
#
# 1 0.017702 -0.003426 -0.004207 0.000000 0.000000 0.000000
# 2 -0.003426 0.013589 -0.006320 0.000000 0.000000 0.000000
# 3 -0.004207 -0.006320 0.011600 0.000000 0.000000 0.000000
# 4 0.000000 0.000000 0.000000 0.025777 0.000000 0.000000
# 5 0.000000 0.000000 0.000000 0.000000 0.038407 0.000000
# 6 0.000000 0.000000 0.000000 0.000000 0.000000 0.055988
#
#
# Mechanical properties :
#
#
# Convention : Reuss Voigt Hill
#
# Bulk Modulus (GPa) = 66.73145 78.49896 72.61520
# Shear Modulus (GPa) = 25.51489 28.02693 26.77091
#
# Velocity S-wave (km/s) = 3.56279 3.73406 3.64943
# Velocity P-wave (km/s) = 7.07976 7.59234 7.34053
#
# Compressibility (1/GPa) = 0.01498544
#
# Stress axis : x y z
#
# Youngs Moduli (GPa) = 56.48928 73.58909 86.21018
#
# Poissons Ratio (x) = 0.25208 0.36270
# Poissons Ratio (y) = 0.19351 0.54485
# Poissons Ratio (z) = 0.23766 0.46509
#
# Static dielectric constant tensor:
#      x y z
#    x 3.740040 0.000000 0.000000 
#    y 0.000000 3.821110 0.000000 
#    z 0.000000 0.000000 3.586150 
# 
# 
# High freq. dielectric constant tensor:
#      x y z
#    x 1.788100 0.000000 0.000000 
#    y 0.000000 1.780290 0.000000 
#    z 0.000000 0.000000 1.785170 
# 
# From -- ./inp_files/24373.got.cif
#   From: 2010.03.12/outbox.cif.g09.slc.cpg/sg38_13_cif.got.tgz:24373.got - 2010.04.14 02:38:36.
