data_PCOD8179202
_publ_section_title
;
Structure prediction by ZEFSAII (Michael W. Deem and Ramdas Pophale) SiO2 
 PCOD8179202
Probable space group: A M M 2
;
_chemical_formula_sum "Si O2"
_cell_formula_units_Z 64
_cell_length_a 23.913166
_cell_length_b 9.350825
_cell_length_c 15.251201
_cell_angle_alpha 90.000000
_cell_angle_beta 90.000000
_cell_angle_gamma 90.000000
_cell_volume 3410.287968
_symmetry_space_group_name_H-M "A M M 2"
_symmetry_group_IT_number 38
_symmetry_cell_setting 'orthorhombic'
loop_
_space_group_symop_operation_xyz
x,y,z
-x,-y,z
-x,y,z
x,-y,z
x,1/2+y,1/2+z
-x,1/2-y,1/2+z
-x,1/2+y,1/2+z
x,1/2-y,1/2+z
loop_
_atom_site_type_symbol
_atom_site_label
_atom_site_fract_x
_atom_site_fract_y
_atom_site_fract_z
Si Si1 0.364522 0.669342 0.639590
Si Si2 0.744671 0.662095 0.143878
Si Si3 0.435046 0.165629 0.778051
Si Si4 0.358533 0.166260 0.938968
Si Si5 0.134219 0.831693 0.705611
Si Si6 0.250793 0.838101 0.439177
Si Si7 0.869342 0.830754 0.375230
Si Si8 0.937124 0.829966 0.542060
O O1 0.364787 0.500000 0.653174
O O2 0.304896 0.731092 0.671263
O O3 0.412727 0.738744 0.698330
O O4 0.375857 0.712453 0.537845
O O5 0.726174 0.500000 0.166769
O O6 0.800347 0.706309 0.195499
O O7 0.759240 0.675838 0.042240
O O8 0.500000 0.198570 0.789089
O O9 0.407210 0.207809 0.871039
O O10 0.423597 0.000000 0.755615
O O11 0.302300 0.243011 0.906744
O O12 0.345065 0.000000 0.937677
O O13 0.109693 0.748876 0.788712
O O14 0.099263 0.773146 0.623207
O O15 0.125560 0.000000 0.717810
O O16 0.194468 0.784459 0.393317
O O17 0.264801 0.000000 0.412693
O O18 0.908817 0.774605 0.453012
O O19 0.874387 0.000000 0.363235
O O20 0.000000 0.769134 0.548508
O O21 0.937001 0.000000 0.542525
#
# Coordination Sequence:
#
# PCOD8179202 Si02
#       8
#     8   8   8   8   8   8   8   8
#     4  10  21  36  56  84 113 141 178 227 277 320
#     4   9  17  33  55  77 108 146 182 219 267 330
#     4  10  22  40  59  79 108 148 188 221 262 325
#     4   9  20  37  56  80 109 143 180 219 268 323
#     4  10  20  34  54  81 108 142 185 227 271 323
#     4   9  17  32  54  78 108 142 178 221 268 322
#     4  10  20  34  53  81 111 142 180 225 277 326
#     4   9  18  36  59  78 105 149 193 226 265 328
#
# _framework density 18.766743999999999
#
# number of rings (size 3 to 8) (size 9 to 14) (size 15 to 20)
#    0.000    2.500    1.250    0.375    1.750    3.250 
#    0.000    1.875    0.000    0.750    0.000    0.000 
#    0.000    0.000    0.000    0.000    0.000    0.000 
#
# Total GULP energy -396843.081350 kJ/mol
# GULP energy per Si atom -12401.346292 kJ/mol
# Density = 1.872403 g / cm^3
# Si number density = 18.766744 Si / 1000 Ang^3
#
#
#
# Elastic Constant Matrix: (Units=GPa)
#
#
# Indices 1 2 3 4 5 6 
#
# 1 125.1491 47.1465 71.8574 0.0000 0.0000 0.0000
# 2 47.1465 50.2611 43.7295 0.0000 0.0000 0.0000
# 3 71.8574 43.7295 119.6331 0.0000 0.0000 0.0000
# 4 0.0000 0.0000 0.0000 31.7469 0.0000 0.0000
# 5 0.0000 0.0000 0.0000 0.0000 22.9862 0.0000
# 6 0.0000 0.0000 0.0000 0.0000 0.0000 17.9551
#
#
#
# Elastic Compliance Matrix: (Units=1/GPa)
#
#
# Indices 1 2 3 4 5 6 
#
# 1 0.014437 -0.008794 -0.005457 0.000000 0.000000 0.000000
# 2 -0.008794 0.034532 -0.007340 0.000000 0.000000 0.000000
# 3 -0.005457 -0.007340 0.014319 0.000000 0.000000 0.000000
# 4 0.000000 0.000000 0.000000 0.031499 0.000000 0.000000
# 5 0.000000 0.000000 0.000000 0.000000 0.043504 0.000000
# 6 0.000000 0.000000 0.000000 0.000000 0.000000 0.055695
#
#
# Mechanical properties :
#
#
# Convention : Reuss Voigt Hill
#
# Bulk Modulus (GPa) = 49.73765 68.94555 59.34160
# Shear Modulus (GPa) = 20.50273 23.35830 21.93051
#
# Velocity S-wave (km/s) = 3.30889 3.53181 3.42216
# Velocity P-wave (km/s) = 6.41552 7.31091 6.87781
#
# Compressibility (1/GPa) = 0.02010549
#
# Stress axis : x y z
#
# Youngs Moduli (GPa) = 69.26818 28.95886 69.83508
#
# Poissons Ratio (x) = 0.25468 0.38107
# Poissons Ratio (y) = 0.60918 0.51259
# Poissons Ratio (z) = 0.37798 0.21256
#
# Static dielectric constant tensor:
#      x y z
#    x 3.469950 0.000000 0.000000 
#    y 0.000000 3.230050 0.000000 
#    z 0.000000 0.000000 3.505350 
# 
# 
# High freq. dielectric constant tensor:
#      x y z
#    x 1.726480 0.000000 0.000000 
#    y 0.000000 1.707180 0.000000 
#    z 0.000000 0.000000 1.736160 
# 
# From -- ./inp_files/15737.got.cif
#   From: 2010.03.12/outbox.cif.g09.slc.cpg/sg38_8_cif.got.tgz:15737.got - 2010.04.14 02:38:36.
