data_PCOD8179386
_publ_section_title
;
Structure prediction by ZEFSAII (Michael W. Deem and Ramdas Pophale) SiO2 
 PCOD8179386
Probable space group: A M M 2
;
_chemical_formula_sum "Si O2"
_cell_formula_units_Z 40
_cell_length_a 8.342154
_cell_length_b 29.754038
_cell_length_c 7.821886
_cell_angle_alpha 90.000000
_cell_angle_beta 90.000000
_cell_angle_gamma 90.000000
_cell_volume 1941.491968
_symmetry_space_group_name_H-M "A M M 2"
_symmetry_group_IT_number 38
_symmetry_cell_setting 'orthorhombic'
loop_
_space_group_symop_operation_xyz
x,y,z
-x,-y,z
-x,y,z
x,-y,z
x,1/2+y,1/2+z
-x,1/2-y,1/2+z
-x,1/2+y,1/2+z
x,1/2-y,1/2+z
loop_
_atom_site_type_symbol
_atom_site_label
_atom_site_fract_x
_atom_site_fract_y
_atom_site_fract_z
Si Si1 0.310231 0.889003 0.486160
Si Si2 0.680697 0.709802 0.988159
Si Si3 0.818045 0.204322 0.136437
Si Si4 0.690984 0.550526 0.292365
Si Si5 0.690420 0.886870 0.097784
O O1 0.500000 0.892635 0.479839
O O2 0.263064 0.839153 0.556932
O O3 0.239897 0.924666 0.622415
O O4 0.247356 0.897960 0.291781
O O5 0.500000 0.721196 0.047358
O O6 0.802500 0.749577 0.032342
O O7 0.686343 0.705667 0.784727
O O8 0.770751 0.159661 0.029792
O O9 0.000000 0.200544 0.202839
O O10 0.500000 0.550479 0.284824
O O11 0.759405 0.500000 0.293594
O O12 0.748830 0.574612 0.466913
O O13 0.500000 0.881962 0.091807
#
# Coordination Sequence:
#
# PCOD8179386 Si02
#       5
#     8   8   8   8   8
#     4   8  16  30  47  72 104 138 178 223 270 325
#     4  10  20  35  54  77 107 149 191 227 276 344
#     4  11  22  35  52  80 112 144 185 235 284 333
#     4   9  17  29  50  81 109 136 179 235 287 331
#     4   9  18  33  52  75 107 146 184 223 277 342
#
# _framework density 20.602712
#
# number of rings (size 3 to 8) (size 9 to 14) (size 15 to 20)
#    0.000    2.600    0.000    3.600    2.800    0.800 
#    0.000    4.000    0.000    0.600    0.000    0.000 
#    0.000    0.000    0.000    0.000    0.000    0.000 
#
# Total GULP energy -247821.851799 kJ/mol
# GULP energy per Si atom -12391.092590 kJ/mol
# Density = 2.055582 g / cm^3
# Si number density = 20.602712 Si / 1000 Ang^3
#
#
#
# Elastic Constant Matrix: (Units=GPa)
#
#
# Indices 1 2 3 4 5 6 
#
# 1 35.2084 26.1507 13.6887 0.0000 0.0000 0.0000
# 2 26.1507 198.0178 89.0516 0.0000 0.0000 0.0000
# 3 13.6887 89.0516 111.5804 0.0000 0.0000 0.0000
# 4 0.0000 0.0000 0.0000 38.7404 0.0000 0.0000
# 5 0.0000 0.0000 0.0000 0.0000 11.3305 0.0000
# 6 0.0000 0.0000 0.0000 0.0000 0.0000 7.3715
#
#
#
# Elastic Compliance Matrix: (Units=1/GPa)
#
#
# Indices 1 2 3 4 5 6 
#
# 1 0.031543 -0.003783 -0.000850 0.000000 0.000000 0.000000
# 2 -0.003783 0.008331 -0.006185 0.000000 0.000000 0.000000
# 3 -0.000850 -0.006185 0.014003 0.000000 0.000000 0.000000
# 4 0.000000 0.000000 0.000000 0.025813 0.000000 0.000000
# 5 0.000000 0.000000 0.000000 0.000000 0.088258 0.000000
# 6 0.000000 0.000000 0.000000 0.000000 0.000000 0.135657
#
#
# Mechanical properties :
#
#
# Convention : Reuss Voigt Hill
#
# Bulk Modulus (GPa) = 31.01768 66.95430 48.98599
# Shear Modulus (GPa) = 14.88151 25.88285 20.38218
#
# Velocity S-wave (km/s) = 2.69049 3.54825 3.14872
# Velocity P-wave (km/s) = 4.97388 7.02532 6.08665
#
# Compressibility (1/GPa) = 0.03223968
#
# Stress axis : x y z
#
# Youngs Moduli (GPa) = 31.70294 120.03204 71.41541
#
# Poissons Ratio (x) = 0.45411 0.06073
# Poissons Ratio (y) = 0.11994 0.44170
# Poissons Ratio (z) = 0.02696 0.74238
#
# Static dielectric constant tensor:
#      x y z
#    x 3.099690 0.000000 0.000000 
#    y 0.000000 4.229630 0.000000 
#    z 0.000000 0.000000 3.826690 
# 
# 
# High freq. dielectric constant tensor:
#      x y z
#    x 1.757990 0.000000 0.000000 
#    y 0.000000 1.811780 0.000000 
#    z 0.000000 0.000000 1.796940 
# 
# From -- ./inp_files/3295.got.cif
#   From: 2010.03.12/outbox.cif.g09.slc.cpg/sg38_2_cif.got.tgz:3295.got - 2010.04.14 02:38:36.
