data_PCOD8179244
_publ_section_title
;
Structure prediction by ZEFSAII (Michael W. Deem and Ramdas Pophale) SiO2 
 PCOD8179244
Probable space group: A M M 2
;
_chemical_formula_sum "Si O2"
_cell_formula_units_Z 64
_cell_length_a 9.137578
_cell_length_b 28.139113
_cell_length_c 12.628385
_cell_angle_alpha 90.000000
_cell_angle_beta 90.000000
_cell_angle_gamma 90.000000
_cell_volume 3247.052529
_symmetry_space_group_name_H-M "A M M 2"
_symmetry_group_IT_number 38
_symmetry_cell_setting 'orthorhombic'
loop_
_space_group_symop_operation_xyz
x,y,z
-x,-y,z
-x,y,z
x,-y,z
x,1/2+y,1/2+z
-x,1/2-y,1/2+z
-x,1/2+y,1/2+z
x,1/2-y,1/2+z
loop_
_atom_site_type_symbol
_atom_site_label
_atom_site_fract_x
_atom_site_fract_y
_atom_site_fract_z
Si Si1 0.838191 0.947573 0.581510
Si Si2 0.661087 0.682928 0.955256
Si Si3 0.337792 0.076282 0.382237
Si Si4 0.326657 0.555762 0.476383
Si Si5 0.169736 0.202840 0.257665
Si Si6 0.170250 0.392105 0.286253
Si Si7 0.831560 0.697765 0.165320
Si Si8 0.173302 0.901203 0.181093
O O1 0.732152 0.950086 0.481495
O O2 0.779513 0.914100 0.674279
O O3 0.000000 0.930202 0.544904
O O4 0.846479 0.000000 0.630753
O O5 0.500000 0.705378 0.969004
O O6 0.737880 0.679698 0.067600
O O7 0.650470 0.631073 0.907675
O O8 0.750457 0.712755 0.868955
O O9 0.500000 0.055269 0.360395
O O10 0.236360 0.068522 0.279377
O O11 0.500000 0.562177 0.487384
O O12 0.285190 0.500000 0.464871
O O13 0.271884 0.585786 0.375984
O O14 0.248347 0.578719 0.576791
O O15 0.211234 0.247686 0.185524
O O16 0.214250 0.154633 0.195725
O O17 0.000000 0.201410 0.285786
O O18 0.196766 0.335375 0.269506
O O19 0.000000 0.403298 0.312201
O O20 0.000000 0.693097 0.132097
O O21 0.000000 0.908793 0.173507
#
# Coordination Sequence:
#
# PCOD8179244 Si02
#       8
#     8   8   8   8   8   8   8   8
#     4  10  20  34  55  84 114 145 186 234 283 337
#     4  10  20  34  54  80 113 150 185 232 290 345
#     4  10  20  35  56  82 113 148 186 231 288 349
#     4  11  25  43  62  85 118 160 202 250 308 365
#     4   9  20  37  58  86 116 152 197 243 292 349
#     4  10  21  38  61  86 115 153 198 245 291 345
#     4  10  20  36  60  86 115 154 198 243 291 348
#     4  10  21  39  63  86 114 152 197 246 294 348
#
# _framework density 19.710183000000001
#
# number of rings (size 3 to 8) (size 9 to 14) (size 15 to 20)
#    0.000    2.000    1.250    1.875    0.000    6.250 
#    0.000    5.000    0.000    0.000    0.000    0.000 
#    0.000    0.000    0.000    0.000    0.000    0.000 
#
# Total GULP energy -396719.798094 kJ/mol
# GULP energy per Si atom -12397.493690 kJ/mol
# Density = 1.966532 g / cm^3
# Si number density = 19.710183 Si / 1000 Ang^3
#
#
#
# Elastic Constant Matrix: (Units=GPa)
#
#
# Indices 1 2 3 4 5 6 
#
# 1 106.1267 38.6236 70.1959 0.0000 0.0000 0.0000
# 2 38.6236 74.0990 39.5587 0.0000 0.0000 0.0000
# 3 70.1959 39.5587 126.4063 0.0000 0.0000 0.0000
# 4 0.0000 0.0000 0.0000 19.5000 0.0000 0.0000
# 5 0.0000 0.0000 0.0000 0.0000 9.4982 0.0000
# 6 0.0000 0.0000 0.0000 0.0000 0.0000 15.7084
#
#
#
# Elastic Compliance Matrix: (Units=1/GPa)
#
#
# Indices 1 2 3 4 5 6 
#
# 1 0.015962 -0.004307 -0.007516 0.000000 0.000000 0.000000
# 2 -0.004307 0.017365 -0.003042 0.000000 0.000000 0.000000
# 3 -0.007516 -0.003042 0.013037 0.000000 0.000000 0.000000
# 4 0.000000 0.000000 0.000000 0.051282 0.000000 0.000000
# 5 0.000000 0.000000 0.000000 0.000000 0.105283 0.000000
# 6 0.000000 0.000000 0.000000 0.000000 0.000000 0.063660
#
#
# Mechanical properties :
#
#
# Convention : Reuss Voigt Hill
#
# Bulk Modulus (GPa) = 60.12463 67.04315 63.58389
# Shear Modulus (GPa) = 16.56377 19.49157 18.02767
#
# Velocity S-wave (km/s) = 2.90205 3.14810 3.02758
# Velocity P-wave (km/s) = 6.46527 6.87767 6.67466
#
# Compressibility (1/GPa) = 0.01663212
#
# Stress axis : x y z
#
# Youngs Moduli (GPa) = 62.65068 57.58757 76.70646
#
# Poissons Ratio (x) = 0.24806 0.57650
# Poissons Ratio (y) = 0.26987 0.23336
# Poissons Ratio (z) = 0.47087 0.17520
#
# Static dielectric constant tensor:
#      x y z
#    x 3.947930 0.000000 0.000000 
#    y 0.000000 3.734910 0.000000 
#    z 0.000000 0.000000 3.547200 
# 
# 
# High freq. dielectric constant tensor:
#      x y z
#    x 1.770110 0.000000 0.000000 
#    y 0.000000 1.768650 0.000000 
#    z 0.000000 0.000000 1.763680 
# 
# From -- ./inp_files/8654.got.cif
#   From: 2010.03.12/outbox.cif.g09.slc.cpg/sg38_5_cif.got.tgz:8654.got - 2010.04.14 02:38:36.
