data_PCOD8179029
_publ_section_title
;
Structure prediction by ZEFSAII (Michael W. Deem and Ramdas Pophale) SiO2 
 PCOD8179029
Probable space group: A M M 2
;
_chemical_formula_sum "Si O2"
_cell_formula_units_Z 64
_cell_length_a 19.891082
_cell_length_b 8.964166
_cell_length_c 19.673495
_cell_angle_alpha 90.000000
_cell_angle_beta 90.000000
_cell_angle_gamma 90.000000
_cell_volume 3507.921105
_symmetry_space_group_name_H-M "A M M 2"
_symmetry_group_IT_number 38
_symmetry_cell_setting 'orthorhombic'
loop_
_space_group_symop_operation_xyz
x,y,z
-x,-y,z
-x,y,z
x,-y,z
x,1/2+y,1/2+z
-x,1/2-y,1/2+z
-x,1/2+y,1/2+z
x,1/2-y,1/2+z
loop_
_atom_site_type_symbol
_atom_site_label
_atom_site_fract_x
_atom_site_fract_y
_atom_site_fract_z
Si Si1 0.311382 0.174803 0.363120
Si Si2 0.078017 0.674716 0.601107
Si Si3 0.078626 0.827481 0.462644
Si Si4 0.685102 0.826345 0.206534
Si Si5 0.574021 0.176853 0.462369
Si Si6 0.578346 0.328303 0.115768
Si Si7 0.822297 0.326613 0.202029
Si Si8 0.174408 0.826784 0.860745
O O1 0.329017 0.209989 0.285246
O O2 0.372019 0.239579 0.408864
O O3 0.244704 0.260106 0.386568
O O4 0.299835 0.000000 0.375579
O O5 0.091604 0.500000 0.596745
O O6 0.103630 0.747884 0.531242
O O7 0.118476 0.743013 0.663427
O O8 0.000000 0.711802 0.613578
O O9 0.113891 0.755534 0.397889
O O10 0.000000 0.802392 0.451809
O O11 0.097945 0.000000 0.467996
O O12 0.619768 0.776427 0.165750
O O13 0.750188 0.738008 0.179735
O O14 0.698594 0.000000 0.194880
O O15 0.500000 0.242593 0.444895
O O16 0.594841 0.221997 0.538763
O O17 0.570308 0.000000 0.457379
O O18 0.500000 0.304913 0.131570
O O19 0.598920 0.500000 0.127443
O O20 0.823909 0.500000 0.183476
O O21 0.834919 0.296783 0.281163
O O22 0.172551 0.000000 0.878826
#
# Coordination Sequence:
#
# PCOD8179029 Si02
#       8
#     8   8   8   8   8   8   8   8
#     4   9  18  33  53  75 100 132 171 215 259 306
#     4  10  21  37  57  81 109 138 171 217 268 314
#     4  10  21  37  57  80 107 140 177 215 257 311
#     4  10  20  33  51  76 105 135 169 214 264 311
#     4   8  15  30  52  75  97 126 168 212 251 297
#     4   9  18  33  52  73 100 135 172 211 258 315
#     4  10  21  37  56  77 105 142 180 217 261 317
#     4  10  21  36  54  77 107 141 176 217 262 309
#
# _framework density 18.244423000000001
#
# number of rings (size 3 to 8) (size 9 to 14) (size 15 to 20)
#    0.000    2.500    0.000    2.625    0.000    5.750 
#    0.000    8.125    0.000    1.125    0.000    0.000 
#    0.000    0.000    0.000    0.000    0.000    0.000 
#
# Total GULP energy -396887.235959 kJ/mol
# GULP energy per Si atom -12402.726124 kJ/mol
# Density = 1.820290 g / cm^3
# Si number density = 18.244423 Si / 1000 Ang^3
#
#
#
# Elastic Constant Matrix: (Units=GPa)
#
#
# Indices 1 2 3 4 5 6 
#
# 1 94.0570 54.1685 63.6975 0.0000 0.0000 0.0000
# 2 54.1685 87.1231 48.0329 0.0000 0.0000 0.0000
# 3 63.6975 48.0329 83.1723 0.0000 0.0000 0.0000
# 4 0.0000 0.0000 0.0000 30.3478 0.0000 0.0000
# 5 0.0000 0.0000 0.0000 0.0000 35.4621 0.0000
# 6 0.0000 0.0000 0.0000 0.0000 0.0000 32.2062
#
#
#
# Elastic Compliance Matrix: (Units=1/GPa)
#
#
# Indices 1 2 3 4 5 6 
#
# 1 0.024884 -0.007284 -0.014851 0.000000 0.000000 0.000000
# 2 -0.007284 0.018972 -0.005378 0.000000 0.000000 0.000000
# 3 -0.014851 -0.005378 0.026503 0.000000 0.000000 0.000000
# 4 0.000000 0.000000 0.000000 0.032951 0.000000 0.000000
# 5 0.000000 0.000000 0.000000 0.000000 0.028199 0.000000
# 6 0.000000 0.000000 0.000000 0.000000 0.000000 0.031050
#
#
# Mechanical properties :
#
#
# Convention : Reuss Voigt Hill
#
# Bulk Modulus (GPa) = 65.21962 66.23889 65.72926
# Shear Modulus (GPa) = 22.45215 26.16680 24.30947
#
# Velocity S-wave (km/s) = 3.51184 3.79124 3.65421
# Velocity P-wave (km/s) = 7.22975 7.45318 7.34232
#
# Compressibility (1/GPa) = 0.01533281
#
# Stress axis : x y z
#
# Youngs Moduli (GPa) = 40.18613 52.70979 37.73200
#
# Poissons Ratio (x) = 0.38394 0.56036
# Poissons Ratio (y) = 0.29272 0.20292
# Poissons Ratio (z) = 0.59680 0.28347
#
# Static dielectric constant tensor:
#      x y z
#    x 3.474630 0.000000 0.000000 
#    y 0.000000 3.325620 0.000000 
#    z 0.000000 0.000000 3.376880 
# 
# 
# High freq. dielectric constant tensor:
#      x y z
#    x 1.710660 0.000000 0.000000 
#    y 0.000000 1.703740 0.000000 
#    z 0.000000 0.000000 1.707430 
# 
# From -- ./inp_files/18942.got.cif
#   From: 2010.03.12/outbox.cif.g09.slc.cpg/sg38_10_cif.got.tgz:18942.got - 2010.04.14 02:38:36.
