data_PCOD8179458
_publ_section_title
;
Structure prediction by ZEFSAII (Michael W. Deem and Ramdas Pophale) SiO2 
 PCOD8179458
Probable space group: A M M 2
;
_chemical_formula_sum "Si O2"
_cell_formula_units_Z 64
_cell_length_a 8.924877
_cell_length_b 24.432865
_cell_length_c 14.926319
_cell_angle_alpha 90.000000
_cell_angle_beta 90.000000
_cell_angle_gamma 90.000000
_cell_volume 3254.837821
_symmetry_space_group_name_H-M "A M M 2"
_symmetry_group_IT_number 38
_symmetry_cell_setting 'orthorhombic'
loop_
_space_group_symop_operation_xyz
x,y,z
-x,-y,z
-x,y,z
x,-y,z
x,1/2+y,1/2+z
-x,1/2-y,1/2+z
-x,1/2+y,1/2+z
x,1/2-y,1/2+z
loop_
_atom_site_type_symbol
_atom_site_label
_atom_site_fract_x
_atom_site_fract_y
_atom_site_fract_z
Si Si1 0.168415 0.248078 0.459400
Si Si2 0.322478 0.560436 0.603009
Si Si3 0.324122 0.357376 0.453519
Si Si4 0.831589 0.251639 0.246988
Si Si5 0.824408 0.935909 0.603340
Si Si6 0.676707 0.138080 0.747492
Si Si7 0.323278 0.137787 0.458886
Si Si8 0.675868 0.357655 0.752913
O O1 0.244384 0.303671 0.493703
O O2 0.170483 0.249868 0.353195
O O3 0.261235 0.195897 0.494363
O O4 0.000000 0.244049 0.497201
O O5 0.500000 0.555916 0.602872
O O6 0.249695 0.500000 0.602828
O O7 0.269558 0.591858 0.513670
O O8 0.269833 0.591589 0.692664
O O9 0.500000 0.346598 0.461620
O O10 0.279296 0.370493 0.351341
O O11 0.738799 0.303821 0.211998
O O12 0.755622 0.196041 0.212716
O O13 0.000000 0.255657 0.209185
O O14 0.751768 0.910641 0.692391
O O15 0.751738 0.910907 0.514085
O O16 0.000000 0.923462 0.603266
O O17 0.789413 0.000000 0.603630
O O18 0.500000 0.136883 0.732076
O O19 0.500000 0.136589 0.474217
O O20 0.279146 0.129177 0.355056
O O21 0.500000 0.346813 0.744978
#
# Coordination Sequence:
#
# PCOD8179458 Si02
#       8
#     8   8   8   8   8   8   8   8
#     4   9  17  31  53  80 111 145 179 217 266 324
#     4   9  18  33  53  78 107 140 180 221 260 307
#     4   9  18  33  55  82 111 143 180 223 268 316
#     4   9  17  31  53  80 111 145 179 217 266 324
#     4  11  25  42  57  76 105 142 184 227 274 333
#     4  10  20  35  57  83 110 140 177 224 273 320
#     4  10  20  35  57  83 110 140 177 224 273 320
#     4   9  18  33  55  82 111 143 180 223 268 316
#
# _framework density 19.663038
#
# number of rings (size 3 to 8) (size 9 to 14) (size 15 to 20)
#    0.000    2.500    0.000    1.875    0.000    7.000 
#    0.000    6.875    0.000    1.500    0.000    0.000 
#    0.000    0.000    0.000    0.000    0.000    0.000 
#
# Total GULP energy -396815.461380 kJ/mol
# GULP energy per Si atom -12400.483168 kJ/mol
# Density = 1.961828 g / cm^3
# Si number density = 19.663038 Si / 1000 Ang^3
#
#
#
# Elastic Constant Matrix: (Units=GPa)
#
#
# Indices 1 2 3 4 5 6 
#
# 1 99.0483 69.3833 41.3474 0.0000 0.0000 0.0000
# 2 69.3833 188.6631 75.8756 0.0000 0.0000 0.0000
# 3 41.3474 75.8756 101.9477 0.0000 0.0000 0.0000
# 4 0.0000 0.0000 0.0000 -35.4318 0.0000 0.0000
# 5 0.0000 0.0000 0.0000 0.0000 17.4897 0.0000
# 6 0.0000 0.0000 0.0000 0.0000 0.0000 30.9824
#
#
#
# Elastic Compliance Matrix: (Units=1/GPa)
#
#
# Indices 1 2 3 4 5 6 
#
# 1 0.014084 -0.004114 -0.002651 0.000000 0.000000 0.000000
# 2 -0.004114 0.008766 -0.004856 0.000000 0.000000 0.000000
# 3 -0.002651 -0.004856 0.014498 0.000000 0.000000 0.000000
# 4 0.000000 0.000000 0.000000 -0.028223 0.000000 0.000000
# 5 0.000000 0.000000 0.000000 0.000000 0.057176 0.000000
# 6 0.000000 0.000000 0.000000 0.000000 0.000000 0.032276
#
#
# Mechanical properties :
#
#
# Convention : Reuss Voigt Hill
#
# Bulk Modulus (GPa) = 70.88121 84.76352 77.82236
# Shear Modulus (GPa) = 39.51911 16.14493 27.83202
#
# Velocity S-wave (km/s) = 4.48796 2.86856 3.76633
# Velocity P-wave (km/s) = 7.93612 7.36024 7.65360
#
# Compressibility (1/GPa) = 0.01410811
#
# Stress axis : x y z
#
# Youngs Moduli (GPa) = 71.00176 114.07381 68.97469
#
# Poissons Ratio (x) = 0.46926 0.18282
# Poissons Ratio (y) = 0.29208 0.33494
# Poissons Ratio (z) = 0.18819 0.55394
#
# Static dielectric constant tensor:
#      x y z
#    x 3.547860 0.000000 0.000000 
#    y 0.000000 3.759240 0.000000 
#    z 0.000000 0.000000 3.586840 
# 
# 
# High freq. dielectric constant tensor:
#      x y z
#    x 1.757560 0.000000 0.000000 
#    y 0.000000 1.765950 0.000000 
#    z 0.000000 0.000000 1.766060 
# 
# From -- ./inp_files/12792.got.cif
#   From: 2010.03.12/outbox.cif.g09.slc.cpg/sg38_7_cif.got.tgz:12792.got - 2010.04.14 02:38:36.
