data_PCOD8179856
_publ_section_title
;
Structure prediction by ZEFSAII (Michael W. Deem and Ramdas Pophale) SiO2 
 PCOD8179856
Probable space group: A M M 2
;
_chemical_formula_sum "Si O2"
_cell_formula_units_Z 64
_cell_length_a 8.911316
_cell_length_b 20.100623
_cell_length_c 20.366481
_cell_angle_alpha 90.000000
_cell_angle_beta 90.000000
_cell_angle_gamma 90.000000
_cell_volume 3648.105244
_symmetry_space_group_name_H-M "A M M 2"
_symmetry_group_IT_number 38
_symmetry_cell_setting 'orthorhombic'
loop_
_space_group_symop_operation_xyz
x,y,z
-x,-y,z
-x,y,z
x,-y,z
x,1/2+y,1/2+z
-x,1/2-y,1/2+z
-x,1/2+y,1/2+z
x,1/2-y,1/2+z
loop_
_atom_site_type_symbol
_atom_site_label
_atom_site_fract_x
_atom_site_fract_y
_atom_site_fract_z
Si Si1 0.322095 0.177652 0.021850
Si Si2 0.321793 0.677796 0.167840
Si Si3 0.678711 0.574111 0.418294
Si Si4 0.676487 0.828494 0.170478
Si Si5 0.321281 0.174338 0.521900
Si Si6 0.322871 0.423939 0.910402
Si Si7 0.823703 0.076263 0.274817
Si Si8 0.678622 0.425690 0.271917
O O1 0.500000 0.177521 0.016496
O O2 0.276561 0.156449 0.095395
O O3 0.263634 0.251546 0.003874
O O4 0.250452 0.125679 0.970333
O O5 0.500000 0.673290 0.167750
O O6 0.275190 0.752812 0.187086
O O7 0.262736 0.657436 0.095340
O O8 0.251114 0.626780 0.220558
O O9 0.500000 0.576280 0.420933
O O10 0.734790 0.500000 0.436367
O O11 0.733676 0.593334 0.345115
O O12 0.500000 0.839106 0.181610
O O13 0.766170 0.878816 0.215760
O O14 0.500000 0.172400 0.521405
O O15 0.257850 0.121342 0.469535
O O16 0.500000 0.415381 0.903216
O O17 0.278373 0.500000 0.926019
O O18 0.249817 0.399397 0.842729
O O19 0.000000 0.084412 0.281626
O O20 0.777635 0.000000 0.260323
O O21 0.500000 0.423195 0.269360
O O22 0.733758 0.500000 0.253526
#
# Coordination Sequence:
#
# PCOD8179856 Si02
#       8
#     8   8   8   8   8   8   8   8
#     4   8  14  24  38  59  87 113 137 173 218 255
#     4   8  14  24  38  61  92 119 144 178 219 258
#     4   8  13  20  29  45  73 108 141 167 196 242
#     4   9  17  29  46  67  88 112 146 185 222 265
#     4   8  14  24  38  58  85 114 142 173 211 255
#     4   9  17  29  46  68  91 116 149 186 221 261
#     4  10  21  35  48  63  87 118 149 186 233 279
#     4   8  13  20  31  51  83 120 148 168 200 252
#
# _framework density 17.543354000000001
#
# number of rings (size 3 to 8) (size 9 to 14) (size 15 to 20)
#    0.000    3.500    0.000    2.625    0.000    2.750 
#    0.000    7.500    0.000    3.000    0.000    0.000 
#    0.000    0.500    0.000    0.250    0.000    2.125 
#
# Total GULP energy -396583.272228 kJ/mol
# GULP energy per Si atom -12393.227257 kJ/mol
# Density = 1.750342 g / cm^3
# Si number density = 17.543354 Si / 1000 Ang^3
#
#
#
# Elastic Constant Matrix: (Units=GPa)
#
#
# Indices 1 2 3 4 5 6 
#
# 1 13.6842 14.9225 17.1150 0.0000 0.0000 0.0000
# 2 14.9225 131.0207 112.5205 0.0000 0.0000 0.0000
# 3 17.1150 112.5205 157.3558 0.0000 0.0000 0.0000
# 4 0.0000 0.0000 0.0000 44.1941 0.0000 0.0000
# 5 0.0000 0.0000 0.0000 0.0000 1.4601 0.0000
# 6 0.0000 0.0000 0.0000 0.0000 0.0000 8.5472
#
#
#
# Elastic Compliance Matrix: (Units=1/GPa)
#
#
# Indices 1 2 3 4 5 6 
#
# 1 0.085615 -0.004545 -0.006062 0.000000 0.000000 0.000000
# 2 -0.004545 0.020019 -0.013821 0.000000 0.000000 0.000000
# 3 -0.006062 -0.013821 0.016897 0.000000 0.000000 0.000000
# 4 0.000000 0.000000 0.000000 0.022627 0.000000 0.000000
# 5 0.000000 0.000000 0.000000 0.000000 0.684864 0.000000
# 6 0.000000 0.000000 0.000000 0.000000 0.000000 0.116998
#
#
# Mechanical properties :
#
#
# Convention : Reuss Voigt Hill
#
# Bulk Modulus (GPa) = 13.57295 65.68631 39.62963
# Shear Modulus (GPa) = 4.89986 21.34047 13.12017
#
# Velocity S-wave (km/s) = 1.67304 3.49154 2.73769
# Velocity P-wave (km/s) = 3.38905 7.33335 5.71243
#
# Compressibility (1/GPa) = 0.07367595
#
# Stress axis : x y z
#
# Youngs Moduli (GPa) = 11.68017 49.95131 59.18077
#
# Poissons Ratio (x) = 0.22702 0.35876
# Poissons Ratio (y) = 0.05309 0.81794
# Poissons Ratio (z) = 0.07081 0.69038
#
# Static dielectric constant tensor:
#      x y z
#    x 2.576260 0.000000 0.000000 
#    y 0.000000 3.599280 0.000000 
#    z 0.000000 0.000000 3.610540 
# 
# 
# High freq. dielectric constant tensor:
#      x y z
#    x 1.607040 0.000000 0.000000 
#    y 0.000000 1.683730 0.000000 
#    z 0.000000 0.000000 1.687410 
# 
# From -- ./inp_files/20099.got.cif
#   From: 2010.03.12/outbox.cif.g09.slc.cpg/sg38_11_cif.got.tgz:20099.got - 2010.04.14 02:38:36.
