data_PCOD8179113
_publ_section_title
;
Structure prediction by ZEFSAII (Michael W. Deem and Ramdas Pophale) SiO2 
 PCOD8179113
Probable space group: A M M 2
;
_chemical_formula_sum "Si O2"
_cell_formula_units_Z 56
_cell_length_a 8.741788
_cell_length_b 16.633469
_cell_length_c 19.605774
_cell_angle_alpha 90.000000
_cell_angle_beta 90.000000
_cell_angle_gamma 90.000000
_cell_volume 2850.802266
_symmetry_space_group_name_H-M "A M M 2"
_symmetry_group_IT_number 38
_symmetry_cell_setting 'orthorhombic'
loop_
_space_group_symop_operation_xyz
x,y,z
-x,-y,z
-x,y,z
x,-y,z
x,1/2+y,1/2+z
-x,1/2-y,1/2+z
-x,1/2+y,1/2+z
x,1/2-y,1/2+z
loop_
_atom_site_type_symbol
_atom_site_label
_atom_site_fract_x
_atom_site_fract_y
_atom_site_fract_z
Si Si1 0.326030 0.090130 0.692030
Si Si2 0.322326 0.337627 0.992505
Si Si3 0.320204 0.840005 0.232811
Si Si4 0.818476 0.000000 0.294853
Si Si5 0.820801 0.265756 0.119376
Si Si6 0.173070 0.912930 0.834047
Si Si7 0.326216 0.262713 0.362736
Si Si8 0.181273 0.000000 0.452284
O O1 0.500000 0.120921 0.682259
O O2 0.211020 0.147909 0.652937
O O3 0.289128 0.091127 0.771497
O O4 0.306511 0.000000 0.662857
O O5 0.500000 0.347725 0.011201
O O6 0.247665 0.272301 0.043339
O O7 0.295219 0.307111 0.916230
O O8 0.242040 0.423966 0.994811
O O9 0.500000 0.856230 0.227385
O O10 0.240131 0.922401 0.254264
O O11 0.257128 0.807596 0.160608
O O12 0.282638 0.771344 0.288401
O O13 0.758668 0.000000 0.373477
O O14 0.000000 0.000000 0.293852
O O15 0.000000 0.248782 0.116257
O O16 0.220511 0.839261 0.882715
O O17 0.000000 0.901629 0.808151
O O18 0.190522 0.000000 0.871102
O O19 0.500000 0.291866 0.365838
O O20 0.000000 0.000000 0.453390
#
# Coordination Sequence:
#
# PCOD8179113 Si02
#       8
#     8   8   8   4   8   8   8   4
#     4  10  20  34  53  79 113 153 193 232 278 338
#     4  11  24  42  62  86 122 164 207 253 310 379
#     4  11  22  40  65  93 123 161 209 257 310 372
#     4  11  23  39  65  99 131 162 205 264 325 373
#     4  12  25  40  59  87 122 161 203 252 308 370
#     4  10  20  33  54  85 117 149 188 240 297 349
#     4  10  21  37  61  88 116 155 201 251 303 364
#     4  11  23  39  61  95 133 168 207 254 317 383
#
# _framework density 19.643592000000002
#
# number of rings (size 3 to 8) (size 9 to 14) (size 15 to 20)
#    0.000    1.286    2.857    3.429    1.000    4.000 
#    0.000    0.000    1.571    0.000    0.000    0.000 
#    0.000    0.000    0.000    0.000    0.000    0.000 
#
# Total GULP energy -347207.992916 kJ/mol
# GULP energy per Si atom -12400.285461 kJ/mol
# Density = 1.959888 g / cm^3
# Si number density = 19.643592 Si / 1000 Ang^3
#
#
#
# Elastic Constant Matrix: (Units=GPa)
#
#
# Indices 1 2 3 4 5 6 
#
# 1 100.7421 47.6580 32.9062 0.0000 0.0000 0.0000
# 2 47.6580 106.3804 25.3269 0.0000 0.0000 0.0000
# 3 32.9062 25.3269 71.8217 0.0000 0.0000 0.0000
# 4 0.0000 0.0000 0.0000 27.4245 0.0000 0.0000
# 5 0.0000 0.0000 0.0000 0.0000 28.5622 0.0000
# 6 0.0000 0.0000 0.0000 0.0000 0.0000 37.5849
#
#
#
# Elastic Compliance Matrix: (Units=1/GPa)
#
#
# Indices 1 2 3 4 5 6 
#
# 1 0.013826 -0.005115 -0.004531 0.000000 0.000000 0.000000
# 2 -0.005115 0.012154 -0.001942 0.000000 0.000000 0.000000
# 3 -0.004531 -0.001942 0.016684 0.000000 0.000000 0.000000
# 4 0.000000 0.000000 0.000000 0.036464 0.000000 0.000000
# 5 0.000000 0.000000 0.000000 0.000000 0.035011 0.000000
# 6 0.000000 0.000000 0.000000 0.000000 0.000000 0.026606
#
#
# Mechanical properties :
#
#
# Convention : Reuss Voigt Hill
#
# Bulk Modulus (GPa) = 51.31471 54.52514 52.91992
# Shear Modulus (GPa) = 29.33940 30.25119 29.79529
#
# Velocity S-wave (km/s) = 3.86889 3.92854 3.89883
# Velocity P-wave (km/s) = 6.79244 6.95668 6.87505
#
# Compressibility (1/GPa) = 0.01948759
#
# Stress axis : x y z
#
# Youngs Moduli (GPa) = 72.32637 82.27510 59.93704
#
# Poissons Ratio (x) = 0.42087 0.27156
# Poissons Ratio (y) = 0.36998 0.11642
# Poissons Ratio (z) = 0.32770 0.15981
#
# Static dielectric constant tensor:
#      x y z
#    x 3.616470 0.000000 0.000000 
#    y 0.000000 3.725260 0.000000 
#    z 0.000000 0.000000 3.485310 
# 
# 
# High freq. dielectric constant tensor:
#      x y z
#    x 1.776460 0.000000 0.000000 
#    y 0.000000 1.770400 0.000000 
#    z 0.000000 0.000000 1.740890 
# 
# From -- ./inp_files/19891.got.cif
#   From: 2010.03.12/outbox.cif.g09.slc.cpg/sg38_10_cif.got.tgz:19891.got - 2010.04.14 02:38:36.
