data_PCOD8179408
_publ_section_title
;
Structure prediction by ZEFSAII (Michael W. Deem and Ramdas Pophale) SiO2 
 PCOD8179408
Probable space group: A M M 2
;
_chemical_formula_sum "Si O2"
_cell_formula_units_Z 48
_cell_length_a 8.949872
_cell_length_b 23.440847
_cell_length_c 11.842341
_cell_angle_alpha 90.000000
_cell_angle_beta 90.000000
_cell_angle_gamma 90.000000
_cell_volume 2484.435274
_symmetry_space_group_name_H-M "A M M 2"
_symmetry_group_IT_number 38
_symmetry_cell_setting 'orthorhombic'
loop_
_space_group_symop_operation_xyz
x,y,z
-x,-y,z
-x,y,z
x,-y,z
x,1/2+y,1/2+z
-x,1/2-y,1/2+z
-x,1/2+y,1/2+z
x,1/2-y,1/2+z
loop_
_atom_site_type_symbol
_atom_site_label
_atom_site_fract_x
_atom_site_fract_y
_atom_site_fract_z
Si Si1 0.176180 0.151022 0.159250
Si Si2 0.822226 0.933688 0.349638
Si Si3 0.175022 0.851822 0.909616
Si Si4 0.176722 0.222767 0.703870
Si Si5 0.667526 0.936261 0.769680
Si Si6 0.671008 0.363154 0.048946
O O1 0.231592 0.096827 0.232953
O O2 0.220495 0.210978 0.216700
O O3 0.000000 0.146059 0.147089
O O4 0.248319 0.152327 0.033829
O O5 0.754639 0.894408 0.447226
O O6 0.000000 0.932009 0.361608
O O7 0.766084 0.000000 0.352245
O O8 0.239080 0.805511 0.819818
O O9 0.216575 0.913605 0.862046
O O10 0.000000 0.843502 0.918750
O O11 0.250829 0.195624 0.590737
O O12 0.000000 0.213565 0.690631
O O13 0.500000 0.930182 0.818059
O O14 0.683102 0.906078 0.651305
O O15 0.714775 0.000000 0.745200
O O16 0.500000 0.350396 0.014355
#
# Coordination Sequence:
#
# PCOD8179408 Si02
#       6
#     8   8   8   8   8   8
#     4   9  19  34  55  80 109 143 178 222 273 323
#     4  10  21  36  55  81 113 150 189 226 269 325
#     4   9  18  32  51  79 105 132 172 218 265 316
#     4   9  18  33  56  81 106 138 179 224 272 328
#     4   9  18  33  52  73 101 138 174 213 265 316
#     4  10  20  35  55  80 109 142 179 227 277 321
#
# _framework density 19.320284999999998
#
# number of rings (size 3 to 8) (size 9 to 14) (size 15 to 20)
#    0.000    2.667    0.000    1.000    2.333    2.667 
#    0.000    4.167    0.000    0.000    0.000    0.000 
#    0.000    0.000    0.000    0.000    0.000    0.000 
#
# Total GULP energy -297416.594483 kJ/mol
# GULP energy per Si atom -12392.358103 kJ/mol
# Density = 1.927631 g / cm^3
# Si number density = 19.320285 Si / 1000 Ang^3
#
#
#
# Elastic Constant Matrix: (Units=GPa)
#
#
# Indices 1 2 3 4 5 6 
#
# 1 25.3981 18.2936 24.5239 0.0000 0.0000 0.0000
# 2 18.2936 102.5979 42.1654 0.0000 0.0000 0.0000
# 3 24.5239 42.1654 114.8939 0.0000 0.0000 0.0000
# 4 0.0000 0.0000 0.0000 23.5573 0.0000 0.0000
# 5 0.0000 0.0000 0.0000 0.0000 13.8463 0.0000
# 6 0.0000 0.0000 0.0000 0.0000 0.0000 12.3924
#
#
#
# Elastic Compliance Matrix: (Units=1/GPa)
#
#
# Indices 1 2 3 4 5 6 
#
# 1 0.052159 -0.005564 -0.009091 0.000000 0.000000 0.000000
# 2 -0.005564 0.012071 -0.003243 0.000000 0.000000 0.000000
# 3 -0.009091 -0.003243 0.011834 0.000000 0.000000 0.000000
# 4 0.000000 0.000000 0.000000 0.042450 0.000000 0.000000
# 5 0.000000 0.000000 0.000000 0.000000 0.072221 0.000000
# 6 0.000000 0.000000 0.000000 0.000000 0.000000 0.080694
#
#
# Mechanical properties :
#
#
# Convention : Reuss Voigt Hill
#
# Bulk Modulus (GPa) = 24.83289 45.87283 35.35286
# Shear Modulus (GPa) = 15.59340 20.48635 18.03987
#
# Velocity S-wave (km/s) = 2.84403 3.25984 3.05901
# Velocity P-wave (km/s) = 4.86476 6.16146 5.55110
#
# Compressibility (1/GPa) = 0.04026918
#
# Stress axis : x y z
#
# Youngs Moduli (GPa) = 19.17219 82.84013 84.50073
#
# Poissons Ratio (x) = 0.46090 0.76823
# Poissons Ratio (y) = 0.10667 0.27400
# Poissons Ratio (z) = 0.17430 0.26861
#
# Static dielectric constant tensor:
#      x y z
#    x 3.347590 0.000000 0.000000 
#    y 0.000000 3.764060 0.000000 
#    z 0.000000 0.000000 3.832490 
# 
# 
# High freq. dielectric constant tensor:
#      x y z
#    x 1.720450 0.000000 0.000000 
#    y 0.000000 1.757560 0.000000 
#    z 0.000000 0.000000 1.755470 
# 
# From -- ./inp_files/8108.got.cif
#   From: 2010.03.12/outbox.cif.g09.slc.cpg/sg38_5_cif.got.tgz:8108.got - 2010.04.14 02:38:36.
