data_PCOD8179762
_publ_section_title
;
Structure prediction by ZEFSAII (Michael W. Deem and Ramdas Pophale) SiO2 
 PCOD8179762
Probable space group: A M M 2
;
_chemical_formula_sum "Si O2"
_cell_formula_units_Z 48
_cell_length_a 8.638619
_cell_length_b 7.858893
_cell_length_c 34.555214
_cell_angle_alpha 90.000000
_cell_angle_beta 90.000000
_cell_angle_gamma 90.000000
_cell_volume 2345.952870
_symmetry_space_group_name_H-M "A M M 2"
_symmetry_group_IT_number 38
_symmetry_cell_setting 'orthorhombic'
loop_
_space_group_symop_operation_xyz
x,y,z
-x,-y,z
-x,y,z
x,-y,z
x,1/2+y,1/2+z
-x,1/2-y,1/2+z
-x,1/2+y,1/2+z
x,1/2-y,1/2+z
loop_
_atom_site_type_symbol
_atom_site_label
_atom_site_fract_x
_atom_site_fract_y
_atom_site_fract_z
Si Si1 0.181437 0.500000 0.672000
Si Si2 0.681247 0.000000 0.255716
Si Si3 0.317997 0.691376 0.124920
Si Si4 0.673043 0.699887 0.383171
Si Si5 0.321500 0.692450 0.544011
Si Si6 0.181942 0.194936 0.803760
Si Si7 0.673321 0.802854 0.464213
O O1 0.279619 0.500000 0.710823
O O2 0.222123 0.327777 0.649178
O O3 0.000000 0.500000 0.681320
O O4 0.746404 0.825274 0.273340
O O5 0.500000 0.000000 0.262186
O O6 0.500000 0.738175 0.127093
O O7 0.287294 0.500000 0.140672
O O8 0.259885 0.696802 0.080088
O O9 0.500000 0.779077 0.379194
O O10 0.664109 0.500000 0.383757
O O11 0.773648 0.760114 0.346664
O O12 0.755916 0.760746 0.423215
O O13 0.500000 0.739516 0.537097
O O14 0.295948 0.500000 0.556986
O O15 0.239466 0.726070 0.502248
O O16 0.000000 0.201763 0.799144
O O17 0.241402 0.000000 0.796370
O O18 0.500000 0.724601 0.460478
O O19 0.668196 0.000000 0.471641
#
# Coordination Sequence:
#
# PCOD8179762 Si02
#       7
#     4   4   8   8   8   8   8
#     4  12  26  44  64  90 126 162 200 246 304 374
#     4  12  26  44  70  96 122 154 200 256 308 362
#     4  10  20  37  63  92 122 159 204 255 307 361
#     4   9  17  30  49  76 112 154 202 252 302 354
#     4   9  15  26  48  78 115 154 196 251 309 356
#     4  10  22  41  64  91 125 164 202 244 302 371
#     4   9  16  24  39  72 114 152 196 251 306 352
#
# _framework density 20.460768000000002
#
# number of rings (size 3 to 8) (size 9 to 14) (size 15 to 20)
#    0.000    2.167    0.833    3.000    1.167    6.000 
#    0.000    0.000    0.000    1.000    0.000    0.000 
#    0.000    0.000    0.000    0.000    0.000    0.000 
#
# Total GULP energy -297433.975714 kJ/mol
# GULP energy per Si atom -12393.082321 kJ/mol
# Density = 2.041420 g / cm^3
# Si number density = 20.460768 Si / 1000 Ang^3
#
#
#
# Elastic Constant Matrix: (Units=GPa)
#
#
# Indices 1 2 3 4 5 6 
#
# 1 48.1306 22.5533 16.1199 0.0000 0.0000 0.0000
# 2 22.5533 92.4789 50.0625 0.0000 0.0000 0.0000
# 3 16.1199 50.0625 127.7734 0.0000 0.0000 0.0000
# 4 0.0000 0.0000 0.0000 20.3599 0.0000 0.0000
# 5 0.0000 0.0000 0.0000 0.0000 -13.8774 0.0000
# 6 0.0000 0.0000 0.0000 0.0000 0.0000 21.6094
#
#
#
# Elastic Compliance Matrix: (Units=1/GPa)
#
#
# Indices 1 2 3 4 5 6 
#
# 1 0.023541 -0.005246 -0.000915 0.000000 0.000000 0.000000
# 2 -0.005246 0.014893 -0.005173 0.000000 0.000000 0.000000
# 3 -0.000915 -0.005173 0.009969 0.000000 0.000000 0.000000
# 4 0.000000 0.000000 0.000000 0.049116 0.000000 0.000000
# 5 0.000000 0.000000 0.000000 0.000000 -0.072060 0.000000
# 6 0.000000 0.000000 0.000000 0.000000 0.000000 0.046276
#
#
# Mechanical properties :
#
#
# Convention : Reuss Voigt Hill
#
# Bulk Modulus (GPa) = 38.85726 49.53938 44.19832
# Shear Modulus (GPa) = 48.55198 17.59485 33.07342
#
# Velocity S-wave (km/s) = 4.87656 2.93564 4.02485
# Velocity P-wave (km/s) = 7.12321 5.97956 6.57629
#
# Compressibility (1/GPa) = 0.02573522
#
# Stress axis : x y z
#
# Youngs Moduli (GPa) = 42.47849 67.14445 100.31371
#
# Poissons Ratio (x) = 0.35224 0.09174
# Poissons Ratio (y) = 0.22285 0.51897
# Poissons Ratio (z) = 0.03885 0.34737
#
# Static dielectric constant tensor:
#      x y z
#    x 3.406990 0.000000 0.000000 
#    y 0.000000 3.751060 0.000000 
#    z 0.000000 0.000000 4.003320 
# 
# 
# High freq. dielectric constant tensor:
#      x y z
#    x 1.742230 0.000000 0.000000 
#    y 0.000000 1.807700 0.000000 
#    z 0.000000 0.000000 1.815550 
# 
# From -- ./inp_files/24350.got.cif
#   From: 2010.03.12/outbox.cif.g09.slc.cpg/sg38_13_cif.got.tgz:24350.got - 2010.04.14 02:38:36.
