data_PCOD8179492
_publ_section_title
;
Structure prediction by ZEFSAII (Michael W. Deem and Ramdas Pophale) SiO2 
 PCOD8179492
Probable space group: A M M 2
;
_chemical_formula_sum "Si O2"
_cell_formula_units_Z 48
_cell_length_a 8.904032
_cell_length_b 24.866447
_cell_length_c 12.047417
_cell_angle_alpha 90.000000
_cell_angle_beta 90.000000
_cell_angle_gamma 90.000000
_cell_volume 2667.438353
_symmetry_space_group_name_H-M "A M M 2"
_symmetry_group_IT_number 38
_symmetry_cell_setting 'orthorhombic'
loop_
_space_group_symop_operation_xyz
x,y,z
-x,-y,z
-x,y,z
x,-y,z
x,1/2+y,1/2+z
-x,1/2-y,1/2+z
-x,1/2+y,1/2+z
x,1/2-y,1/2+z
loop_
_atom_site_type_symbol
_atom_site_label
_atom_site_fract_x
_atom_site_fract_y
_atom_site_fract_z
Si Si1 0.176638 0.354629 0.056520
Si Si2 0.824202 0.562128 0.439778
Si Si3 0.324854 0.437547 0.212088
Si Si4 0.669684 0.676552 0.833777
Si Si5 0.823056 0.757067 0.165866
Si Si6 0.669550 0.643341 0.598004
O O1 0.255755 0.406193 0.108711
O O2 0.220451 0.302524 0.128402
O O3 0.000000 0.364127 0.053880
O O4 0.234516 0.348504 0.932005
O O5 0.784841 0.500000 0.460547
O O6 0.751926 0.582615 0.325344
O O7 0.756873 0.594661 0.542049
O O8 0.000000 0.572578 0.432257
O O9 0.500000 0.425475 0.220775
O O10 0.290604 0.500000 0.191720
O O11 0.500000 0.689578 0.872970
O O12 0.748692 0.731348 0.787054
O O13 0.668684 0.633611 0.731702
O O14 0.754312 0.799549 0.075968
O O15 0.000000 0.765606 0.173220
O O16 0.500000 0.646686 0.551409
#
# Coordination Sequence:
#
# PCOD8179492 Si02
#       6
#     8   8   8   8   8   8
#     4  11  22  36  59  85 112 149 186 227 280 332
#     4  10  20  35  58  85 113 147 187 231 278 330
#     4  10  22  39  58  81 111 146 186 233 280 329
#     4   9  20  36  55  80 112 147 185 227 273 325
#     4   9  19  35  54  80 112 145 182 225 273 326
#     4   9  19  35  55  81 111 147 184 226 276 322
#
# _framework density 17.994793000000001
#
# number of rings (size 3 to 8) (size 9 to 14) (size 15 to 20)
#    1.000    1.333    0.000    2.500    0.000    6.000 
#    0.000    2.500    0.000    1.000    0.000    0.000 
#    0.000    0.000    0.000    0.000    0.000    0.000 
#
# Total GULP energy -297511.379306 kJ/mol
# GULP energy per Si atom -12396.307471 kJ/mol
# Density = 1.795384 g / cm^3
# Si number density = 17.994793 Si / 1000 Ang^3
#
#
#
# Elastic Constant Matrix: (Units=GPa)
#
#
# Indices 1 2 3 4 5 6 
#
# 1 102.2397 53.6550 41.1750 0.0000 0.0000 0.0000
# 2 53.6550 75.6897 44.9784 0.0000 0.0000 0.0000
# 3 41.1750 44.9784 89.1439 0.0000 0.0000 0.0000
# 4 0.0000 0.0000 0.0000 30.2779 0.0000 0.0000
# 5 0.0000 0.0000 0.0000 0.0000 37.0659 0.0000
# 6 0.0000 0.0000 0.0000 0.0000 0.0000 28.9039
#
#
#
# Elastic Compliance Matrix: (Units=1/GPa)
#
#
# Indices 1 2 3 4 5 6 
#
# 1 0.015918 -0.009876 -0.002369 0.000000 0.000000 0.000000
# 2 -0.009876 0.024997 -0.008051 0.000000 0.000000 0.000000
# 3 -0.002369 -0.008051 0.016374 0.000000 0.000000 0.000000
# 4 0.000000 0.000000 0.000000 0.033027 0.000000 0.000000
# 5 0.000000 0.000000 0.000000 0.000000 0.026979 0.000000
# 6 0.000000 0.000000 0.000000 0.000000 0.000000 0.034597
#
#
# Mechanical properties :
#
#
# Convention : Reuss Voigt Hill
#
# Bulk Modulus (GPa) = 59.89128 60.74335 60.31732
# Shear Modulus (GPa) = 25.24601 27.73386 26.48993
#
# Velocity S-wave (km/s) = 3.74968 3.93009 3.84094
# Velocity P-wave (km/s) = 7.21814 7.37723 7.29812
#
# Compressibility (1/GPa) = 0.01669692
#
# Stress axis : x y z
#
# Youngs Moduli (GPa) = 62.82176 40.00495 61.07115
#
# Poissons Ratio (x) = 0.39509 0.14470
# Poissons Ratio (y) = 0.62043 0.49167
# Poissons Ratio (z) = 0.14885 0.32207
#
# Static dielectric constant tensor:
#      x y z
#    x 3.465220 0.000000 0.000000 
#    y 0.000000 3.152060 0.000000 
#    z 0.000000 0.000000 3.174530 
# 
# 
# High freq. dielectric constant tensor:
#      x y z
#    x 1.718930 0.000000 0.000000 
#    y 0.000000 1.679240 0.000000 
#    z 0.000000 0.000000 1.687160 
# 
# From -- ./inp_files/8229.got.cif
#   From: 2010.03.12/outbox.cif.g09.slc.cpg/sg38_5_cif.got.tgz:8229.got - 2010.04.14 02:38:36.
