data_PCOD8179358
_publ_section_title
;
Structure prediction by ZEFSAII (Michael W. Deem and Ramdas Pophale) SiO2 
 PCOD8179358
Probable space group: A M M 2
;
_chemical_formula_sum "Si O2"
_cell_formula_units_Z 64
_cell_length_a 18.708436
_cell_length_b 20.413306
_cell_length_c 8.677717
_cell_angle_alpha 90.000000
_cell_angle_beta 90.000000
_cell_angle_gamma 90.000000
_cell_volume 3314.029050
_symmetry_space_group_name_H-M "A M M 2"
_symmetry_group_IT_number 38
_symmetry_cell_setting 'orthorhombic'
loop_
_space_group_symop_operation_xyz
x,y,z
-x,-y,z
-x,y,z
x,-y,z
x,1/2+y,1/2+z
-x,1/2-y,1/2+z
-x,1/2+y,1/2+z
x,1/2-y,1/2+z
loop_
_atom_site_type_symbol
_atom_site_label
_atom_site_fract_x
_atom_site_fract_y
_atom_site_fract_z
Si Si1 0.780841 0.811144 0.765570
Si Si2 0.419417 0.714084 0.112023
Si Si3 0.420560 0.842685 0.946610
Si Si4 0.278529 0.311605 0.944558
Si Si5 0.784676 0.074037 0.255874
Si Si6 0.919105 0.780387 0.933516
Si Si7 0.711979 0.426182 0.431917
Si Si8 0.920473 0.155820 0.256415
O O1 0.734907 0.751637 0.838262
O O2 0.778319 0.802044 0.582517
O O3 0.862217 0.816360 0.823618
O O4 0.743256 0.880129 0.800049
O O5 0.500000 0.691840 0.062218
O O6 0.404246 0.697181 0.289270
O O7 0.411952 0.792469 0.089395
O O8 0.359692 0.680639 0.004543
O O9 0.500000 0.872452 0.941564
O O10 0.367938 0.903140 0.973642
O O11 0.264864 0.378652 0.855000
O O12 0.867295 0.095143 0.267519
O O13 0.777119 0.000000 0.318195
O O14 0.762288 0.078904 0.079363
O O15 0.911956 0.702043 0.906532
O O16 0.000000 0.802863 0.888561
O O17 0.902348 0.797329 0.110686
O O18 0.708590 0.500000 0.368327
O O19 0.000000 0.126367 0.243466
#
# Coordination Sequence:
#
# PCOD8179358 Si02
#       8
#     8   8   8   8   8   8   8   8
#     4  12  21  36  62  89 116 152 193 243 293 347
#     4  10  20  35  57  89 119 146 186 237 293 350
#     4  10  21  37  58  88 118 150 190 239 297 351
#     4  12  22  36  62  89 116 154 195 244 294 346
#     4  11  25  41  57  83 118 157 204 246 290 350
#     4  10  20  34  57  91 120 146 187 239 293 343
#     4  11  23  39  58  82 116 155 199 244 289 345
#     4  10  20  36  59  87 119 152 190 240 297 350
#
# _framework density 19.311841000000001
#
# number of rings (size 3 to 8) (size 9 to 14) (size 15 to 20)
#    0.000    1.250    5.000    1.500    1.750    1.000 
#    0.000    0.000    0.000    1.500    0.000    0.000 
#    0.000    0.000    0.000    0.000    0.000    0.000 
#
# Total GULP energy -396776.216154 kJ/mol
# GULP energy per Si atom -12399.256755 kJ/mol
# Density = 1.926789 g / cm^3
# Si number density = 19.311841 Si / 1000 Ang^3
#
#
#
# Elastic Constant Matrix: (Units=GPa)
#
#
# Indices 1 2 3 4 5 6 
#
# 1 96.1457 32.4839 -10.0502 0.0000 0.0000 0.0000
# 2 32.4839 122.6841 21.1058 0.0000 0.0000 0.0000
# 3 -10.0502 21.1058 35.4921 0.0000 0.0000 0.0000
# 4 0.0000 0.0000 0.0000 24.8468 0.0000 0.0000
# 5 0.0000 0.0000 0.0000 0.0000 26.7952 0.0000
# 6 0.0000 0.0000 0.0000 0.0000 0.0000 24.0278
#
#
#
# Elastic Compliance Matrix: (Units=1/GPa)
#
#
# Indices 1 2 3 4 5 6 
#
# 1 0.012521 -0.004372 0.006146 0.000000 0.000000 0.000000
# 2 -0.004372 0.010607 -0.007546 0.000000 0.000000 0.000000
# 3 0.006146 -0.007546 0.034403 0.000000 0.000000 0.000000
# 4 0.000000 0.000000 0.000000 0.040247 0.000000 0.000000
# 5 0.000000 0.000000 0.000000 0.000000 0.037320 0.000000
# 6 0.000000 0.000000 0.000000 0.000000 0.000000 0.041618
#
#
# Mechanical properties :
#
#
# Convention : Reuss Voigt Hill
#
# Bulk Modulus (GPa) = 21.74623 37.93343 29.83983
# Shear Modulus (GPa) = 24.55937 29.18613 26.87275
#
# Velocity S-wave (km/s) = 3.57000 3.89177 3.73435
# Velocity P-wave (km/s) = 5.31772 6.31504 5.83772
#
# Compressibility (1/GPa) = 0.04598497
#
# Stress axis : x y z
#
# Youngs Moduli (GPa) = 79.86870 94.27894 29.06763
#
# Poissons Ratio (x) = 0.41222 -0.17864
# Poissons Ratio (y) = 0.34922 0.21933
# Poissons Ratio (z) = -0.49083 0.71139
#
# Static dielectric constant tensor:
#      x y z
#    x 3.870270 0.000000 0.000000 
#    y 0.000000 3.289970 0.000000 
#    z 0.000000 0.000000 3.507110 
# 
# 
# High freq. dielectric constant tensor:
#      x y z
#    x 1.776820 0.000000 0.000000 
#    y 0.000000 1.715360 0.000000 
#    z 0.000000 0.000000 1.748720 
# 
# From -- ./inp_files/6825.got.cif
#   From: 2010.03.12/outbox.cif.g09.slc.cpg/sg38_4_cif.got.tgz:6825.got - 2010.04.14 02:38:36.
