data_PCOD8179973
_publ_section_title
;
Structure prediction by ZEFSAII (Michael W. Deem and Ramdas Pophale) SiO2 
 PCOD8179973
Probable space group: A M M 2
;
_chemical_formula_sum "Si O2"
_cell_formula_units_Z 56
_cell_length_a 16.397312
_cell_length_b 9.253621
_cell_length_c 20.269535
_cell_angle_alpha 90.000000
_cell_angle_beta 90.000000
_cell_angle_gamma 90.000000
_cell_volume 3075.587975
_symmetry_space_group_name_H-M "A M M 2"
_symmetry_group_IT_number 38
_symmetry_cell_setting 'orthorhombic'
loop_
_space_group_symop_operation_xyz
x,y,z
-x,-y,z
-x,y,z
x,-y,z
x,1/2+y,1/2+z
-x,1/2-y,1/2+z
-x,1/2+y,1/2+z
x,1/2-y,1/2+z
loop_
_atom_site_type_symbol
_atom_site_label
_atom_site_fract_x
_atom_site_fract_y
_atom_site_fract_z
Si Si1 0.000000 0.828079 0.352860
Si Si2 0.842534 0.832101 0.889346
Si Si3 0.591256 0.169621 0.479873
Si Si4 0.406511 0.335339 0.828505
Si Si5 0.732489 0.668452 0.263565
Si Si6 0.826921 0.330621 0.652843
Si Si7 0.743430 0.832494 0.017329
Si Si8 0.000000 0.329094 0.702512
O O1 0.922135 0.766358 0.390611
O O2 0.000000 0.770973 0.277439
O O3 0.000000 0.000000 0.356794
O O4 0.794039 0.799308 0.822849
O O5 0.867219 0.000000 0.895194
O O6 0.788285 0.782150 0.950971
O O7 0.500000 0.214255 0.502814
O O8 0.603802 0.215752 0.403936
O O9 0.657783 0.249250 0.525076
O O10 0.603264 0.000000 0.488007
O O11 0.500000 0.322510 0.806462
O O12 0.375833 0.500000 0.820752
O O13 0.355706 0.231518 0.781087
O O14 0.723131 0.500000 0.249146
O O15 0.764410 0.745926 0.198561
O O16 0.820351 0.500000 0.669480
O O17 0.803264 0.296677 0.577761
O O18 0.919148 0.273087 0.664892
O O19 0.721319 0.000000 0.014549
O O20 0.000000 0.500000 0.703105
#
# Coordination Sequence:
#
# PCOD8179973 Si02
#       8
#     4   8   8   8   8   8   8   4
#     4  11  21  34  57  85 107 140 190 233 273 320
#     4  10  21  36  54  81 114 142 174 226 284 328
#     4   9  18  33  55  82 112 146 182 227 281 329
#     4   9  18  33  55  83 112 145 186 230 275 324
#     4  11  21  34  55  83 113 144 179 224 281 331
#     4  10  21  38  59  80 108 148 191 229 270 327
#     4  10  21  37  57  83 113 148 185 225 277 332
#     4   9  18  34  55  79 103 136 186 231 267 318
#
# _framework density 18.207899000000001
#
# number of rings (size 3 to 8) (size 9 to 14) (size 15 to 20)
#    0.000    2.143    2.857    1.500    0.000    2.857 
#    0.000    4.643    0.000    0.857    0.000    0.000 
#    0.000    0.000    0.000    0.000    0.000    0.000 
#
# Total GULP energy -347270.085557 kJ/mol
# GULP energy per Si atom -12402.503056 kJ/mol
# Density = 1.816646 g / cm^3
# Si number density = 18.207899 Si / 1000 Ang^3
#
#
#
# Elastic Constant Matrix: (Units=GPa)
#
#
# Indices 1 2 3 4 5 6 
#
# 1 124.8355 48.8340 34.4394 0.0000 0.0000 0.0000
# 2 48.8340 59.7303 30.9873 0.0000 0.0000 0.0000
# 3 34.4394 30.9873 64.9759 0.0000 0.0000 0.0000
# 4 0.0000 0.0000 0.0000 25.2316 0.0000 0.0000
# 5 0.0000 0.0000 0.0000 0.0000 26.2415 0.0000
# 6 0.0000 0.0000 0.0000 0.0000 0.0000 33.9862
#
#
#
# Elastic Compliance Matrix: (Units=1/GPa)
#
#
# Indices 1 2 3 4 5 6 
#
# 1 0.012017 -0.008664 -0.002238 0.000000 0.000000 0.000000
# 2 -0.008664 0.028492 -0.008996 0.000000 0.000000 0.000000
# 3 -0.002238 -0.008996 0.020866 0.000000 0.000000 0.000000
# 4 0.000000 0.000000 0.000000 0.039633 0.000000 0.000000
# 5 0.000000 0.000000 0.000000 0.000000 0.038108 0.000000
# 6 0.000000 0.000000 0.000000 0.000000 0.000000 0.029424
#
#
# Mechanical properties :
#
#
# Convention : Reuss Voigt Hill
#
# Bulk Modulus (GPa) = 46.33714 53.11812 49.72763
# Shear Modulus (GPa) = 23.19875 26.11059 24.65467
#
# Velocity S-wave (km/s) = 3.57333 3.79096 3.68375
# Velocity P-wave (km/s) = 6.52143 6.95689 6.74268
#
# Compressibility (1/GPa) = 0.02158096
#
# Stress axis : x y z
#
# Youngs Moduli (GPa) = 83.21476 35.09701 47.92373
#
# Poissons Ratio (x) = 0.30408 0.10723
# Poissons Ratio (y) = 0.72098 0.43112
# Poissons Ratio (z) = 0.18619 0.31573
#
# Static dielectric constant tensor:
#      x y z
#    x 3.470510 0.000000 0.000000 
#    y 0.000000 3.211020 0.000000 
#    z 0.000000 0.000000 3.234030 
# 
# 
# High freq. dielectric constant tensor:
#      x y z
#    x 1.716180 0.000000 0.000000 
#    y 0.000000 1.695790 0.000000 
#    z 0.000000 0.000000 1.689140 
# 
# From -- ./inp_files/21137.got.cif
#   From: 2010.03.12/outbox.cif.g09.slc.cpg/sg38_11_cif.got.tgz:21137.got - 2010.04.14 02:38:36.
