data_PCOD8179831
_publ_section_title
;
Structure prediction by ZEFSAII (Michael W. Deem and Ramdas Pophale) SiO2 
 PCOD8179831
Probable space group: A M M 2
;
_chemical_formula_sum "Si O2"
_cell_formula_units_Z 48
_cell_length_a 7.717241
_cell_length_b 9.383330
_cell_length_c 34.516420
_cell_angle_alpha 90.000000
_cell_angle_beta 90.000000
_cell_angle_gamma 90.000000
_cell_volume 2499.451984
_symmetry_space_group_name_H-M "A M M 2"
_symmetry_group_IT_number 38
_symmetry_cell_setting 'orthorhombic'
loop_
_space_group_symop_operation_xyz
x,y,z
-x,-y,z
-x,y,z
x,-y,z
x,1/2+y,1/2+z
-x,1/2-y,1/2+z
-x,1/2+y,1/2+z
x,1/2-y,1/2+z
loop_
_atom_site_type_symbol
_atom_site_label
_atom_site_fract_x
_atom_site_fract_y
_atom_site_fract_z
Si Si1 0.702011 0.831347 0.201900
Si Si2 0.301673 0.332054 0.390272
Si Si3 0.198340 0.159335 0.547714
Si Si4 0.704224 0.339936 0.964784
Si Si5 0.000000 0.328657 0.246443
Si Si6 0.302718 0.652365 0.617084
Si Si7 0.000000 0.668071 0.334911
O O1 0.500000 0.789842 0.209342
O O2 0.823933 0.737251 0.229323
O O3 0.768964 0.790732 0.158276
O O4 0.729819 0.000000 0.209337
O O5 0.500000 0.287724 0.380186
O O6 0.287762 0.500000 0.396896
O O7 0.234102 0.258410 0.429599
O O8 0.175285 0.277360 0.356172
O O9 0.225744 0.227235 0.505144
O O10 0.294716 0.241699 0.581394
O O11 0.000000 0.160139 0.559509
O O12 0.275624 0.000000 0.546685
O O13 0.500000 0.342790 0.967032
O O14 0.778957 0.500000 0.958952
O O15 0.000000 0.279219 0.291099
O O16 0.000000 0.500000 0.241376
O O17 0.500000 0.621773 0.626736
O O18 0.213994 0.500000 0.606059
O O19 0.000000 0.500000 0.336564
#
# Coordination Sequence:
#
# PCOD8179831 Si02
#       7
#     8   8   8   8   4   8   4
#     4   9  20  40  62  83 113 153 192 232 282 338
#     4   9  18  34  56  78 102 137 179 220 262 315
#     4  10  21  33  47  74 110 143 176 216 265 319
#     4   9  18  33  51  72 102 139 175 215 264 312
#     4  11  23  37  59  90 119 146 183 232 285 343
#     4   9  19  36  56  76 100 137 184 227 266 313
#     4   9  20  37  55  80 111 140 171 214 273 333
#
# _framework density 19.204211000000001
#
# number of rings (size 3 to 8) (size 9 to 14) (size 15 to 20)
#    0.000    2.667    0.000    1.750    2.333    3.667 
#    0.000    6.667    0.000    2.000    0.000    0.000 
#    0.000    0.000    0.000    0.000    0.000    0.000 
#
# Total GULP energy -297424.829675 kJ/mol
# GULP energy per Si atom -12392.701236 kJ/mol
# Density = 1.916050 g / cm^3
# Si number density = 19.204211 Si / 1000 Ang^3
#
#
#
# Elastic Constant Matrix: (Units=GPa)
#
#
# Indices 1 2 3 4 5 6 
#
# 1 82.6050 34.8578 60.8916 0.0000 0.0000 0.0000
# 2 34.8578 64.0932 61.5273 0.0000 0.0000 0.0000
# 3 60.8916 61.5273 173.1224 0.0000 0.0000 0.0000
# 4 0.0000 0.0000 0.0000 31.9651 0.0000 0.0000
# 5 0.0000 0.0000 0.0000 0.0000 32.6374 0.0000
# 6 0.0000 0.0000 0.0000 0.0000 0.0000 22.0980
#
#
#
# Elastic Compliance Matrix: (Units=1/GPa)
#
#
# Indices 1 2 3 4 5 6 
#
# 1 0.017528 -0.005486 -0.004215 0.000000 0.000000 0.000000
# 2 -0.005486 0.025399 -0.007097 0.000000 0.000000 0.000000
# 3 -0.004215 -0.007097 0.009781 0.000000 0.000000 0.000000
# 4 0.000000 0.000000 0.000000 0.031284 0.000000 0.000000
# 5 0.000000 0.000000 0.000000 0.000000 0.030640 0.000000
# 6 0.000000 0.000000 0.000000 0.000000 0.000000 0.045253
#
#
# Mechanical properties :
#
#
# Convention : Reuss Voigt Hill
#
# Bulk Modulus (GPa) = 52.32596 70.48601 61.40599
# Shear Modulus (GPa) = 25.01839 28.17636 26.59737
#
# Velocity S-wave (km/s) = 3.61329 3.83456 3.72556
# Velocity P-wave (km/s) = 6.68686 7.50921 7.10993
#
# Compressibility (1/GPa) = 0.01911097
#
# Stress axis : x y z
#
# Youngs Moduli (GPa) = 57.05084 39.37152 102.23733
#
# Poissons Ratio (x) = 0.21601 0.43096
# Poissons Ratio (y) = 0.31300 0.72558
# Poissons Ratio (z) = 0.24049 0.27942
#
# Static dielectric constant tensor:
#      x y z
#    x 3.493190 0.000000 0.000000 
#    y 0.000000 3.421720 0.000000 
#    z 0.000000 0.000000 3.629780 
# 
# 
# High freq. dielectric constant tensor:
#      x y z
#    x 1.750980 0.000000 0.000000 
#    y 0.000000 1.727010 0.000000 
#    z 0.000000 0.000000 1.748970 
# 
# From -- ./inp_files/24315.got.cif
#   From: 2010.03.12/outbox.cif.g09.slc.cpg/sg38_13_cif.got.tgz:24315.got - 2010.04.14 02:38:36.
