data_PCOD8179354
_publ_section_title
;
Structure prediction by ZEFSAII (Michael W. Deem and Ramdas Pophale) SiO2 
 PCOD8179354
Probable space group: A M M 2
;
_chemical_formula_sum "Si O2"
_cell_formula_units_Z 64
_cell_length_a 23.709377
_cell_length_b 8.827347
_cell_length_c 15.453863
_cell_angle_alpha 90.000000
_cell_angle_beta 90.000000
_cell_angle_gamma 90.000000
_cell_volume 3234.352864
_symmetry_space_group_name_H-M "A M M 2"
_symmetry_group_IT_number 38
_symmetry_cell_setting 'orthorhombic'
loop_
_space_group_symop_operation_xyz
x,y,z
-x,-y,z
-x,y,z
x,-y,z
x,1/2+y,1/2+z
-x,1/2-y,1/2+z
-x,1/2+y,1/2+z
x,1/2-y,1/2+z
loop_
_atom_site_type_symbol
_atom_site_label
_atom_site_fract_x
_atom_site_fract_y
_atom_site_fract_z
Si Si1 0.863759 0.821365 0.049660
Si Si2 0.327579 0.326470 0.401672
Si Si3 0.335011 0.174208 0.709570
Si Si4 0.933875 0.825382 0.698234
Si Si5 0.062528 0.179823 0.892271
Si Si6 0.563666 0.176445 0.456363
Si Si7 0.562956 0.173513 0.138045
Si Si8 0.741956 0.821993 0.551220
O O1 0.899019 0.779326 0.134151
O O2 0.802007 0.755091 0.054727
O O3 0.859015 0.000000 0.043383
O O4 0.894541 0.755056 0.963871
O O5 0.322673 0.500000 0.432105
O O6 0.305554 0.306541 0.303261
O O7 0.392893 0.275455 0.401072
O O8 0.290641 0.223478 0.464402
O O9 0.391712 0.275304 0.709114
O O10 0.292473 0.232280 0.635616
O O11 0.351743 0.000000 0.693576
O O12 0.917700 0.774125 0.795795
O O13 0.000000 0.800584 0.682002
O O14 0.917259 0.000000 0.682803
O O15 0.000000 0.246195 0.910941
O O16 0.059397 0.000000 0.897790
O O17 0.500000 0.214028 0.425675
O O18 0.571680 0.218160 0.556345
O O19 0.577571 0.000000 0.444705
O O20 0.500000 0.192428 0.176911
O O21 0.573482 0.000000 0.110218
O O22 0.750737 0.000000 0.551814
#
# Coordination Sequence:
#
# PCOD8179354 Si02
#       8
#     8   8   8   8   8   8   8   8
#     4  11  22  36  58  86 116 151 193 241 287 335
#     4  11  23  40  62  87 112 145 192 244 293 346
#     4  10  23  41  61  83 112 151 192 236 294 356
#     4   9  18  35  59  86 117 153 191 230 276 336
#     4   8  16  33  57  84 116 154 190 225 276 341
#     4  10  20  35  57  85 118 153 185 224 284 352
#     4  10  20  34  57  88 118 148 186 236 288 340
#     4  11  24  43  61  80 112 154 197 241 290 346
#
# _framework density 19.787576000000001
#
# number of rings (size 3 to 8) (size 9 to 14) (size 15 to 20)
#    0.000    2.000    1.250    3.000    0.000    5.250 
#    0.000    8.750    0.000    1.500    0.000    0.000 
#    0.000    0.000    0.000    0.000    0.000    0.000 
#
# Total GULP energy -396825.852597 kJ/mol
# GULP energy per Si atom -12400.807894 kJ/mol
# Density = 1.974254 g / cm^3
# Si number density = 19.787576 Si / 1000 Ang^3
#
#
#
# Elastic Constant Matrix: (Units=GPa)
#
#
# Indices 1 2 3 4 5 6 
#
# 1 116.2209 39.3130 66.5396 0.0000 0.0000 0.0000
# 2 39.3130 54.2079 31.9592 0.0000 0.0000 0.0000
# 3 66.5396 31.9592 126.4771 0.0000 0.0000 0.0000
# 4 0.0000 0.0000 0.0000 29.1178 0.0000 0.0000
# 5 0.0000 0.0000 0.0000 0.0000 11.5633 0.0000
# 6 0.0000 0.0000 0.0000 0.0000 0.0000 21.3629
#
#
#
# Elastic Compliance Matrix: (Units=1/GPa)
#
#
# Indices 1 2 3 4 5 6 
#
# 1 0.014237 -0.006943 -0.005735 0.000000 0.000000 0.000000
# 2 -0.006943 0.025063 -0.002680 0.000000 0.000000 0.000000
# 3 -0.005735 -0.002680 0.011601 0.000000 0.000000 0.000000
# 4 0.000000 0.000000 0.000000 0.034343 0.000000 0.000000
# 5 0.000000 0.000000 0.000000 0.000000 0.086481 0.000000
# 6 0.000000 0.000000 0.000000 0.000000 0.000000 0.046810
#
#
# Mechanical properties :
#
#
# Convention : Reuss Voigt Hill
#
# Bulk Modulus (GPa) = 49.54655 63.61437 56.58046
# Shear Modulus (GPa) = 19.53271 23.01508 21.27390
#
# Velocity S-wave (km/s) = 3.14525 3.41414 3.28245
# Velocity P-wave (km/s) = 6.18739 6.91088 6.55911
#
# Compressibility (1/GPa) = 0.02018304
#
# Stress axis : x y z
#
# Youngs Moduli (GPa) = 70.24120 39.89909 86.19780
#
# Poissons Ratio (x) = 0.27704 0.49438
# Poissons Ratio (y) = 0.48771 0.23103
# Poissons Ratio (z) = 0.40286 0.10694
#
# Static dielectric constant tensor:
#      x y z
#    x 6.321260 0.000000 0.000000 
#    y 0.000000 3.463000 0.000000 
#    z 0.000000 0.000000 3.684850 
# 
# 
# High freq. dielectric constant tensor:
#      x y z
#    x 1.768930 0.000000 0.000000 
#    y 0.000000 1.762780 0.000000 
#    z 0.000000 0.000000 1.774500 
# 
# From -- ./inp_files/15805.got.cif
#   From: 2010.03.12/outbox.cif.g09.slc.cpg/sg38_8_cif.got.tgz:15805.got - 2010.04.14 02:38:36.
