data_PCOD8179781
_publ_section_title
;
Structure prediction by ZEFSAII (Michael W. Deem and Ramdas Pophale) SiO2 
 PCOD8179781
Probable space group: A M M 2
;
_chemical_formula_sum "Si O2"
_cell_formula_units_Z 56
_cell_length_a 21.367323
_cell_length_b 8.478133
_cell_length_c 15.151757
_cell_angle_alpha 90.000000
_cell_angle_beta 90.000000
_cell_angle_gamma 90.000000
_cell_volume 2744.816634
_symmetry_space_group_name_H-M "A M M 2"
_symmetry_group_IT_number 38
_symmetry_cell_setting 'orthorhombic'
loop_
_space_group_symop_operation_xyz
x,y,z
-x,-y,z
-x,y,z
x,-y,z
x,1/2+y,1/2+z
-x,1/2-y,1/2+z
-x,1/2+y,1/2+z
x,1/2-y,1/2+z
loop_
_atom_site_type_symbol
_atom_site_label
_atom_site_fract_x
_atom_site_fract_y
_atom_site_fract_z
Si Si1 0.786704 0.180302 0.673380
Si Si2 0.000000 0.322767 0.810983
Si Si3 0.862936 0.819906 0.018121
Si Si4 0.427201 0.183309 0.819373
Si Si5 0.347628 0.181734 0.163809
Si Si6 0.133840 0.814196 0.324820
Si Si7 0.000000 0.821925 0.991219
Si Si8 0.572861 0.682866 0.009231
O O1 0.821483 0.213846 0.581761
O O2 0.713859 0.212455 0.661022
O O3 0.812204 0.284551 0.754125
O O4 0.797105 0.000000 0.699103
O O5 0.067290 0.247506 0.783325
O O6 0.000000 0.500000 0.776248
O O7 0.000000 0.312624 0.917328
O O8 0.936150 0.800392 0.047233
O O9 0.841334 0.000000 0.029647
O O10 0.851039 0.771341 0.916775
O O11 0.500000 0.209728 0.798522
O O12 0.387727 0.280126 0.749598
O O13 0.409398 0.000000 0.814831
O O14 0.409057 0.252384 0.913809
O O15 0.388553 0.216153 0.078235
O O16 0.327896 0.000000 0.164768
O O17 0.127824 0.000000 0.343639
O O18 0.000000 0.000000 0.949718
O O19 0.500000 0.708906 0.029191
O O20 0.591147 0.500000 0.016640
#
# Coordination Sequence:
#
# PCOD8179781 Si02
#       8
#     8   4   8   8   8   8   4   8
#     4  12  26  42  58  82 115 156 202 243 288 346
#     4   8  16  31  56  85 114 146 184 233 290 347
#     4  10  20  38  61  87 117 151 191 239 293 348
#     4  10  21  39  64  94 125 156 192 236 286 340
#     4  12  25  41  61  86 118 157 199 243 290 343
#     4  10  20  38  61  87 117 151 191 239 293 348
#     4   8  16  31  56  85 114 146 184 233 290 347
#     4  10  21  39  64  94 125 156 192 236 286 340
#
# _framework density 20.402090999999999
#
# number of rings (size 3 to 8) (size 9 to 14) (size 15 to 20)
#    0.000    1.714    0.000    4.714    0.000    6.286 
#    0.000    8.571    0.000    0.000    0.000    0.000 
#    0.000    0.000    0.000    0.000    0.000    0.000 
#
# Total GULP energy -347160.891331 kJ/mol
# GULP energy per Si atom -12398.603262 kJ/mol
# Density = 2.035566 g / cm^3
# Si number density = 20.402091 Si / 1000 Ang^3
#
#
#
# Elastic Constant Matrix: (Units=GPa)
#
#
# Indices 1 2 3 4 5 6 
#
# 1 91.1463 20.1272 54.1162 0.0000 0.0000 0.0000
# 2 20.1272 76.5662 18.3741 0.0000 0.0000 0.0000
# 3 54.1162 18.3741 100.8084 0.0000 0.0000 0.0000
# 4 0.0000 0.0000 0.0000 32.0503 0.0000 0.0000
# 5 0.0000 0.0000 0.0000 0.0000-1380.2034 0.0000
# 6 0.0000 0.0000 0.0000 0.0000 0.0000 28.6246
#
#
#
# Elastic Compliance Matrix: (Units=1/GPa)
#
#
# Indices 1 2 3 4 5 6 
#
# 1 0.016486 -0.002311 -0.008429 0.000000 0.000000 0.000000
# 2 -0.002311 0.013982 -0.001308 0.000000 0.000000 0.000000
# 3 -0.008429 -0.001308 0.014683 0.000000 0.000000 0.000000
# 4 0.000000 0.000000 0.000000 0.031201 0.000000 0.000000
# 5 0.000000 0.000000 0.000000 0.000000 -0.000725 0.000000
# 6 0.000000 0.000000 0.000000 0.000000 0.000000 0.034935
#
#
# Mechanical properties :
#
#
# Convention : Reuss Voigt Hill
#
# Bulk Modulus (GPa) = 47.49340 50.41734 48.95537
# Shear Modulus (GPa) = 35.29162 -252.17880 -108.44359
#
# Velocity S-wave (km/s) = 4.16360 -11.12981 -7.29853
# Velocity P-wave (km/s) = 6.81494 11.84897 6.85401
#
# Compressibility (1/GPa) = 0.02105556
#
# Stress axis : x y z
#
# Youngs Moduli (GPa) = 60.65681 71.52076 68.10589
#
# Poissons Ratio (x) = 0.16529 0.57406
# Poissons Ratio (y) = 0.14018 0.08907
# Poissons Ratio (z) = 0.51127 0.09354
#
# Static dielectric constant tensor:
#      x y z
#    x 4.503080 0.000000 0.000000 
#    y 0.000000 3.725250 0.000000 
#    z 0.000000 0.000000 3.487520 
# 
# 
# High freq. dielectric constant tensor:
#      x y z
#    x 1.803110 0.000000 0.000000 
#    y 0.000000 1.803820 0.000000 
#    z 0.000000 0.000000 1.790660 
# 
# From -- ./inp_files/15539.got.cif
#   From: 2010.03.12/outbox.cif.g09.slc.cpg/sg38_8_cif.got.tgz:15539.got - 2010.04.14 02:38:36.
