data_PCOD8180876
_publ_section_title
;
Structure prediction by ZEFSAII (Michael W. Deem and Ramdas Pophale) SiO2 
 PCOD8180876
Probable space group: A B M 2
;
_chemical_formula_sum "Si O2"
_cell_formula_units_Z 64
_cell_length_a 19.385369
_cell_length_b 9.076814
_cell_length_c 20.343568
_cell_angle_alpha 90.000000
_cell_angle_beta 90.000000
_cell_angle_gamma 90.000000
_cell_volume 3579.601103
_symmetry_space_group_name_H-M "A B M 2"
_symmetry_group_IT_number 39
_symmetry_cell_setting 'orthorhombic'
loop_
_space_group_symop_operation_xyz
x,y,z
-x,-y,z
-x,1/2+y,z
x,1/2-y,z
x,1/2+y,1/2+z
-x,1/2-y,1/2+z
-x,y,1/2+z
x,-y,1/2+z
loop_
_atom_site_type_symbol
_atom_site_label
_atom_site_fract_x
_atom_site_fract_y
_atom_site_fract_z
Si Si1 0.426267 0.575890 0.883360
Si Si2 0.571076 0.921319 0.634804
Si Si3 0.785221 0.080019 0.196344
Si Si4 0.783922 0.079306 0.557884
Si Si5 0.658235 0.922327 0.510636
Si Si6 0.063471 0.921557 0.560673
Si Si7 0.936593 0.921017 0.700530
Si Si8 0.351612 0.921640 0.267077
O O1 0.500000 0.500000 0.875687
O O2 0.436812 0.750000 0.877901
O O3 0.374650 0.522671 0.826927
O O4 0.392146 0.528224 0.952079
O O5 0.556810 0.750000 0.628369
O O6 0.624429 0.971996 0.579139
O O7 0.600900 0.963802 0.705378
O O8 0.500000 0.000000 0.621856
O O9 0.775694 0.250000 0.174662
O O10 0.860151 0.055464 0.231304
O O11 0.727497 0.038059 0.249863
O O12 0.776135 0.986313 0.130676
O O13 0.765979 0.250000 0.563539
O O14 0.861216 0.056010 0.528085
O O15 0.731733 0.004312 0.506319
O O16 0.672954 0.750000 0.506944
O O17 0.046748 0.750000 0.569888
O O18 0.066737 0.003127 0.630010
O O19 0.000000 0.000000 0.520433
O O20 0.954478 0.750000 0.694053
O O21 0.000000 0.000000 0.740555
O O22 0.359599 0.750000 0.285562
#
# Coordination Sequence:
#
# PCOD8180876 Si02
#       8
#     8   8   8   8   8   8   8   8
#     4  11  24  40  58  78 103 135 171 213 259 309
#     4  10  20  34  53  75  98 127 164 204 251 305
#     4   9  17  31  49  70 101 140 173 206 254 307
#     4  10  19  29  47  76 105 132 169 217 257 296
#     4  10  21  38  55  73 101 137 172 207 255 313
#     4   9  16  25  38  63  98 134 169 203 246 295
#     4   9  15  23  39  63  95 134 170 203 246 296
#     4  10  20  36  56  76 102 135 172 213 256 307
#
# _framework density 17.879086999999998
#
# number of rings (size 3 to 8) (size 9 to 14) (size 15 to 20)
#    0.000    2.250    1.250    3.000    0.000    5.500 
#    0.000    0.000    0.000    0.000    0.000    0.875 
#    0.000    2.000    0.000    0.000    0.000    0.000 
#
# Total GULP energy -396617.816878 kJ/mol
# GULP energy per Si atom -12394.306777 kJ/mol
# Density = 1.783839 g / cm^3
# Si number density = 17.879087 Si / 1000 Ang^3
#
#
#
# Elastic Constant Matrix: (Units=GPa)
#
#
# Indices 1 2 3 4 5 6 
#
# 1 147.2479 61.2185 22.3894 0.0000 0.0000 0.0000
# 2 61.2185 83.5586 28.5287 0.0000 0.0000 0.0000
# 3 22.3894 28.5287 49.4062 0.0000 0.0000 0.0000
# 4 0.0000 0.0000 0.0000 19.6357 0.0000 0.0000
# 5 0.0000 0.0000 0.0000 0.0000 4.7433 0.0000
# 6 0.0000 0.0000 0.0000 0.0000 0.0000 35.4839
#
#
#
# Elastic Compliance Matrix: (Units=1/GPa)
#
#
# Indices 1 2 3 4 5 6 
#
# 1 0.009771 -0.007034 -0.000367 0.000000 0.000000 0.000000
# 2 -0.007034 0.019969 -0.008344 0.000000 0.000000 0.000000
# 3 -0.000367 -0.008344 0.025224 0.000000 0.000000 0.000000
# 4 0.000000 0.000000 0.000000 0.050928 0.000000 0.000000
# 5 0.000000 0.000000 0.000000 0.000000 0.210821 0.000000
# 6 0.000000 0.000000 0.000000 0.000000 0.000000 0.028182
#
#
# Mechanical properties :
#
#
# Convention : Reuss Voigt Hill
#
# Bulk Modulus (GPa) = 42.59406 56.05398 49.32402
# Shear Modulus (GPa) = 13.01373 23.17765 18.09569
#
# Velocity S-wave (km/s) = 2.70084 3.60440 3.18483
# Velocity P-wave (km/s) = 5.79665 6.98155 6.41651
#
# Compressibility (1/GPa) = 0.02347745
#
# Stress axis : x y z
#
# Youngs Moduli (GPa) = 102.34091 50.07644 39.64426
#
# Poissons Ratio (x) = 0.35222 0.01453
# Poissons Ratio (y) = 0.71983 0.33077
# Poissons Ratio (z) = 0.03752 0.41782
#
# Static dielectric constant tensor:
#      x y z
#    x 4.260080 0.000000 0.000000 
#    y 0.000000 3.380150 0.000000 
#    z 0.000000 0.000000 2.900010 
# 
# 
# High freq. dielectric constant tensor:
#      x y z
#    x 1.721330 0.000000 0.000000 
#    y 0.000000 1.698910 0.000000 
#    z 0.000000 0.000000 1.633100 
# 
# From -- ./inp_files/13239.got.cif
#   From: 2010.03.12/outbox.cif.g09.slc.cpg/sg39_7_cif.got.tgz:13239.got - 2010.04.14 02:53:20.
