data_PCOD8180779
_publ_section_title
;
Structure prediction by ZEFSAII (Michael W. Deem and Ramdas Pophale) SiO2 
 PCOD8180779
Probable space group: A B M 2
;
_chemical_formula_sum "Si O2"
_cell_formula_units_Z 32
_cell_length_a 9.244548
_cell_length_b 8.611652
_cell_length_c 20.792505
_cell_angle_alpha 90.000000
_cell_angle_beta 90.000000
_cell_angle_gamma 90.000000
_cell_volume 1655.308587
_symmetry_space_group_name_H-M "A B M 2"
_symmetry_group_IT_number 39
_symmetry_cell_setting 'orthorhombic'
loop_
_space_group_symop_operation_xyz
x,y,z
-x,-y,z
-x,1/2+y,z
x,1/2-y,z
x,1/2+y,1/2+z
-x,1/2-y,1/2+z
-x,y,1/2+z
x,-y,1/2+z
loop_
_atom_site_type_symbol
_atom_site_label
_atom_site_fract_x
_atom_site_fract_y
_atom_site_fract_z
Si Si1 0.340407 0.433011 0.912420
Si Si2 0.342531 0.568641 0.672576
Si Si3 0.339478 0.066309 0.543238
Si Si4 0.158147 0.567910 0.797688
O O1 0.500000 0.500000 0.900734
O O2 0.353593 0.250000 0.916812
O O3 0.237121 0.480518 0.855017
O O4 0.267810 0.497430 0.978497
O O5 0.500000 0.500000 0.687436
O O6 0.359996 0.750000 0.659960
O O7 0.265927 0.491694 0.609552
O O8 0.241072 0.530242 0.732210
O O9 0.337457 0.250000 0.539297
O O10 0.500000 0.000000 0.546267
O O11 0.153736 0.750000 0.812642
O O12 0.000000 0.500000 0.790217
#
# Coordination Sequence:
#
# PCOD8180779 Si02
#       4
#     8   8   8   8
#     4  11  21  36  59  85 114 146 185 230 277 329
#     4  10  20  35  57  84 112 143 182 226 275 329
#     4  10  18  31  54  83 113 142 179 226 277 328
#     4  11  24  40  57  80 112 149 188 230 278 330
#
# _framework density 19.331744
#
# number of rings (size 3 to 8) (size 9 to 14) (size 15 to 20)
#    0.000    1.500    0.000    9.750    0.000    6.000 
#    0.000    1.250    0.000    3.000    0.000    0.000 
#    0.000    0.000    0.000    0.000    0.000    0.000 
#
# Total GULP energy -198394.014130 kJ/mol
# GULP energy per Si atom -12399.625883 kJ/mol
# Density = 1.928774 g / cm^3
# Si number density = 19.331744 Si / 1000 Ang^3
#
#
#
# Elastic Constant Matrix: (Units=GPa)
#
#
# Indices 1 2 3 4 5 6 
#
# 1 86.0415 52.7091 62.0504 0.0000 0.0000 0.0000
# 2 52.7091 180.9217 98.4328 0.0000 0.0000 0.0000
# 3 62.0504 98.4328 172.7288 0.0000 0.0000 0.0000
# 4 0.0000 0.0000 0.0000 36.5941 0.0000 0.0000
# 5 0.0000 0.0000 0.0000 0.0000 -35.1514 0.0000
# 6 0.0000 0.0000 0.0000 0.0000 0.0000 27.0866
#
#
#
# Elastic Compliance Matrix: (Units=1/GPa)
#
#
# Indices 1 2 3 4 5 6 
#
# 1 0.016303 -0.002266 -0.004565 0.000000 0.000000 0.000000
# 2 -0.002266 0.008326 -0.003931 0.000000 0.000000 0.000000
# 3 -0.004565 -0.003931 0.009669 0.000000 0.000000 0.000000
# 4 0.000000 0.000000 0.000000 0.027327 0.000000 0.000000
# 5 0.000000 0.000000 0.000000 0.000000 -0.028448 0.000000
# 6 0.000000 0.000000 0.000000 0.000000 0.000000 0.036919
#
#
# Mechanical properties :
#
#
# Convention : Reuss Voigt Hill
#
# Bulk Modulus (GPa) = 78.28150 96.23076 87.25613
# Shear Modulus (GPa) = 52.15025 20.80585 36.47805
#
# Velocity S-wave (km/s) = 5.19952 3.28419 4.34862
# Velocity P-wave (km/s) = 8.75376 8.01673 8.39334
#
# Compressibility (1/GPa) = 0.01277441
#
# Stress axis : x y z
#
# Youngs Moduli (GPa) = 61.33970 120.10682 103.41826
#
# Poissons Ratio (x) = 0.27213 0.47214
# Poissons Ratio (y) = 0.13898 0.40651
# Poissons Ratio (z) = 0.28004 0.47211
#
# Static dielectric constant tensor:
#      x y z
#    x 3.284940 0.000000 0.000000 
#    y 0.000000 3.736090 0.000000 
#    z 0.000000 0.000000 4.447000 
# 
# 
# High freq. dielectric constant tensor:
#      x y z
#    x 1.709460 0.000000 0.000000 
#    y 0.000000 1.776470 0.000000 
#    z 0.000000 0.000000 1.783310 
# 
# From -- ./inp_files/13731.got.cif
#   From: 2010.03.12/outbox.cif.g09.slc.cpg/sg39_7_cif.got.tgz:13731.got - 2010.04.14 02:53:20.
