data_PCOD8180155
_publ_section_title
;
Structure prediction by ZEFSAII (Michael W. Deem and Ramdas Pophale) SiO2 
 PCOD8180155
Probable space group: A M M 2
;
_chemical_formula_sum "Si O2"
_cell_formula_units_Z 40
_cell_length_a 7.556642
_cell_length_b 8.995073
_cell_length_c 29.699685
_cell_angle_alpha 90.000000
_cell_angle_beta 90.000000
_cell_angle_gamma 90.000000
_cell_volume 2018.763217
_symmetry_space_group_name_H-M "A M M 2"
_symmetry_group_IT_number 38
_symmetry_cell_setting 'orthorhombic'
loop_
_space_group_symop_operation_xyz
x,y,z
-x,-y,z
-x,y,z
x,-y,z
x,1/2+y,1/2+z
-x,1/2-y,1/2+z
-x,1/2+y,1/2+z
x,1/2-y,1/2+z
loop_
_atom_site_type_symbol
_atom_site_label
_atom_site_fract_x
_atom_site_fract_y
_atom_site_fract_z
Si Si1 0.500000 0.322849 0.863400
Si Si2 0.210300 0.165063 0.098046
Si Si3 0.803834 0.677493 0.696944
Si Si4 0.500000 0.176747 0.260849
Si Si5 0.793891 0.825600 0.921880
Si Si6 0.209761 0.834619 0.512227
O O1 0.500000 0.500000 0.867746
O O2 0.500000 0.267743 0.811872
O O3 0.321445 0.258761 0.884862
O O4 0.262049 0.229852 0.147289
O O5 0.000000 0.156826 0.094631
O O6 0.289713 0.000000 0.091506
O O7 0.289002 0.268752 0.058603
O O8 0.808574 0.500000 0.696513
O O9 0.672947 0.739528 0.735189
O O10 0.000000 0.740073 0.707490
O O11 0.500000 0.000000 0.258835
O O12 0.732045 0.768555 0.970743
O O13 0.000000 0.788932 0.912858
O O14 0.756043 0.000000 0.919347
O O15 0.000000 0.839900 0.515426
O O16 0.287069 0.000000 0.504990
#
# Coordination Sequence:
#
# PCOD8180155 Si02
#       6
#     4   8   8   4   8   8
#     4  11  23  37  56  83 112 139 174 229 288 333
#     4   8  13  23  42  68  99 136 173 207 248 302
#     4   8  14  26  45  69  98 133 172 210 248 300
#     4   9  18  31  48  73 102 131 166 213 268 317
#     4  10  21  38  59  80 106 144 187 226 266 321
#     4   9  16  27  47  76 108 139 172 214 264 315
#
# _framework density 19.814112000000002
#
# number of rings (size 3 to 8) (size 9 to 14) (size 15 to 20)
#    0.000    3.000    0.000    2.700    0.000    4.400 
#    0.000    3.000    0.000    4.800    0.000    2.800 
#    0.000    0.000    0.000    0.000    0.000    0.000 
#
# Total GULP energy -247906.721269 kJ/mol
# GULP energy per Si atom -12395.336063 kJ/mol
# Density = 1.976901 g / cm^3
# Si number density = 19.814112 Si / 1000 Ang^3
#
#
#
# Elastic Constant Matrix: (Units=GPa)
#
#
# Indices 1 2 3 4 5 6 
#
# 1 86.7010 31.7644 72.6219 0.0000 0.0000 0.0000
# 2 31.7644 86.8259 59.0805 0.0000 0.0000 0.0000
# 3 72.6219 59.0805 196.8661 0.0000 0.0000 0.0000
# 4 0.0000 0.0000 0.0000 26.3689 0.0000 0.0000
# 5 0.0000 0.0000 0.0000 0.0000 -7.4505 0.0000
# 6 0.0000 0.0000 0.0000 0.0000 0.0000 16.1748
#
#
#
# Elastic Compliance Matrix: (Units=1/GPa)
#
#
# Indices 1 2 3 4 5 6 
#
# 1 0.017102 -0.002468 -0.005568 0.000000 0.000000 0.000000
# 2 -0.002468 0.014829 -0.003540 0.000000 0.000000 0.000000
# 3 -0.005568 -0.003540 0.008196 0.000000 0.000000 0.000000
# 4 0.000000 0.000000 0.000000 0.037923 0.000000 0.000000
# 5 0.000000 0.000000 0.000000 0.000000 -0.134219 0.000000
# 6 0.000000 0.000000 0.000000 0.000000 0.000000 0.061825
#
#
# Mechanical properties :
#
#
# Convention : Reuss Voigt Hill
#
# Bulk Modulus (GPa) = 58.90955 77.48074 68.19514
# Shear Modulus (GPa) = 145.07141 20.81371 82.94256
#
# Velocity S-wave (km/s) = 8.56593 3.24458 6.47698
# Velocity P-wave (km/s) = 11.29731 7.29555 9.50932
#
# Compressibility (1/GPa) = 0.01697518
#
# Stress axis : x y z
#
# Youngs Moduli (GPa) = 58.47284 67.43632 122.01122
#
# Poissons Ratio (x) = 0.16642 0.67938
# Poissons Ratio (y) = 0.14430 0.43190
# Poissons Ratio (z) = 0.32559 0.23872
#
# Static dielectric constant tensor:
#      x y z
#    x 3.509270 0.000000 0.000000 
#    y 0.000000 3.446370 0.000000 
#    z 0.000000 0.000000 3.835230 
# 
# 
# High freq. dielectric constant tensor:
#      x y z
#    x 1.760380 0.000000 0.000000 
#    y 0.000000 1.737730 0.000000 
#    z 0.000000 0.000000 1.776520 
# 
# From -- ./inp_files/23224.got.cif
#   From: 2010.03.12/outbox.cif.g09.slc.cpg/sg38_12_cif.got.tgz:23224.got - 2010.04.14 02:38:36.
