data_PCOD8180997
_publ_section_title
;
Structure prediction by ZEFSAII (Michael W. Deem and Ramdas Pophale) SiO2 
 PCOD8180997
Probable space group: A B M 2
;
_chemical_formula_sum "Si O2"
_cell_formula_units_Z 64
_cell_length_a 14.174191
_cell_length_b 8.886485
_cell_length_c 26.103815
_cell_angle_alpha 90.000000
_cell_angle_beta 90.000000
_cell_angle_gamma 90.000000
_cell_volume 3288.003535
_symmetry_space_group_name_H-M "A B M 2"
_symmetry_group_IT_number 39
_symmetry_cell_setting 'orthorhombic'
loop_
_space_group_symop_operation_xyz
x,y,z
-x,-y,z
-x,1/2+y,z
x,1/2-y,z
x,1/2+y,1/2+z
-x,1/2-y,1/2+z
-x,y,1/2+z
x,-y,1/2+z
loop_
_atom_site_type_symbol
_atom_site_label
_atom_site_fract_x
_atom_site_fract_y
_atom_site_fract_z
Si Si1 0.602819 0.070061 0.216120
Si Si2 0.710203 0.428776 0.115929
Si Si3 0.101672 0.428005 0.881185
Si Si4 0.397551 0.428688 0.516223
Si Si5 0.899585 0.424554 0.158516
Si Si6 0.096928 0.922674 0.269412
Si Si7 0.280053 0.073911 0.418131
Si Si8 0.601881 0.428401 0.818489
O O1 0.599568 0.250000 0.219768
O O2 0.656698 0.010966 0.166097
O O3 0.500000 0.000000 0.212896
O O4 0.650280 0.003618 0.268121
O O5 0.706696 0.250000 0.115831
O O6 0.660395 0.491850 0.065071
O O7 0.820018 0.482213 0.118485
O O8 0.093635 0.250000 0.887840
O O9 0.138277 0.480205 0.823815
O O10 0.179158 0.490935 0.920449
O O11 0.000000 0.500000 0.893001
O O12 0.500000 0.500000 0.516099
O O13 0.408402 0.250000 0.518138
O O14 0.341998 0.482010 0.465901
O O15 0.919892 0.250000 0.151147
O O16 0.849574 0.450569 0.215274
O O17 0.000000 0.500000 0.148197
O O18 0.075137 0.750000 0.278519
O O19 0.000000 0.000000 0.257080
O O20 0.260523 0.250000 0.421725
O O21 0.334415 0.028974 0.366718
O O22 0.500000 0.500000 0.828373
O O23 0.591797 0.250000 0.811003
#
# Coordination Sequence:
#
# PCOD8180997 Si02
#       8
#     8   8   8   8   8   8   8   8
#     4  10  19  32  52  77 107 140 174 217 271 334
#     4   9  19  34  56  80 106 142 181 220 272 330
#     4  10  20  34  55  81 112 148 187 228 273 323
#     4  10  21  40  62  83 107 141 182 232 282 327
#     4   9  17  32  51  75 107 140 178 217 262 316
#     4   8  15  27  46  71 101 137 174 213 256 306
#     4  10  22  37  55  79 110 144 185 229 276 327
#     4  10  20  34  51  76 108 142 177 222 276 333
#
# _framework density 19.464699
#
# number of rings (size 3 to 8) (size 9 to 14) (size 15 to 20)
#    0.000    2.500    0.000    2.625    1.750    2.000 
#    0.000    3.125    0.000    1.500    0.000    0.000 
#    0.000    0.000    0.000    0.000    0.000    0.000 
#
# Total GULP energy -396499.941018 kJ/mol
# GULP energy per Si atom -12390.623157 kJ/mol
# Density = 1.942040 g / cm^3
# Si number density = 19.464699 Si / 1000 Ang^3
#
#
#
# Elastic Constant Matrix: (Units=GPa)
#
#
# Indices 1 2 3 4 5 6 
#
# 1 131.1948 39.4857 90.2639 0.0000 0.0000 0.0000
# 2 39.4857 49.0915 39.9716 0.0000 0.0000 0.0000
# 3 90.2639 39.9716 146.1642 0.0000 0.0000 0.0000
# 4 0.0000 0.0000 0.0000 17.4988 0.0000 0.0000
# 5 0.0000 0.0000 0.0000 0.0000 33.2316 0.0000
# 6 0.0000 0.0000 0.0000 0.0000 0.0000 29.6377
#
#
#
# Elastic Compliance Matrix: (Units=1/GPa)
#
#
# Indices 1 2 3 4 5 6 
#
# 1 0.014345 -0.005564 -0.007337 0.000000 0.000000 0.000000
# 2 -0.005564 0.028363 -0.004320 0.000000 0.000000 0.000000
# 3 -0.007337 -0.004320 0.012554 0.000000 0.000000 0.000000
# 4 0.000000 0.000000 0.000000 0.057147 0.000000 0.000000
# 5 0.000000 0.000000 0.000000 0.000000 0.030092 0.000000
# 6 0.000000 0.000000 0.000000 0.000000 0.000000 0.033741
#
#
# Mechanical properties :
#
#
# Convention : Reuss Voigt Hill
#
# Bulk Modulus (GPa) = 48.03255 73.98809 61.01032
# Shear Modulus (GPa) = 22.97535 26.52224 24.74879
#
# Velocity S-wave (km/s) = 3.43936 3.69532 3.56964
# Velocity P-wave (km/s) = 6.36417 7.50341 6.95715
#
# Compressibility (1/GPa) = 0.02081921
#
# Stress axis : x y z
#
# Youngs Moduli (GPa) = 69.71124 35.25693 79.65457
#
# Poissons Ratio (x) = 0.19617 0.58444
# Poissons Ratio (y) = 0.38787 0.34415
# Poissons Ratio (z) = 0.51148 0.15233
#
# Static dielectric constant tensor:
#      x y z
#    x 3.466480 0.000000 0.000000 
#    y 0.000000 3.424910 0.000000 
#    z 0.000000 0.000000 3.933290 
# 
# 
# High freq. dielectric constant tensor:
#      x y z
#    x 1.758790 0.000000 0.000000 
#    y 0.000000 1.742020 0.000000 
#    z 0.000000 0.000000 1.755650 
# 
# From -- ./inp_files/16250.got.cif
#   From: 2010.03.12/outbox.cif.g09.slc.cpg/sg39_9_cif.got.tgz:16250.got - 2010.04.14 02:53:20.
