data_PCOD8180853
_publ_section_title
;
Structure prediction by ZEFSAII (Michael W. Deem and Ramdas Pophale) SiO2 
 PCOD8180853
Probable space group: A B M 2
;
_chemical_formula_sum "Si O2"
_cell_formula_units_Z 48
_cell_length_a 9.112408
_cell_length_b 17.423983
_cell_length_c 15.761649
_cell_angle_alpha 90.000000
_cell_angle_beta 90.000000
_cell_angle_gamma 90.000000
_cell_volume 2502.547026
_symmetry_space_group_name_H-M "A B M 2"
_symmetry_group_IT_number 39
_symmetry_cell_setting 'orthorhombic'
loop_
_space_group_symop_operation_xyz
x,y,z
-x,-y,z
-x,1/2+y,z
x,1/2-y,z
x,1/2+y,1/2+z
-x,1/2-y,1/2+z
-x,y,1/2+z
x,-y,1/2+z
loop_
_atom_site_type_symbol
_atom_site_label
_atom_site_fract_x
_atom_site_fract_y
_atom_site_fract_z
Si Si1 0.785803 0.162016 0.405270
Si Si2 0.348168 0.904066 0.246601
Si Si3 0.354267 0.427987 0.309386
Si Si4 0.289799 0.661855 0.072196
Si Si5 0.880146 0.659677 0.406556
Si Si6 0.527693 0.418610 0.483351
O O1 0.778405 0.250000 0.437197
O O2 0.716184 0.158173 0.311889
O O3 0.696955 0.106039 0.469664
O O4 0.952498 0.132414 0.401285
O O5 0.527382 0.894272 0.240891
O O6 0.271296 0.888941 0.156376
O O7 0.301884 0.988737 0.278251
O O8 0.210252 0.377304 0.327939
O O9 0.449171 0.432172 0.394107
O O10 0.265650 0.750000 0.096133
O O11 0.176839 0.633798 0.999476
O O12 0.453298 0.650183 0.035380
O O13 0.861468 0.750000 0.395245
O O14 0.500000 0.500000 0.532760
#
# Coordination Sequence:
#
# PCOD8180853 Si02
#       6
#     8   8   8   8   8   8
#     4  10  19  35  60  83 109 151 191 227 273 340
#     4  10  19  34  56  83 109 145 184 234 282 327
#     4   9  18  35  54  81 110 144 187 227 271 326
#     4  10  21  35  55  82 112 146 183 235 287 329
#     4   9  20  37  58  82 113 150 189 230 275 334
#     4  10  18  35  56  81 108 142 186 228 271 331
#
# _framework density 19.180458000000002
#
# number of rings (size 3 to 8) (size 9 to 14) (size 15 to 20)
#    0.000    2.333    3.333    1.000    2.333    5.333 
#    0.000    1.667    3.667    2.000    0.000    0.000 
#    0.000    0.000    0.000    0.000    0.000    0.000 
#
# Total GULP energy -297402.585507 kJ/mol
# GULP energy per Si atom -12391.774396 kJ/mol
# Density = 1.913680 g / cm^3
# Si number density = 19.180458 Si / 1000 Ang^3
#
#
#
# Elastic Constant Matrix: (Units=GPa)
#
#
# Indices 1 2 3 4 5 6 
#
# 1 134.8513 49.1267 21.6505 0.0000 0.0000 0.0000
# 2 49.1267 79.6228 28.8306 0.0000 0.0000 0.0000
# 3 21.6505 28.8306 62.8041 0.0000 0.0000 0.0000
# 4 0.0000 0.0000 0.0000 24.6423 0.0000 0.0000
# 5 0.0000 0.0000 0.0000 0.0000 15.1968 0.0000
# 6 0.0000 0.0000 0.0000 0.0000 0.0000 27.8707
#
#
#
# Elastic Compliance Matrix: (Units=1/GPa)
#
#
# Indices 1 2 3 4 5 6 
#
# 1 0.009592 -0.005662 -0.000707 0.000000 0.000000 0.000000
# 2 -0.005662 0.018405 -0.006497 0.000000 0.000000 0.000000
# 3 -0.000707 -0.006497 0.019149 0.000000 0.000000 0.000000
# 4 0.000000 0.000000 0.000000 0.040581 0.000000 0.000000
# 5 0.000000 0.000000 0.000000 0.000000 0.065803 0.000000
# 6 0.000000 0.000000 0.000000 0.000000 0.000000 0.035880
#
#
# Mechanical properties :
#
#
# Convention : Reuss Voigt Hill
#
# Bulk Modulus (GPa) = 46.70091 52.94377 49.82234
# Shear Modulus (GPa) = 22.49410 25.38666 23.94038
#
# Velocity S-wave (km/s) = 3.42828 3.64204 3.53677
# Velocity P-wave (km/s) = 6.33023 6.73415 6.53531
#
# Compressibility (1/GPa) = 0.02141286
#
# Stress axis : x y z
#
# Youngs Moduli (GPa) = 104.25563 54.33272 52.22219
#
# Poissons Ratio (x) = 0.30763 0.03695
# Poissons Ratio (y) = 0.59029 0.33929
# Poissons Ratio (z) = 0.07376 0.35301
#
# Static dielectric constant tensor:
#      x y z
#    x 3.595870 0.000000 0.000000 
#    y 0.000000 3.534240 0.000000 
#    z 0.000000 0.000000 3.393000 
# 
# 
# High freq. dielectric constant tensor:
#      x y z
#    x 1.733850 0.000000 0.000000 
#    y 0.000000 1.746960 0.000000 
#    z 0.000000 0.000000 1.723340 
# 
# From -- ./inp_files/8371.got.cif
#   From: 2010.03.12/outbox.cif.g09.slc.cpg/sg39_5_cif.got.tgz:8371.got - 2010.04.14 02:53:20.
