data_PCOD8180559
_publ_section_title
;
Structure prediction by ZEFSAII (Michael W. Deem and Ramdas Pophale) SiO2 
 PCOD8180559
Probable space group: A M M 2
;
_chemical_formula_sum "Si O2"
_cell_formula_units_Z 40
_cell_length_a 7.837571
_cell_length_b 9.361566
_cell_length_c 29.618707
_cell_angle_alpha 90.000000
_cell_angle_beta 90.000000
_cell_angle_gamma 90.000000
_cell_volume 2173.181939
_symmetry_space_group_name_H-M "A M M 2"
_symmetry_group_IT_number 38
_symmetry_cell_setting 'orthorhombic'
loop_
_space_group_symop_operation_xyz
x,y,z
-x,-y,z
-x,y,z
x,-y,z
x,1/2+y,1/2+z
-x,1/2-y,1/2+z
-x,1/2+y,1/2+z
x,1/2-y,1/2+z
loop_
_atom_site_type_symbol
_atom_site_label
_atom_site_fract_x
_atom_site_fract_y
_atom_site_fract_z
Si Si1 0.299292 0.160026 0.602940
Si Si2 0.000000 0.329209 0.854870
Si Si3 0.196944 0.161868 0.507858
Si Si4 0.000000 0.830839 0.253721
Si Si5 0.695924 0.168122 0.190148
Si Si6 0.311827 0.830500 0.413943
O O1 0.500000 0.152259 0.601765
O O2 0.236064 0.235183 0.556207
O O3 0.239370 0.256843 0.644490
O O4 0.221570 0.000000 0.608682
O O5 0.831108 0.269287 0.880040
O O6 0.000000 0.500000 0.854132
O O7 0.000000 0.266704 0.804185
O O8 0.291247 0.233361 0.464793
O O9 0.000000 0.168808 0.495740
O O10 0.263045 0.000000 0.513447
O O11 0.174065 0.779671 0.229092
O O12 0.000000 0.000000 0.256041
O O13 0.500000 0.210566 0.202877
O O14 0.709965 0.000000 0.182171
O O15 0.500000 0.789730 0.395559
O O16 0.287405 0.000000 0.417218
#
# Coordination Sequence:
#
# PCOD8180559 Si02
#       6
#     8   4   8   4   8   8
#     4   9  17  28  43  65  91 118 149 182 215 256
#     4   9  16  26  37  55  79 105 143 181 212 255
#     4   9  15  23  36  57  87 117 143 173 212 257
#     4   9  18  30  44  59  81 113 149 187 224 261
#     4   9  18  32  47  63  87 119 151 182 219 262
#     4   9  15  23  36  54  80 112 141 171 210 256
#
# _framework density 18.406189999999999
#
# number of rings (size 3 to 8) (size 9 to 14) (size 15 to 20)
#    0.000    3.000    1.000    0.600    1.400    3.200 
#    0.000    4.000    0.000    0.000    0.000    0.000 
#    0.000    3.200    0.000   11.000    0.000   10.600 
#
# Total GULP energy -247834.466086 kJ/mol
# GULP energy per Si atom -12391.723304 kJ/mol
# Density = 1.836430 g / cm^3
# Si number density = 18.406190 Si / 1000 Ang^3
#
#
#
# Elastic Constant Matrix: (Units=GPa)
#
#
# Indices 1 2 3 4 5 6 
#
# 1 118.1752 13.1545 85.3865 0.0000 0.0000 0.0000
# 2 13.1545 14.0284 19.5007 0.0000 0.0000 0.0000
# 3 85.3865 19.5007 179.5851 0.0000 0.0000 0.0000
# 4 0.0000 0.0000 0.0000 15.9660 0.0000 0.0000
# 5 0.0000 0.0000 0.0000 0.0000 30.2915 0.0000
# 6 0.0000 0.0000 0.0000 0.0000 0.0000 7.9896
#
#
#
# Elastic Compliance Matrix: (Units=1/GPa)
#
#
# Indices 1 2 3 4 5 6 
#
# 1 0.013104 -0.004272 -0.005767 0.000000 0.000000 0.000000
# 2 -0.004272 0.085350 -0.007237 0.000000 0.000000 0.000000
# 3 -0.005767 -0.007237 0.009096 0.000000 0.000000 0.000000
# 4 0.000000 0.000000 0.000000 0.062633 0.000000 0.000000
# 5 0.000000 0.000000 0.000000 0.000000 0.033013 0.000000
# 6 0.000000 0.000000 0.000000 0.000000 0.000000 0.125162
#
#
# Mechanical properties :
#
#
# Convention : Reuss Voigt Hill
#
# Bulk Modulus (GPa) = 13.69874 60.87467 37.28671
# Shear Modulus (GPa) = 12.91184 23.76589 18.33887
#
# Velocity S-wave (km/s) = 2.65145 3.59721 3.15991
# Velocity P-wave (km/s) = 4.10270 7.09915 5.79785
#
# Compressibility (1/GPa) = 0.07299941
#
# Stress axis : x y z
#
# Youngs Moduli (GPa) = 76.31125 11.71652 109.93697
#
# Poissons Ratio (x) = 0.05005 0.63398
# Poissons Ratio (y) = 0.32597 0.79560
# Poissons Ratio (z) = 0.44007 0.08479
#
# Static dielectric constant tensor:
#      x y z
#    x 3.478590 0.000000 0.000000 
#    y 0.000000 2.806010 0.000000 
#    z 0.000000 0.000000 3.686240 
# 
# 
# High freq. dielectric constant tensor:
#      x y z
#    x 1.726590 0.000000 0.000000 
#    y 0.000000 1.623500 0.000000 
#    z 0.000000 0.000000 1.722940 
# 
# From -- ./inp_files/19513.got.cif
#   From: 2010.03.12/outbox.cif.g09.slc.cpg/sg38_10_cif.got.tgz:19513.got - 2010.04.14 02:38:36.
