data_PCOD8180914
_publ_section_title
;
Structure prediction by ZEFSAII (Michael W. Deem and Ramdas Pophale) SiO2 
 PCOD8180914
Probable space group: A B M 2
;
_chemical_formula_sum "Si O2"
_cell_formula_units_Z 64
_cell_length_a 20.769112
_cell_length_b 9.056772
_cell_length_c 18.804163
_cell_angle_alpha 90.000000
_cell_angle_beta 90.000000
_cell_angle_gamma 90.000000
_cell_volume 3537.083971
_symmetry_space_group_name_H-M "A B M 2"
_symmetry_group_IT_number 39
_symmetry_cell_setting 'orthorhombic'
loop_
_space_group_symop_operation_xyz
x,y,z
-x,-y,z
-x,1/2+y,z
x,1/2-y,z
x,1/2+y,1/2+z
-x,1/2-y,1/2+z
-x,y,1/2+z
x,-y,1/2+z
loop_
_atom_site_type_symbol
_atom_site_label
_atom_site_fract_x
_atom_site_fract_y
_atom_site_fract_z
Si Si1 0.435513 0.578238 0.822490
Si Si2 0.812275 0.415749 0.410767
Si Si3 0.937174 0.083712 0.911680
Si Si4 0.810266 0.917327 0.080028
Si Si5 0.681342 0.077897 0.077832
Si Si6 0.434227 0.576458 0.657916
Si Si7 0.936568 0.417388 0.081331
Si Si8 0.314637 0.420795 0.411174
O O1 0.500000 0.500000 0.849706
O O2 0.445507 0.750000 0.836013
O O3 0.421741 0.542155 0.740475
O O4 0.376050 0.517471 0.868582
O O5 0.815097 0.250000 0.380938
O O6 0.873871 0.503662 0.381092
O O7 0.813307 0.416794 0.495455
O O8 0.747418 0.491959 0.382787
O O9 0.938334 0.250000 0.882459
O O10 0.936455 0.082503 0.996505
O O11 0.000000 0.000000 0.882562
O O12 0.806932 0.750000 0.109399
O O13 0.747963 0.007904 0.105897
O O14 0.873819 0.997249 0.110670
O O15 0.680297 0.250000 0.098002
O O16 0.623493 0.993270 0.114442
O O17 0.673475 0.052861 0.994094
O O18 0.500000 0.500000 0.632260
O O19 0.438684 0.750000 0.642392
O O20 0.936003 0.250000 0.110230
O O21 0.000000 0.500000 0.110312
O O22 0.302350 0.250000 0.394143
#
# Coordination Sequence:
#
# PCOD8180914 Si02
#       8
#     8   8   8   8   8   8   8   8
#     4   9  19  35  53  71  92 120 153 189 229 273
#     4   9  16  25  38  58  84 115 150 187 228 273
#     4   9  15  22  33  50  76 112 151 189 227 270
#     4   9  16  26  39  57  84 117 152 189 229 273
#     4  10  19  31  48  70  96 124 154 190 232 278
#     4  10  20  35  53  71  93 121 153 189 229 274
#     4   9  15  22  33  51  77 112 152 190 229 273
#     4   9  18  32  48  68  94 123 154 189 231 276
#
# _framework density 18.094000999999999
#
# number of rings (size 3 to 8) (size 9 to 14) (size 15 to 20)
#    0.000    2.750    0.000    2.250    0.000    8.000 
#    0.000    1.250    0.000    0.000    0.000    0.000 
#    0.000    1.000    0.000    8.000    0.000   13.500 
#
# Total GULP energy -396809.778314 kJ/mol
# GULP energy per Si atom -12400.305572 kJ/mol
# Density = 1.805282 g / cm^3
# Si number density = 18.094001 Si / 1000 Ang^3
#
#
#
# Elastic Constant Matrix: (Units=GPa)
#
#
# Indices 1 2 3 4 5 6 
#
# 1 205.4868 101.6806 36.8644 0.0000 0.0000 0.0000
# 2 101.6806 148.8236 26.2828 0.0000 0.0000 0.0000
# 3 36.8644 26.2828 18.2335 0.0000 0.0000 0.0000
# 4 0.0000 0.0000 0.0000 12.1362 0.0000 0.0000
# 5 0.0000 0.0000 0.0000 0.0000 -2.4677 0.0000
# 6 0.0000 0.0000 0.0000 0.0000 0.0000 44.7487
#
#
#
# Elastic Compliance Matrix: (Units=1/GPa)
#
#
# Indices 1 2 3 4 5 6 
#
# 1 0.009115 -0.003988 -0.012679 0.000000 0.000000 0.000000
# 2 -0.003988 0.010759 -0.007445 0.000000 0.000000 0.000000
# 3 -0.012679 -0.007445 0.091210 0.000000 0.000000 0.000000
# 4 0.000000 0.000000 0.000000 0.082398 0.000000 0.000000
# 5 0.000000 0.000000 0.000000 0.000000 -0.405231 0.000000
# 6 0.000000 0.000000 0.000000 0.000000 0.000000 0.022347
#
#
# Mechanical properties :
#
#
# Convention : Reuss Voigt Hill
#
# Bulk Modulus (GPa) = 15.90864 78.02217 46.96540
# Shear Modulus (GPa) = -41.58903 24.73119 -8.42892
#
# Velocity S-wave (km/s) = -4.79947 3.70106 -2.16068
# Velocity P-wave (km/s) = 4.67994 7.84078 4.44837
#
# Compressibility (1/GPa) = 0.06285893
#
# Stress axis : x y z
#
# Youngs Moduli (GPa) = 109.71455 92.94461 10.96366
#
# Poissons Ratio (x) = 0.37068 0.13901
# Poissons Ratio (y) = 0.43756 0.08163
# Poissons Ratio (z) = 1.39107 0.69201
#
# Static dielectric constant tensor:
#      x y z
#    x 3.607750 0.000000 0.000000 
#    y 0.000000 3.533070 0.000000 
#    z 0.000000 0.000000 2.763280 
# 
# 
# High freq. dielectric constant tensor:
#      x y z
#    x 1.720320 0.000000 0.000000 
#    y 0.000000 1.716040 0.000000 
#    z 0.000000 0.000000 1.629990 
# 
# From -- ./inp_files/13167.got.cif
#   From: 2010.03.12/outbox.cif.g09.slc.cpg/sg39_7_cif.got.tgz:13167.got - 2010.04.14 02:53:20.
