data_PCOD8180869
_publ_section_title
;
Structure prediction by ZEFSAII (Michael W. Deem and Ramdas Pophale) SiO2 
 PCOD8180869
Probable space group: A B M 2
;
_chemical_formula_sum "Si O2"
_cell_formula_units_Z 64
_cell_length_a 14.246215
_cell_length_b 9.592050
_cell_length_c 26.616785
_cell_angle_alpha 90.000000
_cell_angle_beta 90.000000
_cell_angle_gamma 90.000000
_cell_volume 3637.194492
_symmetry_space_group_name_H-M "A B M 2"
_symmetry_group_IT_number 39
_symmetry_cell_setting 'orthorhombic'
loop_
_space_group_symop_operation_xyz
x,y,z
-x,-y,z
-x,1/2+y,z
x,1/2-y,z
x,1/2+y,1/2+z
-x,1/2-y,1/2+z
-x,y,1/2+z
x,-y,1/2+z
loop_
_atom_site_type_symbol
_atom_site_label
_atom_site_fract_x
_atom_site_fract_y
_atom_site_fract_z
Si Si1 0.425725 0.601370 0.108780
Si Si2 0.087957 0.907860 0.504976
Si Si3 0.578120 0.402500 0.993516
Si Si4 0.409784 0.089414 0.863520
Si Si5 0.722729 0.591311 0.953704
Si Si6 0.254048 0.911638 0.167186
Si Si7 0.905188 0.084555 0.619788
Si Si8 0.591587 0.087915 0.249727
O O1 0.500000 0.500000 0.135187
O O2 0.440412 0.750000 0.136322
O O3 0.449487 0.617587 0.050841
O O4 0.318747 0.557524 0.118339
O O5 0.052156 0.750000 0.503692
O O6 0.166510 0.932430 0.461787
O O7 0.125236 0.941061 0.561511
O O8 0.000000 0.000000 0.489352
O O9 0.500000 0.500000 0.966371
O O10 0.581673 0.250000 0.967279
O O11 0.676353 0.482072 0.991773
O O12 0.439280 0.250000 0.868472
O O13 0.317732 0.057308 0.898090
O O14 0.379885 0.050703 0.806921
O O15 0.500000 0.000000 0.880583
O O16 0.696593 0.750000 0.969087
O O17 0.219168 0.750000 0.169126
O O18 0.317262 0.949348 0.215925
O O19 0.168180 0.017881 0.159472
O O20 0.916607 0.250000 0.630988
O O21 0.000000 0.000000 0.629881
O O22 0.565711 0.250000 0.244591
O O23 0.500000 0.000000 0.233442
#
# Coordination Sequence:
#
# PCOD8180869 Si02
#       8
#     8   8   8   8   8   8   8   8
#     4   9  18  29  41  61  91 124 154 187 227 275
#     4   9  19  34  51  72  97 125 157 196 240 286
#     4  10  19  29  41  61  91 124 155 187 227 276
#     4   9  18  32  49  70  97 128 161 198 239 281
#     4  10  19  31  48  69  93 122 158 197 237 282
#     4  10  19  31  48  70  95 123 158 197 238 283
#     4  10  20  34  52  73  97 125 158 196 239 286
#     4   9  18  32  50  72  98 129 163 200 240 281
#
# _framework density 17.595980000000001
#
# number of rings (size 3 to 8) (size 9 to 14) (size 15 to 20)
#    0.000    2.500    0.000    2.250    0.000    4.000 
#    0.000    0.000    0.000    0.750    0.000    1.750 
#    0.000    0.000    0.000    0.000    0.000    0.000 
#
# Total GULP energy -396459.589727 kJ/mol
# GULP energy per Si atom -12389.362179 kJ/mol
# Density = 1.755593 g / cm^3
# Si number density = 17.595980 Si / 1000 Ang^3
#
#
#
# Elastic Constant Matrix: (Units=GPa)
#
#
# Indices 1 2 3 4 5 6 
#
# 1 119.7778 75.7593 50.9201 0.0000 0.0000 0.0000
# 2 75.7593 112.0241 37.7794 0.0000 0.0000 0.0000
# 3 50.9201 37.7794 81.0513 0.0000 0.0000 0.0000
# 4 0.0000 0.0000 0.0000 10.1226 0.0000 0.0000
# 5 0.0000 0.0000 0.0000 0.0000 28.6552 0.0000
# 6 0.0000 0.0000 0.0000 0.0000 0.0000 36.5770
#
#
#
# Elastic Compliance Matrix: (Units=1/GPa)
#
#
# Indices 1 2 3 4 5 6 
#
# 1 0.016915 -0.009320 -0.006282 0.000000 0.000000 0.000000
# 2 -0.009320 0.015727 -0.001475 0.000000 0.000000 0.000000
# 3 -0.006282 -0.001475 0.016972 0.000000 0.000000 0.000000
# 4 0.000000 0.000000 0.000000 0.098789 0.000000 0.000000
# 5 0.000000 0.000000 0.000000 0.000000 0.034898 0.000000
# 6 0.000000 0.000000 0.000000 0.000000 0.000000 0.027340
#
#
# Mechanical properties :
#
#
# Convention : Reuss Voigt Hill
#
# Bulk Modulus (GPa) = 64.68901 71.30788 67.99844
# Shear Modulus (GPa) = 20.00412 24.96393 22.48402
#
# Velocity S-wave (km/s) = 3.37539 3.77069 3.57850
# Velocity P-wave (km/s) = 7.21348 7.71819 7.47010
#
# Compressibility (1/GPa) = 0.01545858
#
# Stress axis : x y z
#
# Youngs Moduli (GPa) = 59.12079 63.58372 58.91976
#
# Poissons Ratio (x) = 0.59262 0.37014
# Poissons Ratio (y) = 0.55102 0.08693
# Poissons Ratio (z) = 0.37140 0.09381
#
# Static dielectric constant tensor:
#      x y z
#    x 3.102260 0.000000 0.000000 
#    y 0.000000 3.666010 0.000000 
#    z 0.000000 0.000000 3.226550 
# 
# 
# High freq. dielectric constant tensor:
#      x y z
#    x 1.658940 0.000000 0.000000 
#    y 0.000000 1.691920 0.000000 
#    z 0.000000 0.000000 1.667480 
# 
# From -- ./inp_files/17994.got.cif
#   From: 2010.03.12/outbox.cif.g09.slc.cpg/sg39_9_cif.got.tgz:17994.got - 2010.04.14 02:53:20.
