data_PCOD8180484
_publ_section_title
;
Structure prediction by ZEFSAII (Michael W. Deem and Ramdas Pophale) SiO2 
 PCOD8180484
Probable space group: A M M 2
;
_chemical_formula_sum "Si O2"
_cell_formula_units_Z 48
_cell_length_a 8.303745
_cell_length_b 30.442777
_cell_length_c 9.017050
_cell_angle_alpha 90.000000
_cell_angle_beta 90.000000
_cell_angle_gamma 90.000000
_cell_volume 2279.411569
_symmetry_space_group_name_H-M "A M M 2"
_symmetry_group_IT_number 38
_symmetry_cell_setting 'orthorhombic'
loop_
_space_group_symop_operation_xyz
x,y,z
-x,-y,z
-x,y,z
x,-y,z
x,1/2+y,1/2+z
-x,1/2-y,1/2+z
-x,1/2+y,1/2+z
x,1/2-y,1/2+z
loop_
_atom_site_type_symbol
_atom_site_label
_atom_site_fract_x
_atom_site_fract_y
_atom_site_fract_z
Si Si1 0.816636 0.368871 0.281700
Si Si2 0.314230 0.291133 0.105093
Si Si3 0.308497 0.548489 0.792551
Si Si4 0.687743 0.449866 0.126549
Si Si5 0.687451 0.870488 0.103594
Si Si6 0.186582 0.209549 0.281725
O O1 0.702262 0.338372 0.182487
O O2 0.785089 0.419382 0.239580
O O3 0.783949 0.361483 0.454478
O O4 0.000000 0.355850 0.249448
O O5 0.500000 0.282528 0.065680
O O6 0.249548 0.255233 0.218684
O O7 0.209219 0.289419 0.957372
O O8 0.500000 0.549133 0.794866
O O9 0.247621 0.500000 0.742401
O O10 0.242259 0.585391 0.680832
O O11 0.248674 0.558607 0.959370
O O12 0.500000 0.438729 0.139500
O O13 0.720828 0.500000 0.173318
O O14 0.500000 0.876050 0.066083
O O15 0.710430 0.830015 0.214121
O O16 0.000000 0.202897 0.242939
#
# Coordination Sequence:
#
# PCOD8180484 Si02
#       6
#     8   8   8   8   8   8
#     4  12  25  40  58  86 124 162 201 252 310 358
#     4  12  25  44  67  91 119 157 204 247 293 357
#     4   8  16  33  59  88 115 147 194 249 297 345
#     4   9  18  36  62  89 117 154 202 253 304 363
#     4  11  22  38  61  89 121 161 206 248 295 358
#     4  12  25  43  65  93 126 157 193 245 307 359
#
# _framework density 21.058066
#
# number of rings (size 3 to 8) (size 9 to 14) (size 15 to 20)
#    0.000    1.333    0.000    8.000    0.000    2.333 
#    0.000    2.500    0.000    3.500    0.000    0.000 
#    0.000    0.000    0.000    0.000    0.000    0.000 
#
# Total GULP energy -297737.542072 kJ/mol
# GULP energy per Si atom -12405.730920 kJ/mol
# Density = 2.101014 g / cm^3
# Si number density = 21.058066 Si / 1000 Ang^3
#
#
#
# Elastic Constant Matrix: (Units=GPa)
#
#
# Indices 1 2 3 4 5 6 
#
# 1 68.7931 14.9412 11.4030 0.0000 0.0000 0.0000
# 2 14.9412 119.8595 53.5572 0.0000 0.0000 0.0000
# 3 11.4030 53.5572 99.2204 0.0000 0.0000 0.0000
# 4 0.0000 0.0000 0.0000 42.2475 0.0000 0.0000
# 5 0.0000 0.0000 0.0000 0.0000 30.9207 0.0000
# 6 0.0000 0.0000 0.0000 0.0000 0.0000 17.4130
#
#
#
# Elastic Compliance Matrix: (Units=1/GPa)
#
#
# Indices 1 2 3 4 5 6 
#
# 1 0.015007 -0.001450 -0.000942 0.000000 0.000000 0.000000
# 2 -0.001450 0.011135 -0.005844 0.000000 0.000000 0.000000
# 3 -0.000942 -0.005844 0.013341 0.000000 0.000000 0.000000
# 4 0.000000 0.000000 0.000000 0.023670 0.000000 0.000000
# 5 0.000000 0.000000 0.000000 0.000000 0.032341 0.000000
# 6 0.000000 0.000000 0.000000 0.000000 0.000000 0.057429
#
#
# Mechanical properties :
#
#
# Convention : Reuss Voigt Hill
#
# Bulk Modulus (GPa) = 43.45544 49.74174 46.59859
# Shear Modulus (GPa) = 28.23815 31.98099 30.10957
#
# Velocity S-wave (km/s) = 3.66589 3.90128 3.78542
# Velocity P-wave (km/s) = 6.21282 6.63068 6.42515
#
# Compressibility (1/GPa) = 0.02301208
#
# Stress axis : x y z
#
# Youngs Moduli (GPa) = 66.63382 89.80646 74.95544
#
# Poissons Ratio (x) = 0.13020 0.07062
# Poissons Ratio (y) = 0.09660 0.43803
# Poissons Ratio (z) = 0.06278 0.52482
#
# Static dielectric constant tensor:
#      x y z
#    x 3.567670 0.000000 0.000000 
#    y 0.000000 4.040480 0.000000 
#    z 0.000000 0.000000 3.755750 
# 
# 
# High freq. dielectric constant tensor:
#      x y z
#    x 1.810810 0.000000 0.000000 
#    y 0.000000 1.840190 0.000000 
#    z 0.000000 0.000000 1.827520 
# 
# From -- ./inp_files/3754.got.cif
#   From: 2010.03.12/outbox.cif.g09.slc.cpg/sg38_2_cif.got.tgz:3754.got - 2010.04.14 02:38:36.
