data_PCOD8180086
_publ_section_title
;
Structure prediction by ZEFSAII (Michael W. Deem and Ramdas Pophale) SiO2 
 PCOD8180086
Probable space group: A M M 2
;
_chemical_formula_sum "Si O2"
_cell_formula_units_Z 48
_cell_length_a 26.336267
_cell_length_b 9.138363
_cell_length_c 10.067844
_cell_angle_alpha 90.000000
_cell_angle_beta 90.000000
_cell_angle_gamma 90.000000
_cell_volume 2423.031720
_symmetry_space_group_name_H-M "A M M 2"
_symmetry_group_IT_number 38
_symmetry_cell_setting 'orthorhombic'
loop_
_space_group_symop_operation_xyz
x,y,z
-x,-y,z
-x,y,z
x,-y,z
x,1/2+y,1/2+z
-x,1/2-y,1/2+z
-x,1/2+y,1/2+z
x,1/2-y,1/2+z
loop_
_atom_site_type_symbol
_atom_site_label
_atom_site_fract_x
_atom_site_fract_y
_atom_site_fract_z
Si Si1 0.442506 0.172366 0.659330
Si Si2 0.887326 0.171924 0.192579
Si Si3 0.058420 0.667665 0.964236
Si Si4 0.272977 0.330917 0.942134
Si Si5 0.388115 0.328870 0.893401
Si Si6 0.782898 0.329754 0.210615
O O1 0.500000 0.227673 0.680161
O O2 0.405015 0.246019 0.762528
O O3 0.424915 0.218725 0.512790
O O4 0.438070 0.000000 0.678426
O O5 0.907729 0.211059 0.338112
O O6 0.834498 0.252224 0.167538
O O7 0.879639 0.000000 0.174255
O O8 0.927744 0.227437 0.085401
O O9 0.068641 0.500000 0.005896
O O10 0.000000 0.692231 0.925634
O O11 0.265207 0.500000 0.903049
O O12 0.331069 0.281441 0.928236
O O13 0.237880 0.235404 0.847080
O O14 0.257827 0.302708 0.094350
O O15 0.392037 0.500000 0.865477
O O16 0.793859 0.500000 0.232400
#
# Coordination Sequence:
#
# PCOD8180086 Si02
#       6
#     8   8   8   8   8   8
#     4  10  21  37  57  83 115 149 187 232 280 333
#     4  11  23  39  60  87 118 151 190 235 282 334
#     4  10  22  40  60  84 116 152 190 233 280 332
#     4  10  22  39  58  83 114 147 187 235 283 334
#     4  10  21  38  59  82 111 148 188 231 281 336
#     4  11  23  39  60  85 114 150 190 232 282 338
#
# _framework density 19.809894
#
# number of rings (size 3 to 8) (size 9 to 14) (size 15 to 20)
#    0.000    1.667    0.000    4.000    0.000   11.333 
#    0.000    0.000    0.000    0.000    0.000    0.000 
#    0.000    0.000    0.000    0.000    0.000    0.000 
#
# Total GULP energy -297762.016835 kJ/mol
# GULP energy per Si atom -12406.750701 kJ/mol
# Density = 1.976481 g / cm^3
# Si number density = 19.809894 Si / 1000 Ang^3
#
#
#
# Elastic Constant Matrix: (Units=GPa)
#
#
# Indices 1 2 3 4 5 6 
#
# 1 91.2341 31.6479 11.5713 0.0000 0.0000 0.0000
# 2 31.6479 69.4655 39.7783 0.0000 0.0000 0.0000
# 3 11.5713 39.7783 76.7941 0.0000 0.0000 0.0000
# 4 0.0000 0.0000 0.0000 31.6432 0.0000 0.0000
# 5 0.0000 0.0000 0.0000 0.0000 42.0835 0.0000
# 6 0.0000 0.0000 0.0000 0.0000 0.0000 31.0619
#
#
#
# Elastic Compliance Matrix: (Units=1/GPa)
#
#
# Indices 1 2 3 4 5 6 
#
# 1 0.013154 -0.006907 0.001595 0.000000 0.000000 0.000000
# 2 -0.006907 0.024093 -0.011439 0.000000 0.000000 0.000000
# 3 0.001595 -0.011439 0.018707 0.000000 0.000000 0.000000
# 4 0.000000 0.000000 0.000000 0.031602 0.000000 0.000000
# 5 0.000000 0.000000 0.000000 0.000000 0.023762 0.000000
# 6 0.000000 0.000000 0.000000 0.000000 0.000000 0.032194
#
#
# Mechanical properties :
#
#
# Convention : Reuss Voigt Hill
#
# Bulk Modulus (GPa) = 44.53688 44.83209 44.68449
# Shear Modulus (GPa) = 27.10078 31.25745 29.17911
#
# Velocity S-wave (km/s) = 3.70272 3.97655 3.84208
# Velocity P-wave (km/s) = 6.38836 6.61545 6.50290
#
# Compressibility (1/GPa) = 0.02245330
#
# Stress axis : x y z
#
# Youngs Moduli (GPa) = 76.02096 41.50661 53.45690
#
# Poissons Ratio (x) = 0.28667 -0.08529
# Poissons Ratio (y) = 0.52505 0.61149
# Poissons Ratio (z) = -0.12129 0.47479
#
# Static dielectric constant tensor:
#      x y z
#    x 3.768980 0.000000 0.000000 
#    y 0.000000 3.564870 0.000000 
#    z 0.000000 0.000000 3.563550 
# 
# 
# High freq. dielectric constant tensor:
#      x y z
#    x 1.789080 0.000000 0.000000 
#    y 0.000000 1.769470 0.000000 
#    z 0.000000 0.000000 1.781660 
# 
# From -- ./inp_files/7032.got.cif
#   From: 2010.03.12/outbox.cif.g09.slc.cpg/sg38_4_cif.got.tgz:7032.got - 2010.04.14 02:38:36.
