data_PCOD8180205
_publ_section_title
;
Structure prediction by ZEFSAII (Michael W. Deem and Ramdas Pophale) SiO2 
 PCOD8180205
Probable space group: A M M 2
;
_chemical_formula_sum "Si O2"
_cell_formula_units_Z 64
_cell_length_a 8.901957
_cell_length_b 15.288880
_cell_length_c 23.648903
_cell_angle_alpha 90.000000
_cell_angle_beta 90.000000
_cell_angle_gamma 90.000000
_cell_volume 3218.638220
_symmetry_space_group_name_H-M "A M M 2"
_symmetry_group_IT_number 38
_symmetry_cell_setting 'orthorhombic'
loop_
_space_group_symop_operation_xyz
x,y,z
-x,-y,z
-x,y,z
x,-y,z
x,1/2+y,1/2+z
-x,1/2-y,1/2+z
-x,1/2+y,1/2+z
x,1/2-y,1/2+z
loop_
_atom_site_type_symbol
_atom_site_label
_atom_site_fract_x
_atom_site_fract_y
_atom_site_fract_z
Si Si1 0.827511 0.598693 0.086610
Si Si2 0.829142 0.098529 0.311780
Si Si3 0.175115 0.750155 0.396703
Si Si4 0.677043 0.250107 0.016735
Si Si5 0.674235 0.147920 0.198589
Si Si6 0.829133 0.598558 0.312003
Si Si7 0.674234 0.647959 0.198776
Si Si8 0.827504 0.098707 0.086355
O O1 0.810137 0.500000 0.063307
O O2 0.734975 0.662877 0.046887
O O3 0.768527 0.600360 0.150548
O O4 0.000000 0.628627 0.086051
O O5 0.780139 0.164038 0.361270
O O6 0.721115 0.109504 0.258657
O O7 0.000000 0.119377 0.292947
O O8 0.814344 0.000000 0.335352
O O9 0.274617 0.750451 0.452147
O O10 0.219559 0.663961 0.361605
O O11 0.000000 0.750337 0.413408
O O12 0.500000 0.250032 0.021712
O O13 0.735145 0.162829 0.046525
O O14 0.500000 0.128060 0.188643
O O15 0.710110 0.249985 0.196503
O O16 0.768452 0.100504 0.150274
O O17 0.814108 0.500000 0.335493
O O18 0.721037 0.609806 0.258925
O O19 0.000000 0.619302 0.293135
O O20 0.500000 0.628054 0.188854
O O21 0.000000 0.128608 0.085826
O O22 0.810079 0.000000 0.063096
#
# Coordination Sequence:
#
# PCOD8180205 Si02
#       8
#     8   8   8   8   8   8   8   8
#     4  11  24  42  66  93 122 161 208 254 302 362
#     4  10  21  38  62  90 119 157 204 249 297 356
#     4  10  22  41  62  85 118 159 205 257 299 348
#     4  12  26  43  64  91 124 161 203 255 311 368
#     4  11  22  36  59  92 128 163 198 244 306 367
#     4  10  21  38  62  90 119 157 204 249 297 356
#     4  11  22  36  59  92 128 163 198 244 306 367
#     4  11  24  42  66  93 122 161 208 254 302 362
#
# _framework density 19.884184999999999
#
# number of rings (size 3 to 8) (size 9 to 14) (size 15 to 20)
#    0.000    1.250    2.500    3.375    0.000    8.500 
#    0.000    2.500    0.000    0.000    0.000    0.000 
#    0.000    0.000    0.000    0.000    0.000    0.000 
#
# Total GULP energy -396991.380075 kJ/mol
# GULP energy per Si atom -12405.980627 kJ/mol
# Density = 1.983893 g / cm^3
# Si number density = 19.884185 Si / 1000 Ang^3
#
#
#
# Elastic Constant Matrix: (Units=GPa)
#
#
# Indices 1 2 3 4 5 6 
#
# 1 116.9780 68.9910 65.2506 0.0000 0.0000 0.0000
# 2 68.9910 134.4520 60.9886 0.0000 0.0000 0.0000
# 3 65.2506 60.9886 127.4660 0.0000 0.0000 0.0000
# 4 0.0000 0.0000 0.0000 -1.7343 0.0000 0.0000
# 5 0.0000 0.0000 0.0000 0.0000 -29.7913 0.0000
# 6 0.0000 0.0000 0.0000 0.0000 0.0000 22.3310
#
#
#
# Elastic Compliance Matrix: (Units=1/GPa)
#
#
# Indices 1 2 3 4 5 6 
#
# 1 0.014281 -0.005124 -0.004859 0.000000 0.000000 0.000000
# 2 -0.005124 0.011338 -0.002802 0.000000 0.000000 0.000000
# 3 -0.004859 -0.002802 0.011673 0.000000 0.000000 0.000000
# 4 0.000000 0.000000 0.000000 -0.576615 0.000000 0.000000
# 5 0.000000 0.000000 0.000000 0.000000 -0.033567 0.000000
# 6 0.000000 0.000000 0.000000 0.000000 0.000000 0.044781
#
#
# Mechanical properties :
#
#
# Convention : Reuss Voigt Hill
#
# Bulk Modulus (GPa) = 85.30530 85.48404 85.39467
# Shear Modulus (GPa) = -10.02742 10.40547 0.18902
#
# Velocity S-wave (km/s) = -2.24808 2.29007 0.30866
# Velocity P-wave (km/s) = 6.02127 7.07650 6.57011
#
# Compressibility (1/GPa) = 0.01172260
#
# Stress axis : x y z
#
# Youngs Moduli (GPa) = 70.02400 88.20102 85.66730
#
# Poissons Ratio (x) = 0.45193 0.41624
# Poissons Ratio (y) = 0.35879 0.24002
# Poissons Ratio (z) = 0.34023 0.24712
#
# Static dielectric constant tensor:
#      x y z
#    x 3.678400 0.000000 0.000000 
#    y 0.000000 3.851110 0.000000 
#    z 0.000000 0.000000 3.490180 
# 
# 
# High freq. dielectric constant tensor:
#      x y z
#    x 1.779470 0.000000 0.000000 
#    y 0.000000 1.795160 0.000000 
#    z 0.000000 0.000000 1.766900 
# 
# From -- ./inp_files/22132.got.cif
#   From: 2010.03.12/outbox.cif.g09.slc.cpg/sg38_12_cif.got.tgz:22132.got - 2010.04.14 02:38:36.
