data_PCOD8180620
_publ_section_title
;
Structure prediction by ZEFSAII (Michael W. Deem and Ramdas Pophale) SiO2 
 PCOD8180620
Probable space group: A B M 2
;
_chemical_formula_sum "Si O2"
_cell_formula_units_Z 64
_cell_length_a 16.685215
_cell_length_b 36.794623
_cell_length_c 5.245890
_cell_angle_alpha 90.000000
_cell_angle_beta 90.000000
_cell_angle_gamma 90.000000
_cell_volume 3220.589290
_symmetry_space_group_name_H-M "A B M 2"
_symmetry_group_IT_number 39
_symmetry_cell_setting 'orthorhombic'
loop_
_space_group_symop_operation_xyz
x,y,z
-x,-y,z
-x,1/2+y,z
x,1/2-y,z
x,1/2+y,1/2+z
-x,1/2-y,1/2+z
-x,y,1/2+z
x,-y,1/2+z
loop_
_atom_site_type_symbol
_atom_site_label
_atom_site_fract_x
_atom_site_fract_y
_atom_site_fract_z
Si Si1 0.051403 0.902124 0.469860
Si Si2 0.654821 0.167346 0.503232
Si Si3 0.654601 0.790922 0.503196
Si Si4 0.154624 0.709078 0.003147
Si Si5 0.410471 0.015569 0.044185
Si Si6 0.089527 0.484431 0.962352
Si Si7 0.845159 0.667345 0.003107
Si Si8 0.551399 0.402125 0.536779
O O1 0.091760 0.941376 0.495145
O O2 0.121527 0.873189 0.504695
O O3 0.986251 0.897120 0.691150
O O4 0.622855 0.188783 0.751123
O O5 0.749991 0.164740 0.503157
O O6 0.621513 0.126811 0.501840
O O7 0.622833 0.188366 0.253587
O O8 0.620389 0.750000 0.504713
O O9 0.749989 0.790040 0.503187
O O10 0.120413 0.750000 0.001757
O O11 0.122862 0.688385 0.752678
O O12 0.122872 0.688764 0.255141
O O13 0.500000 0.000000 0.078541
O O14 0.365832 0.003278 0.304325
O O15 0.408239 0.058625 0.011456
O O16 0.134165 0.496715 0.702189
O O17 0.000000 0.500000 0.927933
O O18 0.513771 0.397124 0.815528
#
# Coordination Sequence:
#
# PCOD8180620 Si02
#       8
#     8   8   8   8   8   8   8   8
#     4  12  21  33  55  80 106 139 175 219 260 311
#     4  10  21  35  53  81 111 135 169 221 270 309
#     4   9  17  33  57  79 100 137 184 218 247 303
#     4   9  17  33  57  79 100 137 184 218 247 303
#     4  10  16  30  49  75  96 127 176 226 240 283
#     4  10  16  30  49  75  96 127 176 226 240 283
#     4  10  21  35  53  81 111 135 169 221 270 309
#     4  12  21  33  55  80 106 139 175 219 260 311
#
# _framework density 19.872140000000002
#
# number of rings (size 3 to 8) (size 9 to 14) (size 15 to 20)
#    0.000    1.750    5.000    2.250    0.000    3.000 
#    0.000    0.000    0.000   16.500    0.000    0.000 
#    0.000    0.000    0.000    0.000    0.000    0.000 
#
# Total GULP energy -396762.314657 kJ/mol
# GULP energy per Si atom -12398.822333 kJ/mol
# Density = 1.982691 g / cm^3
# Si number density = 19.872140 Si / 1000 Ang^3
#
#
#
# Elastic Constant Matrix: (Units=GPa)
#
#
# Indices 1 2 3 4 5 6 
#
# 1 11.4895 25.2693 12.9484 0.0000 0.0000 0.0000
# 2 25.2693 178.4780 54.3383 0.0000 0.0000 0.0000
# 3 12.9484 54.3383 170.6627 0.0000 0.0000 0.0000
# 4 0.0000 0.0000 0.0000 38.6949 0.0000 0.0000
# 5 0.0000 0.0000 0.0000 0.0000 5.1489 0.0000
# 6 0.0000 0.0000 0.0000 0.0000 0.0000 25.4866
#
#
#
# Elastic Compliance Matrix: (Units=1/GPa)
#
#
# Indices 1 2 3 4 5 6 
#
# 1 0.129322 -0.016967 -0.004410 0.000000 0.000000 0.000000
# 2 -0.016967 0.008430 -0.001397 0.000000 0.000000 0.000000
# 3 -0.004410 -0.001397 0.006639 0.000000 0.000000 0.000000
# 4 0.000000 0.000000 0.000000 0.025843 0.000000 0.000000
# 5 0.000000 0.000000 0.000000 0.000000 0.194216 0.000000
# 6 0.000000 0.000000 0.000000 0.000000 0.000000 0.039236
#
#
# Mechanical properties :
#
#
# Convention : Reuss Voigt Hill
#
# Bulk Modulus (GPa) = 10.11698 60.63801 35.37750
# Shear Modulus (GPa) = 10.36955 31.73770 21.05363
#
# Velocity S-wave (km/s) = 2.28680 4.00070 3.25846
# Velocity P-wave (km/s) = 3.47487 7.20563 5.65667
#
# Compressibility (1/GPa) = 0.09884375
#
# Stress axis : x y z
#
# Youngs Moduli (GPa) = 7.73267 118.61744 150.62881
#
# Poissons Ratio (x) = 2.01259 0.66420
# Poissons Ratio (y) = 0.13120 0.21042
# Poissons Ratio (z) = 0.03410 0.16570
#
# Static dielectric constant tensor:
#      x y z
#    x 2.871520 0.000000 0.000000 
#    y 0.000000 3.774120 0.000000 
#    z 0.000000 0.000000 4.769570 
# 
# 
# High freq. dielectric constant tensor:
#      x y z
#    x 1.702160 0.000000 0.000000 
#    y 0.000000 1.792050 0.000000 
#    z 0.000000 0.000000 1.809550 
# 
# From -- ./inp_files/906.got.cif
#   From: 2010.03.12/outbox.cif.g09.slc.cpg/sg39_1_cif.got.tgz:906.got - 2010.04.14 02:53:20.
