data_PCOD8180963
_publ_section_title
;
Structure prediction by ZEFSAII (Michael W. Deem and Ramdas Pophale) SiO2 
 PCOD8180963
Probable space group: A B M 2
;
_chemical_formula_sum "Si O2"
_cell_formula_units_Z 64
_cell_length_a 14.283147
_cell_length_b 8.836225
_cell_length_c 31.117146
_cell_angle_alpha 90.000000
_cell_angle_beta 90.000000
_cell_angle_gamma 90.000000
_cell_volume 3927.267010
_symmetry_space_group_name_H-M "A B M 2"
_symmetry_group_IT_number 39
_symmetry_cell_setting 'orthorhombic'
loop_
_space_group_symop_operation_xyz
x,y,z
-x,-y,z
-x,1/2+y,z
x,1/2-y,z
x,1/2+y,1/2+z
-x,1/2-y,1/2+z
-x,y,1/2+z
x,-y,1/2+z
loop_
_atom_site_type_symbol
_atom_site_label
_atom_site_fract_x
_atom_site_fract_y
_atom_site_fract_z
Si Si1 0.397560 0.427825 0.725080
Si Si2 0.905434 0.427299 0.022994
Si Si3 0.400188 0.928613 0.568076
Si Si4 0.603048 0.570466 0.911577
Si Si5 0.293282 0.429607 0.489115
Si Si6 0.402505 0.576924 0.318181
Si Si7 0.279076 0.571960 0.650615
Si Si8 0.904604 0.571153 0.621211
O O1 0.500000 0.500000 0.721626
O O2 0.405202 0.250000 0.714478
O O3 0.349960 0.454613 0.772765
O O4 0.331079 0.510057 0.691987
O O5 0.919509 0.250000 0.020887
O O6 0.814660 0.478932 0.996080
O O7 0.889957 0.481418 0.071937
O O8 0.000000 0.500000 0.003474
O O9 0.410217 0.750000 0.562235
O O10 0.334511 0.973228 0.607715
O O11 0.500000 0.000000 0.578127
O O12 0.359325 0.998595 0.524896
O O13 0.500000 0.500000 0.918038
O O14 0.597927 0.750000 0.920259
O O15 0.644622 0.529713 0.863702
O O16 0.676271 0.492815 0.943246
O O17 0.304656 0.250000 0.491209
O O18 0.500000 0.500000 0.313281
O O19 0.427654 0.750000 0.322404
O O20 0.266829 0.750000 0.654706
O O21 0.178417 0.493966 0.649878
O O22 0.907974 0.750000 0.625724
O O23 0.000000 0.500000 0.639380
#
# Coordination Sequence:
#
# PCOD8180963 Si02
#       8
#     8   8   8   8   8   8   8   8
#     4  10  19  32  50  72  99 131 164 203 245 291
#     4   9  19  33  51  71  93 122 157 200 243 284
#     4  11  23  35  47  64  93 132 168 199 233 277
#     4  10  19  32  49  71  98 130 164 201 241 286
#     4  11  21  34  49  70  97 127 162 198 240 288
#     4   8  16  30  48  69  94 124 161 200 243 287
#     4  11  22  34  49  72  98 130 167 202 242 292
#     4  10  19  34  53  73  96 126 161 205 249 289
#
# _framework density 16.296320999999999
#
# number of rings (size 3 to 8) (size 9 to 14) (size 15 to 20)
#    0.000    2.000    1.250    3.000    0.000    5.000 
#    0.000    0.000    0.000    0.000    0.000    0.875 
#    0.000    2.000    0.000    0.000    0.000    0.000 
#
# Total GULP energy -396645.536495 kJ/mol
# GULP energy per Si atom -12395.173015 kJ/mol
# Density = 1.625923 g / cm^3
# Si number density = 16.296321 Si / 1000 Ang^3
#
#
#
# Elastic Constant Matrix: (Units=GPa)
#
#
# Indices 1 2 3 4 5 6 
#
# 1 110.9988 41.7092 50.2870 0.0000 0.0000 0.0000
# 2 41.7092 64.2060 35.6618 0.0000 0.0000 0.0000
# 3 50.2870 35.6618 103.0879 0.0000 0.0000 0.0000
# 4 0.0000 0.0000 0.0000 24.5269 0.0000 0.0000
# 5 0.0000 0.0000 0.0000 0.0000 6.6826 0.0000
# 6 0.0000 0.0000 0.0000 0.0000 0.0000 29.1865
#
#
#
# Elastic Compliance Matrix: (Units=1/GPa)
#
#
# Indices 1 2 3 4 5 6 
#
# 1 0.013321 -0.006244 -0.004338 0.000000 0.000000 0.000000
# 2 -0.006244 0.022206 -0.004636 0.000000 0.000000 0.000000
# 3 -0.004338 -0.004636 0.013420 0.000000 0.000000 0.000000
# 4 0.000000 0.000000 0.000000 0.040772 0.000000 0.000000
# 5 0.000000 0.000000 0.000000 0.000000 0.149643 0.000000
# 6 0.000000 0.000000 0.000000 0.000000 0.000000 0.034262
#
#
# Mechanical properties :
#
#
# Convention : Reuss Voigt Hill
#
# Bulk Modulus (GPa) = 54.02125 59.28986 56.65555
# Shear Modulus (GPa) = 16.11708 22.12150 19.11929
#
# Velocity S-wave (km/s) = 3.14825 3.68836 3.42896
# Velocity P-wave (km/s) = 6.81444 7.38918 7.10762
#
# Compressibility (1/GPa) = 0.01851123
#
# Stress axis : x y z
#
# Youngs Moduli (GPa) = 75.07194 45.03295 74.51406
#
# Poissons Ratio (x) = 0.28118 0.32323
# Poissons Ratio (y) = 0.46874 0.34545
# Poissons Ratio (z) = 0.32565 0.20877
#
# Static dielectric constant tensor:
#      x y z
#    x 2.981710 0.000000 0.000000 
#    y 0.000000 3.188790 0.000000 
#    z 0.000000 0.000000 3.389080 
# 
# 
# High freq. dielectric constant tensor:
#      x y z
#    x 1.605800 0.000000 0.000000 
#    y 0.000000 1.644280 0.000000 
#    z 0.000000 0.000000 1.622090 
# 
# From -- ./inp_files/17858.got.cif
#   From: 2010.03.12/outbox.cif.g09.slc.cpg/sg39_9_cif.got.tgz:17858.got - 2010.04.14 02:53:20.
