data_PCOD8180610
_publ_section_title
;
Structure prediction by ZEFSAII (Michael W. Deem and Ramdas Pophale) SiO2 
 PCOD8180610
Probable space group: A B M 2
;
_chemical_formula_sum "Si O2"
_cell_formula_units_Z 56
_cell_length_a 32.159659
_cell_length_b 17.973863
_cell_length_c 5.180730
_cell_angle_alpha 90.000000
_cell_angle_beta 90.000000
_cell_angle_gamma 90.000000
_cell_volume 2994.634484
_symmetry_space_group_name_H-M "A B M 2"
_symmetry_group_IT_number 39
_symmetry_cell_setting 'orthorhombic'
loop_
_space_group_symop_operation_xyz
x,y,z
-x,-y,z
-x,1/2+y,z
x,1/2-y,z
x,1/2+y,1/2+z
-x,1/2-y,1/2+z
-x,y,1/2+z
x,-y,1/2+z
loop_
_atom_site_type_symbol
_atom_site_label
_atom_site_fract_x
_atom_site_fract_y
_atom_site_fract_z
Si Si1 0.185500 0.336668 0.275580
Si Si2 0.403715 0.547183 0.249626
Si Si3 0.981895 0.582277 0.304240
Si Si4 0.237878 0.663638 0.273545
Si Si5 0.308011 0.952898 0.223529
Si Si6 0.887036 0.951375 0.281973
Si Si7 0.526032 0.163276 0.200875
O O1 0.173506 0.250000 0.272708
O O2 0.207997 0.359890 0.539544
O O3 0.143397 0.382309 0.247125
O O4 0.215562 0.357169 0.039766
O O5 0.414445 0.510725 0.523845
O O6 0.355852 0.572143 0.236933
O O7 0.430468 0.621156 0.217380
O O8 0.932975 0.581905 0.258430
O O9 0.000000 0.500000 0.356771
O O10 0.994567 0.624228 0.569410
O O11 0.249279 0.750000 0.257526
O O12 0.281114 0.620765 0.257345
O O13 0.297330 0.011154 0.448392
O O14 0.879341 0.988769 0.558182
O O15 0.536869 0.250000 0.208626
O O16 0.496745 0.140221 0.437980
#
# Coordination Sequence:
#
# PCOD8180610 Si02
#       7
#     8   8   8   8   8   8   8
#     4  10  23  39  53  76 113 142 169 215 267 316
#     4  10  21  36  54  81 110 141 179 218 273 328
#     4  10  16  30  48  73 103 131 161 214 257 292
#     4  10  21  39  58  76 103 146 181 208 261 325
#     4  10  21  36  57  82 111 138 172 229 272 307
#     4  12  21  32  55  84 101 134 179 216 254 306
#     4  10  21  36  54  78 109 144 183 229 271 310
#
# _framework density 18.700113000000002
#
# number of rings (size 3 to 8) (size 9 to 14) (size 15 to 20)
#    0.000    1.714    2.857    2.571    0.000    5.714 
#    0.000    0.000    0.000   11.143    0.000    0.000 
#    0.000    0.000    0.000    0.000    0.000    0.000 
#
# Total GULP energy -347269.678115 kJ/mol
# GULP energy per Si atom -12402.488504 kJ/mol
# Density = 1.865755 g / cm^3
# Si number density = 18.700113 Si / 1000 Ang^3
#
#
#
# Elastic Constant Matrix: (Units=GPa)
#
#
# Indices 1 2 3 4 5 6 
#
# 1 104.9983 61.8202 11.2786 0.0000 0.0000 0.0000
# 2 61.8202 55.0494 11.5358 0.0000 0.0000 0.0000
# 3 11.2786 11.5358 98.2553 0.0000 0.0000 0.0000
# 4 0.0000 0.0000 0.0000 10.9760 0.0000 0.0000
# 5 0.0000 0.0000 0.0000 0.0000 23.3866 0.0000
# 6 0.0000 0.0000 0.0000 0.0000 0.0000 16.7441
#
#
#
# Elastic Compliance Matrix: (Units=1/GPa)
#
#
# Indices 1 2 3 4 5 6 
#
# 1 0.028133 -0.031696 0.000492 0.000000 0.000000 0.000000
# 2 -0.031696 0.054335 -0.002741 0.000000 0.000000 0.000000
# 3 0.000492 -0.002741 0.010443 0.000000 0.000000 0.000000
# 4 0.000000 0.000000 0.000000 0.091108 0.000000 0.000000
# 5 0.000000 0.000000 0.000000 0.000000 0.042759 0.000000
# 6 0.000000 0.000000 0.000000 0.000000 0.000000 0.059722
#
#
# Mechanical properties :
#
#
# Convention : Reuss Voigt Hill
#
# Bulk Modulus (GPa) = 39.96771 47.50801 43.73786
# Shear Modulus (GPa) = 13.78430 21.79925 17.79178
#
# Velocity S-wave (km/s) = 2.71795 3.41798 3.08787
# Velocity P-wave (km/s) = 5.59187 6.40602 6.01274
#
# Compressibility (1/GPa) = 0.02502019
#
# Stress axis : x y z
#
# Youngs Moduli (GPa) = 35.54524 18.40441 95.75900
#
# Poissons Ratio (x) = 0.58335 -0.04711
# Poissons Ratio (y) = 1.12666 0.26246
# Poissons Ratio (z) = -0.01749 0.05044
#
# Static dielectric constant tensor:
#      x y z
#    x 3.396090 0.000000 0.000000 
#    y 0.000000 3.185380 0.000000 
#    z 0.000000 0.000000 4.118240 
# 
# 
# High freq. dielectric constant tensor:
#      x y z
#    x 1.730690 0.000000 0.000000 
#    y 0.000000 1.696140 0.000000 
#    z 0.000000 0.000000 1.757770 
# 
# From -- ./inp_files/1486.got.cif
#   From: 2010.03.12/outbox.cif.g09.slc.cpg/sg39_1_cif.got.tgz:1486.got - 2010.04.14 02:53:20.
