data_PCOD8180753
_publ_section_title
;
Structure prediction by ZEFSAII (Michael W. Deem and Ramdas Pophale) SiO2 
 PCOD8180753
Probable space group: A B M 2
;
_chemical_formula_sum "Si O2"
_cell_formula_units_Z 64
_cell_length_a 24.379021
_cell_length_b 8.792045
_cell_length_c 14.709665
_cell_angle_alpha 90.000000
_cell_angle_beta 90.000000
_cell_angle_gamma 90.000000
_cell_volume 3152.890921
_symmetry_space_group_name_H-M "A B M 2"
_symmetry_group_IT_number 39
_symmetry_cell_setting 'orthorhombic'
loop_
_space_group_symop_operation_xyz
x,y,z
-x,-y,z
-x,1/2+y,z
x,1/2-y,z
x,1/2+y,1/2+z
-x,1/2-y,1/2+z
-x,y,1/2+z
x,-y,1/2+z
loop_
_atom_site_type_symbol
_atom_site_label
_atom_site_fract_x
_atom_site_fract_y
_atom_site_fract_z
Si Si1 0.623386 0.076701 0.464110
Si Si2 0.869374 0.069582 0.305935
Si Si3 0.058483 0.568520 0.661699
Si Si4 0.241860 0.927079 0.783574
Si Si5 0.859064 0.425577 0.512293
Si Si6 0.558104 0.428234 0.114368
Si Si7 0.256945 0.923849 0.470319
Si Si8 0.647617 0.929145 0.757547
O O1 0.603135 0.250000 0.471088
O O2 0.682884 0.056026 0.514445
O O3 0.628584 0.026135 0.359302
O O4 0.578669 0.973252 0.513834
O O5 0.872666 0.250000 0.298558
O O6 0.869461 0.011681 0.410525
O O7 0.922216 0.993984 0.259238
O O8 0.814422 0.010868 0.254687
O O9 0.055809 0.750000 0.664306
O O10 0.100909 0.499940 0.586492
O O11 0.000000 0.500000 0.636564
O O12 0.235396 0.750000 0.761823
O O13 0.251815 0.955702 0.889855
O O14 0.294917 0.991535 0.730291
O O15 0.873973 0.250000 0.512359
O O16 0.794289 0.451430 0.539007
O O17 0.500000 0.500000 0.137204
O O18 0.551396 0.250000 0.119703
O O19 0.601225 0.488991 0.188872
O O20 0.252232 0.750000 0.430405
O O21 0.656509 0.750000 0.749234
#
# Coordination Sequence:
#
# PCOD8180753 Si02
#       8
#     8   8   8   8   8   8   8   8
#     4   9  18  35  59  84 112 144 178 220 278 334
#     4  10  20  38  60  83 113 149 183 225 278 329
#     4  11  23  39  56  80 110 145 191 236 276 326
#     4  10  18  30  54  88 117 143 179 224 271 329
#     4   8  17  35  59  82 109 144 181 221 273 329
#     4  11  24  40  57  79 109 144 189 235 276 325
#     4   8  15  32  56  81 111 146 179 219 273 332
#     4   9  20  39  59  81 112 149 182 222 276 332
#
# _framework density 20.298832000000001
#
# number of rings (size 3 to 8) (size 9 to 14) (size 15 to 20)
#    0.000    2.500    0.000    3.750    0.000    5.000 
#    0.000   10.000    0.000    0.000    0.000    0.000 
#    0.000    0.000    0.000    0.000    0.000    0.000 
#
# Total GULP energy -396653.944631 kJ/mol
# GULP energy per Si atom -12395.435770 kJ/mol
# Density = 2.025263 g / cm^3
# Si number density = 20.298832 Si / 1000 Ang^3
#
#
#
# Elastic Constant Matrix: (Units=GPa)
#
#
# Indices 1 2 3 4 5 6 
#
# 1 110.3528 31.4729 23.3761 0.0000 0.0000 0.0000
# 2 31.4729 69.7791 15.4620 0.0000 0.0000 0.0000
# 3 23.3761 15.4620 46.1700 0.0000 0.0000 0.0000
# 4 0.0000 0.0000 0.0000 20.1976 0.0000 0.0000
# 5 0.0000 0.0000 0.0000 0.0000 34.9172 0.0000
# 6 0.0000 0.0000 0.0000 0.0000 0.0000 32.8184
#
#
#
# Elastic Compliance Matrix: (Units=1/GPa)
#
#
# Indices 1 2 3 4 5 6 
#
# 1 0.011128 -0.004073 -0.004270 0.000000 0.000000 0.000000
# 2 -0.004073 0.016970 -0.003621 0.000000 0.000000 0.000000
# 3 -0.004270 -0.003621 0.025034 0.000000 0.000000 0.000000
# 4 0.000000 0.000000 0.000000 0.049511 0.000000 0.000000
# 5 0.000000 0.000000 0.000000 0.000000 0.028639 0.000000
# 6 0.000000 0.000000 0.000000 0.000000 0.000000 0.030471
#
#
# Mechanical properties :
#
#
# Convention : Reuss Voigt Hill
#
# Bulk Modulus (GPa) = 34.24220 40.76932 37.50576
# Shear Modulus (GPa) = 25.58645 27.98603 26.78624
#
# Velocity S-wave (km/s) = 3.55419 3.71712 3.63656
# Velocity P-wave (km/s) = 5.80936 6.20893 6.01246
#
# Compressibility (1/GPa) = 0.02920373
#
# Stress axis : x y z
#
# Youngs Moduli (GPa) = 89.86338 58.92627 39.94607
#
# Poissons Ratio (x) = 0.24000 0.17058
# Poissons Ratio (y) = 0.36601 0.14465
# Poissons Ratio (z) = 0.38373 0.21338
#
# Static dielectric constant tensor:
#      x y z
#    x 3.935730 0.000000 0.000000 
#    y 0.000000 3.417360 0.000000 
#    z 0.000000 0.000000 3.562310 
# 
# 
# High freq. dielectric constant tensor:
#      x y z
#    x 1.801890 0.000000 0.000000 
#    y 0.000000 1.775540 0.000000 
#    z 0.000000 0.000000 1.775350 
# 
# From -- ./inp_files/10654.got.cif
#   From: 2010.03.12/outbox.cif.g09.slc.cpg/sg39_6_cif.got.tgz:10654.got - 2010.04.14 02:53:20.
