data_PCOD8180035
_publ_section_title
;
Structure prediction by ZEFSAII (Michael W. Deem and Ramdas Pophale) SiO2 
 PCOD8180035
Probable space group: A M M 2
;
_chemical_formula_sum "Si O2"
_cell_formula_units_Z 30
_cell_length_a 7.783630
_cell_length_b 13.124477
_cell_length_c 13.694095
_cell_angle_alpha 90.000000
_cell_angle_beta 90.000000
_cell_angle_gamma 90.000000
_cell_volume 1398.934967
_symmetry_space_group_name_H-M "A M M 2"
_symmetry_group_IT_number 38
_symmetry_cell_setting 'orthorhombic'
loop_
_space_group_symop_operation_xyz
x,y,z
-x,-y,z
-x,y,z
x,-y,z
x,1/2+y,1/2+z
-x,1/2-y,1/2+z
-x,1/2+y,1/2+z
x,1/2-y,1/2+z
loop_
_atom_site_type_symbol
_atom_site_label
_atom_site_fract_x
_atom_site_fract_y
_atom_site_fract_z
Si Si1 0.500000 0.000000 0.179200
Si Si2 0.798304 0.500000 0.837447
Si Si3 0.181416 0.385225 0.204210
Si Si4 0.195500 0.674081 0.990564
Si Si5 0.500000 0.112587 0.805748
Si Si6 0.500000 0.668821 0.514742
O O1 0.673676 0.000000 0.243577
O O2 0.500000 0.898369 0.112526
O O3 0.755809 0.399384 0.900739
O O4 0.000000 0.500000 0.805927
O O5 0.168009 0.500000 0.243930
O O6 0.332591 0.327532 0.263858
O O7 0.000000 0.328277 0.226705
O O8 0.214028 0.390822 0.089072
O O9 0.326998 0.766368 0.003191
O O10 0.000000 0.715625 0.978456
O O11 0.500000 0.096703 0.920708
O O12 0.500000 0.000000 0.756640
#
# Coordination Sequence:
#
# PCOD8180035 Si02
#       6
#     2   4   8   8   4   4
#     4  12  28  46  60  86 136 188 222 256 314 386
#     4  10  22  44  71  97 127 167 216 270 327 386
#     4   9  17  33  60  91 115 138 178 243 314 366
#     4  10  21  39  67  98 123 153 204 268 325 377
#     4  10  21  37  55  77 113 157 197 236 289 358
#     4  12  26  42  57  85 129 175 217 254 302 375
#
# _framework density 21.444886
#
# number of rings (size 3 to 8) (size 9 to 14) (size 15 to 20)
#    0.000    1.867    2.000    1.600    0.000    6.400 
#    0.000    5.333    0.000    0.000    0.000    0.000 
#    0.000    0.000    0.000    0.000    0.000    0.000 
#
# Total GULP energy -185833.049221 kJ/mol
# GULP energy per Si atom -12388.869948 kJ/mol
# Density = 2.139608 g / cm^3
# Si number density = 21.444886 Si / 1000 Ang^3
#
#
#
# Elastic Constant Matrix: (Units=GPa)
#
#
# Indices 1 2 3 4 5 6 
#
# 1 195.4351 60.9120 96.2374 0.0000 0.0000 0.0000
# 2 60.9120 82.9056 36.6189 0.0000 0.0000 0.0000
# 3 96.2374 36.6189 142.8935 0.0000 0.0000 0.0000
# 4 0.0000 0.0000 0.0000 18.3181 0.0000 0.0000
# 5 0.0000 0.0000 0.0000 0.0000 -16.2814 0.0000
# 6 0.0000 0.0000 0.0000 0.0000 0.0000 14.6410
#
#
#
# Elastic Compliance Matrix: (Units=1/GPa)
#
#
# Indices 1 2 3 4 5 6 
#
# 1 0.008869 -0.004373 -0.004853 0.000000 0.000000 0.000000
# 2 -0.004373 0.015758 -0.001093 0.000000 0.000000 0.000000
# 3 -0.004853 -0.001093 0.010547 0.000000 0.000000 0.000000
# 4 0.000000 0.000000 0.000000 0.054591 0.000000 0.000000
# 5 0.000000 0.000000 0.000000 0.000000 -0.061420 0.000000
# 6 0.000000 0.000000 0.000000 0.000000 0.000000 0.068301
#
#
# Mechanical properties :
#
#
# Convention : Reuss Voigt Hill
#
# Bulk Modulus (GPa) = 68.79451 89.86344 79.32898
# Shear Modulus (GPa) = 40.94034 18.49993 29.72014
#
# Velocity S-wave (km/s) = 4.37406 2.94032 3.72679
# Velocity P-wave (km/s) = 7.59337 7.31592 7.45593
#
# Compressibility (1/GPa) = 0.01453604
#
# Stress axis : x y z
#
# Youngs Moduli (GPa) = 112.74740 63.46149 94.81714
#
# Poissons Ratio (x) = 0.27752 0.46013
# Poissons Ratio (y) = 0.49305 0.10363
# Poissons Ratio (z) = 0.54714 0.06936
#
# Static dielectric constant tensor:
#      x y z
#    x 4.703300 0.000000 0.000000 
#    y 0.000000 3.414780 0.000000 
#    z 0.000000 0.000000 3.815370 
# 
# 
# High freq. dielectric constant tensor:
#      x y z
#    x 1.868510 0.000000 0.000000 
#    y 0.000000 1.804310 0.000000 
#    z 0.000000 0.000000 1.838840 
# 
# From -- ./inp_files/7579.got.cif
#   From: 2010.03.12/outbox.cif.g09.slc.cpg/sg38_4_cif.got.tgz:7579.got - 2010.04.14 02:38:36.
