data_PCOD8180041
_publ_section_title
;
Structure prediction by ZEFSAII (Michael W. Deem and Ramdas Pophale) SiO2 
 PCOD8180041
Probable space group: A M M 2
;
_chemical_formula_sum "Si O2"
_cell_formula_units_Z 64
_cell_length_a 19.737658
_cell_length_b 8.850948
_cell_length_c 20.273802
_cell_angle_alpha 90.000000
_cell_angle_beta 90.000000
_cell_angle_gamma 90.000000
_cell_volume 3541.772076
_symmetry_space_group_name_H-M "A M M 2"
_symmetry_group_IT_number 38
_symmetry_cell_setting 'orthorhombic'
loop_
_space_group_symop_operation_xyz
x,y,z
-x,-y,z
-x,y,z
x,-y,z
x,1/2+y,1/2+z
-x,1/2-y,1/2+z
-x,1/2+y,1/2+z
x,1/2-y,1/2+z
loop_
_atom_site_type_symbol
_atom_site_label
_atom_site_fract_x
_atom_site_fract_y
_atom_site_fract_z
Si Si1 0.329617 0.823072 0.589380
Si Si2 0.674205 0.821648 0.228485
Si Si3 0.176516 0.176532 0.586354
Si Si4 0.076979 0.678768 0.976831
Si Si5 0.421669 0.324774 0.969017
Si Si6 0.076788 0.677972 0.340441
Si Si7 0.420460 0.174308 0.833520
Si Si8 0.183668 0.679732 0.232867
O O1 0.346942 0.734694 0.656022
O O2 0.253397 0.786659 0.565435
O O3 0.379650 0.767517 0.532082
O O4 0.338475 0.000000 0.604628
O O5 0.616020 0.773431 0.278670
O O6 0.744809 0.750954 0.253297
O O7 0.681164 0.000000 0.227644
O O8 0.124512 0.249734 0.534042
O O9 0.162742 0.238602 0.660043
O O10 0.162478 0.000000 0.586502
O O11 0.084214 0.500000 0.972013
O O12 0.101729 0.746515 0.907789
O O13 0.000000 0.727657 0.992353
O O14 0.500000 0.296278 0.985427
O O15 0.406754 0.500000 0.954346
O O16 0.397914 0.229617 0.905894
O O17 0.082101 0.500000 0.349094
O O18 0.125552 0.735742 0.282378
O O19 0.000000 0.727395 0.323163
O O20 0.500000 0.200224 0.824006
O O21 0.399995 0.000000 0.825603
O O22 0.192533 0.500000 0.233378
#
# Coordination Sequence:
#
# PCOD8180041 Si02
#       8
#     8   8   8   8   8   8   8   8
#     4   9  18  34  53  73 101 135 169 207 253 304
#     4  11  22  35  53  77 105 136 173 217 258 301
#     4   8  15  29  48  68  91 122 162 203 240 284
#     4   9  17  29  46  69  97 128 162 201 245 295
#     4   9  18  33  53  77 104 133 167 208 252 299
#     4   9  18  32  50  73 100 130 165 206 252 301
#     4  10  21  37  56  77 104 138 173 210 255 307
#     4   9  18  34  53  72  98 132 169 210 255 303
#
# _framework density 18.070049999999998
#
# number of rings (size 3 to 8) (size 9 to 14) (size 15 to 20)
#    0.000    2.750    0.000    2.250    0.000    3.750 
#    0.000    7.500    0.000    0.000    0.000    3.500 
#    0.000    0.000    0.000    0.000    0.000    0.000 
#
# Total GULP energy -396804.974416 kJ/mol
# GULP energy per Si atom -12400.155450 kJ/mol
# Density = 1.802892 g / cm^3
# Si number density = 18.070050 Si / 1000 Ang^3
#
#
#
# Elastic Constant Matrix: (Units=GPa)
#
#
# Indices 1 2 3 4 5 6 
#
# 1 90.8380 30.8039 82.7791 0.0000 0.0000 0.0000
# 2 30.8039 46.0842 39.4431 0.0000 0.0000 0.0000
# 3 82.7791 39.4431 133.1955 0.0000 0.0000 0.0000
# 4 0.0000 0.0000 0.0000 31.0093 0.0000 0.0000
# 5 0.0000 0.0000 0.0000 0.0000 42.5715 0.0000
# 6 0.0000 0.0000 0.0000 0.0000 0.0000 19.3567
#
#
#
# Elastic Compliance Matrix: (Units=1/GPa)
#
#
# Indices 1 2 3 4 5 6 
#
# 1 0.026149 -0.004781 -0.014836 0.000000 0.000000 0.000000
# 2 -0.004781 0.029941 -0.005895 0.000000 0.000000 0.000000
# 3 -0.014836 -0.005895 0.018474 0.000000 0.000000 0.000000
# 4 0.000000 0.000000 0.000000 0.032248 0.000000 0.000000
# 5 0.000000 0.000000 0.000000 0.000000 0.023490 0.000000
# 6 0.000000 0.000000 0.000000 0.000000 0.000000 0.051662
#
#
# Mechanical properties :
#
#
# Convention : Reuss Voigt Hill
#
# Bulk Modulus (GPa) = 42.48052 64.01886 53.24969
# Shear Modulus (GPa) = 20.76120 26.39360 23.57740
#
# Velocity S-wave (km/s) = 3.39326 3.82596 3.61609
# Velocity P-wave (km/s) = 6.23796 7.41771 6.85327
#
# Compressibility (1/GPa) = 0.02354020
#
# Stress axis : x y z
#
# Youngs Moduli (GPa) = 38.24176 33.39934 54.13158
#
# Poissons Ratio (x) = 0.15969 0.80307
# Poissons Ratio (y) = 0.18285 0.31910
# Poissons Ratio (z) = 0.56734 0.19688
#
# Static dielectric constant tensor:
#      x y z
#    x 3.448250 0.000000 0.000000 
#    y 0.000000 3.140390 0.000000 
#    z 0.000000 0.000000 3.530890 
# 
# 
# High freq. dielectric constant tensor:
#      x y z
#    x 1.700320 0.000000 0.000000 
#    y 0.000000 1.680510 0.000000 
#    z 0.000000 0.000000 1.706370 
# 
# From -- ./inp_files/18878.got.cif
#   From: 2010.03.12/outbox.cif.g09.slc.cpg/sg38_10_cif.got.tgz:18878.got - 2010.04.14 02:38:36.
