data_PCOD8180505
_publ_section_title
;
Structure prediction by ZEFSAII (Michael W. Deem and Ramdas Pophale) SiO2 
 PCOD8180505
Probable space group: A M M 2
;
_chemical_formula_sum "Si O2"
_cell_formula_units_Z 56
_cell_length_a 15.046081
_cell_length_b 15.429531
_cell_length_c 10.925500
_cell_angle_alpha 90.000000
_cell_angle_beta 90.000000
_cell_angle_gamma 90.000000
_cell_volume 2536.398234
_symmetry_space_group_name_H-M "A M M 2"
_symmetry_group_IT_number 38
_symmetry_cell_setting 'orthorhombic'
loop_
_space_group_symop_operation_xyz
x,y,z
-x,-y,z
-x,y,z
x,-y,z
x,1/2+y,1/2+z
-x,1/2-y,1/2+z
-x,1/2+y,1/2+z
x,1/2-y,1/2+z
loop_
_atom_site_type_symbol
_atom_site_label
_atom_site_fract_x
_atom_site_fract_y
_atom_site_fract_z
Si Si1 0.353354 0.749575 0.646850
Si Si2 0.213012 0.902362 0.414122
Si Si3 0.749663 0.402017 0.534160
Si Si4 0.100069 0.162636 0.627427
Si Si5 0.748321 0.597418 0.258754
Si Si6 0.900293 0.638673 0.682297
Si Si7 0.404367 0.680776 0.897901
O O1 0.294594 0.663126 0.631044
O O2 0.296402 0.837749 0.661685
O O3 0.407495 0.738542 0.773185
O O4 0.408755 0.760151 0.521439
O O5 0.158358 0.838656 0.503132
O O6 0.162744 0.899787 0.286350
O O7 0.316663 0.877826 0.398811
O O8 0.210230 0.000000 0.467246
O O9 0.713906 0.500000 0.553373
O O10 0.730201 0.370542 0.396336
O O11 0.856103 0.397065 0.556859
O O12 0.146256 0.100622 0.728517
O O13 0.099107 0.257977 0.683853
O O14 0.000000 0.130186 0.600096
O O15 0.711835 0.500000 0.240751
O O16 0.000000 0.602023 0.694787
O O17 0.500000 0.629679 0.897558
#
# Coordination Sequence:
#
# PCOD8180505 Si02
#       7
#     8   8   8   8   8   8   8
#     4  12  23  46  73 102 140 184 225 284 353 422
#     4  12  25  43  66  96 137 177 220 289 358 412
#     4  11  23  40  67  99 136 184 230 281 344 410
#     4  11  24  40  64  96 133 181 234 282 334 403
#     4  11  23  40  67  99 136 184 230 281 344 410
#     4  11  24  40  64  96 133 181 234 282 334 403
#     4  12  26  44  74 106 135 177 231 286 353 420
#
# _framework density 22.078551000000001
#
# number of rings (size 3 to 8) (size 9 to 14) (size 15 to 20)
#    0.000    0.571    5.714    1.714    2.000    3.714 
#    0.000    1.429    0.000    3.429    0.000    0.000 
#    0.000    0.000    0.000    0.000    0.000    0.000 
#
# Total GULP energy -346967.694739 kJ/mol
# GULP energy per Si atom -12391.703384 kJ/mol
# Density = 2.202830 g / cm^3
# Si number density = 22.078551 Si / 1000 Ang^3
#
#
#
# Elastic Constant Matrix: (Units=GPa)
#
#
# Indices 1 2 3 4 5 6 
#
# 1 154.4310 34.3731 40.7883 0.0000 0.0000 0.0000
# 2 34.3731 88.3720 33.6284 0.0000 0.0000 0.0000
# 3 40.7883 33.6284 136.0435 0.0000 0.0000 0.0000
# 4 0.0000 0.0000 0.0000 32.5145 0.0000 0.0000
# 5 0.0000 0.0000 0.0000 0.0000 -16.4536 0.0000
# 6 0.0000 0.0000 0.0000 0.0000 0.0000 9.9454
#
#
#
# Elastic Compliance Matrix: (Units=1/GPa)
#
#
# Indices 1 2 3 4 5 6 
#
# 1 0.007417 -0.002250 -0.001667 0.000000 0.000000 0.000000
# 2 -0.002250 0.013173 -0.002582 0.000000 0.000000 0.000000
# 3 -0.001667 -0.002582 0.008489 0.000000 0.000000 0.000000
# 4 0.000000 0.000000 0.000000 0.030756 0.000000 0.000000
# 5 0.000000 0.000000 0.000000 0.000000 -0.060777 0.000000
# 6 0.000000 0.000000 0.000000 0.000000 0.000000 0.100549
#
#
# Mechanical properties :
#
#
# Convention : Reuss Voigt Hill
#
# Bulk Modulus (GPa) = 62.18863 66.26957 64.22910
# Shear Modulus (GPa) = 42.38534 23.20503 32.79519
#
# Velocity S-wave (km/s) = 4.38625 3.24546 3.85825
# Velocity P-wave (km/s) = 7.34033 6.64263 7.00018
#
# Compressibility (1/GPa) = 0.01608011
#
# Stress axis : x y z
#
# Youngs Moduli (GPa) = 134.83190 75.91016 117.80425
#
# Poissons Ratio (x) = 0.17082 0.19643
# Poissons Ratio (y) = 0.30341 0.30413
# Poissons Ratio (z) = 0.22482 0.19597
#
# Static dielectric constant tensor:
#      x y z
#    x 4.013130 0.000000 0.000000 
#    y 0.000000 3.725920 0.000000 
#    z 0.000000 0.000000 4.169870 
# 
# 
# High freq. dielectric constant tensor:
#      x y z
#    x 1.857200 0.000000 0.000000 
#    y 0.000000 1.854830 0.000000 
#    z 0.000000 0.000000 1.888890 
# 
# From -- ./inp_files/10115.got.cif
#   From: 2010.03.12/outbox.cif.g09.slc.cpg/sg38_6_cif.got.tgz:10115.got - 2010.04.14 02:38:36.
