data_PCOD8180047
_publ_section_title
;
Structure prediction by ZEFSAII (Michael W. Deem and Ramdas Pophale) SiO2 
 PCOD8180047
Probable space group: A M M 2
;
_chemical_formula_sum "Si O2"
_cell_formula_units_Z 56
_cell_length_a 23.554976
_cell_length_b 8.824786
_cell_length_c 14.416372
_cell_angle_alpha 90.000000
_cell_angle_beta 90.000000
_cell_angle_gamma 90.000000
_cell_volume 2996.696972
_symmetry_space_group_name_H-M "A M M 2"
_symmetry_group_IT_number 38
_symmetry_cell_setting 'orthorhombic'
loop_
_space_group_symop_operation_xyz
x,y,z
-x,-y,z
-x,y,z
x,-y,z
x,1/2+y,1/2+z
-x,1/2-y,1/2+z
-x,1/2+y,1/2+z
x,1/2-y,1/2+z
loop_
_atom_site_type_symbol
_atom_site_label
_atom_site_fract_x
_atom_site_fract_y
_atom_site_fract_z
Si Si1 0.844940 0.820879 0.599810
Si Si2 0.064254 0.678802 0.249002
Si Si3 0.435849 0.172977 0.918821
Si Si4 0.143767 0.321153 0.890769
Si Si5 0.364429 0.323230 0.762625
Si Si6 0.765426 0.322928 0.740413
Si Si7 0.565040 0.325672 0.110289
O O1 0.899480 0.767221 0.659677
O O2 0.850004 0.756324 0.495217
O O3 0.788087 0.758677 0.647967
O O4 0.840154 0.000000 0.596874
O O5 0.067778 0.500000 0.260419
O O6 0.087955 0.751447 0.343449
O O7 0.000000 0.734541 0.233783
O O8 0.500000 0.189627 0.880451
O O9 0.392434 0.218775 0.839759
O O10 0.424252 0.000000 0.949564
O O11 0.426109 0.286477 0.003290
O O12 0.135934 0.500000 0.893266
O O13 0.199013 0.272974 0.831268
O O14 0.371502 0.500000 0.786656
O O15 0.299076 0.274614 0.756696
O O16 0.394589 0.287114 0.665958
O O17 0.771368 0.500000 0.722536
O O18 0.500000 0.297423 0.140191
O O19 0.582306 0.500000 0.127262
#
# Coordination Sequence:
#
# PCOD8180047 Si02
#       7
#     8   8   8   8   8   8   8
#     4   9  18  33  54  76  99 134 173 209 253 300
#     4   9  18  32  49  74 107 135 164 206 252 300
#     4  10  21  37  56  79 107 138 173 214 263 320
#     4   9  18  34  54  74  99 133 172 210 250 298
#     4  11  22  35  53  78 108 141 176 217 265 313
#     4   9  20  36  51  73 104 134 169 214 256 299
#     4  10  21  37  56  78 104 135 173 218 267 319
#
# _framework density 18.687242000000001
#
# number of rings (size 3 to 8) (size 9 to 14) (size 15 to 20)
#    0.000    2.429    0.000    1.714    0.000    7.143 
#    0.000    2.857    0.000    0.000    0.000    0.000 
#    0.000    0.000    0.000    0.000    0.000    0.000 
#
# Total GULP energy -347253.750881 kJ/mol
# GULP energy per Si atom -12401.919674 kJ/mol
# Density = 1.864471 g / cm^3
# Si number density = 18.687242 Si / 1000 Ang^3
#
#
#
# Elastic Constant Matrix: (Units=GPa)
#
#
# Indices 1 2 3 4 5 6 
#
# 1 125.7146 32.7436 57.6683 0.0000 0.0000 0.0000
# 2 32.7436 34.3936 23.4021 0.0000 0.0000 0.0000
# 3 57.6683 23.4021 127.3472 0.0000 0.0000 0.0000
# 4 0.0000 0.0000 0.0000 30.9146 0.0000 0.0000
# 5 0.0000 0.0000 0.0000 0.0000 30.9925 0.0000
# 6 0.0000 0.0000 0.0000 0.0000 0.0000 29.7897
#
#
#
# Elastic Compliance Matrix: (Units=1/GPa)
#
#
# Indices 1 2 3 4 5 6 
#
# 1 0.012005 -0.008834 -0.003813 0.000000 0.000000 0.000000
# 2 -0.008834 0.039732 -0.003301 0.000000 0.000000 0.000000
# 3 -0.003813 -0.003301 0.010186 0.000000 0.000000 0.000000
# 4 0.000000 0.000000 0.000000 0.032347 0.000000 0.000000
# 5 0.000000 0.000000 0.000000 0.000000 0.032266 0.000000
# 6 0.000000 0.000000 0.000000 0.000000 0.000000 0.033569
#
#
# Mechanical properties :
#
#
# Convention : Reuss Voigt Hill
#
# Bulk Modulus (GPa) = 33.30430 57.23150 45.26790
# Shear Modulus (GPa) = 24.75153 29.91546 27.33350
#
# Velocity S-wave (km/s) = 3.64334 4.00540 3.82865
# Velocity P-wave (km/s) = 5.96315 7.21689 6.61977
#
# Compressibility (1/GPa) = 0.03002615
#
# Stress axis : x y z
#
# Youngs Moduli (GPa) = 83.30207 25.16891 98.17718
#
# Poissons Ratio (x) = 0.22235 0.37432
# Poissons Ratio (y) = 0.73592 0.32406
# Poissons Ratio (z) = 0.31761 0.08308
#
# Static dielectric constant tensor:
#      x y z
#    x 3.507870 0.000000 0.000000 
#    y 0.000000 3.373210 0.000000 
#    z 0.000000 0.000000 3.513100 
# 
# 
# High freq. dielectric constant tensor:
#      x y z
#    x 1.723340 0.000000 0.000000 
#    y 0.000000 1.722170 0.000000 
#    z 0.000000 0.000000 1.728820 
# 
# From -- ./inp_files/15419.got.cif
#   From: 2010.03.12/outbox.cif.g09.slc.cpg/sg38_8_cif.got.tgz:15419.got - 2010.04.14 02:38:36.
