data_PCOD8180040
_publ_section_title
;
Structure prediction by ZEFSAII (Michael W. Deem and Ramdas Pophale) SiO2 
 PCOD8180040
Probable space group: A M M 2
;
_chemical_formula_sum "Si O2"
_cell_formula_units_Z 48
_cell_length_a 7.823708
_cell_length_b 9.235071
_cell_length_c 34.332085
_cell_angle_alpha 90.000000
_cell_angle_beta 90.000000
_cell_angle_gamma 90.000000
_cell_volume 2480.578932
_symmetry_space_group_name_H-M "A M M 2"
_symmetry_group_IT_number 38
_symmetry_cell_setting 'orthorhombic'
loop_
_space_group_symop_operation_xyz
x,y,z
-x,-y,z
-x,y,z
x,-y,z
x,1/2+y,1/2+z
-x,1/2-y,1/2+z
-x,1/2+y,1/2+z
x,1/2-y,1/2+z
loop_
_atom_site_type_symbol
_atom_site_label
_atom_site_fract_x
_atom_site_fract_y
_atom_site_fract_z
Si Si1 0.695701 0.341199 0.290090
Si Si2 0.000000 0.326758 0.572807
Si Si3 0.805433 0.661839 0.861823
Si Si4 0.697639 0.329870 0.715534
Si Si5 0.300028 0.163545 0.933868
Si Si6 0.000000 0.328693 0.660109
Si Si7 0.689167 0.672242 0.521364
O O1 0.500000 0.365281 0.280522
O O2 0.785785 0.500000 0.292318
O O3 0.707230 0.260090 0.331038
O O4 0.769336 0.246701 0.254539
O O5 0.830670 0.266714 0.551123
O O6 0.000000 0.500000 0.572240
O O7 0.000000 0.263868 0.616534
O O8 0.726313 0.500000 0.862451
O O9 0.795329 0.729866 0.904629
O O10 0.000000 0.655251 0.848325
O O11 0.500000 0.290098 0.704990
O O12 0.714461 0.500000 0.723034
O O13 0.825213 0.277480 0.681293
O O14 0.500000 0.167077 0.924865
O O15 0.230205 0.000000 0.928375
O O16 0.262407 0.220177 0.977524
O O17 0.000000 0.500000 0.657598
O O18 0.500000 0.731717 0.532815
O O19 0.684094 0.500000 0.522461
#
# Coordination Sequence:
#
# PCOD8180040 Si02
#       7
#     8   4   8   8   8   4   8
#     4  10  21  37  56  77 100 130 172 218 259 305
#     4   9  16  26  44  72 103 136 167 204 259 309
#     4  11  24  36  48  73 106 138 172 211 255 306
#     4   9  18  33  52  74 104 140 172 210 261 309
#     4   9  18  33  52  74 100 133 175 219 258 300
#     4   9  18  30  47  74 105 136 173 210 251 315
#     4   8  15  27  44  70 103 135 169 210 255 305
#
# _framework density 19.350321000000001
#
# number of rings (size 3 to 8) (size 9 to 14) (size 15 to 20)
#    0.000    2.667    0.000    2.500    2.333    5.333 
#    0.000    3.333    0.000    0.000    0.000    2.333 
#    0.000    2.667    0.000    0.000    0.000    0.000 
#
# Total GULP energy -297495.218734 kJ/mol
# GULP energy per Si atom -12395.634114 kJ/mol
# Density = 1.930628 g / cm^3
# Si number density = 19.350321 Si / 1000 Ang^3
#
#
#
# Elastic Constant Matrix: (Units=GPa)
#
#
# Indices 1 2 3 4 5 6 
#
# 1 90.2799 25.7939 62.9752 0.0000 0.0000 0.0000
# 2 25.7939 74.9721 46.0149 0.0000 0.0000 0.0000
# 3 62.9752 46.0149 159.6804 0.0000 0.0000 0.0000
# 4 0.0000 0.0000 0.0000 19.5278 0.0000 0.0000
# 5 0.0000 0.0000 0.0000 0.0000 35.1422 0.0000
# 6 0.0000 0.0000 0.0000 0.0000 0.0000 12.7682
#
#
#
# Elastic Compliance Matrix: (Units=1/GPa)
#
#
# Indices 1 2 3 4 5 6 
#
# 1 0.015505 -0.001921 -0.005561 0.000000 0.000000 0.000000
# 2 -0.001921 0.016442 -0.003981 0.000000 0.000000 0.000000
# 3 -0.005561 -0.003981 0.009603 0.000000 0.000000 0.000000
# 4 0.000000 0.000000 0.000000 0.051209 0.000000 0.000000
# 5 0.000000 0.000000 0.000000 0.000000 0.028456 0.000000
# 6 0.000000 0.000000 0.000000 0.000000 0.000000 0.078320
#
#
# Mechanical properties :
#
#
# Convention : Reuss Voigt Hill
#
# Bulk Modulus (GPa) = 53.69343 66.05561 59.87452
# Shear Modulus (GPa) = 21.86572 26.16418 24.01495
#
# Velocity S-wave (km/s) = 3.36518 3.68112 3.52669
# Velocity P-wave (km/s) = 6.55039 7.23038 6.89877
#
# Compressibility (1/GPa) = 0.01862425
#
# Stress axis : x y z
#
# Youngs Moduli (GPa) = 64.49613 60.81859 104.13608
#
# Poissons Ratio (x) = 0.11684 0.57912
# Poissons Ratio (y) = 0.12390 0.41452
# Poissons Ratio (z) = 0.35868 0.24209
#
# Static dielectric constant tensor:
#      x y z
#    x 3.624970 0.000000 0.000000 
#    y 0.000000 3.361650 0.000000 
#    z 0.000000 0.000000 3.616180 
# 
# 
# High freq. dielectric constant tensor:
#      x y z
#    x 1.755160 0.000000 0.000000 
#    y 0.000000 1.711210 0.000000 
#    z 0.000000 0.000000 1.751660 
# 
# From -- ./inp_files/24348.got.cif
#   From: 2010.03.12/outbox.cif.g09.slc.cpg/sg38_13_cif.got.tgz:24348.got - 2010.04.14 02:38:36.
