data_PCOD8180131
_publ_section_title
;
Structure prediction by ZEFSAII (Michael W. Deem and Ramdas Pophale) SiO2 
 PCOD8180131
Probable space group: A M M 2
;
_chemical_formula_sum "Si O2"
_cell_formula_units_Z 48
_cell_length_a 8.382579
_cell_length_b 14.490668
_cell_length_c 20.185921
_cell_angle_alpha 90.000000
_cell_angle_beta 90.000000
_cell_angle_gamma 90.000000
_cell_volume 2451.967055
_symmetry_space_group_name_H-M "A M M 2"
_symmetry_group_IT_number 38
_symmetry_cell_setting 'orthorhombic'
loop_
_space_group_symop_operation_xyz
x,y,z
-x,-y,z
-x,y,z
x,-y,z
x,1/2+y,1/2+z
-x,1/2-y,1/2+z
-x,1/2+y,1/2+z
x,1/2-y,1/2+z
loop_
_atom_site_type_symbol
_atom_site_label
_atom_site_fract_x
_atom_site_fract_y
_atom_site_fract_z
Si Si1 0.188811 0.500000 0.775060
Si Si2 0.185411 0.195924 0.079157
Si Si3 0.687344 0.500000 0.375815
Si Si4 0.316151 0.809008 0.939842
Si Si5 0.315356 0.805141 0.698480
Si Si6 0.186280 0.500000 0.230456
Si Si7 0.189180 0.500000 0.627484
Si Si8 0.185727 0.303129 0.821145
O O1 0.263085 0.500000 0.701341
O O2 0.244854 0.408676 0.813664
O O3 0.000000 0.500000 0.767807
O O4 0.283450 0.264282 0.126004
O O5 0.000000 0.205353 0.097077
O O6 0.249136 0.091363 0.089677
O O7 0.214166 0.223022 0.002990
O O8 0.500000 0.500000 0.357814
O O9 0.737822 0.589032 0.417801
O O10 0.787882 0.500000 0.308957
O O11 0.500000 0.808109 0.960074
O O12 0.288520 0.738826 0.880076
O O13 0.500000 0.795656 0.717462
O O14 0.266696 0.911656 0.696961
O O15 0.212284 0.750918 0.752796
O O16 0.000000 0.500000 0.214674
O O17 0.000000 0.500000 0.630492
O O18 0.000000 0.297035 0.839318
#
# Coordination Sequence:
#
# PCOD8180131 Si02
#       8
#     4   8   4   8   8   4   4   8
#     4   9  18  35  60  90 121 150 194 254 298 340
#     4  11  22  39  62  89 122 162 208 251 299 364
#     4  10  21  37  59  88 129 163 194 246 310 369
#     4  11  23  39  58  87 127 164 199 249 312 364
#     4  12  24  40  61  89 125 160 197 250 309 362
#     4  12  24  39  64  93 119 155 207 253 298 361
#     4   9  17  33  59  91 123 152 191 251 302 346
#     4  11  21  38  63  89 118 159 206 249 297 361
#
# _framework density 19.576118000000001
#
# number of rings (size 3 to 8) (size 9 to 14) (size 15 to 20)
#    0.000    1.167    3.333    4.250    0.000    0.667 
#    0.000    4.583    0.000    1.000    0.000    0.000 
#    0.000    0.000    0.000    0.000    0.000    0.000 
#
# Total GULP energy -297741.762247 kJ/mol
# GULP energy per Si atom -12405.906760 kJ/mol
# Density = 1.953156 g / cm^3
# Si number density = 19.576118 Si / 1000 Ang^3
#
#
#
# Elastic Constant Matrix: (Units=GPa)
#
#
# Indices 1 2 3 4 5 6 
#
# 1 56.5042 17.7071 8.7367 0.0000 0.0000 0.0000
# 2 17.7071 141.8997 51.2380 0.0000 0.0000 0.0000
# 3 8.7367 51.2380 115.5128 0.0000 0.0000 0.0000
# 4 0.0000 0.0000 0.0000 65.3488 0.0000 0.0000
# 5 0.0000 0.0000 0.0000 0.0000 31.0830 0.0000
# 6 0.0000 0.0000 0.0000 0.0000 0.0000 21.7913
#
#
#
# Elastic Compliance Matrix: (Units=1/GPa)
#
#
# Indices 1 2 3 4 5 6 
#
# 1 0.018437 -0.002140 -0.000445 0.000000 0.000000 0.000000
# 2 -0.002140 0.008640 -0.003670 0.000000 0.000000 0.000000
# 3 -0.000445 -0.003670 0.010319 0.000000 0.000000 0.000000
# 4 0.000000 0.000000 0.000000 0.015303 0.000000 0.000000
# 5 0.000000 0.000000 0.000000 0.000000 0.032172 0.000000
# 6 0.000000 0.000000 0.000000 0.000000 0.000000 0.045890
#
#
# Mechanical properties :
#
#
# Convention : Reuss Voigt Hill
#
# Bulk Modulus (GPa) = 40.18580 52.14228 46.16404
# Shear Modulus (GPa) = 32.98893 39.39361 36.19127
#
# Velocity S-wave (km/s) = 4.10953 4.49077 4.30437
# Velocity P-wave (km/s) = 6.56431 7.32003 6.95244
#
# Compressibility (1/GPa) = 0.02488441
#
# Stress axis : x y z
#
# Youngs Moduli (GPa) = 54.23804 115.74606 96.91037
#
# Poissons Ratio (x) = 0.24769 0.04315
# Poissons Ratio (y) = 0.11607 0.35570
# Poissons Ratio (z) = 0.02415 0.42484
#
# Static dielectric constant tensor:
#      x y z
#    x 3.381300 0.000000 0.000000 
#    y 0.000000 3.292930 0.000000 
#    z 0.000000 0.000000 3.407470 
# 
# 
# High freq. dielectric constant tensor:
#      x y z
#    x 1.756760 0.000000 0.000000 
#    y 0.000000 1.767330 0.000000 
#    z 0.000000 0.000000 1.757890 
# 
# From -- ./inp_files/16740.got.cif
#   From: 2010.03.12/outbox.cif.g09.slc.cpg/sg38_9_cif.got.tgz:16740.got - 2010.04.14 02:38:36.
