data_PCOD8180138
_publ_section_title
;
Structure prediction by ZEFSAII (Michael W. Deem and Ramdas Pophale) SiO2 
 PCOD8180138
Probable space group: A M M 2
;
_chemical_formula_sum "Si O2"
_cell_formula_units_Z 48
_cell_length_a 8.701315
_cell_length_b 16.851702
_cell_length_c 16.829561
_cell_angle_alpha 90.000000
_cell_angle_beta 90.000000
_cell_angle_gamma 90.000000
_cell_volume 2467.751640
_symmetry_space_group_name_H-M "A M M 2"
_symmetry_group_IT_number 38
_symmetry_cell_setting 'orthorhombic'
loop_
_space_group_symop_operation_xyz
x,y,z
-x,-y,z
-x,y,z
x,-y,z
x,1/2+y,1/2+z
-x,1/2-y,1/2+z
-x,1/2+y,1/2+z
x,1/2-y,1/2+z
loop_
_atom_site_type_symbol
_atom_site_label
_atom_site_fract_x
_atom_site_fract_y
_atom_site_fract_z
Si Si1 0.679329 0.320977 0.634240
Si Si2 0.177420 0.000000 0.578822
Si Si3 0.678913 0.906936 0.979283
Si Si4 0.319994 0.355410 0.169811
Si Si5 0.177081 0.500000 0.891761
Si Si6 0.180571 0.817685 0.834602
Si Si7 0.682690 0.848677 0.308922
O O1 0.500000 0.337890 0.634635
O O2 0.749709 0.366907 0.559006
O O3 0.716016 0.227748 0.626556
O O4 0.745345 0.353625 0.718067
O O5 0.258399 0.922606 0.612470
O O6 0.200449 0.000000 0.485289
O O7 0.000000 0.000000 0.603621
O O8 0.500000 0.885007 0.967097
O O9 0.776302 0.875640 0.905888
O O10 0.703516 0.000000 0.987362
O O11 0.500000 0.366468 0.185283
O O12 0.236982 0.359956 0.254404
O O13 0.256511 0.577594 0.857637
O O14 0.000000 0.500000 0.867182
O O15 0.259262 0.732537 0.848690
O O16 0.000000 0.805047 0.830776
O O17 0.500000 0.847605 0.311110
#
# Coordination Sequence:
#
# PCOD8180138 Si02
#       7
#     8   4   8   8   4   8   8
#     4   8  18  37  62  91 116 148 198 254 298 346
#     4  11  25  41  59  88 125 158 197 249 308 365
#     4  10  21  37  61  90 121 155 199 252 299 354
#     4  10  21  40  64  89 117 155 205 249 297 362
#     4  11  25  41  59  92 131 162 197 245 308 367
#     4  11  23  40  61  87 124 162 199 248 308 363
#     4  10  21  40  66  91 118 158 208 252 298 358
#
# _framework density 19.450901999999999
#
# number of rings (size 3 to 8) (size 9 to 14) (size 15 to 20)
#    0.000    2.000    0.000    4.000    4.667    1.667 
#    0.000    4.167    0.000    0.000    0.000    0.000 
#    0.000    0.000    0.000    0.000    0.000    0.000 
#
# Total GULP energy -297654.714742 kJ/mol
# GULP energy per Si atom -12402.279781 kJ/mol
# Density = 1.940663 g / cm^3
# Si number density = 19.450902 Si / 1000 Ang^3
#
#
#
# Elastic Constant Matrix: (Units=GPa)
#
#
# Indices 1 2 3 4 5 6 
#
# 1 101.6572 48.7503 46.5179 0.0000 0.0000 0.0000
# 2 48.7503 112.2482 58.6947 0.0000 0.0000 0.0000
# 3 46.5179 58.6947 102.0281 0.0000 0.0000 0.0000
# 4 0.0000 0.0000 0.0000 111.1504 0.0000 0.0000
# 5 0.0000 0.0000 0.0000 0.0000 23.8684 0.0000
# 6 0.0000 0.0000 0.0000 0.0000 0.0000 25.2159
#
#
#
# Elastic Compliance Matrix: (Units=1/GPa)
#
#
# Indices 1 2 3 4 5 6 
#
# 1 0.013461 -0.003772 -0.003968 0.000000 0.000000 0.000000
# 2 -0.003772 0.013798 -0.006218 0.000000 0.000000 0.000000
# 3 -0.003968 -0.006218 0.015188 0.000000 0.000000 0.000000
# 4 0.000000 0.000000 0.000000 0.008997 0.000000 0.000000
# 5 0.000000 0.000000 0.000000 0.000000 0.041896 0.000000
# 6 0.000000 0.000000 0.000000 0.000000 0.000000 0.039658
#
#
# Mechanical properties :
#
#
# Convention : Reuss Voigt Hill
#
# Bulk Modulus (GPa) = 68.81418 69.31770 69.06594
# Shear Modulus (GPa) = 30.16456 42.84497 36.50477
#
# Velocity S-wave (km/s) = 3.94230 4.69841 4.33686
# Velocity P-wave (km/s) = 7.49516 8.07143 7.78863
#
# Compressibility (1/GPa) = 0.01453189
#
# Stress axis : x y z
#
# Youngs Moduli (GPa) = 74.28710 72.47182 65.84354
#
# Poissons Ratio (x) = 0.27334 0.26125
# Poissons Ratio (y) = 0.28018 0.40944
# Poissons Ratio (z) = 0.29475 0.45066
#
# Static dielectric constant tensor:
#      x y z
#    x 3.492820 0.000000 0.000000 
#    y 0.000000 3.585140 0.000000 
#    z 0.000000 0.000000 3.831600 
# 
# 
# High freq. dielectric constant tensor:
#      x y z
#    x 1.748590 0.000000 0.000000 
#    y 0.000000 1.766990 0.000000 
#    z 0.000000 0.000000 1.767520 
# 
# From -- ./inp_files/12088.got.cif
#   From: 2010.03.12/outbox.cif.g09.slc.cpg/sg38_7_cif.got.tgz:12088.got - 2010.04.14 02:38:36.
