data_PCOD8180537
_publ_section_title
;
Structure prediction by ZEFSAII (Michael W. Deem and Ramdas Pophale) SiO2 
 PCOD8180537
Probable space group: A M M 2
;
_chemical_formula_sum "Si O2"
_cell_formula_units_Z 48
_cell_length_a 9.278994
_cell_length_b 7.750423
_cell_length_c 35.116985
_cell_angle_alpha 90.000000
_cell_angle_beta 90.000000
_cell_angle_gamma 90.000000
_cell_volume 2525.477606
_symmetry_space_group_name_H-M "A M M 2"
_symmetry_group_IT_number 38
_symmetry_cell_setting 'orthorhombic'
loop_
_space_group_symop_operation_xyz
x,y,z
-x,-y,z
-x,y,z
x,-y,z
x,1/2+y,1/2+z
-x,1/2-y,1/2+z
-x,1/2+y,1/2+z
x,1/2-y,1/2+z
loop_
_atom_site_type_symbol
_atom_site_label
_atom_site_fract_x
_atom_site_fract_y
_atom_site_fract_z
Si Si1 0.670356 0.000000 0.659880
Si Si2 0.672037 0.500000 0.244968
Si Si3 0.338745 0.699722 0.459894
Si Si4 0.327512 0.306569 0.797550
Si Si5 0.659092 0.296919 0.880028
Si Si6 0.160914 0.795389 0.029985
Si Si7 0.330888 0.197756 0.104997
O O1 0.736613 0.000000 0.702374
O O2 0.720742 0.174617 0.638617
O O3 0.500000 0.000000 0.663111
O O4 0.500000 0.500000 0.244679
O O5 0.729568 0.328496 0.266303
O O6 0.500000 0.783073 0.460636
O O7 0.351568 0.500000 0.469017
O O8 0.262327 0.728864 0.418413
O O9 0.240607 0.784331 0.492895
O O10 0.500000 0.306683 0.799893
O O11 0.273778 0.500000 0.786789
O O12 0.266662 0.248603 0.839456
O O13 0.500000 0.212525 0.880764
O O14 0.648528 0.500000 0.882040
O O15 0.248559 0.740929 0.067361
O O16 0.000000 0.717442 0.032219
O O17 0.153249 0.000000 0.026951
O O18 0.500000 0.217382 0.096786
O O19 0.293059 0.000000 0.116411
#
# Coordination Sequence:
#
# PCOD8180537 Si02
#       7
#     4   4   8   8   8   8   8
#     4   9  18  30  43  67  93 117 157 197 229 279
#     4   9  16  24  38  59  87 119 149 185 229 273
#     4   9  16  25  41  64  87 115 153 192 226 267
#     4   8  14  23  35  54  83 119 153 183 219 267
#     4   8  14  24  36  54  83 117 152 185 218 261
#     4   9  17  30  47  66  90 119 152 190 233 279
#     4   9  17  31  50  67  89 123 156 189 230 276
#
# _framework density 19.006305000000001
#
# number of rings (size 3 to 8) (size 9 to 14) (size 15 to 20)
#    0.000    3.333    0.000    1.500    1.167    2.667 
#    1.500    3.750    0.000    0.000    0.000    0.000 
#    0.000    2.667    0.000    2.000    0.000    0.667 
#
# Total GULP energy -297341.472599 kJ/mol
# GULP energy per Si atom -12389.228025 kJ/mol
# Density = 1.896305 g / cm^3
# Si number density = 19.006305 Si / 1000 Ang^3
#
#
#
# Elastic Constant Matrix: (Units=GPa)
#
#
# Indices 1 2 3 4 5 6 
#
# 1 42.0296 17.6733 42.6289 0.0000 0.0000 0.0000
# 2 17.6733 80.6360 74.4425 0.0000 0.0000 0.0000
# 3 42.6289 74.4425 205.9535 0.0000 0.0000 0.0000
# 4 0.0000 0.0000 0.0000 24.0840 0.0000 0.0000
# 5 0.0000 0.0000 0.0000 0.0000 1.7891 0.0000
# 6 0.0000 0.0000 0.0000 0.0000 0.0000 4.2805
#
#
#
# Elastic Compliance Matrix: (Units=1/GPa)
#
#
# Indices 1 2 3 4 5 6 
#
# 1 0.030202 -0.001273 -0.005791 0.000000 0.000000 0.000000
# 2 -0.001273 0.018666 -0.006483 0.000000 0.000000 0.000000
# 3 -0.005791 -0.006483 0.008398 0.000000 0.000000 0.000000
# 4 0.000000 0.000000 0.000000 0.041521 0.000000 0.000000
# 5 0.000000 0.000000 0.000000 0.000000 0.558955 0.000000
# 6 0.000000 0.000000 0.000000 0.000000 0.000000 0.233617
#
#
# Mechanical properties :
#
#
# Convention : Reuss Voigt Hill
#
# Bulk Modulus (GPa) = 33.14551 66.45650 49.80100
# Shear Modulus (GPa) = 5.38497 18.95568 12.17032
#
# Velocity S-wave (km/s) = 1.68505 3.16149 2.53322
# Velocity P-wave (km/s) = 4.61118 6.95472 5.90047
#
# Compressibility (1/GPa) = 0.03017000
#
# Stress axis : x y z
#
# Youngs Moduli (GPa) = 33.11067 53.57406 119.08297
#
# Poissons Ratio (x) = 0.06821 0.68962
# Poissons Ratio (y) = 0.04216 0.77205
# Poissons Ratio (z) = 0.19175 0.34733
#
# Static dielectric constant tensor:
#      x y z
#    x 3.041470 0.000000 0.000000 
#    y 0.000000 3.367410 0.000000 
#    z 0.000000 0.000000 3.853190 
# 
# 
# High freq. dielectric constant tensor:
#      x y z
#    x 1.661470 0.000000 0.000000 
#    y 0.000000 1.730730 0.000000 
#    z 0.000000 0.000000 1.750050 
# 
# From -- ./inp_files/24361.got.cif
#   From: 2010.03.12/outbox.cif.g09.slc.cpg/sg38_13_cif.got.tgz:24361.got - 2010.04.14 02:38:36.
