data_PCOD8181741
_publ_section_title
;
Structure prediction by ZEFSAII (Michael W. Deem and Ramdas Pophale) SiO2 
 PCOD8181741
Probable space group: A B M 2
;
_chemical_formula_sum "Si O2"
_cell_formula_units_Z 48
_cell_length_a 16.080977
_cell_length_b 14.096690
_cell_length_c 9.585885
_cell_angle_alpha 90.000000
_cell_angle_beta 90.000000
_cell_angle_gamma 90.000000
_cell_volume 2173.010349
_symmetry_space_group_name_H-M "A B M 2"
_symmetry_group_IT_number 39
_symmetry_cell_setting 'orthorhombic'
loop_
_space_group_symop_operation_xyz
x,y,z
-x,-y,z
-x,1/2+y,z
x,1/2-y,z
x,1/2+y,1/2+z
-x,1/2-y,1/2+z
-x,y,1/2+z
x,-y,1/2+z
loop_
_atom_site_type_symbol
_atom_site_label
_atom_site_fract_x
_atom_site_fract_y
_atom_site_fract_z
Si Si1 0.001433 0.142386 0.358190
Si Si2 0.717766 0.079845 0.053019
Si Si3 0.401606 0.250000 0.591228
Si Si4 0.861457 0.148767 0.648814
Si Si5 0.096743 0.940658 0.107537
Si Si6 0.556350 0.750000 0.281074
Si Si7 0.311346 0.095565 0.235658
O O1 0.965879 0.250000 0.365294
O O2 0.093368 0.143114 0.296303
O O3 0.021184 0.100968 0.513295
O O4 0.937726 0.076506 0.266437
O O5 0.710599 0.058695 0.889645
O O6 0.659246 0.162689 0.102919
O O7 0.813087 0.107575 0.093102
O O8 0.678776 0.992030 0.133876
O O9 0.453294 0.250000 0.447699
O O10 0.464585 0.250000 0.719592
O O11 0.886427 0.250000 0.572485
O O12 0.764389 0.158207 0.679313
O O13 0.886281 0.052330 0.566376
O O14 0.604843 0.843638 0.231468
#
# Coordination Sequence:
#
# PCOD8181741 Si02
#       7
#     8   8   4   8   8   4   8
#     4  11  24  41  68  94 130 176 231 285 331 399
#     4  10  23  42  71  97 135 184 224 276 337 411
#     4  10  24  42  72 103 135 177 217 276 348 406
#     4  10  21  40  66  95 128 179 227 278 336 401
#     4  11  24  43  66  97 138 178 235 283 339 397
#     4  10  22  42  72 101 139 173 217 280 338 418
#     4  10  20  42  69 101 132 181 223 276 339 406
#
# _framework density 22.089174
#
# number of rings (size 3 to 8) (size 9 to 14) (size 15 to 20)
#    0.000    1.667    2.500    1.000    2.333    4.667 
#    3.000    5.833    0.000    1.000    0.000    0.000 
#    0.000    0.000    0.000    0.000    0.000    0.000 
#
# Total GULP energy -297341.917675 kJ/mol
# GULP energy per Si atom -12389.246570 kJ/mol
# Density = 2.203890 g / cm^3
# Si number density = 22.089174 Si / 1000 Ang^3
#
#
#
# Elastic Constant Matrix: (Units=GPa)
#
#
# Indices 1 2 3 4 5 6 
#
# 1 131.6636 46.2392 55.1214 0.0000 0.0000 0.0000
# 2 46.2392 164.0951 46.4153 0.0000 0.0000 0.0000
# 3 55.1214 46.4153 100.3295 0.0000 0.0000 0.0000
# 4 0.0000 0.0000 0.0000 23.6618 0.0000 0.0000
# 5 0.0000 0.0000 0.0000 0.0000 37.6900 0.0000
# 6 0.0000 0.0000 0.0000 0.0000 0.0000 22.1610
#
#
#
# Elastic Compliance Matrix: (Units=1/GPa)
#
#
# Indices 1 2 3 4 5 6 
#
# 1 0.010166 -0.001478 -0.004902 0.000000 0.000000 0.000000
# 2 -0.001478 0.007226 -0.002531 0.000000 0.000000 0.000000
# 3 -0.004902 -0.002531 0.013831 0.000000 0.000000 0.000000
# 4 0.000000 0.000000 0.000000 0.042262 0.000000 0.000000
# 5 0.000000 0.000000 0.000000 0.000000 0.026532 0.000000
# 6 0.000000 0.000000 0.000000 0.000000 0.000000 0.045124
#
#
# Mechanical properties :
#
#
# Convention : Reuss Voigt Hill
#
# Bulk Modulus (GPa) = 74.61468 76.84888 75.73178
# Shear Modulus (GPa) = 29.86296 33.25672 31.55984
#
# Velocity S-wave (km/s) = 3.68085 3.88437 3.78398
# Velocity P-wave (km/s) = 7.20535 7.41509 7.31097
#
# Compressibility (1/GPa) = 0.01340219
#
# Stress axis : x y z
#
# Youngs Moduli (GPa) = 98.36418 138.37974 72.30139
#
# Poissons Ratio (x) = 0.20456 0.35439
# Poissons Ratio (y) = 0.14541 0.18300
# Poissons Ratio (z) = 0.48213 0.35024
#
# Static dielectric constant tensor:
#      x y z
#    x 3.899500 0.000000 0.000000 
#    y 0.000000 4.206670 0.000000 
#    z 0.000000 0.000000 3.855000 
# 
# 
# High freq. dielectric constant tensor:
#      x y z
#    x 1.867280 0.000000 0.000000 
#    y 0.000000 1.883760 0.000000 
#    z 0.000000 0.000000 1.861600 
# 
# From -- ./inp_files/3734.got.cif
#   From: 2010.03.12/outbox.cif.g09.slc.cpg/sg39_2_cif.got.tgz:3734.got - 2010.04.14 02:53:20.
