data_PCOD8181292
_publ_section_title
;
Structure prediction by ZEFSAII (Michael W. Deem and Ramdas Pophale) SiO2 
 PCOD8181292
Probable space group: A B M 2
;
_chemical_formula_sum "Si O2"
_cell_formula_units_Z 64
_cell_length_a 14.216457
_cell_length_b 8.645184
_cell_length_c 31.076566
_cell_angle_alpha 90.000000
_cell_angle_beta 90.000000
_cell_angle_gamma 90.000000
_cell_volume 3819.430743
_symmetry_space_group_name_H-M "A B M 2"
_symmetry_group_IT_number 39
_symmetry_cell_setting 'orthorhombic'
loop_
_space_group_symop_operation_xyz
x,y,z
-x,-y,z
-x,1/2+y,z
x,1/2-y,z
x,1/2+y,1/2+z
-x,1/2-y,1/2+z
-x,y,1/2+z
x,-y,1/2+z
loop_
_atom_site_type_symbol
_atom_site_label
_atom_site_fract_x
_atom_site_fract_y
_atom_site_fract_z
Si Si1 0.401986 0.932243 0.698980
Si Si2 0.101757 0.428385 0.405278
Si Si3 0.401172 0.567044 0.105668
Si Si4 0.782375 0.432843 0.573175
Si Si5 0.896209 0.430333 0.810092
Si Si6 0.896031 0.431906 0.490338
Si Si7 0.896965 0.068034 0.151822
Si Si8 0.776928 0.930171 0.735465
O O1 0.411299 0.750000 0.693361
O O2 0.500000 0.000000 0.716740
O O3 0.376692 0.006447 0.653121
O O4 0.319995 0.974945 0.732217
O O5 0.093540 0.250000 0.417375
O O6 0.147908 0.452180 0.358205
O O7 0.153259 0.512868 0.445407
O O8 0.000000 0.500000 0.401533
O O9 0.500000 0.500000 0.088941
O O10 0.406784 0.750000 0.107099
O O11 0.319620 0.512549 0.073601
O O12 0.769389 0.250000 0.574714
O O13 0.832171 0.490023 0.529609
O O14 0.844617 0.485082 0.613112
O O15 0.901639 0.250000 0.797697
O O16 0.826505 0.520905 0.779256
O O17 0.000000 0.500000 0.805872
O O18 0.904425 0.250000 0.490771
O O19 0.000000 0.500000 0.495496
O O20 0.900731 0.250000 0.142734
O O21 0.844086 0.028049 0.195828
O O22 0.000000 0.000000 0.156193
O O23 0.752727 0.750000 0.736616
#
# Coordination Sequence:
#
# PCOD8181292 Si02
#       8
#     8   8   8   8   8   8   8   8
#     4  11  21  35  55  75 100 130 166 211 255 298
#     4   9  17  30  49  71  97 129 167 209 253 297
#     4  11  21  35  54  75  99 129 167 210 255 299
#     4  11  22  35  51  73 100 133 171 209 251 298
#     4  10  20  33  50  74 102 135 172 210 253 300
#     4  10  20  32  49  73 101 133 170 208 250 299
#     4  11  23  35  48  67  98 136 174 208 243 292
#     4  11  22  35  51  74 101 133 173 209 250 299
#
# _framework density 16.756423000000002
#
# number of rings (size 3 to 8) (size 9 to 14) (size 15 to 20)
#    0.000    1.500    1.250    6.750    0.000    7.000 
#    0.000    0.000    0.000    0.000    0.000    0.875 
#    0.000    2.000    0.000    0.000    0.000    0.000 
#
# Total GULP energy -396807.066120 kJ/mol
# GULP energy per Si atom -12400.220816 kJ/mol
# Density = 1.671828 g / cm^3
# Si number density = 16.756423 Si / 1000 Ang^3
#
#
#
# Elastic Constant Matrix: (Units=GPa)
#
#
# Indices 1 2 3 4 5 6 
#
# 1 105.0621 37.9221 48.5526 0.0000 0.0000 0.0000
# 2 37.9221 97.9602 38.1239 0.0000 0.0000 0.0000
# 3 48.5526 38.1239 109.1995 0.0000 0.0000 0.0000
# 4 0.0000 0.0000 0.0000 26.8628 0.0000 0.0000
# 5 0.0000 0.0000 0.0000 0.0000 2.4604 0.0000
# 6 0.0000 0.0000 0.0000 0.0000 0.0000 29.0792
#
#
#
# Elastic Compliance Matrix: (Units=1/GPa)
#
#
# Indices 1 2 3 4 5 6 
#
# 1 0.012775 -0.003165 -0.004575 0.000000 0.000000 0.000000
# 2 -0.003165 0.012597 -0.002991 0.000000 0.000000 0.000000
# 3 -0.004575 -0.002991 0.012236 0.000000 0.000000 0.000000
# 4 0.000000 0.000000 0.000000 0.037226 0.000000 0.000000
# 5 0.000000 0.000000 0.000000 0.000000 0.406435 0.000000
# 6 0.000000 0.000000 0.000000 0.000000 0.000000 0.034389
#
#
# Mechanical properties :
#
#
# Convention : Reuss Voigt Hill
#
# Bulk Modulus (GPa) = 61.93267 62.37990 62.15628
# Shear Modulus (GPa) = 9.21655 24.18871 16.70263
#
# Velocity S-wave (km/s) = 2.34782 3.80353 3.16062
# Velocity P-wave (km/s) = 6.66262 7.52312 7.10591
#
# Compressibility (1/GPa) = 0.01614657
#
# Stress axis : x y z
#
# Youngs Moduli (GPa) = 78.27910 79.38172 81.72679
#
# Poissons Ratio (x) = 0.25123 0.37390
# Poissons Ratio (y) = 0.24774 0.24443
# Poissons Ratio (z) = 0.35813 0.23742
#
# Static dielectric constant tensor:
#      x y z
#    x 3.164770 0.000000 0.000000 
#    y 0.000000 3.328340 0.000000 
#    z 0.000000 0.000000 3.498140 
# 
# 
# High freq. dielectric constant tensor:
#      x y z
#    x 1.626230 0.000000 0.000000 
#    y 0.000000 1.669490 0.000000 
#    z 0.000000 0.000000 1.637800 
# 
# From -- ./inp_files/17995.got.cif
#   From: 2010.03.12/outbox.cif.g09.slc.cpg/sg39_9_cif.got.tgz:17995.got - 2010.04.14 02:53:20.
