data_PCOD8181087
_publ_section_title
;
Structure prediction by ZEFSAII (Michael W. Deem and Ramdas Pophale) SiO2 
 PCOD8181087
Probable space group: A B M 2
;
_chemical_formula_sum "Si O2"
_cell_formula_units_Z 64
_cell_length_a 24.046864
_cell_length_b 8.625353
_cell_length_c 15.336272
_cell_angle_alpha 90.000000
_cell_angle_beta 90.000000
_cell_angle_gamma 90.000000
_cell_volume 3180.937438
_symmetry_space_group_name_H-M "A B M 2"
_symmetry_group_IT_number 39
_symmetry_cell_setting 'orthorhombic'
loop_
_space_group_symop_operation_xyz
x,y,z
-x,-y,z
-x,1/2+y,z
x,1/2-y,z
x,1/2+y,1/2+z
-x,1/2-y,1/2+z
-x,y,1/2+z
x,-y,1/2+z
loop_
_atom_site_type_symbol
_atom_site_label
_atom_site_fract_x
_atom_site_fract_y
_atom_site_fract_z
Si Si1 0.130051 0.565319 0.166390
Si Si2 0.556154 0.931610 0.266531
Si Si3 0.556500 0.432180 0.568596
Si Si4 0.743710 0.432109 0.163330
Si Si5 0.675555 0.571279 0.011152
Si Si6 0.940180 0.065547 0.510337
Si Si7 0.939238 0.564844 0.323657
Si Si8 0.667842 0.929182 0.817239
O O1 0.123974 0.750000 0.156671
O O2 0.193534 0.506750 0.168004
O O3 0.102843 0.480115 0.084571
O O4 0.103322 0.508620 0.255924
O O5 0.551981 0.750000 0.269936
O O6 0.562324 0.993019 0.167606
O O7 0.500000 0.000000 0.309032
O O8 0.609016 0.985795 0.320888
O O9 0.500000 0.500000 0.525721
O O10 0.551167 0.250000 0.563736
O O11 0.611935 0.489640 0.518997
O O12 0.744482 0.250000 0.174091
O O13 0.716919 0.475266 0.071323
O O14 0.708076 0.503366 0.243718
O O15 0.678280 0.750000 0.040810
O O16 0.696068 0.548986 0.911906
O O17 0.943606 0.250000 0.499293
O O18 0.920546 0.988822 0.419767
O O19 0.000000 0.000000 0.538287
O O20 0.939367 0.750000 0.317047
O O21 0.000000 0.500000 0.301378
O O22 0.656226 0.750000 0.797363
#
# Coordination Sequence:
#
# PCOD8181087 Si02
#       8
#     8   8   8   8   8   8   8   8
#     4  11  23  40  60  87 123 162 207 254 297 353
#     4  10  19  33  55  82 112 146 183 228 285 346
#     4   9  18  32  52  79 108 142 180 225 281 342
#     4  10  23  41  60  83 114 152 196 244 292 339
#     4  10  21  38  59  83 113 148 190 237 289 348
#     4  11  22  39  63  93 126 162 200 245 301 356
#     4  11  22  39  63  94 128 164 201 244 298 354
#     4  10  21  38  59  83 112 148 188 235 290 346
#
# _framework density 20.119855000000001
#
# number of rings (size 3 to 8) (size 9 to 14) (size 15 to 20)
#    0.000    1.750    1.250    4.125    0.000    4.000 
#    0.000    2.500    0.000    0.000    0.000    0.000 
#    0.000    0.000    0.000    0.000    0.000    0.000 
#
# Total GULP energy -396862.793890 kJ/mol
# GULP energy per Si atom -12401.962309 kJ/mol
# Density = 2.007406 g / cm^3
# Si number density = 20.119855 Si / 1000 Ang^3
#
#
#
# Elastic Constant Matrix: (Units=GPa)
#
#
# Indices 1 2 3 4 5 6 
#
# 1 137.1412 18.3696 59.5686 0.0000 0.0000 0.0000
# 2 18.3696 45.3815 9.9997 0.0000 0.0000 0.0000
# 3 59.5686 9.9997 97.9506 0.0000 0.0000 0.0000
# 4 0.0000 0.0000 0.0000 30.2633 0.0000 0.0000
# 5 0.0000 0.0000 0.0000 0.0000 4.4725 0.0000
# 6 0.0000 0.0000 0.0000 0.0000 0.0000 28.5707
#
#
#
# Elastic Compliance Matrix: (Units=1/GPa)
#
#
# Indices 1 2 3 4 5 6 
#
# 1 0.010255 -0.002841 -0.005947 0.000000 0.000000 0.000000
# 2 -0.002841 0.023329 -0.000654 0.000000 0.000000 0.000000
# 3 -0.005947 -0.000654 0.013893 0.000000 0.000000 0.000000
# 4 0.000000 0.000000 0.000000 0.033043 0.000000 0.000000
# 5 0.000000 0.000000 0.000000 0.000000 0.223590 0.000000
# 6 0.000000 0.000000 0.000000 0.000000 0.000000 0.035001
#
#
# Mechanical properties :
#
#
# Convention : Reuss Voigt Hill
#
# Bulk Modulus (GPa) = 34.97231 50.70546 42.83888
# Shear Modulus (GPa) = 13.60447 25.49698 19.55073
#
# Velocity S-wave (km/s) = 2.60315 3.56371 3.12061
# Velocity P-wave (km/s) = 5.14343 6.49537 5.85853
#
# Compressibility (1/GPa) = 0.02859405
#
# Stress axis : x y z
#
# Youngs Moduli (GPa) = 97.51058 42.86432 71.98122
#
# Poissons Ratio (x) = 0.12177 0.42805
# Poissons Ratio (y) = 0.27701 0.04708
# Poissons Ratio (z) = 0.57987 0.02803
#
# Static dielectric constant tensor:
#      x y z
#    x 3.794450 0.000000 0.000000 
#    y 0.000000 3.575980 0.000000 
#    z 0.000000 0.000000 3.702030 
# 
# 
# High freq. dielectric constant tensor:
#      x y z
#    x 1.784560 0.000000 0.000000 
#    y 0.000000 1.782220 0.000000 
#    z 0.000000 0.000000 1.790220 
# 
# From -- ./inp_files/10695.got.cif
#   From: 2010.03.12/outbox.cif.g09.slc.cpg/sg39_6_cif.got.tgz:10695.got - 2010.04.14 02:53:20.
