data_PCOD8181688
_publ_section_title
;
Structure prediction by ZEFSAII (Michael W. Deem and Ramdas Pophale) SiO2 
 PCOD8181688
Probable space group: A B M 2
;
_chemical_formula_sum "Si O2"
_cell_formula_units_Z 64
_cell_length_a 11.652680
_cell_length_b 17.268708
_cell_length_c 15.681653
_cell_angle_alpha 90.000000
_cell_angle_beta 90.000000
_cell_angle_gamma 90.000000
_cell_volume 3155.567728
_symmetry_space_group_name_H-M "A B M 2"
_symmetry_group_IT_number 39
_symmetry_cell_setting 'orthorhombic'
loop_
_space_group_symop_operation_xyz
x,y,z
-x,-y,z
-x,1/2+y,z
x,1/2-y,z
x,1/2+y,1/2+z
-x,1/2-y,1/2+z
-x,y,1/2+z
x,-y,1/2+z
loop_
_atom_site_type_symbol
_atom_site_label
_atom_site_fract_x
_atom_site_fract_y
_atom_site_fract_z
Si Si1 0.012278 0.339574 0.906550
Si Si2 0.614390 0.545560 0.743633
Si Si3 0.627263 0.162721 0.099148
Si Si4 0.230291 0.945131 0.628129
Si Si5 0.606304 0.333283 0.529539
Si Si6 0.267267 0.335213 0.864327
Si Si7 0.867490 0.596586 0.563702
Si Si8 0.981420 0.909102 0.221523
O O1 0.979552 0.250000 0.919297
O O2 0.148579 0.353800 0.914218
O O3 0.979013 0.364893 0.810955
O O4 0.946941 0.386978 0.981227
O O5 0.500000 0.500000 0.778638
O O6 0.579390 0.609388 0.674864
O O7 0.699366 0.484408 0.703226
O O8 0.695445 0.591224 0.809425
O O9 0.634407 0.250000 0.133438
O O10 0.529407 0.150040 0.028688
O O11 0.747312 0.140940 0.055807
O O12 0.318744 0.899215 0.571441
O O13 0.138721 0.890498 0.675000
O O14 0.159634 0.004934 0.567893
O O15 0.631688 0.250000 0.574672
O O16 0.631709 0.327184 0.430840
O O17 0.254984 0.250000 0.817199
O O18 0.922615 0.622353 0.654897
O O19 0.000000 0.000000 0.238806
#
# Coordination Sequence:
#
# PCOD8181688 Si02
#       8
#     8   8   8   8   8   8   8   8
#     4  11  23  40  64  95 127 163 210 261 316 383
#     4  11  21  39  60  91 121 156 209 253 309 374
#     4  10  20  38  63  87 120 158 203 257 311 374
#     4  10  21  39  62  89 124 162 205 257 317 373
#     4  10  21  39  61  85 117 160 206 254 311 373
#     4  10  22  40  62  87 121 162 204 251 308 375
#     4  10  22  38  63  92 127 168 210 262 318 385
#     4  10  22  39  60  89 125 163 205 255 314 375
#
# _framework density 20.281611999999999
#
# number of rings (size 3 to 8) (size 9 to 14) (size 15 to 20)
#    0.000    1.750    1.250    3.750    0.000    6.000 
#    6.750    0.000    0.000    0.000    0.000    0.000 
#    0.000    0.000    0.000    0.000    0.000    0.000 
#
# Total GULP energy -396494.615617 kJ/mol
# GULP energy per Si atom -12390.456738 kJ/mol
# Density = 2.023545 g / cm^3
# Si number density = 20.281612 Si / 1000 Ang^3
#
#
#
# Elastic Constant Matrix: (Units=GPa)
#
#
# Indices 1 2 3 4 5 6 
#
# 1 111.1071 48.3102 51.4350 0.0000 0.0000 0.0000
# 2 48.3102 80.9553 38.8038 0.0000 0.0000 0.0000
# 3 51.4350 38.8038 98.6774 0.0000 0.0000 0.0000
# 4 0.0000 0.0000 0.0000 41.0934 0.0000 0.0000
# 5 0.0000 0.0000 0.0000 0.0000 29.3002 0.0000
# 6 0.0000 0.0000 0.0000 0.0000 0.0000 27.8392
#
#
#
# Elastic Compliance Matrix: (Units=1/GPa)
#
#
# Indices 1 2 3 4 5 6 
#
# 1 0.013833 -0.005913 -0.004885 0.000000 0.000000 0.000000
# 2 -0.005913 0.017749 -0.003897 0.000000 0.000000 0.000000
# 3 -0.004885 -0.003897 0.014213 0.000000 0.000000 0.000000
# 4 0.000000 0.000000 0.000000 0.024335 0.000000 0.000000
# 5 0.000000 0.000000 0.000000 0.000000 0.034129 0.000000
# 6 0.000000 0.000000 0.000000 0.000000 0.000000 0.035921
#
#
# Mechanical properties :
#
#
# Convention : Reuss Voigt Hill
#
# Bulk Modulus (GPa) = 60.96178 63.09308 62.02743
# Shear Modulus (GPa) = 28.56499 29.79262 29.17881
#
# Velocity S-wave (km/s) = 3.75696 3.83684 3.79711
# Velocity P-wave (km/s) = 6.99590 7.12773 7.06212
#
# Compressibility (1/GPa) = 0.01640372
#
# Stress axis : x y z
#
# Youngs Moduli (GPa) = 72.29148 56.33984 70.35846
#
# Poissons Ratio (x) = 0.33316 0.34370
# Poissons Ratio (y) = 0.42748 0.27422
# Poissons Ratio (z) = 0.35314 0.21958
#
# Static dielectric constant tensor:
#      x y z
#    x 3.923380 0.000000 0.000000 
#    y 0.000000 4.046340 0.000000 
#    z 0.000000 0.000000 3.512290 
# 
# 
# High freq. dielectric constant tensor:
#      x y z
#    x 1.810170 0.000000 0.000000 
#    y 0.000000 1.795630 0.000000 
#    z 0.000000 0.000000 1.772770 
# 
# From -- ./inp_files/9425.got.cif
#   From: 2010.03.12/outbox.cif.g09.slc.cpg/sg39_5_cif.got.tgz:9425.got - 2010.04.14 02:53:20.
