data_PCOD8181914
_publ_section_title
;
Structure prediction by ZEFSAII (Michael W. Deem and Ramdas Pophale) SiO2 
 PCOD8181914
Probable space group: A B M 2
;
_chemical_formula_sum "Si O2"
_cell_formula_units_Z 56
_cell_length_a 23.500777
_cell_length_b 8.442262
_cell_length_c 14.253127
_cell_angle_alpha 90.000000
_cell_angle_beta 90.000000
_cell_angle_gamma 90.000000
_cell_volume 2827.816358
_symmetry_space_group_name_H-M "A B M 2"
_symmetry_group_IT_number 39
_symmetry_cell_setting 'orthorhombic'
loop_
_space_group_symop_operation_xyz
x,y,z
-x,-y,z
-x,1/2+y,z
x,1/2-y,z
x,1/2+y,1/2+z
-x,1/2-y,1/2+z
-x,y,1/2+z
x,-y,1/2+z
loop_
_atom_site_type_symbol
_atom_site_label
_atom_site_fract_x
_atom_site_fract_y
_atom_site_fract_z
Si Si1 0.240041 0.432296 0.181530
Si Si2 0.361783 0.431054 0.683124
Si Si3 0.441922 0.433747 0.330832
Si Si4 0.146106 0.933810 0.530609
Si Si5 0.937499 0.934411 0.679115
Si Si6 0.560753 0.565403 0.032443
Si Si7 0.855090 0.567385 0.325487
O O1 0.259340 0.250000 0.177521
O O2 0.294548 0.543653 0.179655
O O3 0.205556 0.468869 0.276956
O O4 0.201723 0.475269 0.091478
O O5 0.374423 0.250000 0.708864
O O6 0.389699 0.544438 0.760716
O O7 0.388414 0.472933 0.582900
O O8 0.500000 0.500000 0.283394
O O9 0.448639 0.250000 0.357743
O O10 0.430422 0.536786 0.422837
O O11 0.143519 0.750000 0.504846
O O12 0.090602 0.977705 0.590559
O O13 0.148676 0.032358 0.435235
O O14 0.938928 0.750000 0.656536
O O15 0.903548 0.963551 0.775732
O O16 0.000000 0.000000 0.694004
O O17 0.500000 0.500000 0.067188
O O18 0.564486 0.750000 0.056689
O O19 0.871263 0.750000 0.308901
#
# Coordination Sequence:
#
# PCOD8181914 Si02
#       7
#     8   8   8   8   8   8   8
#     4   9  21  40  58  81 115 151 191 240 285 333
#     4  12  24  38  58  85 115 150 191 234 284 339
#     4  11  22  39  60  84 114 147 186 232 285 343
#     4  10  21  39  62  87 117 153 193 235 285 339
#     4  11  22  38  60  88 122 155 193 238 285 334
#     4  11  22  39  60  84 114 147 186 232 285 343
#     4  10  21  39  62  87 117 153 193 235 285 339
#
# _framework density 19.803267000000002
#
# number of rings (size 3 to 8) (size 9 to 14) (size 15 to 20)
#    0.000    1.429    0.000    8.143    0.000    5.143 
#    0.000    5.714    0.000    0.000    0.000    0.000 
#    0.000    0.000    0.000    0.000    0.000    0.000 
#
# Total GULP energy -347358.660703 kJ/mol
# GULP energy per Si atom -12405.666454 kJ/mol
# Density = 1.975819 g / cm^3
# Si number density = 19.803267 Si / 1000 Ang^3
#
#
#
# Elastic Constant Matrix: (Units=GPa)
#
#
# Indices 1 2 3 4 5 6 
#
# 1 119.1246 31.8302 41.6972 0.0000 0.0000 0.0000
# 2 31.8302 86.5184 10.2417 0.0000 0.0000 0.0000
# 3 41.6972 10.2417 103.6390 0.0000 0.0000 0.0000
# 4 0.0000 0.0000 0.0000 33.9633 0.0000 0.0000
# 5 0.0000 0.0000 0.0000 0.0000 161.4821 0.0000
# 6 0.0000 0.0000 0.0000 0.0000 0.0000 34.3949
#
#
#
# Elastic Compliance Matrix: (Units=1/GPa)
#
#
# Indices 1 2 3 4 5 6 
#
# 1 0.010710 -0.003471 -0.003966 0.000000 0.000000 0.000000
# 2 -0.003471 0.012820 0.000130 0.000000 0.000000 0.000000
# 3 -0.003966 0.000130 0.011232 0.000000 0.000000 0.000000
# 4 0.000000 0.000000 0.000000 0.029444 0.000000 0.000000
# 5 0.000000 0.000000 0.000000 0.000000 0.006193 0.000000
# 6 0.000000 0.000000 0.000000 0.000000 0.000000 0.029074
#
#
# Mechanical properties :
#
#
# Convention : Reuss Voigt Hill
#
# Bulk Modulus (GPa) = 49.63485 52.98001 51.30743
# Shear Modulus (GPa) = 41.38992 61.00227 51.19610
#
# Velocity S-wave (km/s) = 4.57667 5.55617 5.09004
# Velocity P-wave (km/s) = 7.28329 8.24455 7.77878
#
# Compressibility (1/GPa) = 0.02014713
#
# Stress axis : x y z
#
# Youngs Moduli (GPa) = 93.36880 78.00420 89.03334
#
# Poissons Ratio (x) = 0.27074 0.35311
# Poissons Ratio (y) = 0.32407 -0.01153
# Poissons Ratio (z) = 0.37031 -0.01011
#
# Static dielectric constant tensor:
#      x y z
#    x 3.528760 0.000000 0.000000 
#    y 0.000000 3.637320 0.000000 
#    z 0.000000 0.000000 3.551610 
# 
# 
# High freq. dielectric constant tensor:
#      x y z
#    x 1.769510 0.000000 0.000000 
#    y 0.000000 1.785890 0.000000 
#    z 0.000000 0.000000 1.774830 
# 
# From -- ./inp_files/10397.got.cif
#   From: 2010.03.12/outbox.cif.g09.slc.cpg/sg39_6_cif.got.tgz:10397.got - 2010.04.14 02:53:20.
