data_PCOD8181492
_publ_section_title
;
Structure prediction by ZEFSAII (Michael W. Deem and Ramdas Pophale) SiO2 
 PCOD8181492
Probable space group: A B M 2
;
_chemical_formula_sum "Si O2"
_cell_formula_units_Z 64
_cell_length_a 23.840751
_cell_length_b 8.925274
_cell_length_c 15.253183
_cell_angle_alpha 90.000000
_cell_angle_beta 90.000000
_cell_angle_gamma 90.000000
_cell_volume 3245.652130
_symmetry_space_group_name_H-M "A B M 2"
_symmetry_group_IT_number 39
_symmetry_cell_setting 'orthorhombic'
loop_
_space_group_symop_operation_xyz
x,y,z
-x,-y,z
-x,1/2+y,z
x,1/2-y,z
x,1/2+y,1/2+z
-x,1/2-y,1/2+z
-x,y,1/2+z
x,-y,1/2+z
loop_
_atom_site_type_symbol
_atom_site_label
_atom_site_fract_x
_atom_site_fract_y
_atom_site_fract_z
Si Si1 0.132810 0.576569 0.228710
Si Si2 0.555254 0.574907 0.327362
Si Si3 0.555001 0.425097 0.628381
Si Si4 0.736147 0.425084 0.224671
Si Si5 0.675150 0.572971 0.063898
Si Si6 0.942645 0.925344 0.569014
Si Si7 0.941619 0.573266 0.370568
Si Si8 0.676853 0.072993 0.886426
O O1 0.120096 0.750000 0.247464
O O2 0.198142 0.543466 0.222761
O O3 0.106137 0.525609 0.135929
O O4 0.108156 0.481658 0.308630
O O5 0.500000 0.500000 0.370435
O O6 0.545431 0.750000 0.330356
O O7 0.562921 0.516911 0.227849
O O8 0.611269 0.529269 0.379075
O O9 0.500000 0.500000 0.585152
O O10 0.545414 0.250000 0.627152
O O11 0.609936 0.470921 0.574676
O O12 0.722165 0.250000 0.212246
O O13 0.709143 0.522206 0.148210
O O14 0.712480 0.482685 0.316175
O O15 0.683024 0.750000 0.050823
O O16 0.698558 0.482215 0.980718
O O17 0.952821 0.750000 0.571274
O O18 0.926709 0.976287 0.470256
O O19 0.000000 0.000000 0.601074
O O20 0.947814 0.750000 0.362004
O O21 0.000000 0.500000 0.340168
O O22 0.686559 0.250000 0.874090
#
# Coordination Sequence:
#
# PCOD8181492 Si02
#       8
#     8   8   8   8   8   8   8   8
#     4  10  22  39  59  85 117 151 195 244 288 345
#     4   9  18  34  56  83 114 149 186 234 294 354
#     4   9  18  34  56  83 115 149 186 234 292 354
#     4  11  24  42  62  86 117 157 201 250 304 352
#     4  11  23  41  62  87 118 153 197 246 297 358
#     4   9  19  36  57  84 119 153 186 229 278 334
#     4  10  20  35  58  88 121 158 194 233 287 340
#     4  11  23  41  62  86 117 154 198 246 298 357
#
# _framework density 19.718686999999999
#
# number of rings (size 3 to 8) (size 9 to 14) (size 15 to 20)
#    0.000    2.000    1.250    1.875    0.000    6.500 
#    0.000    3.750    0.000    0.000    0.000    0.000 
#    0.000    0.000    0.000    0.000    0.000    0.000 
#
# Total GULP energy -396882.316486 kJ/mol
# GULP energy per Si atom -12402.572390 kJ/mol
# Density = 1.967381 g / cm^3
# Si number density = 19.718687 Si / 1000 Ang^3
#
#
#
# Elastic Constant Matrix: (Units=GPa)
#
#
# Indices 1 2 3 4 5 6 
#
# 1 106.2749 44.5299 43.3783 0.0000 0.0000 0.0000
# 2 44.5299 51.5389 26.0415 0.0000 0.0000 0.0000
# 3 43.3783 26.0415 95.6943 0.0000 0.0000 0.0000
# 4 0.0000 0.0000 0.0000 25.5437 0.0000 0.0000
# 5 0.0000 0.0000 0.0000 0.0000 115.5779 0.0000
# 6 0.0000 0.0000 0.0000 0.0000 0.0000 32.8298
#
#
#
# Elastic Compliance Matrix: (Units=1/GPa)
#
#
# Indices 1 2 3 4 5 6 
#
# 1 0.015995 -0.011775 -0.004046 0.000000 0.000000 0.000000
# 2 -0.011775 0.031165 -0.003143 0.000000 0.000000 0.000000
# 3 -0.004046 -0.003143 0.013139 0.000000 0.000000 0.000000
# 4 0.000000 0.000000 0.000000 0.039149 0.000000 0.000000
# 5 0.000000 0.000000 0.000000 0.000000 0.008652 0.000000
# 6 0.000000 0.000000 0.000000 0.000000 0.000000 0.030460
#
#
# Mechanical properties :
#
#
# Convention : Reuss Voigt Hill
#
# Bulk Modulus (GPa) = 44.70261 53.48973 49.09617
# Shear Modulus (GPa) = 27.18186 44.09418 35.63802
#
# Velocity S-wave (km/s) = 3.71682 4.73394 4.25587
# Velocity P-wave (km/s) = 6.41397 7.55417 7.00730
#
# Compressibility (1/GPa) = 0.02237006
#
# Stress axis : x y z
#
# Youngs Moduli (GPa) = 62.51953 32.08734 76.10695
#
# Poissons Ratio (x) = 0.37784 0.30794
# Poissons Ratio (y) = 0.73619 0.23922
# Poissons Ratio (z) = 0.25296 0.10086
#
# Static dielectric constant tensor:
#      x y z
#    x 3.611060 0.000000 0.000000 
#    y 0.000000 3.542870 0.000000 
#    z 0.000000 0.000000 3.675210 
# 
# 
# High freq. dielectric constant tensor:
#      x y z
#    x 1.765200 0.000000 0.000000 
#    y 0.000000 1.768700 0.000000 
#    z 0.000000 0.000000 1.774360 
# 
# From -- ./inp_files/10564.got.cif
#   From: 2010.03.12/outbox.cif.g09.slc.cpg/sg39_6_cif.got.tgz:10564.got - 2010.04.14 02:53:20.
