data_PCOD8181262
_publ_section_title
;
Structure prediction by ZEFSAII (Michael W. Deem and Ramdas Pophale) SiO2 
 PCOD8181262
Probable space group: A B M 2
;
_chemical_formula_sum "Si O2"
_cell_formula_units_Z 32
_cell_length_a 9.973852
_cell_length_b 15.811633
_cell_length_c 8.782095
_cell_angle_alpha 90.000000
_cell_angle_beta 90.000000
_cell_angle_gamma 90.000000
_cell_volume 1384.961739
_symmetry_space_group_name_H-M "A B M 2"
_symmetry_group_IT_number 39
_symmetry_cell_setting 'orthorhombic'
loop_
_space_group_symop_operation_xyz
x,y,z
-x,-y,z
-x,1/2+y,z
x,1/2-y,z
x,1/2+y,1/2+z
-x,1/2-y,1/2+z
-x,y,1/2+z
x,-y,1/2+z
loop_
_atom_site_type_symbol
_atom_site_label
_atom_site_fract_x
_atom_site_fract_y
_atom_site_fract_z
Si Si1 0.667428 0.149276 0.535940
Si Si2 0.601025 0.649901 0.697986
Si Si3 0.153730 0.345058 0.507034
Si Si4 0.929568 0.088948 0.689728
O O1 0.692934 0.250000 0.542754
O O2 0.546918 0.121855 0.647801
O O3 0.630433 0.117106 0.367380
O O4 0.797266 0.098050 0.587668
O O5 0.613903 0.750000 0.695712
O O6 0.711704 0.614278 0.579705
O O7 0.181997 0.250000 0.448170
O O8 0.106379 0.401401 0.366050
O O9 0.037989 0.341548 0.635711
O O10 0.000000 0.000000 0.658743
#
# Coordination Sequence:
#
# PCOD8181262 Si02
#       4
#     8   8   8   8
#     4  10  19  37  64  97 132 171 215 268 326 389
#     4   9  19  35  64 100 130 162 216 275 324 380
#     4  11  22  40  64  92 124 169 219 265 315 380
#     4  12  25  40  60  91 132 172 212 264 321 379
#
# _framework density 23.105332000000001
#
# number of rings (size 3 to 8) (size 9 to 14) (size 15 to 20)
#    0.000    1.500    0.000    6.000    0.000    6.000 
#    0.000    2.500    0.000    6.000    0.000    0.000 
#    0.000    0.000    0.000    0.000    0.000    0.000 
#
# Total GULP energy -198444.835669 kJ/mol
# GULP energy per Si atom -12402.802229 kJ/mol
# Density = 2.305274 g / cm^3
# Si number density = 23.105332 Si / 1000 Ang^3
#
#
#
# Elastic Constant Matrix: (Units=GPa)
#
#
# Indices 1 2 3 4 5 6 
#
# 1 186.8981 52.7451 62.6327 0.0000 0.0000 0.0000
# 2 52.7451 56.5064 45.9838 0.0000 0.0000 0.0000
# 3 62.6327 45.9838 138.1753 0.0000 0.0000 0.0000
# 4 0.0000 0.0000 0.0000 24.7152 0.0000 0.0000
# 5 0.0000 0.0000 0.0000 0.0000 56.2242 0.0000
# 6 0.0000 0.0000 0.0000 0.0000 0.0000 33.8707
#
#
#
# Elastic Compliance Matrix: (Units=1/GPa)
#
#
# Indices 1 2 3 4 5 6 
#
# 1 0.007473 -0.005786 -0.001462 0.000000 0.000000 0.000000
# 2 -0.005786 0.028750 -0.006945 0.000000 0.000000 0.000000
# 3 -0.001462 -0.006945 0.010211 0.000000 0.000000 0.000000
# 4 0.000000 0.000000 0.000000 0.040461 0.000000 0.000000
# 5 0.000000 0.000000 0.000000 0.000000 0.017786 0.000000
# 6 0.000000 0.000000 0.000000 0.000000 0.000000 0.029524
#
#
# Mechanical properties :
#
#
# Convention : Reuss Voigt Hill
#
# Bulk Modulus (GPa) = 55.40753 78.25591 66.83172
# Shear Modulus (GPa) = 29.65466 37.64323 33.64894
#
# Velocity S-wave (km/s) = 3.58642 4.04071 3.82033
# Velocity P-wave (km/s) = 6.41735 7.46408 6.96042
#
# Compressibility (1/GPa) = 0.01804809
#
# Stress axis : x y z
#
# Youngs Moduli (GPa) = 133.80819 34.78275 97.93266
#
# Poissons Ratio (x) = 0.20126 0.14317
# Poissons Ratio (y) = 0.77424 0.68014
# Poissons Ratio (z) = 0.19562 0.24156
#
# Static dielectric constant tensor:
#      x y z
#    x 4.423390 0.000000 0.000000 
#    y 0.000000 3.661360 0.000000 
#    z 0.000000 0.000000 4.274910 
# 
# 
# High freq. dielectric constant tensor:
#      x y z
#    x 1.932450 0.000000 0.000000 
#    y 0.000000 1.877120 0.000000 
#    z 0.000000 0.000000 1.925020 
# 
# From -- ./inp_files/1978.got.cif
#   From: 2010.03.12/outbox.cif.g09.slc.cpg/sg39_1_cif.got.tgz:1978.got - 2010.04.14 02:53:20.
