data_PCOD8181043
_publ_section_title
;
Structure prediction by ZEFSAII (Michael W. Deem and Ramdas Pophale) SiO2 
 PCOD8181043
Probable space group: A B M 2
;
_chemical_formula_sum "Si O2"
_cell_formula_units_Z 48
_cell_length_a 14.044017
_cell_length_b 9.260551
_cell_length_c 20.123180
_cell_angle_alpha 90.000000
_cell_angle_beta 90.000000
_cell_angle_gamma 90.000000
_cell_volume 2617.126930
_symmetry_space_group_name_H-M "A B M 2"
_symmetry_group_IT_number 39
_symmetry_cell_setting 'orthorhombic'
loop_
_space_group_symop_operation_xyz
x,y,z
-x,-y,z
-x,1/2+y,z
x,1/2-y,z
x,1/2+y,1/2+z
-x,1/2-y,1/2+z
-x,y,1/2+z
x,-y,1/2+z
loop_
_atom_site_type_symbol
_atom_site_label
_atom_site_fract_x
_atom_site_fract_y
_atom_site_fract_z
Si Si1 0.207940 0.579397 0.587790
Si Si2 0.907421 0.413936 0.464372
Si Si3 0.899737 0.078568 0.720080
Si Si4 0.591538 0.582342 0.882551
Si Si5 0.593421 0.580050 0.035321
Si Si6 0.792654 0.586344 0.832070
O O1 0.209543 0.750000 0.578271
O O2 0.138620 0.516254 0.530694
O O3 0.168117 0.532946 0.659179
O O4 0.315940 0.523315 0.577860
O O5 0.938793 0.250000 0.477450
O O6 0.830602 0.423784 0.406512
O O7 0.000000 0.500000 0.442368
O O8 0.916445 0.250000 0.723690
O O9 0.848148 0.026480 0.786565
O O10 0.000000 0.000000 0.711453
O O11 0.500000 0.500000 0.853556
O O12 0.568563 0.750000 0.878872
O O13 0.681579 0.543282 0.836195
O O14 0.611640 0.536969 0.958669
O O15 0.500000 0.500000 0.063193
O O16 0.577929 0.750000 0.043826
O O17 0.805816 0.750000 0.804772
#
# Coordination Sequence:
#
# PCOD8181043 Si02
#       6
#     8   8   8   8   8   8
#     4   9  18  35  56  76 103 140 177 213 263 318
#     4  10  19  33  53  76 101 132 173 220 265 311
#     4  11  23  38  56  77 106 145 182 220 267 321
#     4   9  17  31  54  81 108 139 173 217 268 316
#     4   9  16  31  54  80 107 136 171 214 265 315
#     4  10  20  36  56  78 107 142 178 218 268 319
#
# _framework density 18.340724000000002
#
# number of rings (size 3 to 8) (size 9 to 14) (size 15 to 20)
#    0.000    2.333    1.667    1.500    0.000    2.667 
#    0.000    4.167    0.000    4.000    0.000    0.000 
#    0.000    0.000    0.000    0.000    0.000    0.000 
#
# Total GULP energy -297598.030639 kJ/mol
# GULP energy per Si atom -12399.917943 kJ/mol
# Density = 1.829898 g / cm^3
# Si number density = 18.340724 Si / 1000 Ang^3
#
#
#
# Elastic Constant Matrix: (Units=GPa)
#
#
# Indices 1 2 3 4 5 6 
#
# 1 141.1873 49.6584 29.5858 0.0000 0.0000 0.0000
# 2 49.6584 56.6927 26.7762 0.0000 0.0000 0.0000
# 3 29.5858 26.7762 63.7917 0.0000 0.0000 0.0000
# 4 0.0000 0.0000 0.0000 20.2896 0.0000 0.0000
# 5 0.0000 0.0000 0.0000 0.0000 29.9682 0.0000
# 6 0.0000 0.0000 0.0000 0.0000 0.0000 32.6430
#
#
#
# Elastic Compliance Matrix: (Units=1/GPa)
#
#
# Indices 1 2 3 4 5 6 
#
# 1 0.010314 -0.008450 -0.001237 0.000000 0.000000 0.000000
# 2 -0.008450 0.028924 -0.008221 0.000000 0.000000 0.000000
# 3 -0.001237 -0.008221 0.019700 0.000000 0.000000 0.000000
# 4 0.000000 0.000000 0.000000 0.049286 0.000000 0.000000
# 5 0.000000 0.000000 0.000000 0.000000 0.033369 0.000000
# 6 0.000000 0.000000 0.000000 0.000000 0.000000 0.030634
#
#
# Mechanical properties :
#
#
# Convention : Reuss Voigt Hill
#
# Bulk Modulus (GPa) = 43.24952 52.63474 47.94213
# Shear Modulus (GPa) = 23.17481 26.95691 25.06586
#
# Velocity S-wave (km/s) = 3.55853 3.83794 3.70087
# Velocity P-wave (km/s) = 6.36526 6.95703 6.66771
#
# Compressibility (1/GPa) = 0.02312165
#
# Stress axis : x y z
#
# Youngs Moduli (GPa) = 96.95525 34.57368 50.76030
#
# Poissons Ratio (x) = 0.29216 0.06277
# Poissons Ratio (y) = 0.81930 0.41732
# Poissons Ratio (z) = 0.11989 0.28425
#
# Static dielectric constant tensor:
#      x y z
#    x 3.563140 0.000000 0.000000 
#    y 0.000000 3.194950 0.000000 
#    z 0.000000 0.000000 3.240530 
# 
# 
# High freq. dielectric constant tensor:
#      x y z
#    x 1.726900 0.000000 0.000000 
#    y 0.000000 1.690710 0.000000 
#    z 0.000000 0.000000 1.693900 
# 
# From -- ./inp_files/12195.got.cif
#   From: 2010.03.12/outbox.cif.g09.slc.cpg/sg39_7_cif.got.tgz:12195.got - 2010.04.14 02:53:20.
