data_PCOD8181060
_publ_section_title
;
Structure prediction by ZEFSAII (Michael W. Deem and Ramdas Pophale) SiO2 
 PCOD8181060
Probable space group: A B M 2
;
_chemical_formula_sum "Si O2"
_cell_formula_units_Z 64
_cell_length_a 24.468751
_cell_length_b 9.068254
_cell_length_c 14.989958
_cell_angle_alpha 90.000000
_cell_angle_beta 90.000000
_cell_angle_gamma 90.000000
_cell_volume 3326.104529
_symmetry_space_group_name_H-M "A B M 2"
_symmetry_group_IT_number 39
_symmetry_cell_setting 'orthorhombic'
loop_
_space_group_symop_operation_xyz
x,y,z
-x,-y,z
-x,1/2+y,z
x,1/2-y,z
x,1/2+y,1/2+z
-x,1/2-y,1/2+z
-x,y,1/2+z
x,-y,1/2+z
loop_
_atom_site_type_symbol
_atom_site_label
_atom_site_fract_x
_atom_site_fract_y
_atom_site_fract_z
Si Si1 0.943648 0.575691 0.028440
Si Si2 0.663337 0.574110 0.822334
Si Si3 0.552299 0.584518 0.312468
Si Si4 0.054552 0.920834 0.324872
Si Si5 0.449504 0.411060 0.524086
Si Si6 0.867161 0.575740 0.667019
Si Si7 0.330289 0.426175 0.508222
Si Si8 0.743750 0.575765 0.668944
O O1 0.948641 0.750000 0.043357
O O2 0.894723 0.510501 0.086069
O O3 0.000000 0.500000 0.059012
O O4 0.930363 0.534241 0.925879
O O5 0.657621 0.750000 0.827772
O O6 0.606248 0.507621 0.788003
O O7 0.682088 0.509956 0.916900
O O8 0.709785 0.520229 0.753843
O O9 0.500000 0.500000 0.270960
O O10 0.556198 0.750000 0.272650
O O11 0.545492 0.594309 0.418049
O O12 0.041336 0.750000 0.318807
O O13 0.104292 0.965300 0.260600
O O14 0.000000 0.000000 0.290924
O O15 0.500000 0.500000 0.566573
O O16 0.454568 0.250000 0.566404
O O17 0.389600 0.476606 0.547346
O O18 0.870002 0.750000 0.647700
O O19 0.805383 0.515793 0.673681
O O20 0.331058 0.250000 0.490854
O O21 0.284406 0.478327 0.577601
O O22 0.744177 0.750000 0.669850
#
# Coordination Sequence:
#
# PCOD8181060 Si02
#       8
#     8   8   8   8   8   8   8   8
#     4  10  20  35  55  82 112 141 171 211 260 312
#     4  10  19  33  54  78 103 137 177 220 267 316
#     4   9  16  28  48  75 104 135 170 213 265 324
#     4   9  19  34  54  79 109 139 170 209 258 311
#     4   8  14  24  43  68  93 121 158 201 250 305
#     4  10  20  36  56  78 105 142 182 221 262 308
#     4   9  18  35  54  72  99 138 176 216 265 319
#     4   9  20  37  55  74 103 143 184 219 261 315
#
# _framework density 19.241727999999998
#
# number of rings (size 3 to 8) (size 9 to 14) (size 15 to 20)
#    0.000    2.750    0.000    2.250    0.000    6.000 
#    0.000    5.000    0.000    1.500    0.000    0.000 
#    0.000    0.000    0.000    0.000    0.000    0.000 
#
# Total GULP energy -396738.438736 kJ/mol
# GULP energy per Si atom -12398.076211 kJ/mol
# Density = 1.919793 g / cm^3
# Si number density = 19.241728 Si / 1000 Ang^3
#
#
#
# Elastic Constant Matrix: (Units=GPa)
#
#
# Indices 1 2 3 4 5 6 
#
# 1 193.2766 58.3606 85.9589 0.0000 0.0000 0.0000
# 2 58.3606 74.1869 43.5276 0.0000 0.0000 0.0000
# 3 85.9589 43.5276 93.6185 0.0000 0.0000 0.0000
# 4 0.0000 0.0000 0.0000 16.5875 0.0000 0.0000
# 5 0.0000 0.0000 0.0000 0.0000 -111.0755 0.0000
# 6 0.0000 0.0000 0.0000 0.0000 0.0000 27.6229
#
#
#
# Elastic Compliance Matrix: (Units=1/GPa)
#
#
# Indices 1 2 3 4 5 6 
#
# 1 0.009253 -0.003155 -0.007029 0.000000 0.000000 0.000000
# 2 -0.003155 0.019612 -0.006222 0.000000 0.000000 0.000000
# 3 -0.007029 -0.006222 0.020028 0.000000 0.000000 0.000000
# 4 0.000000 0.000000 0.000000 0.060287 0.000000 0.000000
# 5 0.000000 0.000000 0.000000 0.000000 -0.009003 0.000000
# 6 0.000000 0.000000 0.000000 0.000000 0.000000 0.036202
#
#
# Mechanical properties :
#
#
# Convention : Reuss Voigt Hill
#
# Bulk Modulus (GPa) = 62.18188 81.86404 72.02296
# Shear Modulus (GPa) = 28.64529 -1.82403 13.41063
#
# Velocity S-wave (km/s) = 3.86256 -0.97469 2.64286
# Velocity P-wave (km/s) = 7.23041 6.43201 6.84286
#
# Compressibility (1/GPa) = 0.01608186
#
# Stress axis : x y z
#
# Youngs Moduli (GPa) = 108.07883 50.99003 49.92990
#
# Poissons Ratio (x) = 0.16086 0.35094
# Poissons Ratio (y) = 0.34096 0.31065
# Poissons Ratio (z) = 0.75966 0.31725
#
# Static dielectric constant tensor:
#      x y z
#    x 3.761110 0.000000 0.000000 
#    y 0.000000 3.460890 0.000000 
#    z 0.000000 0.000000 3.421140 
# 
# 
# High freq. dielectric constant tensor:
#      x y z
#    x 1.750840 0.000000 0.000000 
#    y 0.000000 1.736020 0.000000 
#    z 0.000000 0.000000 1.740190 
# 
# From -- ./inp_files/10666.got.cif
#   From: 2010.03.12/outbox.cif.g09.slc.cpg/sg39_6_cif.got.tgz:10666.got - 2010.04.14 02:53:20.
