data_PCOD8181763
_publ_section_title
;
Structure prediction by ZEFSAII (Michael W. Deem and Ramdas Pophale) SiO2 
 PCOD8181763
Probable space group: A B M 2
;
_chemical_formula_sum "Si O2"
_cell_formula_units_Z 48
_cell_length_a 7.515249
_cell_length_b 10.042667
_cell_length_c 31.172524
_cell_angle_alpha 90.000000
_cell_angle_beta 90.000000
_cell_angle_gamma 90.000000
_cell_volume 2352.688366
_symmetry_space_group_name_H-M "A B M 2"
_symmetry_group_IT_number 39
_symmetry_cell_setting 'orthorhombic'
loop_
_space_group_symop_operation_xyz
x,y,z
-x,-y,z
-x,1/2+y,z
x,1/2-y,z
x,1/2+y,1/2+z
-x,1/2-y,1/2+z
-x,y,1/2+z
x,-y,1/2+z
loop_
_atom_site_type_symbol
_atom_site_label
_atom_site_fract_x
_atom_site_fract_y
_atom_site_fract_z
Si Si1 0.660296 0.599911 0.067480
Si Si2 0.200537 0.510399 0.749483
Si Si3 0.500000 0.500000 0.428870
Si Si4 0.454813 0.250000 0.369424
Si Si5 0.256650 0.250000 0.793532
Si Si6 0.838920 0.594846 0.981141
Si Si7 0.664459 0.096270 0.662720
Si Si8 0.170578 0.750000 0.803512
O O1 0.500000 0.500000 0.058492
O O2 0.581988 0.750000 0.064291
O O3 0.744919 0.576426 0.114898
O O4 0.814321 0.580304 0.032471
O O5 0.303176 0.375909 0.763005
O O6 0.200481 0.547065 0.699109
O O7 0.268661 0.629342 0.778925
O O8 0.000000 0.500000 0.763774
O O9 0.457961 0.377841 0.398779
O O10 0.336212 0.539602 0.458733
O O11 0.620322 0.250000 0.335785
O O12 0.255736 0.250000 0.350331
O O13 0.045451 0.250000 0.806390
O O14 0.875181 0.750000 0.968748
O O15 0.000000 0.500000 0.966531
O O16 0.609907 0.250000 0.669983
O O17 0.500000 0.000000 0.668923
#
# Coordination Sequence:
#
# PCOD8181763 Si02
#       8
#     8   8   4   4   4   8   8   4
#     4   9  19  38  62  91 130 169 212 262 313 375
#     4  10  21  37  58  84 125 168 209 262 314 368
#     4  12  26  46  68 100 134 164 218 272 336 406
#     4  12  26  42  70  92 122 174 206 268 340 392
#     4  10  24  40  60  93 125 160 221 265 318 388
#     4  11  25  44  72 102 134 176 216 266 331 396
#     4  10  21  35  57  91 126 166 213 259 306 368
#     4  10  22  42  62  87 123 168 211 267 318 376
#
# _framework density 20.402193
#
# number of rings (size 3 to 8) (size 9 to 14) (size 15 to 20)
#    0.000    1.667    2.500    1.000    4.667    2.667 
#    0.000    0.000    0.000    0.000    0.000    0.000 
#    0.000    0.000    0.000    0.000    0.000    0.000 
#
# Total GULP energy -297399.433564 kJ/mol
# GULP energy per Si atom -12391.643065 kJ/mol
# Density = 2.035576 g / cm^3
# Si number density = 20.402193 Si / 1000 Ang^3
#
#
#
# Elastic Constant Matrix: (Units=GPa)
#
#
# Indices 1 2 3 4 5 6 
#
# 1 75.1422 44.0782 37.1616 0.0000 0.0000 0.0000
# 2 44.0782 171.6260 60.6855 0.0000 0.0000 0.0000
# 3 37.1616 60.6855 118.0918 0.0000 0.0000 0.0000
# 4 0.0000 0.0000 0.0000 38.6854 0.0000 0.0000
# 5 0.0000 0.0000 0.0000 0.0000 5.8717 0.0000
# 6 0.0000 0.0000 0.0000 0.0000 0.0000 -11.2386
#
#
#
# Elastic Compliance Matrix: (Units=1/GPa)
#
#
# Indices 1 2 3 4 5 6 
#
# 1 0.016948 -0.003015 -0.003784 0.000000 0.000000 0.000000
# 2 -0.003015 0.007657 -0.002986 0.000000 0.000000 0.000000
# 3 -0.003784 -0.002986 0.011193 0.000000 0.000000 0.000000
# 4 0.000000 0.000000 0.000000 0.025850 0.000000 0.000000
# 5 0.000000 0.000000 0.000000 0.000000 0.170308 0.000000
# 6 0.000000 0.000000 0.000000 0.000000 0.000000 -0.088979
#
#
# Mechanical properties :
#
#
# Convention : Reuss Voigt Hill
#
# Bulk Modulus (GPa) = 61.62034 72.07897 66.84965
# Shear Modulus (GPa) = 29.76991 21.52601 25.64796
#
# Velocity S-wave (km/s) = 3.82403 3.25173 3.54943
# Velocity P-wave (km/s) = 7.05450 7.03591 7.04521
#
# Compressibility (1/GPa) = 0.01622841
#
# Stress axis : x y z
#
# Youngs Moduli (GPa) = 59.00434 130.60466 89.33978
#
# Poissons Ratio (x) = 0.39373 0.33807
# Poissons Ratio (y) = 0.17788 0.26677
# Poissons Ratio (z) = 0.22328 0.38998
#
# Static dielectric constant tensor:
#      x y z
#    x 3.391180 0.000000 0.000000 
#    y 0.000000 4.837970 0.000000 
#    z 0.000000 0.000000 3.924110 
# 
# 
# High freq. dielectric constant tensor:
#      x y z
#    x 1.771550 0.000000 0.000000 
#    y 0.000000 1.822380 0.000000 
#    z 0.000000 0.000000 1.809010 
# 
# From -- ./inp_files/17723.got.cif
#   From: 2010.03.12/outbox.cif.g09.slc.cpg/sg39_9_cif.got.tgz:17723.got - 2010.04.14 02:53:20.
