data_PCOD8181280
_publ_section_title
;
Structure prediction by ZEFSAII (Michael W. Deem and Ramdas Pophale) SiO2 
 PCOD8181280
Probable space group: A B M 2
;
_chemical_formula_sum "Si O2"
_cell_formula_units_Z 48
_cell_length_a 16.405349
_cell_length_b 9.744431
_cell_length_c 15.219206
_cell_angle_alpha 90.000000
_cell_angle_beta 90.000000
_cell_angle_gamma 90.000000
_cell_volume 2432.954315
_symmetry_space_group_name_H-M "A B M 2"
_symmetry_group_IT_number 39
_symmetry_cell_setting 'orthorhombic'
loop_
_space_group_symop_operation_xyz
x,y,z
-x,-y,z
-x,1/2+y,z
x,1/2-y,z
x,1/2+y,1/2+z
-x,1/2-y,1/2+z
-x,y,1/2+z
x,-y,1/2+z
loop_
_atom_site_type_symbol
_atom_site_label
_atom_site_fract_x
_atom_site_fract_y
_atom_site_fract_z
Si Si1 0.623108 0.750000 0.457430
Si Si2 0.500000 0.000000 0.742840
Si Si3 0.923568 0.406445 0.148854
Si Si4 0.467451 0.750000 0.124282
Si Si5 0.818503 0.092342 0.315714
Si Si6 0.440539 0.750000 0.459008
Si Si7 0.081397 0.413329 0.448147
Si Si8 0.646050 0.991458 0.864225
O O1 0.613940 0.750000 0.563306
O O2 0.530932 0.750000 0.416056
O O3 0.673876 0.618589 0.424891
O O4 0.535733 0.880725 0.684409
O O5 0.577193 0.048497 0.799080
O O6 0.953406 0.250000 0.157559
O O7 0.852416 0.439699 0.218377
O O8 0.000000 0.500000 0.173334
O O9 0.891872 0.434019 0.049791
O O10 0.549727 0.750000 0.064846
O O11 0.838843 0.250000 0.343171
O O12 0.721435 0.071892 0.311095
O O13 0.851479 0.983166 0.386372
O O14 0.391764 0.617381 0.430525
O O15 0.070209 0.250000 0.426545
O O16 0.000000 0.500000 0.429323
#
# Coordination Sequence:
#
# PCOD8181280 Si02
#       8
#     4   4   8   4   8   4   8   8
#     4  10  21  40  59  82 110 158 206 248 299 363
#     4  12  20  38  60  88 112 156 202 258 296 362
#     4   9  20  41  64  89 122 158 197 244 298 359
#     4  10  22  36  62  88 108 142 216 256 304 346
#     4  11  24  40  59  93 126 166 201 249 304 363
#     4  10  19  42  59  82 110 162 200 246 299 361
#     4  10  21  41  68  93 122 160 203 247 300 364
#     4  12  22  39  61  80 123 160 201 241 307 360
#
# _framework density 19.729099999999999
#
# number of rings (size 3 to 8) (size 9 to 14) (size 15 to 20)
#    0.500    1.000    2.500    3.000    1.167    2.667 
#    6.000    0.000    0.000    0.000    0.000    0.000 
#    0.000    0.000    0.000    0.000    0.000    0.000 
#
# Total GULP energy -297501.896598 kJ/mol
# GULP energy per Si atom -12395.912358 kJ/mol
# Density = 1.968420 g / cm^3
# Si number density = 19.729100 Si / 1000 Ang^3
#
#
#
# Elastic Constant Matrix: (Units=GPa)
#
#
# Indices 1 2 3 4 5 6 
#
# 1 69.7808 11.1660 28.3624 0.0000 0.0000 0.0000
# 2 11.1660 117.9579 38.7937 0.0000 0.0000 0.0000
# 3 28.3624 38.7937 95.5687 0.0000 0.0000 0.0000
# 4 0.0000 0.0000 0.0000 44.0050 0.0000 0.0000
# 5 0.0000 0.0000 0.0000 0.0000 16.2716 0.0000
# 6 0.0000 0.0000 0.0000 0.0000 0.0000 29.6130
#
#
#
# Elastic Compliance Matrix: (Units=1/GPa)
#
#
# Indices 1 2 3 4 5 6 
#
# 1 0.016297 0.000055 -0.004859 0.000000 0.000000 0.000000
# 2 0.000055 0.009784 -0.003988 0.000000 0.000000 0.000000
# 3 -0.004859 -0.003988 0.013524 0.000000 0.000000 0.000000
# 4 0.000000 0.000000 0.000000 0.022725 0.000000 0.000000
# 5 0.000000 0.000000 0.000000 0.000000 0.061457 0.000000
# 6 0.000000 0.000000 0.000000 0.000000 0.000000 0.033769
#
#
# Mechanical properties :
#
#
# Convention : Reuss Voigt Hill
#
# Bulk Modulus (GPa) = 45.40913 48.88349 47.14631
# Shear Modulus (GPa) = 27.40042 31.64362 29.52202
#
# Velocity S-wave (km/s) = 3.73075 4.00922 3.87249
# Velocity P-wave (km/s) = 6.45169 6.80169 6.62900
#
# Compressibility (1/GPa) = 0.02202200
#
# Stress axis : x y z
#
# Youngs Moduli (GPa) = 61.36241 102.20868 73.94007
#
# Poissons Ratio (x) = -0.00565 0.35927
# Poissons Ratio (y) = -0.00339 0.29487
# Poissons Ratio (z) = 0.29815 0.40760
#
# Static dielectric constant tensor:
#      x y z
#    x 3.362800 0.000000 0.000000 
#    y 0.000000 3.719260 0.000000 
#    z 0.000000 0.000000 3.653120 
# 
# 
# High freq. dielectric constant tensor:
#      x y z
#    x 1.746580 0.000000 0.000000 
#    y 0.000000 1.784910 0.000000 
#    z 0.000000 0.000000 1.772700 
# 
# From -- ./inp_files/10098.got.cif
#   From: 2010.03.12/outbox.cif.g09.slc.cpg/sg39_6_cif.got.tgz:10098.got - 2010.04.14 02:53:20.
