data_PCOD8181089
_publ_section_title
;
Structure prediction by ZEFSAII (Michael W. Deem and Ramdas Pophale) SiO2 
 PCOD8181089
Probable space group: A B M 2
;
_chemical_formula_sum "Si O2"
_cell_formula_units_Z 56
_cell_length_a 5.098733
_cell_length_b 16.110025
_cell_length_c 31.662779
_cell_angle_alpha 90.000000
_cell_angle_beta 90.000000
_cell_angle_gamma 90.000000
_cell_volume 2600.803341
_symmetry_space_group_name_H-M "A B M 2"
_symmetry_group_IT_number 39
_symmetry_cell_setting 'orthorhombic'
loop_
_space_group_symop_operation_xyz
x,y,z
-x,-y,z
-x,1/2+y,z
x,1/2-y,z
x,1/2+y,1/2+z
-x,1/2-y,1/2+z
-x,y,1/2+z
x,-y,1/2+z
loop_
_atom_site_type_symbol
_atom_site_label
_atom_site_fract_x
_atom_site_fract_y
_atom_site_fract_z
Si Si1 0.700389 0.151585 0.781500
Si Si2 0.197987 0.651652 0.333064
Si Si3 0.635162 0.151536 0.978127
Si Si4 0.747344 0.945255 0.196808
Si Si5 0.105879 0.155151 0.115301
Si Si6 0.594701 0.092378 0.070850
Si Si7 0.136618 0.848510 0.426850
O O1 0.696771 0.250000 0.773829
O O2 0.470772 0.122978 0.812999
O O3 0.659002 0.107001 0.737235
O O4 0.967266 0.119820 0.802799
O O5 0.182481 0.750000 0.336575
O O6 0.167408 0.613174 0.379957
O O7 0.643033 0.250000 0.985284
O O8 0.368087 0.119861 0.957023
O O9 0.865083 0.121633 0.947018
O O10 0.672368 0.106920 0.022574
O O11 0.813161 0.881086 0.160141
O O12 0.500000 0.000000 0.182073
O O13 0.000000 0.000000 0.207745
O O14 0.020099 0.250000 0.120884
O O15 0.353794 0.151994 0.083604
O O16 0.854885 0.105483 0.098388
O O17 0.500000 0.000000 0.079209
O O18 0.148888 0.750000 0.423769
#
# Coordination Sequence:
#
# PCOD8181089 Si02
#       7
#     8   8   8   8   8   8   8
#     4  10  20  36  59  87 118 155 201 247 294 353
#     4   9  17  31  55  86 118 153 199 253 299 342
#     4  10  19  33  55  84 118 157 203 249 295 352
#     4  12  25  42  63  89 124 159 196 243 306 369
#     4  12  25  44  68  93 121 158 208 257 303 361
#     4  12  25  42  64  92 128 165 202 249 312 372
#     4   9  17  30  53  85 117 151 198 254 300 341
#
# _framework density 21.53181
#
# number of rings (size 3 to 8) (size 9 to 14) (size 15 to 20)
#    0.000    1.429    0.000    6.857    0.000    4.571 
#    0.000    4.286    0.000    8.571    0.000    0.000 
#    0.000    0.000    0.000    0.000    0.000    0.000 
#
# Total GULP energy -347346.396217 kJ/mol
# GULP energy per Si atom -12405.228436 kJ/mol
# Density = 2.148280 g / cm^3
# Si number density = 21.531810 Si / 1000 Ang^3
#
#
#
# Elastic Constant Matrix: (Units=GPa)
#
#
# Indices 1 2 3 4 5 6 
#
# 1 115.3740 22.7271 21.0575 0.0000 0.0000 0.0000
# 2 22.7271 56.2845 41.0682 0.0000 0.0000 0.0000
# 3 21.0575 41.0682 129.9637 0.0000 0.0000 0.0000
# 4 0.0000 0.0000 0.0000 4.7056 0.0000 0.0000
# 5 0.0000 0.0000 0.0000 0.0000 39.5439 0.0000
# 6 0.0000 0.0000 0.0000 0.0000 0.0000 20.6622
#
#
#
# Elastic Compliance Matrix: (Units=1/GPa)
#
#
# Indices 1 2 3 4 5 6 
#
# 1 0.009434 -0.003501 -0.000422 0.000000 0.000000 0.000000
# 2 -0.003501 0.024390 -0.007140 0.000000 0.000000 0.000000
# 3 -0.000422 -0.007140 0.010019 0.000000 0.000000 0.000000
# 4 0.000000 0.000000 0.000000 0.212513 0.000000 0.000000
# 5 0.000000 0.000000 0.000000 0.000000 0.025288 0.000000
# 6 0.000000 0.000000 0.000000 0.000000 0.000000 0.048398
#
#
# Mechanical properties :
#
#
# Convention : Reuss Voigt Hill
#
# Bulk Modulus (GPa) = 46.04767 52.36975 49.20871
# Shear Modulus (GPa) = 13.91173 27.43364 20.67268
#
# Velocity S-wave (km/s) = 2.54461 3.57332 3.10191
# Velocity P-wave (km/s) = 5.48322 6.43426 5.97768
#
# Compressibility (1/GPa) = 0.02171663
#
# Stress axis : x y z
#
# Youngs Moduli (GPa) = 105.99686 40.99965 99.80964
#
# Poissons Ratio (x) = 0.14356 0.04213
# Poissons Ratio (y) = 0.37114 0.71264
# Poissons Ratio (z) = 0.04475 0.29274
#
# Static dielectric constant tensor:
#      x y z
#    x 4.122000 0.000000 0.000000 
#    y 0.000000 3.562550 0.000000 
#    z 0.000000 0.000000 3.991680 
# 
# 
# High freq. dielectric constant tensor:
#      x y z
#    x 1.863380 0.000000 0.000000 
#    y 0.000000 1.817800 0.000000 
#    z 0.000000 0.000000 1.861450 
# 
# From -- ./inp_files/17269.got.cif
#   From: 2010.03.12/outbox.cif.g09.slc.cpg/sg39_9_cif.got.tgz:17269.got - 2010.04.14 02:53:20.
