data_PCOD8181432
_publ_section_title
;
Structure prediction by ZEFSAII (Michael W. Deem and Ramdas Pophale) SiO2 
 PCOD8181432
Probable space group: A B M 2
;
_chemical_formula_sum "Si O2"
_cell_formula_units_Z 64
_cell_length_a 24.316232
_cell_length_b 9.171694
_cell_length_c 14.665634
_cell_angle_alpha 90.000000
_cell_angle_beta 90.000000
_cell_angle_gamma 90.000000
_cell_volume 3270.744934
_symmetry_space_group_name_H-M "A B M 2"
_symmetry_group_IT_number 39
_symmetry_cell_setting 'orthorhombic'
loop_
_space_group_symop_operation_xyz
x,y,z
-x,-y,z
-x,1/2+y,z
x,1/2-y,z
x,1/2+y,1/2+z
-x,1/2-y,1/2+z
-x,y,1/2+z
x,-y,1/2+z
loop_
_atom_site_type_symbol
_atom_site_label
_atom_site_fract_x
_atom_site_fract_y
_atom_site_fract_z
Si Si1 0.552226 0.913505 0.651370
Si Si2 0.658258 0.083213 0.645995
Si Si3 0.055578 0.922030 0.153486
Si Si4 0.552988 0.415245 0.934149
Si Si5 0.740154 0.081635 0.804454
Si Si6 0.866245 0.919552 0.286777
Si Si7 0.337752 0.921408 0.436866
Si Si8 0.053366 0.582233 0.945486
O O1 0.550397 0.750000 0.689657
O O2 0.550479 0.915825 0.542701
O O3 0.500000 0.000000 0.691478
O O4 0.608187 0.988195 0.685657
O O5 0.638666 0.250000 0.650313
O O6 0.711544 0.053432 0.707178
O O7 0.673132 0.040445 0.542600
O O8 0.049435 0.750000 0.168698
O O9 0.067140 0.964280 0.048613
O O10 0.107201 0.982253 0.208695
O O11 0.000000 0.000000 0.188150
O O12 0.500000 0.500000 0.894427
O O13 0.553759 0.250000 0.896534
O O14 0.607496 0.498383 0.900424
O O15 0.734448 0.250000 0.834385
O O16 0.803062 0.034749 0.794243
O O17 0.714263 0.980925 0.882098
O O18 0.872946 0.750000 0.260602
O O19 0.894250 0.955391 0.383647
O O20 0.344796 0.750000 0.420760
O O21 0.037678 0.750000 0.940689
O O22 0.000000 0.500000 0.907202
#
# Coordination Sequence:
#
# PCOD8181432 Si02
#       8
#     8   8   8   8   8   8   8   8
#     4   9  16  27  48  77 105 134 170 214 266 324
#     4   9  19  36  55  75 104 141 177 218 270 323
#     4  10  20  35  56  83 113 143 176 216 263 314
#     4   9  16  28  49  77 106 136 171 213 267 327
#     4  10  22  39  56  76 106 144 184 224 267 317
#     4  10  21  37  56  79 109 145 183 223 267 314
#     4  10  20  35  55  78 105 138 178 224 270 318
#     4   9  19  35  55  81 112 143 175 214 262 315
#
# _framework density 19.567408
#
# number of rings (size 3 to 8) (size 9 to 14) (size 15 to 20)
#    0.000    2.500    0.000    1.875    0.000    7.500 
#    0.000    0.625    0.000    3.000    0.000    0.000 
#    0.000    0.000    0.000    0.000    0.000    0.000 
#
# Total GULP energy -396911.765060 kJ/mol
# GULP energy per Si atom -12403.492658 kJ/mol
# Density = 1.952287 g / cm^3
# Si number density = 19.567408 Si / 1000 Ang^3
#
#
#
# Elastic Constant Matrix: (Units=GPa)
#
#
# Indices 1 2 3 4 5 6 
#
# 1 179.8412 81.9129 61.4406 0.0000 0.0000 0.0000
# 2 81.9129 115.0518 47.3299 0.0000 0.0000 0.0000
# 3 61.4406 47.3299 71.3126 0.0000 0.0000 0.0000
# 4 0.0000 0.0000 0.0000 14.0306 0.0000 0.0000
# 5 0.0000 0.0000 0.0000 0.0000 3.0855 0.0000
# 6 0.0000 0.0000 0.0000 0.0000 0.0000 35.9975
#
#
#
# Elastic Compliance Matrix: (Units=1/GPa)
#
#
# Indices 1 2 3 4 5 6 
#
# 1 0.009374 -0.004610 -0.005017 0.000000 0.000000 0.000000
# 2 -0.004610 0.014224 -0.005468 0.000000 0.000000 0.000000
# 3 -0.005017 -0.005468 0.021974 0.000000 0.000000 0.000000
# 4 0.000000 0.000000 0.000000 0.071273 0.000000 0.000000
# 5 0.000000 0.000000 0.000000 0.000000 0.324096 0.000000
# 6 0.000000 0.000000 0.000000 0.000000 0.000000 0.027780
#
#
# Mechanical properties :
#
#
# Convention : Reuss Voigt Hill
#
# Bulk Modulus (GPa) = 65.01181 83.06361 74.03771
# Shear Modulus (GPa) = 9.91989 22.32421 16.12205
#
# Velocity S-wave (km/s) = 2.25402 3.38137 2.87352
# Velocity P-wave (km/s) = 6.33015 7.60178 6.99492
#
# Compressibility (1/GPa) = 0.01538182
#
# Stress axis : x y z
#
# Youngs Moduli (GPa) = 106.67522 70.30570 45.50829
#
# Poissons Ratio (x) = 0.32414 0.22830
# Poissons Ratio (y) = 0.49182 0.24884
# Poissons Ratio (z) = 0.53515 0.38443
#
# Static dielectric constant tensor:
#      x y z
#    x 3.546920 0.000000 0.000000 
#    y 0.000000 3.624570 0.000000 
#    z 0.000000 0.000000 3.470610 
# 
# 
# High freq. dielectric constant tensor:
#      x y z
#    x 1.757440 0.000000 0.000000 
#    y 0.000000 1.765710 0.000000 
#    z 0.000000 0.000000 1.757010 
# 
# From -- ./inp_files/10620.got.cif
#   From: 2010.03.12/outbox.cif.g09.slc.cpg/sg39_6_cif.got.tgz:10620.got - 2010.04.14 02:53:20.
