data_PCOD8181848
_publ_section_title
;
Structure prediction by ZEFSAII (Michael W. Deem and Ramdas Pophale) SiO2 
 PCOD8181848
Probable space group: A B M 2
;
_chemical_formula_sum "Si O2"
_cell_formula_units_Z 56
_cell_length_a 23.774915
_cell_length_b 8.440570
_cell_length_c 14.306464
_cell_angle_alpha 90.000000
_cell_angle_beta 90.000000
_cell_angle_gamma 90.000000
_cell_volume 2870.932986
_symmetry_space_group_name_H-M "A B M 2"
_symmetry_group_IT_number 39
_symmetry_cell_setting 'orthorhombic'
loop_
_space_group_symop_operation_xyz
x,y,z
-x,-y,z
-x,1/2+y,z
x,1/2-y,z
x,1/2+y,1/2+z
-x,1/2-y,1/2+z
-x,y,1/2+z
x,-y,1/2+z
loop_
_atom_site_type_symbol
_atom_site_label
_atom_site_fract_x
_atom_site_fract_y
_atom_site_fract_z
Si Si1 0.439729 0.564979 0.094170
Si Si2 0.767129 0.565602 0.236339
Si Si3 0.149335 0.434834 0.590511
Si Si4 0.937774 0.435858 0.242295
Si Si5 0.442292 0.434286 0.892992
Si Si6 0.845915 0.935159 0.885253
Si Si7 0.637885 0.066144 0.744384
O O1 0.500000 0.500000 0.127797
O O2 0.435726 0.750000 0.118311
O O3 0.390526 0.469352 0.145314
O O4 0.430518 0.536269 0.985020
O O5 0.774241 0.750000 0.214036
O O6 0.795645 0.467629 0.152586
O O7 0.794111 0.526228 0.337100
O O8 0.702476 0.514526 0.239452
O O9 0.146125 0.250000 0.567064
O O10 0.094913 0.494187 0.649199
O O11 0.151187 0.530237 0.494527
O O12 0.941332 0.250000 0.239789
O O13 0.903673 0.491339 0.334611
O O14 0.000000 0.500000 0.245357
O O15 0.500000 0.500000 0.846658
O O16 0.448613 0.250000 0.918914
O O17 0.391262 0.458445 0.822545
O O18 0.836262 0.750000 0.868433
O O19 0.631543 0.250000 0.770555
#
# Coordination Sequence:
#
# PCOD8181848 Si02
#       7
#     8   8   8   8   8   8   8
#     4  11  22  38  59  83 112 146 183 226 277 332
#     4  10  22  39  59  82 110 145 186 233 280 327
#     4  10  21  38  59  83 113 149 189 229 276 329
#     4   9  20  36  55  83 116 149 185 230 274 322
#     4  11  22  38  59  83 112 146 183 226 277 332
#     4  10  21  38  59  83 113 149 189 229 276 329
#     4  11  23  39  58  83 112 144 185 229 277 333
#
# _framework density 19.505852999999998
#
# number of rings (size 3 to 8) (size 9 to 14) (size 15 to 20)
#    0.000    1.714    0.000    6.429    0.000    7.429 
#    0.000    2.857    0.000    0.000    0.000    0.000 
#    0.000    0.000    0.000    0.000    0.000    0.000 
#
# Total GULP energy -347293.997969 kJ/mol
# GULP energy per Si atom -12403.357070 kJ/mol
# Density = 1.946146 g / cm^3
# Si number density = 19.505853 Si / 1000 Ang^3
#
#
#
# Elastic Constant Matrix: (Units=GPa)
#
#
# Indices 1 2 3 4 5 6 
#
# 1 161.7605 29.3710 60.7465 0.0000 0.0000 0.0000
# 2 29.3710 54.6026 8.9038 0.0000 0.0000 0.0000
# 3 60.7465 8.9038 110.7918 0.0000 0.0000 0.0000
# 4 0.0000 0.0000 0.0000 33.9647 0.0000 0.0000
# 5 0.0000 0.0000 0.0000 0.0000 45.6365 0.0000
# 6 0.0000 0.0000 0.0000 0.0000 0.0000 31.7569
#
#
#
# Elastic Compliance Matrix: (Units=1/GPa)
#
#
# Indices 1 2 3 4 5 6 
#
# 1 0.008523 -0.003873 -0.004362 0.000000 0.000000 0.000000
# 2 -0.003873 0.020318 0.000491 0.000000 0.000000 0.000000
# 3 -0.004362 0.000491 0.011378 0.000000 0.000000 0.000000
# 4 0.000000 0.000000 0.000000 0.029442 0.000000 0.000000
# 5 0.000000 0.000000 0.000000 0.000000 0.021912 0.000000
# 6 0.000000 0.000000 0.000000 0.000000 0.000000 0.031489
#
#
# Mechanical properties :
#
#
# Convention : Reuss Voigt Hill
#
# Bulk Modulus (GPa) = 40.43649 58.35527 49.39588
# Shear Modulus (GPa) = 34.06100 37.48053 35.77077
#
# Velocity S-wave (km/s) = 4.18328 4.38825 4.28699
# Velocity P-wave (km/s) = 6.64143 7.46039 7.06279
#
# Compressibility (1/GPa) = 0.02473014
#
# Stress axis : x y z
#
# Youngs Moduli (GPa) = 117.32438 49.21829 87.88772
#
# Poissons Ratio (x) = 0.19065 0.38337
# Poissons Ratio (y) = 0.45445 -0.04315
# Poissons Ratio (z) = 0.51177 -0.02417
#
# Static dielectric constant tensor:
#      x y z
#    x 3.162490 0.000000 0.000000 
#    y 0.000000 3.563950 0.000000 
#    z 0.000000 0.000000 3.523060 
# 
# 
# High freq. dielectric constant tensor:
#      x y z
#    x 1.758740 0.000000 0.000000 
#    y 0.000000 1.769670 0.000000 
#    z 0.000000 0.000000 1.763110 
# 
# From -- ./inp_files/10357.got.cif
#   From: 2010.03.12/outbox.cif.g09.slc.cpg/sg39_6_cif.got.tgz:10357.got - 2010.04.14 02:53:20.
