data_PCOD8181293
_publ_section_title
;
Structure prediction by ZEFSAII (Michael W. Deem and Ramdas Pophale) SiO2 
 PCOD8181293
Probable space group: A B M 2
;
_chemical_formula_sum "Si O2"
_cell_formula_units_Z 56
_cell_length_a 9.380857
_cell_length_b 18.720190
_cell_length_c 18.149619
_cell_angle_alpha 90.000000
_cell_angle_beta 90.000000
_cell_angle_gamma 90.000000
_cell_volume 3187.280463
_symmetry_space_group_name_H-M "A B M 2"
_symmetry_group_IT_number 39
_symmetry_cell_setting 'orthorhombic'
loop_
_space_group_symop_operation_xyz
x,y,z
-x,-y,z
-x,1/2+y,z
x,1/2-y,z
x,1/2+y,1/2+z
-x,1/2-y,1/2+z
-x,y,1/2+z
x,-y,1/2+z
loop_
_atom_site_type_symbol
_atom_site_label
_atom_site_fract_x
_atom_site_fract_y
_atom_site_fract_z
Si Si1 0.310274 0.334685 0.456960
Si Si2 0.955109 0.082307 0.990946
Si Si3 0.447367 0.420258 0.886292
Si Si4 0.490575 0.830168 0.098300
Si Si5 0.847381 0.478644 0.129838
Si Si6 0.401495 0.431518 0.725457
Si Si7 0.744677 0.602637 0.024722
O O1 0.288336 0.250000 0.445272
O O2 0.160995 0.376881 0.440323
O O3 0.425135 0.364157 0.399215
O O4 0.371218 0.352140 0.538418
O O5 0.881849 0.083001 0.071023
O O6 0.000000 0.000000 0.967265
O O7 0.099288 0.129667 0.998121
O O8 0.500000 0.500000 0.880566
O O9 0.381512 0.398117 0.806946
O O10 0.331378 0.422875 0.950387
O O11 0.468241 0.750000 0.124044
O O12 0.477575 0.877044 0.170704
O O13 0.648751 0.836857 0.062924
O O14 0.755434 0.450491 0.197204
O O15 0.762939 0.539638 0.084406
O O16 0.000000 0.500000 0.164617
O O17 0.500000 0.500000 0.728534
#
# Coordination Sequence:
#
# PCOD8181293 Si02
#       7
#     8   8   8   8   8   8   8
#     4  10  20  35  55  81 112 145 182 226 279 333
#     4   9  17  30  56  82 103 142 183 226 281 321
#     4  10  21  33  52  83 106 144 182 225 276 332
#     4  10  20  32  52  77 103 138 179 223 273 327
#     4   9  17  31  53  79 106 141 174 228 281 320
#     4  11  20  33  54  80 107 140 182 223 281 325
#     4   9  18  32  54  74 106 134 179 228 266 325
#
# _framework density 17.569837
#
# number of rings (size 3 to 8) (size 9 to 14) (size 15 to 20)
#    0.000    2.571    2.857    1.714    2.000    1.143 
#    0.000    5.714    0.000    0.000    0.000    0.000 
#    0.000    0.000    0.000    0.000    0.000    0.000 
#
# Total GULP energy -346877.471851 kJ/mol
# GULP energy per Si atom -12388.481138 kJ/mol
# Density = 1.752985 g / cm^3
# Si number density = 17.569837 Si / 1000 Ang^3
#
#
#
# Elastic Constant Matrix: (Units=GPa)
#
#
# Indices 1 2 3 4 5 6 
#
# 1 128.3388 43.1496 38.3621 0.0000 0.0000 0.0000
# 2 43.1496 68.4871 37.9829 0.0000 0.0000 0.0000
# 3 38.3621 37.9829 101.3098 0.0000 0.0000 0.0000
# 4 0.0000 0.0000 0.0000 -176.0847 0.0000 0.0000
# 5 0.0000 0.0000 0.0000 0.0000 17.8590 0.0000
# 6 0.0000 0.0000 0.0000 0.0000 0.0000 24.9134
#
#
#
# Elastic Compliance Matrix: (Units=1/GPa)
#
#
# Indices 1 2 3 4 5 6 
#
# 1 0.010146 -0.005381 -0.001825 0.000000 0.000000 0.000000
# 2 -0.005381 0.021288 -0.005944 0.000000 0.000000 0.000000
# 3 -0.001825 -0.005944 0.012790 0.000000 0.000000 0.000000
# 4 0.000000 0.000000 0.000000 -0.005679 0.000000 0.000000
# 5 0.000000 0.000000 0.000000 0.000000 0.055994 0.000000
# 6 0.000000 0.000000 0.000000 0.000000 0.000000 0.040139
#
#
# Mechanical properties :
#
#
# Convention : Reuss Voigt Hill
#
# Bulk Modulus (GPa) = 55.78496 59.68054 57.73275
# Shear Modulus (GPa) = 29.94877 -14.75306 7.59786
#
# Velocity S-wave (km/s) = 4.13311 -2.90087 2.08177
# Velocity P-wave (km/s) = 7.38892 4.77716 6.22163
#
# Compressibility (1/GPa) = 0.01792598
#
# Stress axis : x y z
#
# Youngs Moduli (GPa) = 98.55738 46.97555 78.18563
#
# Poissons Ratio (x) = 0.25276 0.14267
# Poissons Ratio (y) = 0.53030 0.46471
# Poissons Ratio (z) = 0.17984 0.27921
#
# Static dielectric constant tensor:
#      x y z
#    x 4.042050 0.000000 0.000000 
#    y 0.000000 3.046610 0.000000 
#    z 0.000000 0.000000 3.335280 
# 
# 
# High freq. dielectric constant tensor:
#      x y z
#    x 1.692810 0.000000 0.000000 
#    y 0.000000 1.656710 0.000000 
#    z 0.000000 0.000000 1.658130 
# 
# From -- ./inp_files/11881.got.cif
#   From: 2010.03.12/outbox.cif.g09.slc.cpg/sg39_6_cif.got.tgz:11881.got - 2010.04.14 02:53:20.
