data_PCOD8181850
_publ_section_title
;
Structure prediction by ZEFSAII (Michael W. Deem and Ramdas Pophale) SiO2 
 PCOD8181850
Probable space group: A B M 2
;
_chemical_formula_sum "Si O2"
_cell_formula_units_Z 48
_cell_length_a 8.623605
_cell_length_b 10.112129
_cell_length_c 28.477966
_cell_angle_alpha 90.000000
_cell_angle_beta 90.000000
_cell_angle_gamma 90.000000
_cell_volume 2483.364246
_symmetry_space_group_name_H-M "A B M 2"
_symmetry_group_IT_number 39
_symmetry_cell_setting 'orthorhombic'
loop_
_space_group_symop_operation_xyz
x,y,z
-x,-y,z
-x,1/2+y,z
x,1/2-y,z
x,1/2+y,1/2+z
-x,1/2-y,1/2+z
-x,y,1/2+z
x,-y,1/2+z
loop_
_atom_site_type_symbol
_atom_site_label
_atom_site_fract_x
_atom_site_fract_y
_atom_site_fract_z
Si Si1 0.182464 0.990524 0.923390
Si Si2 0.358131 0.401495 0.615597
Si Si3 0.314279 0.488961 0.712082
Si Si4 0.687633 0.750000 0.260029
Si Si5 0.326794 0.750000 0.380556
Si Si6 0.354496 0.097590 0.512188
Si Si7 0.320029 0.750000 0.273534
Si Si8 0.306691 0.250000 0.366381
O O1 0.267639 0.124807 0.909338
O O2 0.236701 0.881067 0.887447
O O3 0.000000 0.000000 0.919872
O O4 0.223628 0.949025 0.976296
O O5 0.500000 0.500000 0.611983
O O6 0.412562 0.250000 0.625840
O O7 0.252817 0.451288 0.659519
O O8 0.276985 0.409579 0.564416
O O9 0.500000 0.500000 0.710356
O O10 0.246638 0.626621 0.730531
O O11 0.253133 0.380014 0.748600
O O12 0.503572 0.750000 0.266091
O O13 0.750178 0.750000 0.312719
O O14 0.263009 0.750000 0.327291
O O15 0.511174 0.750000 0.376620
O O16 0.406220 0.250000 0.501676
O O17 0.500000 0.000000 0.506741
#
# Coordination Sequence:
#
# PCOD8181850 Si02
#       8
#     8   8   8   4   4   8   4   4
#     4  12  25  40  58  85 116 153 193 243 297 348
#     4   9  17  28  47  75 111 148 181 224 281 339
#     4   9  15  25  42  73 112 145 172 219 282 330
#     4   9  18  27  48  75 110 146 179 227 276 327
#     4  11  23  37  62  85 114 154 197 235 288 341
#     4  10  21  38  59  85 115 152 194 238 288 347
#     4   9  16  29  46  75 108 140 183 225 272 333
#     4  11  21  41  60  85 116 154 197 239 284 345
#
# _framework density 19.328617999999999
#
# number of rings (size 3 to 8) (size 9 to 14) (size 15 to 20)
#    0.000    2.000    1.667    3.000    4.667    2.667 
#    0.000    0.000    0.000    0.000    0.000    7.000 
#    0.000    0.000    0.000    0.000    0.000    0.000 
#
# Total GULP energy -297418.030332 kJ/mol
# GULP energy per Si atom -12392.417930 kJ/mol
# Density = 1.928463 g / cm^3
# Si number density = 19.328618 Si / 1000 Ang^3
#
#
#
# Elastic Constant Matrix: (Units=GPa)
#
#
# Indices 1 2 3 4 5 6 
#
# 1 58.9069 31.4804 33.7730 0.0000 0.0000 0.0000
# 2 31.4804 186.1761 90.9498 0.0000 0.0000 0.0000
# 3 33.7730 90.9498 184.0822 0.0000 0.0000 0.0000
# 4 0.0000 0.0000 0.0000 41.1252 0.0000 0.0000
# 5 0.0000 0.0000 0.0000 0.0000 1.4051 0.0000
# 6 0.0000 0.0000 0.0000 0.0000 0.0000 15.9946
#
#
#
# Elastic Compliance Matrix: (Units=1/GPa)
#
#
# Indices 1 2 3 4 5 6 
#
# 1 0.019546 -0.002047 -0.002575 0.000000 0.000000 0.000000
# 2 -0.002047 0.007295 -0.003228 0.000000 0.000000 0.000000
# 3 -0.002575 -0.003228 0.007500 0.000000 0.000000 0.000000
# 4 0.000000 0.000000 0.000000 0.024316 0.000000 0.000000
# 5 0.000000 0.000000 0.000000 0.000000 0.711713 0.000000
# 6 0.000000 0.000000 0.000000 0.000000 0.000000 0.062521
#
#
# Mechanical properties :
#
#
# Convention : Reuss Voigt Hill
#
# Bulk Modulus (GPa) = 53.64845 82.39685 68.02265
# Shear Modulus (GPa) = 5.84929 29.90244 17.87587
#
# Velocity S-wave (km/s) = 1.74149 3.93753 3.04442
# Velocity P-wave (km/s) = 5.64446 7.96205 6.90124
#
# Compressibility (1/GPa) = 0.01863987
#
# Stress axis : x y z
#
# Youngs Moduli (GPa) = 51.16105 137.08814 133.33750
#
# Poissons Ratio (x) = 0.28067 0.34328
# Poissons Ratio (y) = 0.10474 0.43047
# Poissons Ratio (z) = 0.13172 0.44258
#
# Static dielectric constant tensor:
#      x y z
#    x 2.856410 0.000000 0.000000 
#    y 0.000000 3.793330 0.000000 
#    z 0.000000 0.000000 4.245840 
# 
# 
# High freq. dielectric constant tensor:
#      x y z
#    x 1.674870 0.000000 0.000000 
#    y 0.000000 1.778860 0.000000 
#    z 0.000000 0.000000 1.782620 
# 
# From -- ./inp_files/17690.got.cif
#   From: 2010.03.12/outbox.cif.g09.slc.cpg/sg39_9_cif.got.tgz:17690.got - 2010.04.14 02:53:20.
