data_PCOD8181135
_publ_section_title
;
Structure prediction by ZEFSAII (Michael W. Deem and Ramdas Pophale) SiO2 
 PCOD8181135
Probable space group: A B M 2
;
_chemical_formula_sum "Si O2"
_cell_formula_units_Z 64
_cell_length_a 28.394419
_cell_length_b 8.928896
_cell_length_c 14.160080
_cell_angle_alpha 90.000000
_cell_angle_beta 90.000000
_cell_angle_gamma 90.000000
_cell_volume 3590.016612
_symmetry_space_group_name_H-M "A B M 2"
_symmetry_group_IT_number 39
_symmetry_cell_setting 'orthorhombic'
loop_
_space_group_symop_operation_xyz
x,y,z
-x,-y,z
-x,1/2+y,z
x,1/2-y,z
x,1/2+y,1/2+z
-x,1/2-y,1/2+z
-x,y,1/2+z
x,-y,1/2+z
loop_
_atom_site_type_symbol
_atom_site_label
_atom_site_fract_x
_atom_site_fract_y
_atom_site_fract_z
Si Si1 0.450365 0.421874 0.010910
Si Si2 0.125309 0.072361 0.660963
Si Si3 0.950064 0.076111 0.014256
Si Si4 0.693433 0.070821 0.011646
Si Si5 0.627272 0.928642 0.864870
Si Si6 0.373007 0.426098 0.161709
Si Si7 0.800447 0.072484 0.014113
Si Si8 0.873331 0.924084 0.361388
O O1 0.500000 0.500000 0.015064
O O2 0.461752 0.250000 0.998613
O O3 0.421867 0.453460 0.106968
O O4 0.419739 0.476773 0.921468
O O5 0.125346 0.250000 0.660837
O O6 0.079359 0.014330 0.604087
O O7 0.172374 0.013350 0.607445
O O8 0.124178 0.015263 0.766127
O O9 0.959135 0.250000 0.027159
O O10 0.920856 0.043688 0.919261
O O11 0.000000 0.000000 0.006874
O O12 0.688422 0.250000 0.014455
O O13 0.671538 0.006502 0.915316
O O14 0.747187 0.014227 0.013340
O O15 0.669380 0.998944 0.103273
O O16 0.634380 0.750000 0.866235
O O17 0.622616 0.989635 0.760096
O O18 0.363062 0.250000 0.175675
O O19 0.801454 0.250000 0.014726
O O20 0.828150 0.017881 0.920669
O O21 0.868298 0.750000 0.337284
#
# Coordination Sequence:
#
# PCOD8181135 Si02
#       8
#     8   8   8   8   8   8   8   8
#     4   9  20  36  54  76 104 135 171 213 256 303
#     4   9  18  34  52  72  99 131 164 203 247 295
#     4   9  19  34  51  70  98 131 163 201 247 295
#     4  10  19  34  56  79 104 137 171 212 260 305
#     4  10  21  37  54  77 107 139 174 213 255 305
#     4  10  21  37  54  77 107 139 174 213 255 305
#     4   8  17  34  53  73 101 133 166 202 249 301
#     4   9  18  34  52  72  99 131 164 203 247 295
#
# _framework density 17.827216
#
# number of rings (size 3 to 8) (size 9 to 14) (size 15 to 20)
#    0.000    2.750    0.000    3.375    0.000    6.000 
#    0.000   11.875    0.000    0.000    0.000    0.000 
#    0.000    0.000    0.000    0.000    0.000    0.000 
#
# Total GULP energy -396719.902596 kJ/mol
# GULP energy per Si atom -12397.496956 kJ/mol
# Density = 1.778664 g / cm^3
# Si number density = 17.827216 Si / 1000 Ang^3
#
#
#
# Elastic Constant Matrix: (Units=GPa)
#
#
# Indices 1 2 3 4 5 6 
#
# 1 144.2149 37.9581 33.6289 0.0000 0.0000 0.0000
# 2 37.9581 44.0080 15.7799 0.0000 0.0000 0.0000
# 3 33.6289 15.7799 86.1118 0.0000 0.0000 0.0000
# 4 0.0000 0.0000 0.0000 35.8440 0.0000 0.0000
# 5 0.0000 0.0000 0.0000 0.0000 10.0068 0.0000
# 6 0.0000 0.0000 0.0000 0.0000 0.0000 28.3899
#
#
#
# Elastic Compliance Matrix: (Units=1/GPa)
#
#
# Indices 1 2 3 4 5 6 
#
# 1 0.009390 -0.007262 -0.002336 0.000000 0.000000 0.000000
# 2 -0.007262 0.029937 -0.002650 0.000000 0.000000 0.000000
# 3 -0.002336 -0.002650 0.013011 0.000000 0.000000 0.000000
# 4 0.000000 0.000000 0.000000 0.027899 0.000000 0.000000
# 5 0.000000 0.000000 0.000000 0.000000 0.099932 0.000000
# 6 0.000000 0.000000 0.000000 0.000000 0.000000 0.035224
#
#
# Mechanical properties :
#
#
# Convention : Reuss Voigt Hill
#
# Bulk Modulus (GPa) = 35.91742 49.89652 42.90697
# Shear Modulus (GPa) = 20.06676 27.31266 23.68971
#
# Velocity S-wave (km/s) = 3.35867 3.91842 3.64930
# Velocity P-wave (km/s) = 5.93567 6.96576 6.47124
#
# Compressibility (1/GPa) = 0.02784164
#
# Stress axis : x y z
#
# Youngs Moduli (GPa) = 106.49399 33.40393 76.85874
#
# Poissons Ratio (x) = 0.24256 0.17958
# Poissons Ratio (y) = 0.77331 0.20368
# Poissons Ratio (z) = 0.24882 0.08852
#
# Static dielectric constant tensor:
#      x y z
#    x 3.980960 0.000000 0.000000 
#    y 0.000000 3.177960 0.000000 
#    z 0.000000 0.000000 3.405770 
# 
# 
# High freq. dielectric constant tensor:
#      x y z
#    x 1.695620 0.000000 0.000000 
#    y 0.000000 1.681200 0.000000 
#    z 0.000000 0.000000 1.695770 
# 
# From -- ./inp_files/10724.got.cif
#   From: 2010.03.12/outbox.cif.g09.slc.cpg/sg39_6_cif.got.tgz:10724.got - 2010.04.14 02:53:20.
