data_PCOD8181409
_publ_section_title
;
Structure prediction by ZEFSAII (Michael W. Deem and Ramdas Pophale) SiO2 
 PCOD8181409
Probable space group: A B M 2
;
_chemical_formula_sum "Si O2"
_cell_formula_units_Z 36
_cell_length_a 10.160886
_cell_length_b 20.326579
_cell_length_c 8.504321
_cell_angle_alpha 90.000000
_cell_angle_beta 90.000000
_cell_angle_gamma 90.000000
_cell_volume 1756.448884
_symmetry_space_group_name_H-M "A B M 2"
_symmetry_group_IT_number 39
_symmetry_cell_setting 'orthorhombic'
loop_
_space_group_symop_operation_xyz
x,y,z
-x,-y,z
-x,1/2+y,z
x,1/2-y,z
x,1/2+y,1/2+z
-x,1/2-y,1/2+z
-x,y,1/2+z
x,-y,1/2+z
loop_
_atom_site_type_symbol
_atom_site_label
_atom_site_fract_x
_atom_site_fract_y
_atom_site_fract_z
Si Si1 0.894768 0.750000 0.545851
Si Si2 0.820725 0.250000 0.677664
Si Si3 0.500000 0.500000 0.858175
Si Si4 0.819029 0.614385 0.073194
Si Si5 0.690176 0.023927 0.107369
Si Si6 0.101802 0.119119 0.710158
O O1 0.857878 0.750000 0.362011
O O2 0.839946 0.814150 0.635012
O O3 0.051605 0.750000 0.564026
O O4 0.745509 0.182623 0.626762
O O5 0.598579 0.544158 0.754576
O O6 0.401100 0.545079 0.960800
O O7 0.719161 0.554525 0.102398
O O8 0.946428 0.608834 0.186848
O O9 0.867546 0.615862 0.893965
O O10 0.827479 0.061006 0.113774
#
# Coordination Sequence:
#
# PCOD8181409 Si02
#       6
#     4   4   4   8   8   8
#     4  10  20  34  56  85 122 155 183 227 295 359
#     4  10  20  34  56  85 122 155 183 227 295 359
#     4  10  24  42  58  84 112 158 200 242 288 334
#     4  11  22  36  60  91 122 151 187 238 295 350
#     4  11  23  40  64  84 115 151 200 244 286 343
#     4  11  22  36  60  91 122 151 187 238 295 350
#
# _framework density 20.495899000000001
#
# number of rings (size 3 to 8) (size 9 to 14) (size 15 to 20)
#    0.000    1.333    2.222    6.667    6.222    1.778 
#    0.000    0.000    0.000    8.000    0.000    0.000 
#    0.000    0.000    0.000    0.000    0.000    0.000 
#
# Total GULP energy -223018.624567 kJ/mol
# GULP energy per Si atom -12389.923587 kJ/mol
# Density = 2.044925 g / cm^3
# Si number density = 20.495899 Si / 1000 Ang^3
#
#
#
# Elastic Constant Matrix: (Units=GPa)
#
#
# Indices 1 2 3 4 5 6 
#
# 1 57.8276 31.5120 20.3452 0.0000 0.0000 0.0000
# 2 31.5120 135.5464 27.4691 0.0000 0.0000 0.0000
# 3 20.3452 27.4691 121.7091 0.0000 0.0000 0.0000
# 4 0.0000 0.0000 0.0000 23.8669 0.0000 0.0000
# 5 0.0000 0.0000 0.0000 0.0000 7.3339 0.0000
# 6 0.0000 0.0000 0.0000 0.0000 0.0000 6.3735
#
#
#
# Elastic Compliance Matrix: (Units=1/GPa)
#
#
# Indices 1 2 3 4 5 6 
#
# 1 0.020482 -0.004263 -0.002462 0.000000 0.000000 0.000000
# 2 -0.004263 0.008618 -0.001233 0.000000 0.000000 0.000000
# 3 -0.002462 -0.001233 0.008906 0.000000 0.000000 0.000000
# 4 0.000000 0.000000 0.000000 0.041899 0.000000 0.000000
# 5 0.000000 0.000000 0.000000 0.000000 0.136352 0.000000
# 6 0.000000 0.000000 0.000000 0.000000 0.000000 0.156900
#
#
# Mechanical properties :
#
#
# Convention : Reuss Voigt Hill
#
# Bulk Modulus (GPa) = 45.26507 52.63734 48.95120
# Shear Modulus (GPa) = 12.61238 23.23198 17.92218
#
# Velocity S-wave (km/s) = 2.48334 3.37039 2.96028
# Velocity P-wave (km/s) = 5.50958 6.39404 5.96822
#
# Compressibility (1/GPa) = 0.02209209
#
# Stress axis : x y z
#
# Youngs Moduli (GPa) = 48.82393 116.03165 112.28391
#
# Poissons Ratio (x) = 0.49461 0.27641
# Poissons Ratio (y) = 0.20812 0.13839
# Poissons Ratio (z) = 0.12019 0.14301
#
# Static dielectric constant tensor:
#      x y z
#    x 3.483600 0.000000 0.000000 
#    y 0.000000 4.126930 0.000000 
#    z 0.000000 0.000000 4.037810 
# 
# 
# High freq. dielectric constant tensor:
#      x y z
#    x 1.763370 0.000000 0.000000 
#    y 0.000000 1.791780 0.000000 
#    z 0.000000 0.000000 1.829960 
# 
# From -- ./inp_files/2056.got.cif
#   From: 2010.03.12/outbox.cif.g09.slc.cpg/sg39_2_cif.got.tgz:2056.got - 2010.04.14 02:53:20.
