data_PCOD8181972
_publ_section_title
;
Structure prediction by ZEFSAII (Michael W. Deem and Ramdas Pophale) SiO2 
 PCOD8181972
Probable space group: A B M 2
;
_chemical_formula_sum "Si O2"
_cell_formula_units_Z 56
_cell_length_a 8.942721
_cell_length_b 20.358751
_cell_length_c 13.559042
_cell_angle_alpha 90.000000
_cell_angle_beta 90.000000
_cell_angle_gamma 90.000000
_cell_volume 2468.594848
_symmetry_space_group_name_H-M "A B M 2"
_symmetry_group_IT_number 39
_symmetry_cell_setting 'orthorhombic'
loop_
_space_group_symop_operation_xyz
x,y,z
-x,-y,z
-x,1/2+y,z
x,1/2-y,z
x,1/2+y,1/2+z
-x,1/2-y,1/2+z
-x,y,1/2+z
x,-y,1/2+z
loop_
_atom_site_type_symbol
_atom_site_label
_atom_site_fract_x
_atom_site_fract_y
_atom_site_fract_z
Si Si1 0.927416 0.067646 0.783030
Si Si2 0.103958 0.060890 0.515007
Si Si3 0.443042 0.931382 0.014267
Si Si4 0.514783 0.825593 0.848020
Si Si5 0.914761 0.821144 0.044959
Si Si6 0.337099 0.123812 0.170764
Si Si7 0.849245 0.176700 0.315996
O O1 0.890885 0.067700 0.897909
O O2 0.774573 0.072765 0.722734
O O3 0.040210 0.127876 0.757393
O O4 0.000000 0.000000 0.748348
O O5 0.274000 0.056014 0.550589
O O6 0.034259 0.123120 0.572362
O O7 0.000000 0.000000 0.546469
O O8 0.536684 0.916004 0.112467
O O9 0.500000 0.000000 0.966603
O O10 0.457249 0.872647 0.935469
O O11 0.516376 0.750000 0.886487
O O12 0.405758 0.829890 0.754776
O O13 0.677973 0.847376 0.809393
O O14 0.979207 0.750000 0.075919
O O15 0.753926 0.830980 0.095029
O O16 0.891127 0.824216 0.929430
O O17 0.868885 0.250000 0.271527
#
# Coordination Sequence:
#
# PCOD8181972 Si02
#       7
#     8   8   8   8   8   8   8
#     4  10  23  41  69  99 135 180 229 290 341 419
#     4  10  22  45  69  99 135 183 234 285 354 420
#     4  12  27  45  72 105 144 189 238 299 358 426
#     4  11  25  45  71 102 144 189 237 294 356 424
#     4  10  21  40  68  97 133 177 229 287 342 414
#     4  12  25  43  68 109 141 181 233 295 355 421
#     4   9  20  41  67  95 131 181 229 282 348 412
#
# _framework density 22.68497
#
# number of rings (size 3 to 8) (size 9 to 14) (size 15 to 20)
#    0.000    1.429    2.857    1.286    4.000    6.857 
#    0.000    1.429    0.000    0.000    0.000    0.000 
#    0.000    0.000    0.000    0.000    0.000    0.000 
#
# Total GULP energy -347221.705821 kJ/mol
# GULP energy per Si atom -12400.775208 kJ/mol
# Density = 2.263334 g / cm^3
# Si number density = 22.684970 Si / 1000 Ang^3
#
#
#
# Elastic Constant Matrix: (Units=GPa)
#
#
# Indices 1 2 3 4 5 6 
#
# 1 185.4392 82.1148 34.1633 0.0000 0.0000 0.0000
# 2 82.1148 176.4530 32.7226 0.0000 0.0000 0.0000
# 3 34.1633 32.7226 57.7028 0.0000 0.0000 0.0000
# 4 0.0000 0.0000 0.0000 -4.5862 0.0000 0.0000
# 5 0.0000 0.0000 0.0000 0.0000 37.9751 0.0000
# 6 0.0000 0.0000 0.0000 0.0000 0.0000 36.5146
#
#
#
# Elastic Compliance Matrix: (Units=1/GPa)
#
#
# Indices 1 2 3 4 5 6 
#
# 1 0.007128 -0.002833 -0.002614 0.000000 0.000000 0.000000
# 2 -0.002833 0.007459 -0.002553 0.000000 0.000000 0.000000
# 3 -0.002614 -0.002553 0.020326 0.000000 0.000000 0.000000
# 4 0.000000 0.000000 0.000000 -0.218044 0.000000 0.000000
# 5 0.000000 0.000000 0.000000 0.000000 0.026333 0.000000
# 6 0.000000 0.000000 0.000000 0.000000 0.000000 0.027386
#
#
# Mechanical properties :
#
#
# Convention : Reuss Voigt Hill
#
# Bulk Modulus (GPa) = 52.87118 79.73293 66.30205
# Shear Modulus (GPa) = -46.68180 32.02031 -7.33075
#
# Velocity S-wave (km/s) = -4.54125 3.76110 -1.79960
# Velocity P-wave (km/s) = 2.03470 7.35427 4.99727
#
# Compressibility (1/GPa) = 0.01891390
#
# Stress axis : x y z
#
# Youngs Moduli (GPa) = 140.28197 134.06978 49.19911
#
# Poissons Ratio (x) = 0.37976 0.12861
# Poissons Ratio (y) = 0.39736 0.12559
# Poissons Ratio (z) = 0.36672 0.34225
#
# Static dielectric constant tensor:
#      x y z
#    x 4.775580 0.000000 0.000000 
#    y 0.000000 4.377120 0.000000 
#    z 0.000000 0.000000 3.940830 
# 
# 
# High freq. dielectric constant tensor:
#      x y z
#    x 1.901180 0.000000 0.000000 
#    y 0.000000 1.898830 0.000000 
#    z 0.000000 0.000000 1.898920 
# 
# From -- ./inp_files/8624.got.cif
#   From: 2010.03.12/outbox.cif.g09.slc.cpg/sg39_5_cif.got.tgz:8624.got - 2010.04.14 02:53:20.
