data_PCOD8182423
_publ_section_title
;
Structure prediction by ZEFSAII (Michael W. Deem and Ramdas Pophale) SiO2 
 PCOD8182423
Probable space group: A M A 2
;
_chemical_formula_sum "Si O2"
_cell_formula_units_Z 40
_cell_length_a 16.915219
_cell_length_b 9.695858
_cell_length_c 11.036532
_cell_angle_alpha 90.000000
_cell_angle_beta 90.000000
_cell_angle_gamma 90.000000
_cell_volume 1810.074700
_symmetry_space_group_name_H-M "A M A 2"
_symmetry_group_IT_number 40
_symmetry_cell_setting 'orthorhombic'
loop_
_space_group_symop_operation_xyz
x,y,z
-x,-y,z
1/2-x,y,z
1/2+x,-y,z
x,1/2+y,1/2+z
-x,1/2-y,1/2+z
1/2-x,1/2+y,1/2+z
1/2+x,1/2-y,1/2+z
loop_
_atom_site_type_symbol
_atom_site_label
_atom_site_fract_x
_atom_site_fract_y
_atom_site_fract_z
Si Si1 0.166104 0.877914 0.548190
Si Si2 0.500000 0.500000 0.407113
Si Si3 0.996812 0.220253 0.511656
Si Si4 0.612801 0.886615 0.709761
Si Si5 0.336628 0.912503 0.271910
Si Si6 0.500000 0.000000 0.305197
O O1 0.250000 0.798079 0.563088
O O2 0.161464 0.945108 0.414899
O O3 0.093106 0.773668 0.562773
O O4 0.167812 0.999662 0.647592
O O5 0.471185 0.374142 0.491716
O O6 0.574773 0.448994 0.330627
O O7 0.044069 0.144148 0.614931
O O8 0.003448 0.138486 0.385237
O O9 0.661634 0.750824 0.744421
O O10 0.250000 0.965932 0.221435
O O11 0.418349 0.987420 0.223902
#
# Coordination Sequence:
#
# PCOD8182423 Si02
#       6
#     8   4   8   8   8   4
#     4  10  19  34  61  91 122 162 211 259 310 381
#     4  12  23  37  62  90 124 156 211 267 310 380
#     4  11  21  38  60  93 120 163 213 257 310 378
#     4  12  20  39  65  88 124 165 213 254 321 379
#     4  10  21  36  65  98 125 168 218 258 317 385
#     4  10  17  39  62  86 128 168 201 261 320 360
#
# _framework density 22.098534000000001
#
# number of rings (size 3 to 8) (size 9 to 14) (size 15 to 20)
#    0.000    1.200   10.000    0.600    0.000    0.800 
#    0.000    0.000    0.000   19.200    0.000    0.000 
#    0.000    0.000    0.000    0.000    0.000    0.000 
#
# Total GULP energy -247777.073923 kJ/mol
# GULP energy per Si atom -12388.853696 kJ/mol
# Density = 2.204824 g / cm^3
# Si number density = 22.098534 Si / 1000 Ang^3
#
#
#
# Elastic Constant Matrix: (Units=GPa)
#
#
# Indices 1 2 3 4 5 6 
#
# 1 186.1198 25.4453 10.4834 0.0000 0.0000 0.0000
# 2 25.4453 97.5959 7.0126 0.0000 0.0000 0.0000
# 3 10.4834 7.0126 28.3743 0.0000 0.0000 0.0000
# 4 0.0000 0.0000 0.0000 28.0223 0.0000 0.0000
# 5 0.0000 0.0000 0.0000 0.0000 -0.0867 0.0000
# 6 0.0000 0.0000 0.0000 0.0000 0.0000 24.4005
#
#
#
# Elastic Compliance Matrix: (Units=1/GPa)
#
#
# Indices 1 2 3 4 5 6 
#
# 1 0.005656 -0.001348 -0.001757 0.000000 0.000000 0.000000
# 2 -0.001348 0.010753 -0.002159 0.000000 0.000000 0.000000
# 3 -0.001757 -0.002159 0.036426 0.000000 0.000000 0.000000
# 4 0.000000 0.000000 0.000000 0.035686 0.000000 0.000000
# 5 0.000000 0.000000 0.000000 0.000000-11.534292 0.000000
# 6 0.000000 0.000000 0.000000 0.000000 0.000000 0.040983
#
#
# Mechanical properties :
#
#
# Convention : Reuss Voigt Hill
#
# Bulk Modulus (GPa) = 23.63711 44.21917 33.92814
# Shear Modulus (GPa) = -0.43936 28.41046 13.98555
#
# Velocity S-wave (km/s) = -0.44638 3.58945 2.51842
# Velocity P-wave (km/s) = 3.23323 6.10183 4.88294
#
# Compressibility (1/GPa) = 0.04230636
#
# Stress axis : x y z
#
# Youngs Moduli (GPa) = 176.79789 92.99674 27.45309
#
# Poissons Ratio (x) = 0.12540 0.04822
# Poissons Ratio (y) = 0.23841 0.05928
# Poissons Ratio (z) = 0.31055 0.20081
#
# Static dielectric constant tensor:
#      x y z
#    x 4.475190 0.000000 0.000000 
#    y 0.000000 3.834720 0.000000 
#    z 0.000000 0.000000 3.866800 
# 
# 
# High freq. dielectric constant tensor:
#      x y z
#    x 1.879920 0.000000 0.000000 
#    y 0.000000 1.846150 0.000000 
#    z 0.000000 0.000000 1.849400 
# 
# From -- ./inp_files/17491.got.cif
#   From: 2010.03.12/outbox.cif.g09.slc.cpg/sg40_9_cif.got.tgz:17491.got - 2010.04.14 01:38:03.
