data_PCOD8182706
_publ_section_title
;
Structure prediction by ZEFSAII (Michael W. Deem and Ramdas Pophale) SiO2 
 PCOD8182706
Probable space group: A M A 2
;
_chemical_formula_sum "Si O2"
_cell_formula_units_Z 56
_cell_length_a 8.645887
_cell_length_b 14.526766
_cell_length_c 22.451384
_cell_angle_alpha 90.000000
_cell_angle_beta 90.000000
_cell_angle_gamma 90.000000
_cell_volume 2819.821477
_symmetry_space_group_name_H-M "A M A 2"
_symmetry_group_IT_number 40
_symmetry_cell_setting 'orthorhombic'
loop_
_space_group_symop_operation_xyz
x,y,z
-x,-y,z
1/2-x,y,z
1/2+x,-y,z
x,1/2+y,1/2+z
-x,1/2-y,1/2+z
1/2-x,1/2+y,1/2+z
1/2+x,1/2-y,1/2+z
loop_
_atom_site_type_symbol
_atom_site_label
_atom_site_fract_x
_atom_site_fract_y
_atom_site_fract_z
Si Si1 0.932461 0.720812 0.357020
Si Si2 0.566164 0.403356 0.025993
Si Si3 0.066914 0.405328 0.597816
Si Si4 0.566004 0.897861 0.751121
Si Si5 0.433392 0.901544 0.397720
Si Si6 0.067057 0.712968 0.137954
Si Si7 0.431104 0.406228 0.463616
O O1 0.750000 0.725039 0.346158
O O2 0.975466 0.679127 0.421666
O O3 0.010177 0.656118 0.308619
O O4 0.004031 0.823093 0.353064
O O5 0.500000 0.500000 0.048573
O O6 0.750000 0.408391 0.017269
O O7 0.514382 0.330145 0.075303
O O8 0.490410 0.375662 0.963644
O O9 0.250000 0.411333 0.598085
O O10 0.010021 0.319357 0.638213
O O11 0.004706 0.389453 0.530378
O O12 0.000000 0.500000 0.624832
O O13 0.750000 0.903077 0.750566
O O14 0.498515 0.843278 0.693627
O O15 0.500000 0.000000 0.750840
O O16 0.250000 0.905794 0.395530
O O17 0.500000 0.000000 0.377170
O O18 0.250000 0.708834 0.142101
O O19 0.500000 0.500000 0.436332
O O20 0.250000 0.419380 0.465525
#
# Coordination Sequence:
#
# PCOD8182706 Si02
#       7
#     8   8   8   8   8   8   8
#     4  11  22  38  58  81 109 147 189 231 278 333
#     4  10  18  32  54  82 113 147 183 225 276 333
#     4   9  17  33  53  77 105 137 174 217 266 321
#     4  11  23  40  59  82 110 145 186 232 281 333
#     4  11  22  37  57  84 115 147 182 228 280 336
#     4   9  19  35  56  77 107 149 189 227 276 331
#     4   9  18  31  52  79 110 142 176 218 270 327
#
# _framework density 19.859411999999999
#
# number of rings (size 3 to 8) (size 9 to 14) (size 15 to 20)
#    0.000    2.000    0.000    5.143    0.000    4.571 
#    0.000    8.571    0.000    1.714    0.000    0.000 
#    0.000    0.000    0.000    0.000    0.000    0.000 
#
# Total GULP energy -347176.990266 kJ/mol
# GULP energy per Si atom -12399.178224 kJ/mol
# Density = 1.981421 g / cm^3
# Si number density = 19.859412 Si / 1000 Ang^3
#
#
#
# Elastic Constant Matrix: (Units=GPa)
#
#
# Indices 1 2 3 4 5 6 
#
# 1 77.0837 49.3320 31.3395 0.0000 0.0000 0.0000
# 2 49.3320 190.5795 71.3134 0.0000 0.0000 0.0000
# 3 31.3395 71.3134 71.5737 0.0000 0.0000 0.0000
# 4 0.0000 0.0000 0.0000 53.4101 0.0000 0.0000
# 5 0.0000 0.0000 0.0000 0.0000 -8.0647 0.0000
# 6 0.0000 0.0000 0.0000 0.0000 0.0000 34.4112
#
#
#
# Elastic Compliance Matrix: (Units=1/GPa)
#
#
# Indices 1 2 3 4 5 6 
#
# 1 0.016497 -0.002499 -0.004733 0.000000 0.000000 0.000000
# 2 -0.002499 0.008745 -0.007619 0.000000 0.000000 0.000000
# 3 -0.004733 -0.007619 0.023635 0.000000 0.000000 0.000000
# 4 0.000000 0.000000 0.000000 0.018723 0.000000 0.000000
# 5 0.000000 0.000000 0.000000 0.000000 -0.123997 0.000000
# 6 0.000000 0.000000 0.000000 0.000000 0.000000 0.029060
#
#
# Mechanical properties :
#
#
# Convention : Reuss Voigt Hill
#
# Bulk Modulus (GPa) = 52.15284 71.46741 61.81012
# Shear Modulus (GPa) = 570.93007 28.43478 299.68242
#
# Velocity S-wave (km/s) = 16.97380 3.78802 12.29754
# Velocity P-wave (km/s) = 20.25993 7.42947 15.25879
#
# Compressibility (1/GPa) = 0.01917441
#
# Stress axis : x y z
#
# Youngs Moduli (GPa) = 60.61839 114.35128 42.30937
#
# Poissons Ratio (x) = 0.28577 0.20027
# Poissons Ratio (y) = 0.15149 0.32235
# Poissons Ratio (z) = 0.28693 0.87124
#
# Static dielectric constant tensor:
#      x y z
#    x 3.512480 0.000000 0.000000 
#    y 0.000000 3.908550 0.000000 
#    z 0.000000 0.000000 3.634980 
# 
# 
# High freq. dielectric constant tensor:
#      x y z
#    x 1.763860 0.000000 0.000000 
#    y 0.000000 1.793310 0.000000 
#    z 0.000000 0.000000 1.754650 
# 
# From -- ./inp_files/22136.got.cif
#   From: 2010.03.12/outbox.cif.g09.slc.cpg/sg40_12_cif.got.tgz:22136.got - 2010.04.14 01:38:03.
