data_PCOD8182622
_publ_section_title
;
Structure prediction by ZEFSAII (Michael W. Deem and Ramdas Pophale) SiO2 
 PCOD8182622
Probable space group: A M A 2
;
_chemical_formula_sum "Si O2"
_cell_formula_units_Z 48
_cell_length_a 13.886666
_cell_length_b 13.108620
_cell_length_c 13.658366
_cell_angle_alpha 90.000000
_cell_angle_beta 90.000000
_cell_angle_gamma 90.000000
_cell_volume 2486.301033
_symmetry_space_group_name_H-M "A M A 2"
_symmetry_group_IT_number 40
_symmetry_cell_setting 'orthorhombic'
loop_
_space_group_symop_operation_xyz
x,y,z
-x,-y,z
1/2-x,y,z
1/2+x,-y,z
x,1/2+y,1/2+z
-x,1/2-y,1/2+z
1/2-x,1/2+y,1/2+z
1/2+x,1/2-y,1/2+z
loop_
_atom_site_type_symbol
_atom_site_label
_atom_site_fract_x
_atom_site_fract_y
_atom_site_fract_z
Si Si1 0.359608 0.661038 0.395770
Si Si2 0.462041 0.251950 0.292403
Si Si3 0.031402 0.747215 0.567246
Si Si4 0.636150 0.838468 0.465293
Si Si5 0.853514 0.549046 0.061490
Si Si6 0.394796 0.469668 0.273906
O O1 0.250000 0.702938 0.395829
O O2 0.426814 0.730140 0.325021
O O3 0.406145 0.665845 0.504621
O O4 0.356969 0.543417 0.359846
O O5 0.462284 0.215525 0.180192
O O6 0.407451 0.166054 0.355362
O O7 0.397941 0.353426 0.311452
O O8 0.920467 0.753158 0.530623
O O9 0.072081 0.860168 0.548152
O O10 0.750000 0.815241 0.469237
O O11 0.610177 0.950319 0.503916
O O12 0.750000 0.583654 0.018779
O O13 0.833694 0.520208 0.175239
O O14 0.500000 0.500000 0.238398
#
# Coordination Sequence:
#
# PCOD8182622 Si02
#       6
#     8   8   8   8   8   8
#     4  10  19  31  51  78 104 132 167 208 251 296
#     4   9  20  35  52  75 104 133 167 208 251 295
#     4  10  20  35  52  75 104 133 166 209 251 295
#     4  10  20  32  51  77 103 132 168 208 251 296
#     4  10  18  30  52  78 100 128 166 207 250 297
#     4   9  17  31  51  75 101 130 165 206 249 295
#
# _framework density 19.305788
#
# number of rings (size 3 to 8) (size 9 to 14) (size 15 to 20)
#    0.000    2.333    0.000    4.500    0.000    6.000 
#    0.000    0.000    0.000   22.000    0.000   21.000 
#    0.000    0.000    0.000    0.000    0.000    0.000 
#
# Total GULP energy -297437.921616 kJ/mol
# GULP energy per Si atom -12393.246734 kJ/mol
# Density = 1.926185 g / cm^3
# Si number density = 19.305788 Si / 1000 Ang^3
#
#
#
# Elastic Constant Matrix: (Units=GPa)
#
#
# Indices 1 2 3 4 5 6 
#
# 1 111.6193 17.0645 33.6888 0.0000 0.0000 0.0000
# 2 17.0645 44.7026 43.0630 0.0000 0.0000 0.0000
# 3 33.6888 43.0630 146.7239 0.0000 0.0000 0.0000
# 4 0.0000 0.0000 0.0000 34.5396 0.0000 0.0000
# 5 0.0000 0.0000 0.0000 0.0000 38.4925 0.0000
# 6 0.0000 0.0000 0.0000 0.0000 0.0000 15.4216
#
#
#
# Elastic Compliance Matrix: (Units=1/GPa)
#
#
# Indices 1 2 3 4 5 6 
#
# 1 0.009777 -0.002188 -0.001603 0.000000 0.000000 0.000000
# 2 -0.002188 0.031678 -0.008795 0.000000 0.000000 0.000000
# 3 -0.001603 -0.008795 0.009765 0.000000 0.000000 0.000000
# 4 0.000000 0.000000 0.000000 0.028952 0.000000 0.000000
# 5 0.000000 0.000000 0.000000 0.000000 0.025979 0.000000
# 6 0.000000 0.000000 0.000000 0.000000 0.000000 0.064844
#
#
# Mechanical properties :
#
#
# Convention : Reuss Voigt Hill
#
# Bulk Modulus (GPa) = 38.39078 54.51982 46.45530
# Shear Modulus (GPa) = 24.40813 31.63937 28.02375
#
# Velocity S-wave (km/s) = 3.55954 4.05267 3.81408
# Velocity P-wave (km/s) = 6.06816 7.08522 6.59632
#
# Compressibility (1/GPa) = 0.02604792
#
# Stress axis : x y z
#
# Youngs Moduli (GPa) = 102.27770 31.56794 102.40917
#
# Poissons Ratio (x) = 0.06909 0.16412
# Poissons Ratio (y) = 0.22383 0.90067
# Poissons Ratio (z) = 0.16391 0.27763
#
# Static dielectric constant tensor:
#      x y z
#    x 3.659850 0.000000 0.000000 
#    y 0.000000 3.358550 0.000000 
#    z 0.000000 0.000000 3.559850 
# 
# 
# High freq. dielectric constant tensor:
#      x y z
#    x 1.769170 0.000000 0.000000 
#    y 0.000000 1.714760 0.000000 
#    z 0.000000 0.000000 1.745330 
# 
# From -- ./inp_files/17122.got.cif
#   From: 2010.03.12/outbox.cif.g09.slc.cpg/sg40_9_cif.got.tgz:17122.got - 2010.04.14 01:38:03.
