data_PCOD8182432
_publ_section_title
;
Structure prediction by ZEFSAII (Michael W. Deem and Ramdas Pophale) SiO2 
 PCOD8182432
Probable space group: A M A 2
;
_chemical_formula_sum "Si O2"
_cell_formula_units_Z 64
_cell_length_a 8.718336
_cell_length_b 18.521193
_cell_length_c 26.677534
_cell_angle_alpha 90.000000
_cell_angle_beta 90.000000
_cell_angle_gamma 90.000000
_cell_volume 4307.727690
_symmetry_space_group_name_H-M "A M A 2"
_symmetry_group_IT_number 40
_symmetry_cell_setting 'orthorhombic'
loop_
_space_group_symop_operation_xyz
x,y,z
-x,-y,z
1/2-x,y,z
1/2+x,-y,z
x,1/2+y,1/2+z
-x,1/2-y,1/2+z
1/2-x,1/2+y,1/2+z
1/2+x,1/2-y,1/2+z
loop_
_atom_site_type_symbol
_atom_site_label
_atom_site_fract_x
_atom_site_fract_y
_atom_site_fract_z
Si Si1 0.079804 0.796212 0.715640
Si Si2 0.417542 0.206510 0.114494
Si Si3 0.433698 0.843436 0.565723
Si Si4 0.430668 0.924471 0.469067
Si Si5 0.434012 0.577962 0.674138
Si Si6 0.430708 0.834246 0.263618
Si Si7 0.568058 0.922441 0.659503
Si Si8 0.429693 0.924399 0.357538
O O1 0.250000 0.817301 0.735083
O O2 0.095649 0.749490 0.666094
O O3 0.995346 0.746753 0.757197
O O4 0.983283 0.868116 0.703807
O O5 0.250000 0.188556 0.092734
O O6 0.499592 0.261444 0.075355
O O7 0.497128 0.130193 0.128696
O O8 0.250000 0.844626 0.573815
O O9 0.482715 0.864515 0.509452
O O10 0.506237 0.898694 0.605169
O O11 0.250000 0.932873 0.469904
O O12 0.489494 0.903093 0.413384
O O13 0.500000 0.000000 0.486539
O O14 0.500000 0.500000 0.662558
O O15 0.250000 0.577454 0.675506
O O16 0.494266 0.607147 0.726858
O O17 0.250000 0.833585 0.253858
O O18 0.473748 0.860179 0.319698
O O19 0.750000 0.925950 0.657642
O O20 0.500000 0.000000 0.673120
O O21 0.250000 0.936819 0.358475
O O22 0.500000 0.000000 0.339396
#
# Coordination Sequence:
#
# PCOD8182432 Si02
#       8
#     8   8   8   8   8   8   8   8
#     4   9  17  30  44  59  80 105 135 168 203 242
#     4   7  13  25  39  54  73  98 126 160 198 238
#     4   9  16  28  44  59  78 107 141 173 207 244
#     4   9  17  28  41  57  79 107 138 173 208 241
#     4  10  18  27  39  56  79 105 135 168 202 243
#     4  10  18  28  42  59  80 107 138 169 205 245
#     4  11  20  29  42  61  85 111 139 169 203 242
#     4   9  18  29  40  57  81 108 139 174 208 243
#
# _framework density 14.857021
#
# number of rings (size 3 to 8) (size 9 to 14) (size 15 to 20)
#    0.000    2.750    0.000    4.500    0.000    3.500 
#    0.000    0.625    0.000    0.000    0.000    0.000 
#    0.000    1.000    0.000    4.000    0.000    2.125 
#
# Total GULP energy -396482.069553 kJ/mol
# GULP energy per Si atom -12390.064674 kJ/mol
# Density = 1.482321 g / cm^3
# Si number density = 14.857021 Si / 1000 Ang^3
#
#
#
# Elastic Constant Matrix: (Units=GPa)
#
#
# Indices 1 2 3 4 5 6 
#
# 1 60.8539 35.9849 28.1068 0.0000 0.0000 0.0000
# 2 35.9849 118.7430 61.5854 0.0000 0.0000 0.0000
# 3 28.1068 61.5854 85.0410 0.0000 0.0000 0.0000
# 4 0.0000 0.0000 0.0000 23.2396 0.0000 0.0000
# 5 0.0000 0.0000 0.0000 0.0000 14.4252 0.0000
# 6 0.0000 0.0000 0.0000 0.0000 0.0000 23.2464
#
#
#
# Elastic Compliance Matrix: (Units=1/GPa)
#
#
# Indices 1 2 3 4 5 6 
#
# 1 0.020717 -0.004367 -0.003684 0.000000 0.000000 0.000000
# 2 -0.004367 0.014408 -0.008991 0.000000 0.000000 0.000000
# 3 -0.003684 -0.008991 0.019488 0.000000 0.000000 0.000000
# 4 0.000000 0.000000 0.000000 0.043030 0.000000 0.000000
# 5 0.000000 0.000000 0.000000 0.000000 0.069323 0.000000
# 6 0.000000 0.000000 0.000000 0.000000 0.000000 0.043017
#
#
# Mechanical properties :
#
#
# Convention : Reuss Voigt Hill
#
# Bulk Modulus (GPa) = 48.71405 57.33247 53.02326
# Shear Modulus (GPa) = 19.92741 21.44630 20.68686
#
# Velocity S-wave (km/s) = 3.66632 3.80348 3.73553
# Velocity P-wave (km/s) = 7.12617 7.61327 7.37374
#
# Compressibility (1/GPa) = 0.02052796
#
# Stress axis : x y z
#
# Youngs Moduli (GPa) = 48.26931 69.40590 51.31468
#
# Poissons Ratio (x) = 0.30312 0.18906
# Poissons Ratio (y) = 0.21081 0.46135
# Poissons Ratio (z) = 0.17784 0.62400
#
# Static dielectric constant tensor:
#      x y z
#    x 2.888280 0.000000 0.000000 
#    y 0.000000 3.023240 0.000000 
#    z 0.000000 0.000000 2.939750 
# 
# 
# High freq. dielectric constant tensor:
#      x y z
#    x 1.568950 0.000000 0.000000 
#    y 0.000000 1.561820 0.000000 
#    z 0.000000 0.000000 1.536230 
# 
# From -- ./inp_files/25548.got.cif
#   From: 2010.03.12/outbox.cif.g09.slc.cpg/sg40_13_cif.got.tgz:25548.got - 2010.04.14 01:38:03.
