data_PCOD8182016
_publ_section_title
;
Structure prediction by ZEFSAII (Michael W. Deem and Ramdas Pophale) SiO2 
 PCOD8182016
Probable space group: A B M 2
;
_chemical_formula_sum "Si O2"
_cell_formula_units_Z 56
_cell_length_a 9.633250
_cell_length_b 13.918781
_cell_length_c 18.557576
_cell_angle_alpha 90.000000
_cell_angle_beta 90.000000
_cell_angle_gamma 90.000000
_cell_volume 2488.257264
_symmetry_space_group_name_H-M "A B M 2"
_symmetry_group_IT_number 39
_symmetry_cell_setting 'orthorhombic'
loop_
_space_group_symop_operation_xyz
x,y,z
-x,-y,z
-x,1/2+y,z
x,1/2-y,z
x,1/2+y,1/2+z
-x,1/2-y,1/2+z
-x,y,1/2+z
x,-y,1/2+z
loop_
_atom_site_type_symbol
_atom_site_label
_atom_site_fract_x
_atom_site_fract_y
_atom_site_fract_z
Si Si1 0.853778 0.021011 0.107760
Si Si2 0.281965 0.857754 0.515656
Si Si3 0.434434 0.145721 0.282986
Si Si4 0.853090 0.863605 0.471233
Si Si5 0.450414 0.601393 0.937287
Si Si6 0.106317 0.638076 0.374985
Si Si7 0.718935 0.454474 0.252651
O O1 0.761114 0.066096 0.170468
O O2 0.768770 0.929975 0.076898
O O3 0.000000 0.000000 0.146496
O O4 0.907251 0.096127 0.046956
O O5 0.243375 0.750000 0.540772
O O6 0.448224 0.863422 0.501369
O O7 0.211208 0.882277 0.439874
O O8 0.399765 0.250000 0.246835
O O9 0.441349 0.169596 0.368321
O O10 0.585755 0.111885 0.260279
O O11 0.316232 0.067668 0.264003
O O12 0.842129 0.750000 0.475243
O O13 0.702804 0.912389 0.468239
O O14 0.953045 0.893625 0.404294
O O15 0.500000 0.500000 0.905591
O O16 0.105409 0.750000 0.352910
O O17 0.157221 0.575529 0.307128
#
# Coordination Sequence:
#
# PCOD8182016 Si02
#       7
#     8   8   8   8   8   8   8
#     4  12  27  45  66 100 143 185 232 287 360 433
#     4  11  22  42  73 100 133 182 235 286 344 412
#     4  11  23  43  68 100 142 184 238 302 350 410
#     4  11  25  43  70 106 142 181 231 294 353 418
#     4  12  21  40  71 107 137 174 234 298 348 410
#     4  10  21  44  76 104 133 180 235 287 348 415
#     4  11  25  43  68 106 140 186 237 287 361 430
#
# _framework density 22.505711000000002
#
# number of rings (size 3 to 8) (size 9 to 14) (size 15 to 20)
#    0.000    0.857    5.714    1.714    0.000    5.143 
#    0.000    0.000    0.000    0.000    0.000    0.000 
#    0.000    0.000    0.000    0.000    0.000    0.000 
#
# Total GULP energy -347093.252775 kJ/mol
# GULP energy per Si atom -12396.187599 kJ/mol
# Density = 2.245449 g / cm^3
# Si number density = 22.505711 Si / 1000 Ang^3
#
#
#
# Elastic Constant Matrix: (Units=GPa)
#
#
# Indices 1 2 3 4 5 6 
#
# 1 130.0664 28.2822 36.5487 0.0000 0.0000 0.0000
# 2 28.2822 111.7663 37.0921 0.0000 0.0000 0.0000
# 3 36.5487 37.0921 112.0686 0.0000 0.0000 0.0000
# 4 0.0000 0.0000 0.0000 12.1181 0.0000 0.0000
# 5 0.0000 0.0000 0.0000 0.0000 25.5969 0.0000
# 6 0.0000 0.0000 0.0000 0.0000 0.0000 19.4837
#
#
#
# Elastic Compliance Matrix: (Units=1/GPa)
#
#
# Indices 1 2 3 4 5 6 
#
# 1 0.008657 -0.001408 -0.002357 0.000000 0.000000 0.000000
# 2 -0.001408 0.010280 -0.002943 0.000000 0.000000 0.000000
# 3 -0.002357 -0.002943 0.010666 0.000000 0.000000 0.000000
# 4 0.000000 0.000000 0.000000 0.082521 0.000000 0.000000
# 5 0.000000 0.000000 0.000000 0.000000 0.039067 0.000000
# 6 0.000000 0.000000 0.000000 0.000000 0.000000 0.051325
#
#
# Mechanical properties :
#
#
# Convention : Reuss Voigt Hill
#
# Bulk Modulus (GPa) = 61.78242 61.97189 61.87716
# Shear Modulus (GPa) = 22.59079 28.23831 25.41455
#
# Velocity S-wave (km/s) = 3.17169 3.54604 3.36408
# Velocity P-wave (km/s) = 6.39721 6.66046 6.53016
#
# Compressibility (1/GPa) = 0.01618583
#
# Stress axis : x y z
#
# Youngs Moduli (GPa) = 115.51372 97.27233 93.75592
#
# Poissons Ratio (x) = 0.13699 0.22100
# Poissons Ratio (y) = 0.16268 0.27595
# Poissons Ratio (z) = 0.27228 0.28630
#
# Static dielectric constant tensor:
#      x y z
#    x 4.966770 0.000000 0.000000 
#    y 0.000000 4.119490 0.000000 
#    z 0.000000 0.000000 3.817180 
# 
# 
# High freq. dielectric constant tensor:
#      x y z
#    x 1.898370 0.000000 0.000000 
#    y 0.000000 1.899890 0.000000 
#    z 0.000000 0.000000 1.859460 
# 
# From -- ./inp_files/14058.got.cif
#   From: 2010.03.12/outbox.cif.g09.slc.cpg/sg39_8_cif.got.tgz:14058.got - 2010.04.14 02:53:20.
