data_PCOD8182683
_publ_section_title
;
Structure prediction by ZEFSAII (Michael W. Deem and Ramdas Pophale) SiO2 
 PCOD8182683
Probable space group: A M A 2
;
_chemical_formula_sum "Si O2"
_cell_formula_units_Z 56
_cell_length_a 9.405190
_cell_length_b 18.967116
_cell_length_c 17.645358
_cell_angle_alpha 90.000000
_cell_angle_beta 90.000000
_cell_angle_gamma 90.000000
_cell_volume 3147.743587
_symmetry_space_group_name_H-M "A M A 2"
_symmetry_group_IT_number 40
_symmetry_cell_setting 'orthorhombic'
loop_
_space_group_symop_operation_xyz
x,y,z
-x,-y,z
1/2-x,y,z
1/2+x,-y,z
x,1/2+y,1/2+z
-x,1/2-y,1/2+z
1/2-x,1/2+y,1/2+z
1/2+x,1/2-y,1/2+z
loop_
_atom_site_type_symbol
_atom_site_label
_atom_site_fract_x
_atom_site_fract_y
_atom_site_fract_z
Si Si1 0.418479 0.292409 0.809530
Si Si2 0.586766 0.571419 0.714939
Si Si3 0.095332 0.439366 0.168643
Si Si4 0.913767 0.703769 0.413025
Si Si5 0.080248 0.783131 0.678306
Si Si6 0.905232 0.560944 0.346094
Si Si7 0.412692 0.821917 0.086061
O O1 0.250000 0.279055 0.811159
O O2 0.451586 0.372298 0.781813
O O3 0.488227 0.272146 0.891533
O O4 0.495537 0.238660 0.752969
O O5 0.500000 0.500000 0.726510
O O6 0.750000 0.549613 0.721297
O O7 0.554900 0.605783 0.632152
O O8 0.250000 0.445603 0.130584
O O9 0.033264 0.361757 0.154573
O O10 0.107318 0.453324 0.257592
O O11 0.000000 0.500000 0.130035
O O12 0.750000 0.725541 0.399259
O O13 0.965217 0.639255 0.359856
O O14 0.935380 0.672192 0.496826
O O15 0.250000 0.777940 0.692567
O O16 0.028968 0.735303 0.609546
O O17 0.750000 0.556241 0.384770
O O18 0.000000 0.500000 0.384500
O O19 0.250000 0.798685 0.106172
#
# Coordination Sequence:
#
# PCOD8182683 Si02
#       7
#     8   8   8   8   8   8   8
#     4  10  20  33  52  77 103 131 171 218 260 302
#     4   9  19  35  53  77 105 135 172 217 264 310
#     4   9  17  28  44  68  95 123 157 196 239 284
#     4  10  19  34  52  72 104 140 172 208 255 308
#     4  10  18  32  51  72  98 129 168 209 250 300
#     4   9  17  29  43  66  98 130 161 195 235 284
#     4   9  20  35  51  74 104 136 168 209 260 308
#
# _framework density 17.790521999999999
#
# number of rings (size 3 to 8) (size 9 to 14) (size 15 to 20)
#    0.000    2.571    1.429    1.714    0.000    5.714 
#    0.000    0.000    0.000    0.857    0.000    0.000 
#    0.000    0.000    0.000    0.000    0.000    0.000 
#
# Total GULP energy -346925.145806 kJ/mol
# GULP energy per Si atom -12390.183779 kJ/mol
# Density = 1.775003 g / cm^3
# Si number density = 17.790522 Si / 1000 Ang^3
#
#
#
# Elastic Constant Matrix: (Units=GPa)
#
#
# Indices 1 2 3 4 5 6 
#
# 1 87.7540 72.9214 24.1620 0.0000 0.0000 0.0000
# 2 72.9214 140.3631 26.0929 0.0000 0.0000 0.0000
# 3 24.1620 26.0929 43.8315 0.0000 0.0000 0.0000
# 4 0.0000 0.0000 0.0000 14.8052 0.0000 0.0000
# 5 0.0000 0.0000 0.0000 0.0000 19.6727 0.0000
# 6 0.0000 0.0000 0.0000 0.0000 0.0000 36.5738
#
#
#
# Elastic Compliance Matrix: (Units=1/GPa)
#
#
# Indices 1 2 3 4 5 6 
#
# 1 0.021284 -0.009981 -0.005791 0.000000 0.000000 0.000000
# 2 -0.009981 0.012691 -0.002053 0.000000 0.000000 0.000000
# 3 -0.005791 -0.002053 0.027229 0.000000 0.000000 0.000000
# 4 0.000000 0.000000 0.000000 0.067544 0.000000 0.000000
# 5 0.000000 0.000000 0.000000 0.000000 0.050832 0.000000
# 6 0.000000 0.000000 0.000000 0.000000 0.000000 0.027342
#
#
# Mechanical properties :
#
#
# Convention : Reuss Voigt Hill
#
# Bulk Modulus (GPa) = 39.13261 57.58902 48.36082
# Shear Modulus (GPa) = 19.91314 24.12848 22.02081
#
# Velocity S-wave (km/s) = 3.34924 3.68673 3.52203
# Velocity P-wave (km/s) = 6.08281 7.11080 6.61680
#
# Compressibility (1/GPa) = 0.02555413
#
# Stress axis : x y z
#
# Youngs Moduli (GPa) = 46.98408 78.79410 36.72520
#
# Poissons Ratio (x) = 0.78643 0.21268
# Poissons Ratio (y) = 0.46894 0.07541
# Poissons Ratio (z) = 0.27209 0.16178
#
# Static dielectric constant tensor:
#      x y z
#    x 3.586460 0.000000 0.000000 
#    y 0.000000 3.339750 0.000000 
#    z 0.000000 0.000000 3.105550 
# 
# 
# High freq. dielectric constant tensor:
#      x y z
#    x 1.692070 0.000000 0.000000 
#    y 0.000000 1.684910 0.000000 
#    z 0.000000 0.000000 1.652770 
# 
# From -- ./inp_files/22318.got.cif
#   From: 2010.03.12/outbox.cif.g09.slc.cpg/sg40_12_cif.got.tgz:22318.got - 2010.04.14 01:38:03.
