data_PCOD8182808
_publ_section_title
;
Structure prediction by ZEFSAII (Michael W. Deem and Ramdas Pophale) SiO2 
 PCOD8182808
Probable space group: A M A 2
;
_chemical_formula_sum "Si O2"
_cell_formula_units_Z 64
_cell_length_a 17.323663
_cell_length_b 11.987318
_cell_length_c 16.271975
_cell_angle_alpha 90.000000
_cell_angle_beta 90.000000
_cell_angle_gamma 90.000000
_cell_volume 3379.107603
_symmetry_space_group_name_H-M "A M A 2"
_symmetry_group_IT_number 40
_symmetry_cell_setting 'orthorhombic'
loop_
_space_group_symop_operation_xyz
x,y,z
-x,-y,z
1/2-x,y,z
1/2+x,-y,z
x,1/2+y,1/2+z
-x,1/2-y,1/2+z
1/2-x,1/2+y,1/2+z
1/2+x,1/2-y,1/2+z
loop_
_atom_site_type_symbol
_atom_site_label
_atom_site_fract_x
_atom_site_fract_y
_atom_site_fract_z
Si Si1 0.162536 0.953968 0.523200
Si Si2 0.338605 0.135628 0.662292
Si Si3 0.082275 0.303140 0.549516
Si Si4 0.158374 0.998833 0.812720
Si Si5 0.594756 0.272206 0.572927
Si Si6 0.660067 0.238784 0.748139
Si Si7 0.339016 0.017555 0.996100
Si Si8 0.339337 0.654262 0.916279
O O1 0.250000 0.910064 0.516736
O O2 0.107186 0.847955 0.530613
O O3 0.152164 0.029660 0.603218
O O4 0.139897 0.027450 0.442858
O O5 0.250000 0.174745 0.666060
O O6 0.388727 0.239058 0.630794
O O7 0.370284 0.096893 0.751415
O O8 0.114625 0.428439 0.550672
O O9 0.109772 0.242142 0.466608
O O10 0.990777 0.311027 0.552373
O O11 0.250000 0.998627 0.812365
O O12 0.129291 0.878841 0.782078
O O13 0.126288 0.021151 0.903714
O O14 0.608704 0.270051 0.670300
O O15 0.653705 0.360604 0.534715
O O16 0.750000 0.232153 0.722187
O O17 0.647014 0.331565 0.819103
O O18 0.250000 0.981181 0.994526
O O19 0.250000 0.679141 0.939599
#
# Coordination Sequence:
#
# PCOD8182808 Si02
#       8
#     8   8   8   8   8   8   8   8
#     4   9  17  33  57  85 112 145 189 238 284 337
#     4   9  17  33  59  88 113 143 191 248 282 332
#     4  11  22  37  55  85 123 155 193 232 303 363
#     4   9  17  33  61  90 109 137 198 254 285 325
#     4  12  24  36  54  88 126 154 184 238 311 359
#     4  10  18  36  62  88 111 150 208 247 274 341
#     4  11  22  40  63  83 110 157 203 246 291 353
#     4   9  18  35  64  88 108 149 207 248 273 333
#
# _framework density 18.939910999999999
#
# number of rings (size 3 to 8) (size 9 to 14) (size 15 to 20)
#    0.000    2.000    2.500    3.375    0.000    2.000 
#    2.250    1.250    2.750    3.000    0.000    0.000 
#    0.000    0.000    0.000    0.000    0.000    0.000 
#
# Total GULP energy -396832.866405 kJ/mol
# GULP energy per Si atom -12401.027075 kJ/mol
# Density = 1.889680 g / cm^3
# Si number density = 18.939911 Si / 1000 Ang^3
#
#
#
# Elastic Constant Matrix: (Units=GPa)
#
#
# Indices 1 2 3 4 5 6 
#
# 1 57.7041 17.6638 23.1504 0.0000 0.0000 0.0000
# 2 17.6638 90.7342 54.7039 0.0000 0.0000 0.0000
# 3 23.1504 54.7039 115.9918 0.0000 0.0000 0.0000
# 4 0.0000 0.0000 0.0000 31.7182 0.0000 0.0000
# 5 0.0000 0.0000 0.0000 0.0000 16.2580 0.0000
# 6 0.0000 0.0000 0.0000 0.0000 0.0000 22.0018
#
#
#
# Elastic Compliance Matrix: (Units=1/GPa)
#
#
# Indices 1 2 3 4 5 6 
#
# 1 0.019090 -0.001983 -0.002875 0.000000 0.000000 0.000000
# 2 -0.001983 0.015606 -0.006964 0.000000 0.000000 0.000000
# 3 -0.002875 -0.006964 0.012480 0.000000 0.000000 0.000000
# 4 0.000000 0.000000 0.000000 0.031528 0.000000 0.000000
# 5 0.000000 0.000000 0.000000 0.000000 0.061508 0.000000
# 6 0.000000 0.000000 0.000000 0.000000 0.000000 0.045451
#
#
# Mechanical properties :
#
#
# Convention : Reuss Voigt Hill
#
# Bulk Modulus (GPa) = 42.49671 50.60738 46.55205
# Shear Modulus (GPa) = 23.02548 25.25641 24.14094
#
# Velocity S-wave (km/s) = 3.49049 3.65568 3.57404
# Velocity P-wave (km/s) = 6.22343 6.67807 6.45475
#
# Compressibility (1/GPa) = 0.02353123
#
# Stress axis : x y z
#
# Youngs Moduli (GPa) = 52.38284 64.07759 80.13092
#
# Poissons Ratio (x) = 0.12708 0.23037
# Poissons Ratio (y) = 0.10388 0.55806
# Poissons Ratio (z) = 0.15059 0.44626
#
# Static dielectric constant tensor:
#      x y z
#    x 3.162130 0.000000 0.000000 
#    y 0.000000 3.414620 0.000000 
#    z 0.000000 0.000000 3.596710 
# 
# 
# High freq. dielectric constant tensor:
#      x y z
#    x 1.711650 0.000000 0.000000 
#    y 0.000000 1.730860 0.000000 
#    z 0.000000 0.000000 1.733870 
# 
# From -- ./inp_files/21198.got.cif
#   From: 2010.03.12/outbox.cif.g09.slc.cpg/sg40_11_cif.got.tgz:21198.got - 2010.04.14 01:38:03.
