data_PCOD8182807
_publ_section_title
;
Structure prediction by ZEFSAII (Michael W. Deem and Ramdas Pophale) SiO2 
 PCOD8182807
Probable space group: A M A 2
;
_chemical_formula_sum "Si O2"
_cell_formula_units_Z 64
_cell_length_a 9.079952
_cell_length_b 23.496246
_cell_length_c 15.369228
_cell_angle_alpha 90.000000
_cell_angle_beta 90.000000
_cell_angle_gamma 90.000000
_cell_volume 3278.944656
_symmetry_space_group_name_H-M "A M A 2"
_symmetry_group_IT_number 40
_symmetry_cell_setting 'orthorhombic'
loop_
_space_group_symop_operation_xyz
x,y,z
-x,-y,z
1/2-x,y,z
1/2+x,-y,z
x,1/2+y,1/2+z
-x,1/2-y,1/2+z
1/2-x,1/2+y,1/2+z
1/2+x,1/2-y,1/2+z
loop_
_atom_site_type_symbol
_atom_site_label
_atom_site_fract_x
_atom_site_fract_y
_atom_site_fract_z
Si Si1 0.080050 0.379693 0.457420
Si Si2 0.075553 0.874237 0.764318
Si Si3 0.924203 0.940430 0.113111
Si Si4 0.580320 0.745235 0.195113
Si Si5 0.076817 0.441362 0.098475
Si Si6 0.080352 0.752705 0.015956
Si Si7 0.076879 0.355113 0.946470
Si Si8 0.917900 0.364564 0.775802
O O1 0.250000 0.397551 0.471784
O O2 0.023486 0.394196 0.359755
O O3 0.060278 0.312538 0.468345
O O4 0.979311 0.415355 0.522101
O O5 0.250000 0.870739 0.763231
O O6 0.017011 0.811104 0.741517
O O7 0.019007 0.918830 0.691954
O O8 0.750000 0.948323 0.107462
O O9 0.971334 0.897835 0.190103
O O10 0.000000 0.000000 0.133189
O O11 0.750000 0.737249 0.165100
O O12 0.565056 0.797165 0.261720
O O13 0.483727 0.758660 0.111695
O O14 0.250000 0.451595 0.099574
O O15 0.000000 0.500000 0.074726
O O16 0.031960 0.395375 0.026282
O O17 0.250000 0.734622 0.021302
O O18 0.995377 0.706170 0.959673
O O19 0.250000 0.347355 0.939571
O O20 0.017609 0.382993 0.857297
O O21 0.750000 0.380738 0.797245
#
# Coordination Sequence:
#
# PCOD8182807 Si02
#       8
#     8   8   8   8   8   8   8   8
#     4  10  21  38  62  89 120 157 196 241 294 354
#     4   9  18  36  61  85 115 154 192 234 292 354
#     4  11  24  42  63  86 118 158 201 250 301 354
#     4  10  18  36  62  86 120 158 191 233 297 362
#     4  10  22  40  60  82 111 152 198 244 295 345
#     4  11  21  34  58  92 125 155 194 242 294 351
#     4  11  23  39  61  87 119 159 199 243 296 358
#     4  10  22  39  62  89 118 155 195 243 302 354
#
# _framework density 19.518474999999999
#
# number of rings (size 3 to 8) (size 9 to 14) (size 15 to 20)
#    0.000    1.750    2.500    1.875    0.000    6.000 
#    0.000    5.000    0.000    0.000    0.000    0.000 
#    0.000    0.000    0.000    0.000    0.000    0.000 
#
# Total GULP energy -396904.744580 kJ/mol
# GULP energy per Si atom -12403.273268 kJ/mol
# Density = 1.947405 g / cm^3
# Si number density = 19.518475 Si / 1000 Ang^3
#
#
#
# Elastic Constant Matrix: (Units=GPa)
#
#
# Indices 1 2 3 4 5 6 
#
# 1 65.7298 32.5251 42.5621 0.0000 0.0000 0.0000
# 2 32.5251 77.2838 18.7845 0.0000 0.0000 0.0000
# 3 42.5621 18.7845 126.1023 0.0000 0.0000 0.0000
# 4 0.0000 0.0000 0.0000 9.9386 0.0000 0.0000
# 5 0.0000 0.0000 0.0000 0.0000 32.7644 0.0000
# 6 0.0000 0.0000 0.0000 0.0000 0.0000 28.1502
#
#
#
# Elastic Compliance Matrix: (Units=1/GPa)
#
#
# Indices 1 2 3 4 5 6 
#
# 1 0.023720 -0.008339 -0.006764 0.000000 0.000000 0.000000
# 2 -0.008339 0.016357 0.000378 0.000000 0.000000 0.000000
# 3 -0.006764 0.000378 0.010157 0.000000 0.000000 0.000000
# 4 0.000000 0.000000 0.000000 0.100618 0.000000 0.000000
# 5 0.000000 0.000000 0.000000 0.000000 0.030521 0.000000
# 6 0.000000 0.000000 0.000000 0.000000 0.000000 0.035524
#
#
# Mechanical properties :
#
#
# Convention : Reuss Voigt Hill
#
# Bulk Modulus (GPa) = 48.11308 50.76213 49.43760
# Shear Modulus (GPa) = 19.74155 25.85359 22.79757
#
# Velocity S-wave (km/s) = 3.18375 3.64341 3.42131
# Velocity P-wave (km/s) = 6.18211 6.61536 6.40240
#
# Compressibility (1/GPa) = 0.02078437
#
# Stress axis : x y z
#
# Youngs Moduli (GPa) = 42.15907 61.13676 98.45739
#
# Poissons Ratio (x) = 0.50979 0.66594
# Poissons Ratio (y) = 0.35154 -0.03720
# Poissons Ratio (z) = 0.28515 -0.02310
#
# Static dielectric constant tensor:
#      x y z
#    x 3.427690 0.000000 0.000000 
#    y 0.000000 3.533850 0.000000 
#    z 0.000000 0.000000 3.764790 
# 
# 
# High freq. dielectric constant tensor:
#      x y z
#    x 1.745150 0.000000 0.000000 
#    y 0.000000 1.758810 0.000000 
#    z 0.000000 0.000000 1.774220 
# 
# From -- ./inp_files/15579.got.cif
#   From: 2010.03.12/outbox.cif.g09.slc.cpg/sg40_8_cif.got.tgz:15579.got - 2010.04.14 01:38:03.
