data_PCOD8182056
_publ_section_title
;
Structure prediction by ZEFSAII (Michael W. Deem and Ramdas Pophale) SiO2 
 PCOD8182056
Probable space group: A B M 2
;
_chemical_formula_sum "Si O2"
_cell_formula_units_Z 40
_cell_length_a 8.304502
_cell_length_b 24.566116
_cell_length_c 9.378226
_cell_angle_alpha 90.000000
_cell_angle_beta 90.000000
_cell_angle_gamma 90.000000
_cell_volume 1913.245879
_symmetry_space_group_name_H-M "A B M 2"
_symmetry_group_IT_number 39
_symmetry_cell_setting 'orthorhombic'
loop_
_space_group_symop_operation_xyz
x,y,z
-x,-y,z
-x,1/2+y,z
x,1/2-y,z
x,1/2+y,1/2+z
-x,1/2-y,1/2+z
-x,y,1/2+z
x,-y,1/2+z
loop_
_atom_site_type_symbol
_atom_site_label
_atom_site_fract_x
_atom_site_fract_y
_atom_site_fract_z
Si Si1 0.844658 0.470233 0.684370
Si Si2 0.288224 0.250000 0.232909
Si Si3 0.423494 0.750000 0.427886
Si Si4 0.663684 0.969215 0.908940
Si Si5 0.070787 0.649520 0.662188
Si Si6 0.783473 0.851977 0.858023
O O1 0.808175 0.500686 0.830201
O O2 0.694476 0.474847 0.576836
O O3 0.870410 0.407646 0.724336
O O4 0.000000 0.500000 0.615901
O O5 0.390632 0.250000 0.378751
O O6 0.175722 0.197200 0.231643
O O7 0.411668 0.250000 0.099285
O O8 0.339514 0.697227 0.363238
O O9 0.672034 0.906062 0.860405
O O10 0.500000 0.000000 0.868389
O O11 0.089467 0.649678 0.490314
O O12 0.884531 0.654760 0.711356
#
# Coordination Sequence:
#
# PCOD8182056 Si02
#       6
#     8   4   4   8   8   8
#     4  11  22  40  62  90 122 161 210 252 301 369
#     4  10  23  42  62  90 124 158 205 254 308 364
#     4  10  23  42  60  90 126 158 201 254 310 366
#     4  11  24  39  60  91 127 163 200 256 311 367
#     4  10  22  39  63  89 118 159 205 258 297 361
#     4  10  22  41  62  90 122 158 207 254 303 366
#
# _framework density 20.906877999999999
#
# number of rings (size 3 to 8) (size 9 to 14) (size 15 to 20)
#    0.000    1.600    2.000    1.800    5.600    1.600 
#    3.600    0.000    0.000    0.000    0.000    0.000 
#    0.000    0.000    0.000    0.000    0.000    0.000 
#
# Total GULP energy -247996.214591 kJ/mol
# GULP energy per Si atom -12399.810730 kJ/mol
# Density = 2.085929 g / cm^3
# Si number density = 20.906878 Si / 1000 Ang^3
#
#
#
# Elastic Constant Matrix: (Units=GPa)
#
#
# Indices 1 2 3 4 5 6 
#
# 1 92.3068 50.5035 22.3879 0.0000 0.0000 0.0000
# 2 50.5035 180.5254 26.0296 0.0000 0.0000 0.0000
# 3 22.3879 26.0296 36.5191 0.0000 0.0000 0.0000
# 4 0.0000 0.0000 0.0000 16.7409 0.0000 0.0000
# 5 0.0000 0.0000 0.0000 0.0000 38.0384 0.0000
# 6 0.0000 0.0000 0.0000 0.0000 0.0000 28.0892
#
#
#
# Elastic Compliance Matrix: (Units=1/GPa)
#
#
# Indices 1 2 3 4 5 6 
#
# 1 0.014042 -0.002995 -0.006474 0.000000 0.000000 0.000000
# 2 -0.002995 0.006813 -0.003020 0.000000 0.000000 0.000000
# 3 -0.006474 -0.003020 0.033504 0.000000 0.000000 0.000000
# 4 0.000000 0.000000 0.000000 0.059734 0.000000 0.000000
# 5 0.000000 0.000000 0.000000 0.000000 0.026289 0.000000
# 6 0.000000 0.000000 0.000000 0.000000 0.000000 0.035601
#
#
# Mechanical properties :
#
#
# Convention : Reuss Voigt Hill
#
# Bulk Modulus (GPa) = 34.03465 56.35482 45.19474
# Shear Modulus (GPa) = 23.72432 30.60237 27.16335
#
# Velocity S-wave (km/s) = 3.37228 3.83004 3.60843
# Velocity P-wave (km/s) = 5.61048 6.82442 6.24701
#
# Compressibility (1/GPa) = 0.02938182
#
# Stress axis : x y z
#
# Youngs Moduli (GPa) = 71.21382 146.78523 29.84709
#
# Poissons Ratio (x) = 0.43962 0.19322
# Poissons Ratio (y) = 0.21328 0.09013
# Poissons Ratio (z) = 0.46103 0.44326
#
# Static dielectric constant tensor:
#      x y z
#    x 3.523170 0.000000 0.000000 
#    y 0.000000 4.003020 0.000000 
#    z 0.000000 0.000000 3.659570 
# 
# 
# High freq. dielectric constant tensor:
#      x y z
#    x 1.803950 0.000000 0.000000 
#    y 0.000000 1.841180 0.000000 
#    z 0.000000 0.000000 1.812240 
# 
# From -- ./inp_files/2126.got.cif
#   From: 2010.03.12/outbox.cif.g09.slc.cpg/sg39_2_cif.got.tgz:2126.got - 2010.04.14 02:53:20.
