data_PCOD8182452
_publ_section_title
;
Structure prediction by ZEFSAII (Michael W. Deem and Ramdas Pophale) SiO2 
 PCOD8182452
Probable space group: A M A 2
;
_chemical_formula_sum "Si O2"
_cell_formula_units_Z 64
_cell_length_a 8.828939
_cell_length_b 18.392703
_cell_length_c 26.265263
_cell_angle_alpha 90.000000
_cell_angle_beta 90.000000
_cell_angle_gamma 90.000000
_cell_volume 4265.164916
_symmetry_space_group_name_H-M "A M A 2"
_symmetry_group_IT_number 40
_symmetry_cell_setting 'orthorhombic'
loop_
_space_group_symop_operation_xyz
x,y,z
-x,-y,z
1/2-x,y,z
1/2+x,-y,z
x,1/2+y,1/2+z
-x,1/2-y,1/2+z
1/2-x,1/2+y,1/2+z
1/2+x,1/2-y,1/2+z
loop_
_atom_site_type_symbol
_atom_site_label
_atom_site_fract_x
_atom_site_fract_y
_atom_site_fract_z
Si Si1 0.916810 0.290415 0.315980
Si Si2 0.930710 0.422629 0.253758
Si Si3 0.069605 0.335819 0.161714
Si Si4 0.427378 0.575607 0.958288
Si Si5 0.429933 0.578986 0.765786
Si Si6 0.429403 0.077597 0.574117
Si Si7 0.420597 0.795689 0.211128
Si Si8 0.572307 0.334289 0.864807
O O1 0.750000 0.294351 0.339835
O O2 0.975078 0.371257 0.301889
O O3 0.915389 0.246978 0.263622
O O4 0.019399 0.248945 0.357081
O O5 0.750000 0.425668 0.246192
O O6 0.000000 0.500000 0.267072
O O7 0.004031 0.392850 0.202218
O O8 0.250000 0.337171 0.163815
O O9 0.009043 0.359895 0.106717
O O10 0.011042 0.253812 0.170750
O O11 0.500000 0.500000 0.942157
O O12 0.250000 0.565481 0.951863
O O13 0.489103 0.636527 0.919012
O O14 0.469429 0.597475 0.015766
O O15 0.500000 0.500000 0.760105
O O16 0.250000 0.574706 0.762245
O O17 0.492028 0.628326 0.719339
O O18 0.485462 0.613220 0.819459
O O19 0.250000 0.075314 0.584092
O O20 0.500000 0.000000 0.589018
O O21 0.250000 0.810395 0.191197
O O22 0.750000 0.332628 0.864198
#
# Coordination Sequence:
#
# PCOD8182452 Si02
#       8
#     8   8   8   8   8   8   8   8
#     4   8  16  28  41  58  80 106 135 168 204 244
#     4  10  19  30  43  61  84 110 141 172 206 246
#     4  11  20  30  44  61  82 109 141 173 209 250
#     4   9  18  30  43  60  82 109 141 176 209 242
#     4  10  18  27  41  62  87 114 143 174 208 246
#     4  10  19  31  44  59  82 110 141 176 211 244
#     4   9  17  30  44  59  81 108 139 173 208 246
#     4   9  17  28  42  60  82 110 143 174 206 244
#
# _framework density 15.005281
#
# number of rings (size 3 to 8) (size 9 to 14) (size 15 to 20)
#    0.000    2.500    0.000    4.125    0.000    5.000 
#    0.000    0.000    0.000    0.000    0.000    0.000 
#    0.000    1.000    0.000    6.500    0.000    5.500 
#
# Total GULP energy -396701.012744 kJ/mol
# GULP energy per Si atom -12396.906648 kJ/mol
# Density = 1.497113 g / cm^3
# Si number density = 15.005281 Si / 1000 Ang^3
#
#
#
# Elastic Constant Matrix: (Units=GPa)
#
#
# Indices 1 2 3 4 5 6 
#
# 1 74.8371 44.9139 35.2763 0.0000 0.0000 0.0000
# 2 44.9139 114.9056 55.2500 0.0000 0.0000 0.0000
# 3 35.2763 55.2500 76.8672 0.0000 0.0000 0.0000
# 4 0.0000 0.0000 0.0000 25.0505 0.0000 0.0000
# 5 0.0000 0.0000 0.0000 0.0000 17.6132 0.0000
# 6 0.0000 0.0000 0.0000 0.0000 0.0000 29.0370
#
#
#
# Elastic Compliance Matrix: (Units=1/GPa)
#
#
# Indices 1 2 3 4 5 6 
#
# 1 0.018670 -0.004856 -0.005078 0.000000 0.000000 0.000000
# 2 -0.004856 0.014562 -0.008238 0.000000 0.000000 0.000000
# 3 -0.005078 -0.008238 0.021261 0.000000 0.000000 0.000000
# 4 0.000000 0.000000 0.000000 0.039919 0.000000 0.000000
# 5 0.000000 0.000000 0.000000 0.000000 0.056776 0.000000
# 6 0.000000 0.000000 0.000000 0.000000 0.000000 0.034439
#
#
# Mechanical properties :
#
#
# Convention : Reuss Voigt Hill
#
# Bulk Modulus (GPa) = 55.09877 59.72116 57.40997
# Shear Modulus (GPa) = 21.92773 23.08480 22.50626
#
# Velocity S-wave (km/s) = 3.82689 3.92656 3.87704
# Velocity P-wave (km/s) = 7.50507 7.77455 7.64100
#
# Compressibility (1/GPa) = 0.01814922
#
# Stress axis : x y z
#
# Youngs Moduli (GPa) = 53.56061 68.67100 47.03408
#
# Poissons Ratio (x) = 0.33349 0.23883
# Poissons Ratio (y) = 0.26011 0.38748
# Poissons Ratio (z) = 0.27197 0.56573
#
# Static dielectric constant tensor:
#      x y z
#    x 3.025950 0.000000 0.000000 
#    y 0.000000 3.021730 0.000000 
#    z 0.000000 0.000000 2.839630 
# 
# 
# High freq. dielectric constant tensor:
#      x y z
#    x 1.587840 0.000000 0.000000 
#    y 0.000000 1.565030 0.000000 
#    z 0.000000 0.000000 1.540160 
# 
# From -- ./inp_files/24390.got.cif
#   From: 2010.03.12/outbox.cif.g09.slc.cpg/sg40_13_cif.got.tgz:24390.got - 2010.04.14 01:38:03.
