data_PCOD8182062
_publ_section_title
;
Structure prediction by ZEFSAII (Michael W. Deem and Ramdas Pophale) SiO2 
 PCOD8182062
Probable space group: A B M 2
;
_chemical_formula_sum "Si O2"
_cell_formula_units_Z 40
_cell_length_a 11.397960
_cell_length_b 15.641082
_cell_length_c 9.572767
_cell_angle_alpha 90.000000
_cell_angle_beta 90.000000
_cell_angle_gamma 90.000000
_cell_volume 1706.598697
_symmetry_space_group_name_H-M "A B M 2"
_symmetry_group_IT_number 39
_symmetry_cell_setting 'orthorhombic'
loop_
_space_group_symop_operation_xyz
x,y,z
-x,-y,z
-x,1/2+y,z
x,1/2-y,z
x,1/2+y,1/2+z
-x,1/2-y,1/2+z
-x,y,1/2+z
x,-y,1/2+z
loop_
_atom_site_type_symbol
_atom_site_label
_atom_site_fract_x
_atom_site_fract_y
_atom_site_fract_z
Si Si1 0.654589 0.250000 0.228550
Si Si2 0.469271 0.250000 0.449592
Si Si3 0.751276 0.031136 0.600042
Si Si4 0.135942 0.373588 0.692935
Si Si5 0.389876 0.936933 0.863388
Si Si6 0.963816 0.598850 0.969429
O O1 0.602165 0.250000 0.386634
O O2 0.736767 0.169099 0.202118
O O3 0.544722 0.250000 0.118720
O O4 0.411974 0.337900 0.396643
O O5 0.649951 0.065825 0.701135
O O6 0.834669 0.106166 0.541714
O O7 0.837215 0.974010 0.695882
O O8 0.704815 0.973925 0.471149
O O9 0.062778 0.348495 0.554315
O O10 0.050427 0.352894 0.822221
O O11 0.500000 0.000000 0.874652
O O12 0.000000 0.500000 0.951815
#
# Coordination Sequence:
#
# PCOD8182062 Si02
#       6
#     4   4   8   8   8   8
#     4  12  28  48  68 102 150 198 250 312 376 452
#     4  12  30  48  72 106 154 200 250 314 378 446
#     4  11  22  42  72 104 142 188 247 306 373 453
#     4  11  23  43  66 104 143 185 243 307 370 450
#     4  12  26  45  73 109 149 204 256 310 378 455
#     4  10  22  39  71 102 137 186 245 304 378 448
#
# _framework density 23.438433
#
# number of rings (size 3 to 8) (size 9 to 14) (size 15 to 20)
#    0.000    0.800    4.000    3.600    5.600    0.800 
#    0.000    1.000    0.000    0.000    0.000    0.000 
#    0.000    0.000    0.000    0.000    0.000    0.000 
#
# Total GULP energy -247820.602507 kJ/mol
# GULP energy per Si atom -12391.030125 kJ/mol
# Density = 2.338509 g / cm^3
# Si number density = 23.438433 Si / 1000 Ang^3
#
#
#
# Elastic Constant Matrix: (Units=GPa)
#
#
# Indices 1 2 3 4 5 6 
#
# 1 118.9261 16.8316 55.6168 0.0000 0.0000 0.0000
# 2 16.8316 63.8416 14.5526 0.0000 0.0000 0.0000
# 3 55.6168 14.5526 131.8528 0.0000 0.0000 0.0000
# 4 0.0000 0.0000 0.0000 9.2297 0.0000 0.0000
# 5 0.0000 0.0000 0.0000 0.0000 62.6999 0.0000
# 6 0.0000 0.0000 0.0000 0.0000 0.0000 -12.1812
#
#
#
# Elastic Compliance Matrix: (Units=1/GPa)
#
#
# Indices 1 2 3 4 5 6 
#
# 1 0.010680 -0.001835 -0.004303 0.000000 0.000000 0.000000
# 2 -0.001835 0.016383 -0.001034 0.000000 0.000000 0.000000
# 3 -0.004303 -0.001034 0.009513 0.000000 0.000000 0.000000
# 4 0.000000 0.000000 0.000000 0.108345 0.000000 0.000000
# 5 0.000000 0.000000 0.000000 0.000000 0.015949 0.000000
# 6 0.000000 0.000000 0.000000 0.000000 0.000000 -0.082094
#
#
# Mechanical properties :
#
#
# Convention : Reuss Voigt Hill
#
# Bulk Modulus (GPa) = 44.97753 54.29138 49.63445
# Shear Modulus (GPa) = 49.73512 27.12432 38.42972
#
# Velocity S-wave (km/s) = 4.61146 3.40554 4.05359
# Velocity P-wave (km/s) = 6.89821 6.21911 6.56744
#
# Compressibility (1/GPa) = 0.02223333
#
# Stress axis : x y z
#
# Youngs Moduli (GPa) = 93.62913 61.03765 105.11679
#
# Poissons Ratio (x) = 0.11201 0.45227
# Poissons Ratio (y) = 0.17182 0.10871
# Poissons Ratio (z) = 0.40285 0.06312
#
# Static dielectric constant tensor:
#      x y z
#    x 4.322130 0.000000 0.000000 
#    y 0.000000 3.992830 0.000000 
#    z 0.000000 0.000000 4.506640 
# 
# 
# High freq. dielectric constant tensor:
#      x y z
#    x 1.933490 0.000000 0.000000 
#    y 0.000000 1.900230 0.000000 
#    z 0.000000 0.000000 1.942470 
# 
# From -- ./inp_files/2557.got.cif
#   From: 2010.03.12/outbox.cif.g09.slc.cpg/sg39_2_cif.got.tgz:2557.got - 2010.04.14 02:53:20.
