data_PCOD8182226
_publ_section_title
;
Structure prediction by ZEFSAII (Michael W. Deem and Ramdas Pophale) SiO2 
 PCOD8182226
Probable space group: A B M 2
;
_chemical_formula_sum "Si O2"
_cell_formula_units_Z 48
_cell_length_a 9.520757
_cell_length_b 14.859532
_cell_length_c 15.801730
_cell_angle_alpha 90.000000
_cell_angle_beta 90.000000
_cell_angle_gamma 90.000000
_cell_volume 2235.533844
_symmetry_space_group_name_H-M "A B M 2"
_symmetry_group_IT_number 39
_symmetry_cell_setting 'orthorhombic'
loop_
_space_group_symop_operation_xyz
x,y,z
-x,-y,z
-x,1/2+y,z
x,1/2-y,z
x,1/2+y,1/2+z
-x,1/2-y,1/2+z
-x,y,1/2+z
x,-y,1/2+z
loop_
_atom_site_type_symbol
_atom_site_label
_atom_site_fract_x
_atom_site_fract_y
_atom_site_fract_z
Si Si1 0.164376 0.980989 0.676380
Si Si2 0.967257 0.601808 0.904977
Si Si3 0.769677 0.346384 0.825876
Si Si4 0.733411 0.851065 0.031810
Si Si5 0.237886 0.852370 0.260377
Si Si6 0.475550 0.395999 0.887509
O O1 0.195591 0.928487 0.763670
O O2 0.241822 0.924031 0.604304
O O3 0.242654 0.078425 0.681077
O O4 0.000000 0.000000 0.657976
O O5 0.114117 0.653650 0.899986
O O6 0.000000 0.500000 0.931463
O O7 0.893212 0.609401 0.813688
O O8 0.869665 0.650134 0.972785
O O9 0.775319 0.250000 0.777499
O O10 0.625521 0.350496 0.877650
O O11 0.714477 0.750000 0.068833
O O12 0.594133 0.876924 0.978712
O O13 0.211000 0.750000 0.229481
O O14 0.379798 0.855097 0.313740
O O15 0.500000 0.500000 0.872868
#
# Coordination Sequence:
#
# PCOD8182226 Si02
#       6
#     8   8   8   8   8   8
#     4  12  24  42  66 104 136 176 224 286 349 402
#     4  11  19  39  67  99 131 169 224 279 333 400
#     4  12  21  37  69 103 131 169 226 281 330 402
#     4  11  25  44  66  97 140 185 220 274 344 407
#     4  11  21  40  68  97 129 174 227 276 335 404
#     4  11  22  43  69  97 132 176 227 273 330 406
#
# _framework density 21.471381999999998
#
# number of rings (size 3 to 8) (size 9 to 14) (size 15 to 20)
#    0.000    0.667    5.000    6.000    0.000    0.667 
#    3.000    0.000    0.000    2.000    0.000    0.000 
#    0.000    0.000    0.000    0.000    0.000    0.000 
#
# Total GULP energy -297505.928784 kJ/mol
# GULP energy per Si atom -12396.080366 kJ/mol
# Density = 2.142251 g / cm^3
# Si number density = 21.471382 Si / 1000 Ang^3
#
#
#
# Elastic Constant Matrix: (Units=GPa)
#
#
# Indices 1 2 3 4 5 6 
#
# 1 147.6439 23.1414 34.5287 0.0000 0.0000 0.0000
# 2 23.1414 176.5947 34.8457 0.0000 0.0000 0.0000
# 3 34.5287 34.8457 77.6671 0.0000 0.0000 0.0000
# 4 0.0000 0.0000 0.0000 28.9418 0.0000 0.0000
# 5 0.0000 0.0000 0.0000 0.0000 4.4166 0.0000
# 6 0.0000 0.0000 0.0000 0.0000 0.0000 26.9806
#
#
#
# Elastic Compliance Matrix: (Units=1/GPa)
#
#
# Indices 1 2 3 4 5 6 
#
# 1 0.007580 -0.000360 -0.003208 0.000000 0.000000 0.000000
# 2 -0.000360 0.006230 -0.002635 0.000000 0.000000 0.000000
# 3 -0.003208 -0.002635 0.015484 0.000000 0.000000 0.000000
# 4 0.000000 0.000000 0.000000 0.034552 0.000000 0.000000
# 5 0.000000 0.000000 0.000000 0.000000 0.226420 0.000000
# 6 0.000000 0.000000 0.000000 0.000000 0.000000 0.037064
#
#
# Mechanical properties :
#
#
# Convention : Reuss Voigt Hill
#
# Bulk Modulus (GPa) = 59.21738 65.21525 62.21632
# Shear Modulus (GPa) = 14.47745 32.69380 23.58562
#
# Velocity S-wave (km/s) = 2.59948 3.90637 3.31791
# Velocity P-wave (km/s) = 6.05387 7.12638 6.61191
#
# Compressibility (1/GPa) = 0.01688693
#
# Stress axis : x y z
#
# Youngs Moduli (GPa) = 131.92980 160.51864 64.58337
#
# Poissons Ratio (x) = 0.05783 0.20719
# Poissons Ratio (y) = 0.04753 0.17017
# Poissons Ratio (z) = 0.42325 0.42295
#
# Static dielectric constant tensor:
#      x y z
#    x 4.441700 0.000000 0.000000 
#    y 0.000000 4.063080 0.000000 
#    z 0.000000 0.000000 3.585290 
# 
# 
# High freq. dielectric constant tensor:
#      x y z
#    x 1.851880 0.000000 0.000000 
#    y 0.000000 1.870170 0.000000 
#    z 0.000000 0.000000 1.799940 
# 
# From -- ./inp_files/11606.got.cif
#   From: 2010.03.12/outbox.cif.g09.slc.cpg/sg39_6_cif.got.tgz:11606.got - 2010.04.14 02:53:20.
