data_PCOD8182040
_publ_section_title
;
Structure prediction by ZEFSAII (Michael W. Deem and Ramdas Pophale) SiO2 
 PCOD8182040
Probable space group: A B M 2
;
_chemical_formula_sum "Si O2"
_cell_formula_units_Z 56
_cell_length_a 18.956549
_cell_length_b 15.997305
_cell_length_c 9.694506
_cell_angle_alpha 90.000000
_cell_angle_beta 90.000000
_cell_angle_gamma 90.000000
_cell_volume 2939.894776
_symmetry_space_group_name_H-M "A B M 2"
_symmetry_group_IT_number 39
_symmetry_cell_setting 'orthorhombic'
loop_
_space_group_symop_operation_xyz
x,y,z
-x,-y,z
-x,1/2+y,z
x,1/2-y,z
x,1/2+y,1/2+z
-x,1/2-y,1/2+z
-x,y,1/2+z
x,-y,1/2+z
loop_
_atom_site_type_symbol
_atom_site_label
_atom_site_fract_x
_atom_site_fract_y
_atom_site_fract_z
Si Si1 0.697232 0.405774 0.323060
Si Si2 0.854450 0.587513 0.797983
Si Si3 0.534527 0.914016 0.510651
Si Si4 0.942739 0.250000 0.282728
Si Si5 0.312115 0.955437 0.026225
Si Si6 0.157164 0.577083 0.981509
Si Si7 0.080870 0.750000 0.959582
Si Si8 0.448634 0.338909 0.786089
O O1 0.776979 0.371131 0.321011
O O2 0.683703 0.452174 0.466044
O O3 0.635867 0.337562 0.313122
O O4 0.689759 0.467443 0.191065
O O5 0.905907 0.664322 0.835998
O O6 0.867222 0.504159 0.891477
O O7 0.865366 0.559073 0.639453
O O8 0.617951 0.906076 0.476479
O O9 0.524803 0.906488 0.675365
O O10 0.492190 0.844421 0.427242
O O11 0.500000 0.000000 0.461450
O O12 0.019500 0.250000 0.347879
O O13 0.947139 0.250000 0.116577
O O14 0.241727 0.909929 0.970081
O O15 0.124896 0.665011 0.930084
O O16 0.465185 0.250000 0.718491
#
# Coordination Sequence:
#
# PCOD8182040 Si02
#       8
#     8   8   8   4   8   8   4   8
#     4   9  18  33  55  78 104 139 183 226 273 325
#     4   9  19  36  59  84 112 145 187 229 276 334
#     4  11  21  36  55  75 105 145 189 227 276 330
#     4  10  22  38  60  88 115 148 182 226 277 340
#     4   9  18  33  55  80 101 143 189 227 269 326
#     4   9  19  38  58  83 114 149 187 232 274 335
#     4  10  22  40  60  86 119 148 186 226 281 340
#     4  11  23  35  50  77 110 142 178 234 282 326
#
# _framework density 19.048300999999999
#
# number of rings (size 3 to 8) (size 9 to 14) (size 15 to 20)
#    0.000    2.286    1.429    0.857    3.000    1.714 
#    9.000    2.857    0.000    0.000    1.857    0.000 
#    0.000    0.000    0.000    0.000    0.000    0.000 
#
# Total GULP energy -346886.109602 kJ/mol
# GULP energy per Si atom -12388.789629 kJ/mol
# Density = 1.900495 g / cm^3
# Si number density = 19.048301 Si / 1000 Ang^3
#
#
#
# Elastic Constant Matrix: (Units=GPa)
#
#
# Indices 1 2 3 4 5 6 
#
# 1 109.5796 54.2455 44.3719 0.0000 0.0000 0.0000
# 2 54.2455 115.2838 40.5790 0.0000 0.0000 0.0000
# 3 44.3719 40.5790 63.7231 0.0000 0.0000 0.0000
# 4 0.0000 0.0000 0.0000 21.9090 0.0000 0.0000
# 5 0.0000 0.0000 0.0000 0.0000 29.0471 0.0000
# 6 0.0000 0.0000 0.0000 0.0000 0.0000 26.6939
#
#
#
# Elastic Compliance Matrix: (Units=1/GPa)
#
#
# Indices 1 2 3 4 5 6 
#
# 1 0.014059 -0.004085 -0.007188 0.000000 0.000000 0.000000
# 2 -0.004085 0.012367 -0.005031 0.000000 0.000000 0.000000
# 3 -0.007188 -0.005031 0.023902 0.000000 0.000000 0.000000
# 4 0.000000 0.000000 0.000000 0.045643 0.000000 0.000000
# 5 0.000000 0.000000 0.000000 0.000000 0.034427 0.000000
# 6 0.000000 0.000000 0.000000 0.000000 0.000000 0.037462
#
#
# Mechanical properties :
#
#
# Convention : Reuss Voigt Hill
#
# Bulk Modulus (GPa) = 56.43447 62.99771 59.71609
# Shear Modulus (GPa) = 24.22784 25.48935 24.85860
#
# Velocity S-wave (km/s) = 3.57026 3.66203 3.61644
# Velocity P-wave (km/s) = 6.83279 7.14318 6.98971
#
# Compressibility (1/GPa) = 0.01771967
#
# Stress axis : x y z
#
# Youngs Moduli (GPa) = 71.13074 80.85851 41.83782
#
# Poissons Ratio (x) = 0.33031 0.30073
# Poissons Ratio (y) = 0.29057 0.21049
# Poissons Ratio (z) = 0.51129 0.40680
#
# Static dielectric constant tensor:
#      x y z
#    x 3.651260 0.000000 0.000000 
#    y 0.000000 3.249200 0.000000 
#    z 0.000000 0.000000 3.451840 
# 
# 
# High freq. dielectric constant tensor:
#      x y z
#    x 1.746360 0.000000 0.000000 
#    y 0.000000 1.721260 0.000000 
#    z 0.000000 0.000000 1.738970 
# 
# From -- ./inp_files/3996.got.cif
#   From: 2010.03.12/outbox.cif.g09.slc.cpg/sg39_2_cif.got.tgz:3996.got - 2010.04.14 02:53:20.
