data_PCOD8182180
_publ_section_title
;
Structure prediction by ZEFSAII (Michael W. Deem and Ramdas Pophale) SiO2 
 PCOD8182180
Probable space group: A B M 2
;
_chemical_formula_sum "Si O2"
_cell_formula_units_Z 64
_cell_length_a 15.068595
_cell_length_b 16.815584
_cell_length_c 11.681236
_cell_angle_alpha 90.000000
_cell_angle_beta 90.000000
_cell_angle_gamma 90.000000
_cell_volume 2959.875974
_symmetry_space_group_name_H-M "A B M 2"
_symmetry_group_IT_number 39
_symmetry_cell_setting 'orthorhombic'
loop_
_space_group_symop_operation_xyz
x,y,z
-x,-y,z
-x,1/2+y,z
x,1/2-y,z
x,1/2+y,1/2+z
-x,1/2-y,1/2+z
-x,y,1/2+z
x,-y,1/2+z
loop_
_atom_site_type_symbol
_atom_site_label
_atom_site_fract_x
_atom_site_fract_y
_atom_site_fract_z
Si Si1 0.668539 0.412397 0.708740
Si Si2 0.585744 0.157393 0.907616
Si Si3 0.845952 0.341928 0.698401
Si Si4 0.269639 0.414029 0.785541
Si Si5 0.249216 0.839557 0.045337
Si Si6 0.389682 0.343481 0.975472
Si Si7 0.112994 0.420864 0.963209
Si Si8 0.080564 0.101538 0.422017
O O1 0.583684 0.387918 0.785161
O O2 0.745880 0.350016 0.745143
O O3 0.700737 0.499900 0.741901
O O4 0.647178 0.401067 0.574753
O O5 0.596447 0.250000 0.882105
O O6 0.494643 0.140958 0.973423
O O7 0.668700 0.118401 0.978365
O O8 0.873920 0.250000 0.685974
O O9 0.844284 0.388178 0.578637
O O10 0.910720 0.388529 0.785048
O O11 0.241308 0.367555 0.673850
O O12 0.348241 0.370527 0.854573
O O13 0.181074 0.410343 0.860450
O O14 0.280087 0.750000 0.049719
O O15 0.153565 0.844240 0.983862
O O16 0.367773 0.250000 0.998047
O O17 0.094622 0.513996 0.971227
O O18 0.020833 0.372611 0.946646
#
# Coordination Sequence:
#
# PCOD8182180 Si02
#       8
#     8   8   8   8   8   8   8   8
#     4  12  24  44  72  98 136 182 232 284 343 413
#     4  10  23  44  70  97 133 181 230 280 344 411
#     4  12  24  43  71  99 132 179 233 284 336 412
#     4  12  26  44  68 102 142 178 227 290 350 411
#     4  11  24  44  68  98 137 183 228 284 347 414
#     4  11  26  47  70 100 138 186 234 284 348 416
#     4  11  26  44  69  98 137 178 225 284 356 411
#     4  11  25  45  70  97 134 182 232 281 349 426
#
# _framework density 21.622527999999999
#
# number of rings (size 3 to 8) (size 9 to 14) (size 15 to 20)
#    0.000    0.750    3.750    2.625    5.250    3.000 
#    0.000    0.000    0.000    0.000    0.000    0.000 
#    0.000    0.000    0.000    0.000    0.000    0.000 
#
# Total GULP energy -396740.930172 kJ/mol
# GULP energy per Si atom -12398.154068 kJ/mol
# Density = 2.157331 g / cm^3
# Si number density = 21.622528 Si / 1000 Ang^3
#
#
#
# Elastic Constant Matrix: (Units=GPa)
#
#
# Indices 1 2 3 4 5 6 
#
# 1 125.6203 39.5283 42.6054 0.0000 0.0000 0.0000
# 2 39.5283 88.2114 46.5100 0.0000 0.0000 0.0000
# 3 42.6054 46.5100 131.7497 0.0000 0.0000 0.0000
# 4 0.0000 0.0000 0.0000 35.0805 0.0000 0.0000
# 5 0.0000 0.0000 0.0000 0.0000 25.4197 0.0000
# 6 0.0000 0.0000 0.0000 0.0000 0.0000 26.8551
#
#
#
# Elastic Compliance Matrix: (Units=1/GPa)
#
#
# Indices 1 2 3 4 5 6 
#
# 1 0.009663 -0.003296 -0.001961 0.000000 0.000000 0.000000
# 2 -0.003296 0.015053 -0.004248 0.000000 0.000000 0.000000
# 3 -0.001961 -0.004248 0.009724 0.000000 0.000000 0.000000
# 4 0.000000 0.000000 0.000000 0.028506 0.000000 0.000000
# 5 0.000000 0.000000 0.000000 0.000000 0.039340 0.000000
# 6 0.000000 0.000000 0.000000 0.000000 0.000000 0.037237
#
#
# Mechanical properties :
#
#
# Convention : Reuss Voigt Hill
#
# Bulk Modulus (GPa) = 64.81158 66.98542 65.89850
# Shear Modulus (GPa) = 30.54811 31.93357 31.24084
#
# Velocity S-wave (km/s) = 3.76279 3.84717 3.80521
# Velocity P-wave (km/s) = 6.99409 7.12608 7.06039
#
# Compressibility (1/GPa) = 0.01542934
#
# Stress axis : x y z
#
# Youngs Moduli (GPa) = 103.48994 66.43090 102.83740
#
# Poissons Ratio (x) = 0.21895 0.20169
# Poissons Ratio (y) = 0.34109 0.43688
# Poissons Ratio (z) = 0.20297 0.28221
#
# Static dielectric constant tensor:
#      x y z
#    x 4.196490 0.000000 0.000000 
#    y 0.000000 3.806720 0.000000 
#    z 0.000000 0.000000 3.963490 
# 
# 
# High freq. dielectric constant tensor:
#      x y z
#    x 1.858950 0.000000 0.000000 
#    y 0.000000 1.842180 0.000000 
#    z 0.000000 0.000000 1.861090 
# 
# From -- ./inp_files/6669.got.cif
#   From: 2010.03.12/outbox.cif.g09.slc.cpg/sg39_4_cif.got.tgz:6669.got - 2010.04.14 02:53:20.
