data_PCOD8182508
_publ_section_title
;
Structure prediction by ZEFSAII (Michael W. Deem and Ramdas Pophale) SiO2 
 PCOD8182508
Probable space group: A M A 2
;
_chemical_formula_sum "Si O2"
_cell_formula_units_Z 64
_cell_length_a 8.953130
_cell_length_b 18.324904
_cell_length_c 21.329815
_cell_angle_alpha 90.000000
_cell_angle_beta 90.000000
_cell_angle_gamma 90.000000
_cell_volume 3499.481382
_symmetry_space_group_name_H-M "A M A 2"
_symmetry_group_IT_number 40
_symmetry_cell_setting 'orthorhombic'
loop_
_space_group_symop_operation_xyz
x,y,z
-x,-y,z
1/2-x,y,z
1/2+x,-y,z
x,1/2+y,1/2+z
-x,1/2-y,1/2+z
1/2-x,1/2+y,1/2+z
1/2+x,1/2-y,1/2+z
loop_
_atom_site_type_symbol
_atom_site_label
_atom_site_fract_x
_atom_site_fract_y
_atom_site_fract_z
Si Si1 0.076018 0.863908 0.781180
Si Si2 0.428826 0.075566 0.902762
Si Si3 0.577868 0.074888 0.645340
Si Si4 0.084444 0.688725 0.506482
Si Si5 0.075227 0.216503 0.600270
Si Si6 0.411631 0.562989 0.602801
Si Si7 0.072001 0.573325 0.742368
Si Si8 0.926607 0.720863 0.734540
O O1 0.250000 0.852661 0.797774
O O2 0.055604 0.911130 0.718826
O O3 0.992348 0.909529 0.834282
O O4 0.996276 0.786346 0.774573
O O5 0.250000 0.067918 0.902750
O O6 0.478516 0.143408 0.947278
O O7 0.500000 0.000000 0.927823
O O8 0.750000 0.070190 0.626864
O O9 0.505714 0.139364 0.605285
O O10 0.500000 0.000000 0.625973
O O11 0.250000 0.720619 0.491409
O O12 0.097667 0.635978 0.565070
O O13 0.973866 0.750738 0.532512
O O14 0.250000 0.202665 0.598450
O O15 0.033469 0.267314 0.660534
O O16 0.500000 0.500000 0.565326
O O17 0.250000 0.529324 0.614926
O O18 0.483969 0.576322 0.670502
O O19 0.250000 0.574386 0.752899
O O20 0.000000 0.500000 0.773763
O O21 0.999110 0.648700 0.766543
O O22 0.750000 0.719004 0.744947
#
# Coordination Sequence:
#
# PCOD8182508 Si02
#       8
#     8   8   8   8   8   8   8   8
#     4  10  21  36  55  76 102 138 177 221 267 312
#     4  11  23  37  54  76 105 142 183 224 261 304
#     4  10  20  34  54  78 105 135 168 211 264 317
#     4  10  20  34  49  69 100 138 175 213 256 301
#     4  10  20  32  50  75 102 133 170 212 259 313
#     4   9  17  27  41  61  90 128 167 204 241 289
#     4  10  18  28  44  67  98 133 169 208 253 305
#     4  10  19  32  50  74 102 133 172 217 265 317
#
# _framework density 18.288423999999999
#
# number of rings (size 3 to 8) (size 9 to 14) (size 15 to 20)
#    0.000    2.000    1.250    3.000    0.000    5.500 
#    0.000    0.000    0.000    0.000    0.000    0.875 
#    0.000    6.000    0.000    0.000    0.000    0.125 
#
# Total GULP energy -396597.773558 kJ/mol
# GULP energy per Si atom -12393.680424 kJ/mol
# Density = 1.824680 g / cm^3
# Si number density = 18.288424 Si / 1000 Ang^3
#
#
#
# Elastic Constant Matrix: (Units=GPa)
#
#
# Indices 1 2 3 4 5 6 
#
# 1 105.8936 64.6881 25.4895 0.0000 0.0000 0.0000
# 2 64.6881 125.3761 22.2565 0.0000 0.0000 0.0000
# 3 25.4895 22.2565 50.5440 0.0000 0.0000 0.0000
# 4 0.0000 0.0000 0.0000 19.6556 0.0000 0.0000
# 5 0.0000 0.0000 0.0000 0.0000 24.6123 0.0000
# 6 0.0000 0.0000 0.0000 0.0000 0.0000 38.4273
#
#
#
# Elastic Compliance Matrix: (Units=1/GPa)
#
#
# Indices 1 2 3 4 5 6 
#
# 1 0.014640 -0.006772 -0.004401 0.000000 0.000000 0.000000
# 2 -0.006772 0.011785 -0.001774 0.000000 0.000000 0.000000
# 3 -0.004401 -0.001774 0.022785 0.000000 0.000000 0.000000
# 4 0.000000 0.000000 0.000000 0.050876 0.000000 0.000000
# 5 0.000000 0.000000 0.000000 0.000000 0.040630 0.000000
# 6 0.000000 0.000000 0.000000 0.000000 0.000000 0.026023
#
#
# Mechanical properties :
#
#
# Convention : Reuss Voigt Hill
#
# Bulk Modulus (GPa) = 42.88942 56.29798 49.59370
# Shear Modulus (GPa) = 24.94938 27.83101 26.39020
#
# Velocity S-wave (km/s) = 3.69754 3.90524 3.80281
# Velocity P-wave (km/s) = 6.46000 7.15435 6.81602
#
# Compressibility (1/GPa) = 0.02331577
#
# Stress axis : x y z
#
# Youngs Moduli (GPa) = 68.30735 84.85313 43.88788
#
# Poissons Ratio (x) = 0.57464 0.19314
# Poissons Ratio (y) = 0.46259 0.07787
# Poissons Ratio (z) = 0.30061 0.15055
#
# Static dielectric constant tensor:
#      x y z
#    x 2.689090 0.000000 0.000000 
#    y 0.000000 3.493360 0.000000 
#    z 0.000000 0.000000 3.023920 
# 
# 
# High freq. dielectric constant tensor:
#      x y z
#    x 1.722320 0.000000 0.000000 
#    y 0.000000 1.711710 0.000000 
#    z 0.000000 0.000000 1.659190 
# 
# From -- ./inp_files/22378.got.cif
#   From: 2010.03.12/outbox.cif.g09.slc.cpg/sg40_12_cif.got.tgz:22378.got - 2010.04.14 01:38:03.
