data_PCOD8182771
_publ_section_title
;
Structure prediction by ZEFSAII (Michael W. Deem and Ramdas Pophale) SiO2 
 PCOD8182771
Probable space group: A M A 2
;
_chemical_formula_sum "Si O2"
_cell_formula_units_Z 48
_cell_length_a 16.591804
_cell_length_b 16.073264
_cell_length_c 9.189482
_cell_angle_alpha 90.000000
_cell_angle_beta 90.000000
_cell_angle_gamma 90.000000
_cell_volume 2450.691916
_symmetry_space_group_name_H-M "A M A 2"
_symmetry_group_IT_number 40
_symmetry_cell_setting 'orthorhombic'
loop_
_space_group_symop_operation_xyz
x,y,z
-x,-y,z
1/2-x,y,z
1/2+x,-y,z
x,1/2+y,1/2+z
-x,1/2-y,1/2+z
1/2-x,1/2+y,1/2+z
1/2+x,1/2-y,1/2+z
loop_
_atom_site_type_symbol
_atom_site_label
_atom_site_fract_x
_atom_site_fract_y
_atom_site_fract_z
Si Si1 0.589937 0.630176 0.202440
Si Si2 0.342897 0.523353 0.042346
Si Si3 0.656122 0.531873 0.442578
Si Si4 0.092704 0.624726 0.277911
Si Si5 0.843170 0.059855 0.260849
Si Si6 0.655372 0.715670 0.939270
O O1 0.598390 0.546749 0.107152
O O2 0.643578 0.616753 0.348850
O O3 0.499671 0.646806 0.254448
O O4 0.617968 0.707943 0.102344
O O5 0.250000 0.500826 0.079917
O O6 0.366352 0.611259 0.117230
O O7 0.355432 0.520824 0.867121
O O8 0.750000 0.506697 0.445918
O O9 0.603985 0.459079 0.369938
O O10 0.617963 0.543629 0.603453
O O11 0.135682 0.697241 0.366182
O O12 0.750000 0.077263 0.231404
O O13 0.879925 0.142219 0.336518
O O14 0.750000 0.705090 0.958633
#
# Coordination Sequence:
#
# PCOD8182771 Si02
#       6
#     8   8   8   8   8   8
#     4  10  20  34  52  76 108 144 181 223 277 335
#     4   9  16  33  57  80 105 142 183 221 270 342
#     4  10  18  34  57  81 106 140 182 226 275 340
#     4  11  21  33  53  82 110 137 182 238 281 321
#     4   8  17  32  54  78 103 135 178 220 265 329
#     4  10  20  38  58  77 105 150 193 228 276 343
#
# _framework density 19.586306
#
# number of rings (size 3 to 8) (size 9 to 14) (size 15 to 20)
#    0.000    2.333    0.000    7.000    0.000    1.333 
#    0.000   10.000    0.000    4.000    0.000    0.000 
#    0.000    0.000    0.000    0.000    0.000    0.000 
#
# Total GULP energy -297383.108924 kJ/mol
# GULP energy per Si atom -12390.962872 kJ/mol
# Density = 1.954173 g / cm^3
# Si number density = 19.586306 Si / 1000 Ang^3
#
#
#
# Elastic Constant Matrix: (Units=GPa)
#
#
# Indices 1 2 3 4 5 6 
#
# 1 51.6185 1.6978 11.6544 0.0000 0.0000 0.0000
# 2 1.6978 63.9956 40.0471 0.0000 0.0000 0.0000
# 3 11.6544 40.0471 157.2641 0.0000 0.0000 0.0000
# 4 0.0000 0.0000 0.0000 36.0031 0.0000 0.0000
# 5 0.0000 0.0000 0.0000 0.0000 19.8707 0.0000
# 6 0.0000 0.0000 0.0000 0.0000 0.0000 14.7190
#
#
#
# Elastic Compliance Matrix: (Units=1/GPa)
#
#
# Indices 1 2 3 4 5 6 
#
# 1 0.019714 0.000465 -0.001579 0.000000 0.000000 0.000000
# 2 0.000465 0.018599 -0.004771 0.000000 0.000000 0.000000
# 3 -0.001579 -0.004771 0.007691 0.000000 0.000000 0.000000
# 4 0.000000 0.000000 0.000000 0.027775 0.000000 0.000000
# 5 0.000000 0.000000 0.000000 0.000000 0.050325 0.000000
# 6 0.000000 0.000000 0.000000 0.000000 0.000000 0.067939
#
#
# Mechanical properties :
#
#
# Convention : Reuss Voigt Hill
#
# Bulk Modulus (GPa) = 29.21041 42.18631 35.69836
# Shear Modulus (GPa) = 23.23148 28.75049 25.99098
#
# Velocity S-wave (km/s) = 3.44773 3.83546 3.64675
# Velocity P-wave (km/s) = 5.54934 6.41870 5.99979
#
# Compressibility (1/GPa) = 0.03423437
#
# Stress axis : x y z
#
# Youngs Moduli (GPa) = 50.72488 53.76581 130.02809
#
# Poissons Ratio (x) = -0.02502 0.20538
# Poissons Ratio (y) = -0.02361 0.62033
# Poissons Ratio (z) = 0.08012 0.25650
#
# Static dielectric constant tensor:
#      x y z
#    x 3.346900 0.000000 0.000000 
#    y 0.000000 3.347120 0.000000 
#    z 0.000000 0.000000 4.150620 
# 
# 
# High freq. dielectric constant tensor:
#      x y z
#    x 1.749880 0.000000 0.000000 
#    y 0.000000 1.722080 0.000000 
#    z 0.000000 0.000000 1.779570 
# 
# From -- ./inp_files/6423.got.cif
#   From: 2010.03.12/outbox.cif.g09.slc.cpg/sg40_4_cif.got.tgz:6423.got - 2010.04.14 01:38:03.
