data_PCOD8182951
_publ_section_title
;
Structure prediction by ZEFSAII (Michael W. Deem and Ramdas Pophale) SiO2 
 PCOD8182951
Probable space group: A M A 2
;
_chemical_formula_sum "Si O2"
_cell_formula_units_Z 56
_cell_length_a 8.829762
_cell_length_b 14.496599
_cell_length_c 22.507816
_cell_angle_alpha 90.000000
_cell_angle_beta 90.000000
_cell_angle_gamma 90.000000
_cell_volume 2881.034637
_symmetry_space_group_name_H-M "A M A 2"
_symmetry_group_IT_number 40
_symmetry_cell_setting 'orthorhombic'
loop_
_space_group_symop_operation_xyz
x,y,z
-x,-y,z
1/2-x,y,z
1/2+x,-y,z
x,1/2+y,1/2+z
-x,1/2-y,1/2+z
1/2-x,1/2+y,1/2+z
1/2+x,1/2-y,1/2+z
loop_
_atom_site_type_symbol
_atom_site_label
_atom_site_fract_x
_atom_site_fract_y
_atom_site_fract_z
Si Si1 0.071321 0.095798 0.382280
Si Si2 0.928978 0.593972 0.182563
Si Si3 0.428838 0.594384 0.747733
Si Si4 0.071581 0.593873 0.309560
Si Si5 0.571379 0.786349 0.140182
Si Si6 0.926802 0.277147 0.417394
Si Si7 0.929964 0.399104 0.528067
O O1 0.250000 0.087707 0.387575
O O2 0.016582 0.115850 0.314684
O O3 0.013273 0.179961 0.422649
O O4 0.000000 0.000000 0.405303
O O5 0.750000 0.582039 0.188845
O O6 0.972581 0.677937 0.138389
O O7 0.000000 0.500000 0.156383
O O8 0.995578 0.617579 0.246991
O O9 0.500000 0.500000 0.724384
O O10 0.250000 0.584417 0.745988
O O11 0.488627 0.672633 0.702690
O O12 0.250000 0.579841 0.301204
O O13 0.033533 0.675758 0.354747
O O14 0.000000 0.500000 0.335637
O O15 0.750000 0.797286 0.138040
O O16 0.503905 0.841424 0.084128
O O17 0.750000 0.256726 0.423918
O O18 0.982865 0.344507 0.469553
O O19 0.750000 0.408895 0.530390
O O20 0.000000 0.500000 0.527921
#
# Coordination Sequence:
#
# PCOD8182951 Si02
#       7
#     8   8   8   8   8   8   8
#     4  10  20  34  54  78 106 137 171 212 258 306
#     4  10  19  33  52  75 102 133 169 211 258 309
#     4   9  17  30  49  76 104 132 165 203 250 303
#     4  10  19  31  49  76 107 138 171 212 259 308
#     4   9  18  33  53  74 101 136 170 205 252 303
#     4  10  21  35  52  75 105 139 175 212 254 302
#     4  10  21  38  57  78 104 135 170 211 254 301
#
# _framework density 19.437463000000001
#
# number of rings (size 3 to 8) (size 9 to 14) (size 15 to 20)
#    0.000    2.286    0.000    3.857    0.000    3.429 
#    0.000    3.571    0.000    1.714    0.000    0.000 
#    0.000    0.000    0.000    0.000    0.000    0.000 
#
# Total GULP energy -347174.067892 kJ/mol
# GULP energy per Si atom -12399.073853 kJ/mol
# Density = 1.939322 g / cm^3
# Si number density = 19.437463 Si / 1000 Ang^3
#
#
#
# Elastic Constant Matrix: (Units=GPa)
#
#
# Indices 1 2 3 4 5 6 
#
# 1 60.3722 49.8108 26.8139 0.0000 0.0000 0.0000
# 2 49.8108 184.2367 71.0160 0.0000 0.0000 0.0000
# 3 26.8139 71.0160 73.8925 0.0000 0.0000 0.0000
# 4 0.0000 0.0000 0.0000 32.0871 0.0000 0.0000
# 5 0.0000 0.0000 0.0000 0.0000 15.0853 0.0000
# 6 0.0000 0.0000 0.0000 0.0000 0.0000 35.7611
#
#
#
# Elastic Compliance Matrix: (Units=1/GPa)
#
#
# Indices 1 2 3 4 5 6 
#
# 1 0.021901 -0.004540 -0.003585 0.000000 0.000000 0.000000
# 2 -0.004540 0.009563 -0.007543 0.000000 0.000000 0.000000
# 3 -0.003585 -0.007543 0.022083 0.000000 0.000000 0.000000
# 4 0.000000 0.000000 0.000000 0.031165 0.000000 0.000000
# 5 0.000000 0.000000 0.000000 0.000000 0.066290 0.000000
# 6 0.000000 0.000000 0.000000 0.000000 0.000000 0.027963
#
#
# Mechanical properties :
#
#
# Convention : Reuss Voigt Hill
#
# Bulk Modulus (GPa) = 45.01898 68.19810 56.60854
# Shear Modulus (GPa) = 22.96686 27.97741 25.47213
#
# Velocity S-wave (km/s) = 3.44114 3.79800 3.62396
# Velocity P-wave (km/s) = 6.24498 7.37531 6.83355
#
# Compressibility (1/GPa) = 0.02221285
#
# Stress axis : x y z
#
# Youngs Moduli (GPa) = 45.65900 104.57261 45.28269
#
# Poissons Ratio (x) = 0.47472 0.16232
# Poissons Ratio (y) = 0.20727 0.34157
# Poissons Ratio (z) = 0.16367 0.78881
#
# Static dielectric constant tensor:
#      x y z
#    x 3.347790 0.000000 0.000000 
#    y 0.000000 3.741230 0.000000 
#    z 0.000000 0.000000 3.558200 
# 
# 
# High freq. dielectric constant tensor:
#      x y z
#    x 1.742010 0.000000 0.000000 
#    y 0.000000 1.772140 0.000000 
#    z 0.000000 0.000000 1.737360 
# 
# From -- ./inp_files/22179.got.cif
#   From: 2010.03.12/outbox.cif.g09.slc.cpg/sg40_12_cif.got.tgz:22179.got - 2010.04.14 01:38:03.
