data_PCOD8182930
_publ_section_title
;
Structure prediction by ZEFSAII (Michael W. Deem and Ramdas Pophale) SiO2 
 PCOD8182930
Probable space group: A M A 2
;
_chemical_formula_sum "Si O2"
_cell_formula_units_Z 48
_cell_length_a 9.018639
_cell_length_b 9.580598
_cell_length_c 30.827813
_cell_angle_alpha 90.000000
_cell_angle_beta 90.000000
_cell_angle_gamma 90.000000
_cell_volume 2663.644960
_symmetry_space_group_name_H-M "A M A 2"
_symmetry_group_IT_number 40
_symmetry_cell_setting 'orthorhombic'
loop_
_space_group_symop_operation_xyz
x,y,z
-x,-y,z
1/2-x,y,z
1/2+x,-y,z
x,1/2+y,1/2+z
-x,1/2-y,1/2+z
1/2-x,1/2+y,1/2+z
1/2+x,1/2-y,1/2+z
loop_
_atom_site_type_symbol
_atom_site_label
_atom_site_fract_x
_atom_site_fract_y
_atom_site_fract_z
Si Si1 0.076665 0.640747 0.093450
Si Si2 0.577628 0.351822 0.340695
Si Si3 0.425004 0.850718 0.265426
Si Si4 0.076575 0.648859 0.436469
Si Si5 0.423961 0.142384 0.691422
Si Si6 0.925821 0.650140 0.519251
O O1 0.250000 0.614086 0.091100
O O2 0.026962 0.679912 0.142353
O O3 0.027544 0.764061 0.061663
O O4 0.000000 0.500000 0.077416
O O5 0.500000 0.500000 0.333931
O O6 0.750000 0.381205 0.332912
O O7 0.517475 0.239092 0.306440
O O8 0.550704 0.284962 0.388769
O O9 0.250000 0.872630 0.267492
O O10 0.474057 0.769976 0.221823
O O11 0.500000 0.000000 0.266030
O O12 0.250000 0.635275 0.447232
O O13 0.000000 0.500000 0.434699
O O14 0.993856 0.728193 0.476274
O O15 0.250000 0.117113 0.695148
O O16 0.500000 0.000000 0.707419
O O17 0.750000 0.636613 0.514306
O O18 0.000000 0.500000 0.524789
#
# Coordination Sequence:
#
# PCOD8182930 Si02
#       6
#     8   8   8   8   8   8
#     4   9  19  34  51  72  98 127 160 199 240 284
#     4   9  18  32  51  74  97 124 161 202 239 281
#     4  10  21  35  50  72 102 130 158 195 239 287
#     4   9  16  28  47  70  96 125 160 200 239 279
#     4   9  18  34  54  74  96 124 161 201 238 282
#     4  10  19  31  48  72 100 128 161 199 239 283
#
# _framework density 18.020419
#
# number of rings (size 3 to 8) (size 9 to 14) (size 15 to 20)
#    0.000    2.667    0.000    2.500    0.000    4.000 
#    0.000    0.833    0.000    4.000    0.000    0.000 
#    0.000    0.000    0.000    0.000    0.000    0.000 
#
# Total GULP energy -297469.616440 kJ/mol
# GULP energy per Si atom -12394.567352 kJ/mol
# Density = 1.797940 g / cm^3
# Si number density = 18.020419 Si / 1000 Ang^3
#
#
#
# Elastic Constant Matrix: (Units=GPa)
#
#
# Indices 1 2 3 4 5 6 
#
# 1 58.2005 43.1841 50.1273 0.0000 0.0000 0.0000
# 2 43.1841 115.7213 84.9955 0.0000 0.0000 0.0000
# 3 50.1273 84.9955 151.9180 0.0000 0.0000 0.0000
# 4 0.0000 0.0000 0.0000 29.4550 0.0000 0.0000
# 5 0.0000 0.0000 0.0000 0.0000 28.8356 0.0000
# 6 0.0000 0.0000 0.0000 0.0000 0.0000 29.2513
#
#
#
# Elastic Compliance Matrix: (Units=1/GPa)
#
#
# Indices 1 2 3 4 5 6 
#
# 1 0.026111 -0.005799 -0.005371 0.000000 0.000000 0.000000
# 2 -0.005799 0.015957 -0.007015 0.000000 0.000000 0.000000
# 3 -0.005371 -0.007015 0.012279 0.000000 0.000000 0.000000
# 4 0.000000 0.000000 0.000000 0.033950 0.000000 0.000000
# 5 0.000000 0.000000 0.000000 0.000000 0.034679 0.000000
# 6 0.000000 0.000000 0.000000 0.000000 0.000000 0.034186
#
#
# Mechanical properties :
#
#
# Convention : Reuss Voigt Hill
#
# Bulk Modulus (GPa) = 55.62215 75.82818 65.72517
# Shear Modulus (GPa) = 25.05943 27.34390 26.20167
#
# Velocity S-wave (km/s) = 3.73314 3.89959 3.81727
# Velocity P-wave (km/s) = 7.03669 7.90228 7.48201
#
# Compressibility (1/GPa) = 0.01797845
#
# Stress axis : x y z
#
# Youngs Moduli (GPa) = 38.29830 62.66656 81.43751
#
# Poissons Ratio (x) = 0.36339 0.43743
# Poissons Ratio (y) = 0.22208 0.57125
# Poissons Ratio (z) = 0.20571 0.43958
#
# Static dielectric constant tensor:
#      x y z
#    x 3.317050 0.000000 0.000000 
#    y 0.000000 3.084910 0.000000 
#    z 0.000000 0.000000 4.265130 
# 
# 
# High freq. dielectric constant tensor:
#      x y z
#    x 1.698030 0.000000 0.000000 
#    y 0.000000 1.665080 0.000000 
#    z 0.000000 0.000000 1.721360 
# 
# From -- ./inp_files/26142.got.cif
#   From: 2010.03.12/outbox.cif.g09.slc.cpg/sg40_14_cif.got.tgz:26142.got - 2010.04.14 01:38:03.
