data_PCOD8182098
_publ_section_title
;
Structure prediction by ZEFSAII (Michael W. Deem and Ramdas Pophale) SiO2 
 PCOD8182098
Probable space group: A B M 2
;
_chemical_formula_sum "Si O2"
_cell_formula_units_Z 64
_cell_length_a 23.724581
_cell_length_b 8.640790
_cell_length_c 15.397546
_cell_angle_alpha 90.000000
_cell_angle_beta 90.000000
_cell_angle_gamma 90.000000
_cell_volume 3156.483415
_symmetry_space_group_name_H-M "A B M 2"
_symmetry_group_IT_number 39
_symmetry_cell_setting 'orthorhombic'
loop_
_space_group_symop_operation_xyz
x,y,z
-x,-y,z
-x,1/2+y,z
x,1/2-y,z
x,1/2+y,1/2+z
-x,1/2-y,1/2+z
-x,y,1/2+z
x,-y,1/2+z
loop_
_atom_site_type_symbol
_atom_site_label
_atom_site_fract_x
_atom_site_fract_y
_atom_site_fract_z
Si Si1 0.371796 0.928378 0.274090
Si Si2 0.749937 0.573023 0.845169
Si Si3 0.140104 0.931787 0.774549
Si Si4 0.438158 0.067667 0.433411
Si Si5 0.061735 0.932573 0.931391
Si Si6 0.743464 0.929310 0.529758
Si Si7 0.133036 0.431714 0.595191
Si Si8 0.630795 0.568461 0.091213
O O1 0.390329 0.750000 0.274474
O O2 0.305018 0.946546 0.286157
O O3 0.403689 0.015887 0.349907
O O4 0.389506 0.005189 0.183690
O O5 0.756460 0.750000 0.876694
O O6 0.801920 0.524618 0.785202
O O7 0.746324 0.461494 0.927551
O O8 0.151779 0.750000 0.782445
O O9 0.096277 0.988885 0.847368
O O10 0.114591 0.975118 0.680891
O O11 0.441881 0.250000 0.435247
O O12 0.500000 0.000000 0.429512
O O13 0.406919 0.011515 0.519037
O O14 0.057859 0.750000 0.932380
O O15 0.093426 0.992178 0.017503
O O16 0.000000 0.000000 0.927246
O O17 0.728153 0.750000 0.543567
O O18 0.802794 0.972269 0.572256
O O19 0.696389 0.032578 0.575649
O O20 0.124994 0.250000 0.610880
O O21 0.620809 0.750000 0.086544
#
# Coordination Sequence:
#
# PCOD8182098 Si02
#       8
#     8   8   8   8   8   8   8   8
#     4  11  24  43  66  97 132 168 212 261 315 378
#     4  11  22  37  63  95 129 165 206 253 311 376
#     4  11  23  40  62  91 125 161 205 253 309 373
#     4  12  26  46  70  95 127 169 215 267 320 373
#     4  10  23  43  62  85 119 160 206 258 310 365
#     4  11  21  38  64  92 129 168 204 255 317 375
#     4  10  22  41  62  89 125 161 202 253 310 370
#     4  12  25  42  65  98 133 169 214 260 313 380
#
# _framework density 20.275728000000001
#
# number of rings (size 3 to 8) (size 9 to 14) (size 15 to 20)
#    0.000    1.000    2.500    4.500    0.000    8.000 
#    0.000    5.000    0.000    0.000    0.000    0.000 
#    0.000    0.000    0.000    0.000    0.000    0.000 
#
# Total GULP energy -397024.744633 kJ/mol
# GULP energy per Si atom -12407.023270 kJ/mol
# Density = 2.022958 g / cm^3
# Si number density = 20.275728 Si / 1000 Ang^3
#
#
#
# Elastic Constant Matrix: (Units=GPa)
#
#
# Indices 1 2 3 4 5 6 
#
# 1 137.4335 58.1137 65.5923 0.0000 0.0000 0.0000
# 2 58.1137 116.1601 56.7258 0.0000 0.0000 0.0000
# 3 65.5923 56.7258 175.3170 0.0000 0.0000 0.0000
# 4 0.0000 0.0000 0.0000 38.9519 0.0000 0.0000
# 5 0.0000 0.0000 0.0000 0.0000 -7.6184 0.0000
# 6 0.0000 0.0000 0.0000 0.0000 0.0000 38.0332
#
#
#
# Elastic Compliance Matrix: (Units=1/GPa)
#
#
# Indices 1 2 3 4 5 6 
#
# 1 0.010103 -0.003811 -0.002547 0.000000 0.000000 0.000000
# 2 -0.003811 0.011662 -0.002348 0.000000 0.000000 0.000000
# 3 -0.002547 -0.002348 0.007416 0.000000 0.000000 0.000000
# 4 0.000000 0.000000 0.000000 0.025673 0.000000 0.000000
# 5 0.000000 0.000000 0.000000 0.000000 -0.131261 0.000000
# 6 0.000000 0.000000 0.000000 0.000000 0.000000 0.026293
#
#
# Mechanical properties :
#
#
# Convention : Reuss Voigt Hill
#
# Bulk Modulus (GPa) = 84.95568 87.75269 86.35418
# Shear Modulus (GPa) = -173.73079 30.43859 -71.64610
#
# Velocity S-wave (km/s) = -9.26661 3.87878 -5.95085
# Velocity P-wave (km/s) = 8.51483 7.96452 2.12942
#
# Compressibility (1/GPa) = 0.01177084
#
# Stress axis : x y z
#
# Youngs Moduli (GPa) = 98.97872 85.75096 134.83571
#
# Poissons Ratio (x) = 0.32677 0.34342
# Poissons Ratio (y) = 0.37718 0.31653
# Poissons Ratio (z) = 0.25209 0.20130
#
# Static dielectric constant tensor:
#      x y z
#    x 3.427030 0.000000 0.000000 
#    y 0.000000 3.719210 0.000000 
#    z 0.000000 0.000000 3.856240 
# 
# 
# High freq. dielectric constant tensor:
#      x y z
#    x 1.790790 0.000000 0.000000 
#    y 0.000000 1.798870 0.000000 
#    z 0.000000 0.000000 1.809200 
# 
# From -- ./inp_files/10642.got.cif
#   From: 2010.03.12/outbox.cif.g09.slc.cpg/sg39_6_cif.got.tgz:10642.got - 2010.04.14 02:53:20.
