data_PCOD8182529
_publ_section_title
;
Structure prediction by ZEFSAII (Michael W. Deem and Ramdas Pophale) SiO2 
 PCOD8182529
Probable space group: A M A 2
;
_chemical_formula_sum "Si O2"
_cell_formula_units_Z 64
_cell_length_a 8.808255
_cell_length_b 25.044355
_cell_length_c 20.112751
_cell_angle_alpha 90.000000
_cell_angle_beta 90.000000
_cell_angle_gamma 90.000000
_cell_volume 4436.813843
_symmetry_space_group_name_H-M "A M A 2"
_symmetry_group_IT_number 40
_symmetry_cell_setting 'orthorhombic'
loop_
_space_group_symop_operation_xyz
x,y,z
-x,-y,z
1/2-x,y,z
1/2+x,-y,z
x,1/2+y,1/2+z
-x,1/2-y,1/2+z
1/2-x,1/2+y,1/2+z
1/2+x,1/2-y,1/2+z
loop_
_atom_site_type_symbol
_atom_site_label
_atom_site_fract_x
_atom_site_fract_y
_atom_site_fract_z
Si Si1 0.428901 0.944485 0.333060
Si Si2 0.075524 0.769142 0.261130
Si Si3 0.430994 0.160937 0.362528
Si Si4 0.423269 0.905769 0.188751
Si Si5 0.574705 0.763211 0.900251
Si Si6 0.569861 0.168300 0.008878
Si Si7 0.421483 0.447187 0.548097
Si Si8 0.927073 0.300253 0.639705
O O1 0.250000 0.944715 0.345400
O O2 0.505739 0.898107 0.378232
O O3 0.472200 0.936058 0.255691
O O4 0.500000 0.000000 0.357242
O O5 0.250000 0.780861 0.245310
O O6 0.059237 0.724772 0.320127
O O7 0.998671 0.823887 0.289583
O O8 0.990460 0.755082 0.191779
O O9 0.250000 0.162049 0.363044
O O10 0.496417 0.205216 0.414780
O O11 0.250000 0.884256 0.193490
O O12 0.436464 0.947401 0.127961
O O13 0.533950 0.856962 0.172272
O O14 0.750000 0.760782 0.922123
O O15 0.488468 0.809909 0.938583
O O16 0.750000 0.170108 0.012384
O O17 0.508426 0.107699 0.017824
O O18 0.505573 0.205768 0.067847
O O19 0.500000 0.500000 0.518754
O O20 0.250000 0.450632 0.524043
O O21 0.750000 0.292273 0.630021
#
# Coordination Sequence:
#
# PCOD8182529 Si02
#       8
#     8   8   8   8   8   8   8   8
#     4  11  20  28  39  56  81 110 143 181 214 247
#     4   9  17  29  44  60  82 107 137 174 214 252
#     4  10  18  29  44  60  78 105 140 172 213 256
#     4   9  17  28  38  50  75 107 140 176 213 243
#     4   9  18  31  47  64  81 105 140 177 215 259
#     4  10  20  32  45  61  85 111 142 181 218 253
#     4   9  18  29  39  54  75 106 138 171 210 246
#     4  11  19  26  42  63  83 109 144 178 214 255
#
# _framework density 14.424766
#
# number of rings (size 3 to 8) (size 9 to 14) (size 15 to 20)
#    0.750    1.500    1.250    4.500    0.000    3.000 
#    0.000    0.000    0.000    0.000    0.000    0.000 
#    0.000    0.000    0.000    1.125    0.000   17.750 
#
# Total GULP energy -396460.423198 kJ/mol
# GULP energy per Si atom -12389.388225 kJ/mol
# Density = 1.439193 g / cm^3
# Si number density = 14.424766 Si / 1000 Ang^3
#
#
#
# Elastic Constant Matrix: (Units=GPa)
#
#
# Indices 1 2 3 4 5 6 
#
# 1 94.3865 27.8797 25.9989 0.0000 0.0000 0.0000
# 2 27.8797 64.9922 32.3395 0.0000 0.0000 0.0000
# 3 25.9989 32.3395 53.9006 0.0000 0.0000 0.0000
# 4 0.0000 0.0000 0.0000 18.6238 0.0000 0.0000
# 5 0.0000 0.0000 0.0000 0.0000 20.2557 0.0000
# 6 0.0000 0.0000 0.0000 0.0000 0.0000 22.5673
#
#
#
# Elastic Compliance Matrix: (Units=1/GPa)
#
#
# Indices 1 2 3 4 5 6 
#
# 1 0.012733 -0.003430 -0.004084 0.000000 0.000000 0.000000
# 2 -0.003430 0.022859 -0.012061 0.000000 0.000000 0.000000
# 3 -0.004084 -0.012061 0.027759 0.000000 0.000000 0.000000
# 4 0.000000 0.000000 0.000000 0.053695 0.000000 0.000000
# 5 0.000000 0.000000 0.000000 0.000000 0.049369 0.000000
# 6 0.000000 0.000000 0.000000 0.000000 0.000000 0.044312
#
#
# Mechanical properties :
#
#
# Convention : Reuss Voigt Hill
#
# Bulk Modulus (GPa) = 41.31919 42.85730 42.08824
# Shear Modulus (GPa) = 19.38420 20.76010 20.07215
#
# Velocity S-wave (km/s) = 3.66978 3.79779 3.73434
# Velocity P-wave (km/s) = 6.83105 7.00046 6.91627
#
# Compressibility (1/GPa) = 0.02420183
#
# Stress axis : x y z
#
# Youngs Moduli (GPa) = 78.53779 43.74621 36.02480
#
# Poissons Ratio (x) = 0.15005 0.14711
# Poissons Ratio (y) = 0.26938 0.43448
# Poissons Ratio (z) = 0.32072 0.52761
#
# Static dielectric constant tensor:
#      x y z
#    x 2.828160 0.000000 0.000000 
#    y 0.000000 2.617300 0.000000 
#    z 0.000000 0.000000 2.676530 
# 
# 
# High freq. dielectric constant tensor:
#      x y z
#    x 1.566120 0.000000 0.000000 
#    y 0.000000 1.516660 0.000000 
#    z 0.000000 0.000000 1.514770 
# 
# From -- ./inp_files/22588.got.cif
#   From: 2010.03.12/outbox.cif.g09.slc.cpg/sg40_12_cif.got.tgz:22588.got - 2010.04.14 01:38:03.
