data_PCOD8182879
_publ_section_title
;
Structure prediction by ZEFSAII (Michael W. Deem and Ramdas Pophale) SiO2 
 PCOD8182879
Probable space group: A M A 2
;
_chemical_formula_sum "Si O2"
_cell_formula_units_Z 56
_cell_length_a 8.995091
_cell_length_b 18.202129
_cell_length_c 20.353218
_cell_angle_alpha 90.000000
_cell_angle_beta 90.000000
_cell_angle_gamma 90.000000
_cell_volume 3332.428450
_symmetry_space_group_name_H-M "A M A 2"
_symmetry_group_IT_number 40
_symmetry_cell_setting 'orthorhombic'
loop_
_space_group_symop_operation_xyz
x,y,z
-x,-y,z
1/2-x,y,z
1/2+x,-y,z
x,1/2+y,1/2+z
-x,1/2-y,1/2+z
1/2-x,1/2+y,1/2+z
1/2+x,1/2-y,1/2+z
loop_
_atom_site_type_symbol
_atom_site_label
_atom_site_fract_x
_atom_site_fract_y
_atom_site_fract_z
Si Si1 0.422370 0.842741 0.965880
Si Si2 0.578316 0.422377 0.073600
Si Si3 0.426492 0.076081 0.083753
Si Si4 0.583277 0.707261 0.014717
Si Si5 0.920934 0.076239 0.830937
Si Si6 0.419684 0.655021 0.212682
Si Si7 0.585829 0.282225 0.655575
O O1 0.250000 0.838573 0.986631
O O2 0.443805 0.870910 0.892468
O O3 0.505551 0.898251 0.014644
O O4 0.492981 0.761484 0.966901
O O5 0.500000 0.500000 0.070499
O O6 0.750000 0.431008 0.055043
O O7 0.501939 0.370098 0.019453
O O8 0.558154 0.389906 0.146046
O O9 0.250000 0.068028 0.074375
O O10 0.464786 0.133844 0.142171
O O11 0.500000 0.000000 0.105534
O O12 0.750000 0.694861 0.987158
O O13 0.590794 0.743502 0.085596
O O14 0.750000 0.058851 0.817222
O O15 0.984233 0.115422 0.767166
O O16 0.000000 0.000000 0.845614
O O17 0.250000 0.657034 0.235534
O O18 0.473293 0.739400 0.203350
O O19 0.750000 0.280092 0.687695
#
# Coordination Sequence:
#
# PCOD8182879 Si02
#       7
#     8   8   8   8   8   8   8
#     4  10  20  33  48  67  93 126 160 194 231 275
#     4  10  19  30  46  70  97 124 155 193 236 280
#     4  10  19  30  47  71  97 125 154 191 235 277
#     4   9  17  30  48  68  91 121 154 191 234 280
#     4  11  23  35  48  67  94 127 161 195 229 268
#     4  10  20  32  48  68  92 124 159 194 231 273
#     4   8  16  30  46  65  91 121 153 188 230 277
#
# _framework density 16.804562000000001
#
# number of rings (size 3 to 8) (size 9 to 14) (size 15 to 20)
#    0.000    2.286    0.000    4.286    0.000   10.286 
#    0.000    0.000    0.000    0.000    0.000    1.000 
#    0.000    4.571    0.000    0.000    0.000    0.000 
#
# Total GULP energy -347198.273209 kJ/mol
# GULP energy per Si atom -12399.938329 kJ/mol
# Density = 1.676631 g / cm^3
# Si number density = 16.804562 Si / 1000 Ang^3
#
#
#
# Elastic Constant Matrix: (Units=GPa)
#
#
# Indices 1 2 3 4 5 6 
#
# 1 145.3688 76.8459 42.0079 0.0000 0.0000 0.0000
# 2 76.8459 123.8420 23.8337 0.0000 0.0000 0.0000
# 3 42.0079 23.8337 32.5001 0.0000 0.0000 0.0000
# 4 0.0000 0.0000 0.0000 20.0990 0.0000 0.0000
# 5 0.0000 0.0000 0.0000 0.0000 18.9501 0.0000
# 6 0.0000 0.0000 0.0000 0.0000 0.0000 35.6467
#
#
#
# Elastic Compliance Matrix: (Units=1/GPa)
#
#
# Indices 1 2 3 4 5 6 
#
# 1 0.014056 -0.006084 -0.013706 0.000000 0.000000 0.000000
# 2 -0.006084 0.012035 -0.000962 0.000000 0.000000 0.000000
# 3 -0.013706 -0.000962 0.049191 0.000000 0.000000 0.000000
# 4 0.000000 0.000000 0.000000 0.049754 0.000000 0.000000
# 5 0.000000 0.000000 0.000000 0.000000 0.052770 0.000000
# 6 0.000000 0.000000 0.000000 0.000000 0.000000 0.028053
#
#
# Mechanical properties :
#
#
# Convention : Reuss Voigt Hill
#
# Bulk Modulus (GPa) = 29.60583 65.23177 47.41880
# Shear Modulus (GPa) = 19.33317 25.54072 22.43694
#
# Velocity S-wave (km/s) = 3.39554 3.90278 3.65796
# Velocity P-wave (km/s) = 5.74708 7.69487 6.79117
#
# Compressibility (1/GPa) = 0.03377713
#
# Stress axis : x y z
#
# Youngs Moduli (GPa) = 71.14318 83.08910 20.32909
#
# Poissons Ratio (x) = 0.50553 0.27864
# Poissons Ratio (y) = 0.43285 0.01955
# Poissons Ratio (z) = 0.97512 0.07992
#
# Static dielectric constant tensor:
#      x y z
#    x 3.513410 0.000000 0.000000 
#    y 0.000000 3.412220 0.000000 
#    z 0.000000 0.000000 2.803590 
# 
# 
# High freq. dielectric constant tensor:
#      x y z
#    x 1.669120 0.000000 0.000000 
#    y 0.000000 1.653520 0.000000 
#    z 0.000000 0.000000 1.601330 
# 
# From -- ./inp_files/22209.got.cif
#   From: 2010.03.12/outbox.cif.g09.slc.cpg/sg40_12_cif.got.tgz:22209.got - 2010.04.14 01:38:03.
