data_PCOD8182799
_publ_section_title
;
Structure prediction by ZEFSAII (Michael W. Deem and Ramdas Pophale) SiO2 
 PCOD8182799
Probable space group: A M A 2
;
_chemical_formula_sum "Si O2"
_cell_formula_units_Z 44
_cell_length_a 15.314522
_cell_length_b 17.246315
_cell_length_c 8.799190
_cell_angle_alpha 90.000000
_cell_angle_beta 90.000000
_cell_angle_gamma 90.000000
_cell_volume 2324.033884
_symmetry_space_group_name_H-M "A M A 2"
_symmetry_group_IT_number 40
_symmetry_cell_setting 'orthorhombic'
loop_
_space_group_symop_operation_xyz
x,y,z
-x,-y,z
1/2-x,y,z
1/2+x,-y,z
x,1/2+y,1/2+z
-x,1/2-y,1/2+z
1/2-x,1/2+y,1/2+z
1/2+x,1/2-y,1/2+z
loop_
_atom_site_type_symbol
_atom_site_label
_atom_site_fract_x
_atom_site_fract_y
_atom_site_fract_z
Si Si1 0.848669 0.921318 0.352080
Si Si2 0.090615 0.527186 0.547853
Si Si3 0.652598 0.291340 0.089847
Si Si4 0.846000 0.633463 0.440429
Si Si5 0.500000 0.500000 0.013290
Si Si6 0.483077 0.120593 0.766795
O O1 0.750000 0.948196 0.385488
O O2 0.862698 0.915655 0.168871
O O3 0.867167 0.838502 0.432666
O O4 0.912509 0.988678 0.414056
O O5 0.148916 0.451552 0.514735
O O6 0.069491 0.569273 0.388955
O O7 0.000000 0.500000 0.623331
O O8 0.750000 0.314220 0.146498
O O9 0.582406 0.310865 0.219885
O O10 0.646633 0.199379 0.068415
O O11 0.750000 0.640164 0.361069
O O12 0.925241 0.652551 0.327556
O O13 0.511494 0.574317 0.118463
#
# Coordination Sequence:
#
# PCOD8182799 Si02
#       6
#     8   8   8   8   4   8
#     4  10  20  34  56  79 108 148 181 229 282 332
#     4  10  19  35  57  83 110 140 189 232 276 332
#     4   9  21  38  56  79 112 150 187 228 287 341
#     4  10  20  35  57  84 113 143 184 236 283 329
#     4  10  18  36  52  80 112 136 190 226 264 340
#     4  10  20  37  58  83 109 152 190 229 281 338
#
# _framework density 18.932597999999999
#
# number of rings (size 3 to 8) (size 9 to 14) (size 15 to 20)
#    0.000    2.182    3.636    0.545    0.000    5.091 
#    0.000    0.000    0.000    1.091    0.000    0.000 
#    0.000    0.000    0.000    0.000    0.000    0.000 
#
# Total GULP energy -272617.115699 kJ/mol
# GULP energy per Si atom -12391.687077 kJ/mol
# Density = 1.888951 g / cm^3
# Si number density = 18.932598 Si / 1000 Ang^3
#
#
#
# Elastic Constant Matrix: (Units=GPa)
#
#
# Indices 1 2 3 4 5 6 
#
# 1 151.2846 51.7783 49.5155 0.0000 0.0000 0.0000
# 2 51.7783 77.0003 31.3523 0.0000 0.0000 0.0000
# 3 49.5155 31.3523 79.5403 0.0000 0.0000 0.0000
# 4 0.0000 0.0000 0.0000 16.4222 0.0000 0.0000
# 5 0.0000 0.0000 0.0000 0.0000 31.2436 0.0000
# 6 0.0000 0.0000 0.0000 0.0000 0.0000 25.9182
#
#
#
# Elastic Compliance Matrix: (Units=1/GPa)
#
#
# Indices 1 2 3 4 5 6 
#
# 1 0.009582 -0.004782 -0.004080 0.000000 0.000000 0.000000
# 2 -0.004782 0.017856 -0.004061 0.000000 0.000000 0.000000
# 3 -0.004080 -0.004061 0.016713 0.000000 0.000000 0.000000
# 4 0.000000 0.000000 0.000000 0.060893 0.000000 0.000000
# 5 0.000000 0.000000 0.000000 0.000000 0.032007 0.000000
# 6 0.000000 0.000000 0.000000 0.000000 0.000000 0.038583
#
#
# Mechanical properties :
#
#
# Convention : Reuss Voigt Hill
#
# Bulk Modulus (GPa) = 54.63222 63.67973 59.15598
# Shear Modulus (GPa) = 24.08670 26.39540 25.24105
#
# Velocity S-wave (km/s) = 3.57071 3.73792 3.65527
# Velocity P-wave (km/s) = 6.77634 7.23446 7.00914
#
# Compressibility (1/GPa) = 0.01830422
#
# Stress axis : x y z
#
# Youngs Moduli (GPa) = 104.35980 56.00233 59.83323
#
# Poissons Ratio (x) = 0.26781 0.24413
# Poissons Ratio (y) = 0.49907 0.24301
# Poissons Ratio (z) = 0.42580 0.22745
#
# Static dielectric constant tensor:
#      x y z
#    x 3.766400 0.000000 0.000000 
#    y 0.000000 3.282680 0.000000 
#    z 0.000000 0.000000 3.342220 
# 
# 
# High freq. dielectric constant tensor:
#      x y z
#    x 1.753520 0.000000 0.000000 
#    y 0.000000 1.718150 0.000000 
#    z 0.000000 0.000000 1.718660 
# 
# From -- ./inp_files/6354.got.cif
#   From: 2010.03.12/outbox.cif.g09.slc.cpg/sg40_4_cif.got.tgz:6354.got - 2010.04.14 01:38:03.
