data_PCOD8182253
_publ_section_title
;
Structure prediction by ZEFSAII (Michael W. Deem and Ramdas Pophale) SiO2 
 PCOD8182253
Probable space group: A B M 2
;
_chemical_formula_sum "Si O2"
_cell_formula_units_Z 64
_cell_length_a 23.913499
_cell_length_b 8.560970
_cell_length_c 15.256181
_cell_angle_alpha 90.000000
_cell_angle_beta 90.000000
_cell_angle_gamma 90.000000
_cell_volume 3123.287291
_symmetry_space_group_name_H-M "A B M 2"
_symmetry_group_IT_number 39
_symmetry_cell_setting 'orthorhombic'
loop_
_space_group_symop_operation_xyz
x,y,z
-x,-y,z
-x,1/2+y,z
x,1/2-y,z
x,1/2+y,1/2+z
-x,1/2-y,1/2+z
-x,y,1/2+z
x,-y,1/2+z
loop_
_atom_site_type_symbol
_atom_site_label
_atom_site_fract_x
_atom_site_fract_y
_atom_site_fract_z
Si Si1 0.753903 0.065569 0.737320
Si Si2 0.883287 0.066319 0.992982
Si Si3 0.234906 0.064452 0.430670
Si Si4 0.369051 0.434750 0.248504
Si Si5 0.439000 0.065811 0.596969
Si Si6 0.869321 0.565966 0.171450
Si Si7 0.060497 0.934260 0.327324
Si Si8 0.642874 0.435446 0.947925
O O1 0.752663 0.250000 0.747623
O O2 0.768598 0.995812 0.832591
O O3 0.691610 0.010593 0.709453
O O4 0.803354 0.015270 0.671171
O O5 0.889639 0.250000 0.976448
O O6 0.819554 0.003602 0.982028
O O7 0.924188 0.977239 0.926981
O O8 0.900480 0.022300 0.092086
O O9 0.233807 0.250000 0.429600
O O10 0.294000 0.006462 0.471931
O O11 0.376913 0.250000 0.240795
O O12 0.416971 0.517442 0.192526
O O13 0.374292 0.489993 0.349790
O O14 0.441274 0.250000 0.591115
O O15 0.399314 0.994978 0.520307
O O16 0.500000 0.000000 0.580828
O O17 0.876383 0.750000 0.159437
O O18 0.895410 0.515567 0.263325
O O19 0.061396 0.750000 0.313825
O O20 0.000000 0.000000 0.303839
O O21 0.641379 0.250000 0.950107
#
# Coordination Sequence:
#
# PCOD8182253 Si02
#       8
#     8   8   8   8   8   8   8   8
#     4   8  15  31  58  87 120 158 193 235 295 360
#     4  11  22  38  63  95 128 165 204 249 305 363
#     4   8  14  30  57  86 118 155 193 236 293 358
#     4   9  18  36  60  85 114 152 194 239 294 352
#     4  11  23  38  56  81 114 152 198 246 295 354
#     4  11  22  39  62  94 130 166 205 248 302 365
#     4  12  26  46  68  91 122 164 211 259 307 362
#     4   8  17  34  57  83 113 152 193 237 292 351
#
# _framework density 20.491230000000002
#
# number of rings (size 3 to 8) (size 9 to 14) (size 15 to 20)
#    0.000    2.250    1.250    3.750    1.750    1.000 
#    0.000    5.625    0.000    0.000    0.000    0.000 
#    0.000    0.000    0.000    0.000    0.000    0.000 
#
# Total GULP energy -396661.047998 kJ/mol
# GULP energy per Si atom -12395.657750 kJ/mol
# Density = 2.044459 g / cm^3
# Si number density = 20.491230 Si / 1000 Ang^3
#
#
#
# Elastic Constant Matrix: (Units=GPa)
#
#
# Indices 1 2 3 4 5 6 
#
# 1 95.0546 24.2750 16.7901 0.0000 0.0000 0.0000
# 2 24.2750 46.5457 10.1670 0.0000 0.0000 0.0000
# 3 16.7901 10.1670 69.9682 0.0000 0.0000 0.0000
# 4 0.0000 0.0000 0.0000 27.1749 0.0000 0.0000
# 5 0.0000 0.0000 0.0000 0.0000 29.4099 0.0000
# 6 0.0000 0.0000 0.0000 0.0000 0.0000 21.2077
#
#
#
# Elastic Compliance Matrix: (Units=1/GPa)
#
#
# Indices 1 2 3 4 5 6 
#
# 1 0.012431 -0.006023 -0.002108 0.000000 0.000000 0.000000
# 2 -0.006023 0.025106 -0.002203 0.000000 0.000000 0.000000
# 3 -0.002108 -0.002203 0.015118 0.000000 0.000000 0.000000
# 4 0.000000 0.000000 0.000000 0.036799 0.000000 0.000000
# 5 0.000000 0.000000 0.000000 0.000000 0.034002 0.000000
# 6 0.000000 0.000000 0.000000 0.000000 0.000000 0.047153
#
#
# Mechanical properties :
#
#
# Convention : Reuss Voigt Hill
#
# Bulk Modulus (GPa) = 31.26125 34.89253 33.07689
# Shear Modulus (GPa) = 24.76006 26.24759 25.50383
#
# Velocity S-wave (km/s) = 3.47987 3.58287 3.53175
# Velocity P-wave (km/s) = 5.60669 5.84645 5.72783
#
# Compressibility (1/GPa) = 0.03198849
#
# Stress axis : x y z
#
# Youngs Moduli (GPa) = 80.44655 39.83056 66.14579
#
# Poissons Ratio (x) = 0.23988 0.13942
# Poissons Ratio (y) = 0.48449 0.14572
# Poissons Ratio (z) = 0.16957 0.08774
#
# Static dielectric constant tensor:
#      x y z
#    x 4.051460 0.000000 0.000000 
#    y 0.000000 3.271550 0.000000 
#    z 0.000000 0.000000 3.728910 
# 
# 
# High freq. dielectric constant tensor:
#      x y z
#    x 1.805680 0.000000 0.000000 
#    y 0.000000 1.766790 0.000000 
#    z 0.000000 0.000000 1.803120 
# 
# From -- ./inp_files/10630.got.cif
#   From: 2010.03.12/outbox.cif.g09.slc.cpg/sg39_6_cif.got.tgz:10630.got - 2010.04.14 02:53:20.
