data_PCOD8182453
_publ_section_title
;
Structure prediction by ZEFSAII (Michael W. Deem and Ramdas Pophale) SiO2 
 PCOD8182453
Probable space group: A M A 2
;
_chemical_formula_sum "Si O2"
_cell_formula_units_Z 64
_cell_length_a 9.088849
_cell_length_b 18.262903
_cell_length_c 21.594458
_cell_angle_alpha 90.000000
_cell_angle_beta 90.000000
_cell_angle_gamma 90.000000
_cell_volume 3584.437472
_symmetry_space_group_name_H-M "A M A 2"
_symmetry_group_IT_number 40
_symmetry_cell_setting 'orthorhombic'
loop_
_space_group_symop_operation_xyz
x,y,z
-x,-y,z
1/2-x,y,z
1/2+x,-y,z
x,1/2+y,1/2+z
-x,1/2-y,1/2+z
1/2-x,1/2+y,1/2+z
1/2+x,1/2-y,1/2+z
loop_
_atom_site_type_symbol
_atom_site_label
_atom_site_fract_x
_atom_site_fract_y
_atom_site_fract_z
Si Si1 0.425987 0.925394 0.775470
Si Si2 0.576054 0.287966 0.220608
Si Si3 0.078230 0.189126 0.134888
Si Si4 0.922990 0.423990 0.530741
Si Si5 0.415006 0.070769 0.367044
Si Si6 0.917499 0.714550 0.849110
Si Si7 0.919966 0.372533 0.394908
Si Si8 0.590088 0.434687 0.720966
O O1 0.250000 0.928909 0.771283
O O2 0.489015 0.862979 0.730922
O O3 0.473777 0.911822 0.846395
O O4 0.500000 0.000000 0.751870
O O5 0.750000 0.302799 0.218903
O O6 0.520443 0.259652 0.152803
O O7 0.536083 0.234546 0.278698
O O8 0.250000 0.211141 0.130248
O O9 0.026356 0.143634 0.074733
O O10 0.036138 0.142267 0.195684
O O11 0.750000 0.435658 0.537799
O O12 0.968201 0.401229 0.461770
O O13 0.000000 0.500000 0.549414
O O14 0.250000 0.071459 0.394446
O O15 0.490648 0.148697 0.380511
O O16 0.412673 0.062311 0.293949
O O17 0.500000 0.000000 0.395573
O O18 0.750000 0.687403 0.849250
O O19 0.940818 0.784943 0.892835
O O20 0.750000 0.392068 0.379259
O O21 0.500000 0.500000 0.690710
O O22 0.750000 0.447831 0.692942
#
# Coordination Sequence:
#
# PCOD8182453 Si02
#       8
#     8   8   8   8   8   8   8   8
#     4  11  21  34  54  78 104 133 165 208 259 312
#     4  10  20  33  50  73 100 131 166 207 253 306
#     4  10  19  32  47  68  98 134 171 208 248 292
#     4  10  21  35  52  73 103 140 180 219 254 296
#     4  10  18  27  41  63  92 123 157 195 239 291
#     4   9  17  30  47  67  94 126 163 206 254 301
#     4   9  19  35  52  74 102 135 175 217 260 306
#     4   9  17  26  38  58  87 122 160 196 231 278
#
# _framework density 17.854963999999999
#
# number of rings (size 3 to 8) (size 9 to 14) (size 15 to 20)
#    0.000    2.250    1.250    3.375    0.000    5.000 
#    0.000    0.000    0.000    0.000    0.000    0.875 
#    0.000    4.000    0.000    0.000    0.000    0.125 
#
# Total GULP energy -396547.673176 kJ/mol
# GULP energy per Si atom -12392.114787 kJ/mol
# Density = 1.781432 g / cm^3
# Si number density = 17.854964 Si / 1000 Ang^3
#
#
#
# Elastic Constant Matrix: (Units=GPa)
#
#
# Indices 1 2 3 4 5 6 
#
# 1 86.8879 56.2147 27.3494 0.0000 0.0000 0.0000
# 2 56.2147 106.3779 33.2728 0.0000 0.0000 0.0000
# 3 27.3494 33.2728 62.2207 0.0000 0.0000 0.0000
# 4 0.0000 0.0000 0.0000 26.2968 0.0000 0.0000
# 5 0.0000 0.0000 0.0000 0.0000 16.5244 0.0000
# 6 0.0000 0.0000 0.0000 0.0000 0.0000 35.5754
#
#
#
# Elastic Compliance Matrix: (Units=1/GPa)
#
#
# Indices 1 2 3 4 5 6 
#
# 1 0.018070 -0.008484 -0.003406 0.000000 0.000000 0.000000
# 2 -0.008484 0.015271 -0.004438 0.000000 0.000000 0.000000
# 3 -0.003406 -0.004438 0.019942 0.000000 0.000000 0.000000
# 4 0.000000 0.000000 0.000000 0.038027 0.000000 0.000000
# 5 0.000000 0.000000 0.000000 0.000000 0.060517 0.000000
# 6 0.000000 0.000000 0.000000 0.000000 0.000000 0.028109
#
#
# Mechanical properties :
#
#
# Convention : Reuss Voigt Hill
#
# Bulk Modulus (GPa) = 48.47533 54.35112 51.41322
# Shear Modulus (GPa) = 22.78244 24.92264 23.85254
#
# Velocity S-wave (km/s) = 3.57595 3.74014 3.65897
# Velocity P-wave (km/s) = 6.65269 7.01128 6.83434
#
# Compressibility (1/GPa) = 0.02062905
#
# Stress axis : x y z
#
# Youngs Moduli (GPa) = 55.34067 65.48148 50.14553
#
# Poissons Ratio (x) = 0.55552 0.17080
# Poissons Ratio (y) = 0.46949 0.22252
# Poissons Ratio (z) = 0.18849 0.29057
#
# Static dielectric constant tensor:
#      x y z
#    x 3.431460 0.000000 0.000000 
#    y 0.000000 3.394390 0.000000 
#    z 0.000000 0.000000 2.993800 
# 
# 
# High freq. dielectric constant tensor:
#      x y z
#    x 1.694000 0.000000 0.000000 
#    y 0.000000 1.695310 0.000000 
#    z 0.000000 0.000000 1.644320 
# 
# From -- ./inp_files/22377.got.cif
#   From: 2010.03.12/outbox.cif.g09.slc.cpg/sg40_12_cif.got.tgz:22377.got - 2010.04.14 01:38:03.
