data_PCOD8182499
_publ_section_title
;
Structure prediction by ZEFSAII (Michael W. Deem and Ramdas Pophale) SiO2 
 PCOD8182499
Probable space group: A M A 2
;
_chemical_formula_sum "Si O2"
_cell_formula_units_Z 56
_cell_length_a 8.864181
_cell_length_b 13.604605
_cell_length_c 29.590678
_cell_angle_alpha 90.000000
_cell_angle_beta 90.000000
_cell_angle_gamma 90.000000
_cell_volume 3568.448788
_symmetry_space_group_name_H-M "A M A 2"
_symmetry_group_IT_number 40
_symmetry_cell_setting 'orthorhombic'
loop_
_space_group_symop_operation_xyz
x,y,z
-x,-y,z
1/2-x,y,z
1/2+x,-y,z
x,1/2+y,1/2+z
-x,1/2-y,1/2+z
1/2-x,1/2+y,1/2+z
1/2+x,1/2-y,1/2+z
loop_
_atom_site_type_symbol
_atom_site_label
_atom_site_fract_x
_atom_site_fract_y
_atom_site_fract_z
Si Si1 0.923965 0.600971 0.209520
Si Si2 0.928314 0.107738 0.340844
Si Si3 0.072158 0.201520 0.256830
Si Si4 0.427332 0.893622 0.536295
Si Si5 0.575745 0.103420 0.438838
Si Si6 0.428602 0.780121 0.623356
Si Si7 0.429477 0.896902 0.171635
O O1 0.750000 0.577705 0.209339
O O2 0.964596 0.685115 0.245821
O O3 0.975081 0.637142 0.159909
O O4 0.000000 0.500000 0.223979
O O5 0.750000 0.100142 0.331454
O O6 0.962429 0.155778 0.390898
O O7 0.006505 0.181398 0.306179
O O8 0.000000 0.000000 0.335867
O O9 0.250000 0.180258 0.254756
O O10 0.991719 0.130799 0.220981
O O11 0.250000 0.908841 0.541886
O O12 0.470074 0.845625 0.486790
O O13 0.483401 0.817981 0.574452
O O14 0.500000 0.000000 0.543086
O O15 0.750000 0.080587 0.440482
O O16 0.500000 0.000000 0.437448
O O17 0.250000 0.758160 0.626150
O O18 0.518513 0.680870 0.633860
O O19 0.250000 0.903233 0.173345
O O20 0.500000 0.000000 0.156758
#
# Coordination Sequence:
#
# PCOD8182499 Si02
#       7
#     8   8   8   8   8   8   8
#     4   9  18  30  44  62  86 113 141 176 212 250
#     4  10  18  28  43  64  90 119 150 182 217 259
#     4  10  20  33  46  64  89 116 147 180 218 260
#     4   9  16  27  44  65  92 122 149 180 216 255
#     4   8  15  26  40  61  88 117 147 178 215 257
#     4   9  18  31  45  65  91 118 147 177 212 254
#     4  11  21  33  48  65  87 115 146 181 219 259
#
# _framework density 15.693094
#
# number of rings (size 3 to 8) (size 9 to 14) (size 15 to 20)
#    0.000    2.571    0.000    3.857    0.000    4.000 
#    0.000    0.000    0.000    0.000    0.000    1.000 
#    0.000    2.286    0.000    0.000    0.000    0.000 
#
# Total GULP energy -346949.135463 kJ/mol
# GULP energy per Si atom -12391.040552 kJ/mol
# Density = 1.565738 g / cm^3
# Si number density = 15.693094 Si / 1000 Ang^3
#
#
#
# Elastic Constant Matrix: (Units=GPa)
#
#
# Indices 1 2 3 4 5 6 
#
# 1 69.4574 43.6659 48.1244 0.0000 0.0000 0.0000
# 2 43.6659 95.0327 61.0071 0.0000 0.0000 0.0000
# 3 48.1244 61.0071 152.3671 0.0000 0.0000 0.0000
# 4 0.0000 0.0000 0.0000 19.5813 0.0000 0.0000
# 5 0.0000 0.0000 0.0000 0.0000 21.3108 0.0000
# 6 0.0000 0.0000 0.0000 0.0000 0.0000 25.6423
#
#
#
# Elastic Compliance Matrix: (Units=1/GPa)
#
#
# Indices 1 2 3 4 5 6 
#
# 1 0.021821 -0.007540 -0.003873 0.000000 0.000000 0.000000
# 2 -0.007540 0.016769 -0.004333 0.000000 0.000000 0.000000
# 3 -0.003873 -0.004333 0.009521 0.000000 0.000000 0.000000
# 4 0.000000 0.000000 0.000000 0.051069 0.000000 0.000000
# 5 0.000000 0.000000 0.000000 0.000000 0.046924 0.000000
# 6 0.000000 0.000000 0.000000 0.000000 0.000000 0.038998
#
#
# Mechanical properties :
#
#
# Convention : Reuss Voigt Hill
#
# Bulk Modulus (GPa) = 60.17081 69.16132 64.66606
# Shear Modulus (GPa) = 22.50898 24.24421 23.37660
#
# Velocity S-wave (km/s) = 3.79136 3.93478 3.86373
# Velocity P-wave (km/s) = 7.58889 8.05048 7.82309
#
# Compressibility (1/GPa) = 0.01661936
#
# Stress axis : x y z
#
# Youngs Moduli (GPa) = 45.82735 59.63549 105.02970
#
# Poissons Ratio (x) = 0.44965 0.40679
# Poissons Ratio (y) = 0.34554 0.45505
# Poissons Ratio (z) = 0.17749 0.25837
#
# Static dielectric constant tensor:
#      x y z
#    x 3.011880 0.000000 0.000000 
#    y 0.000000 2.776860 0.000000 
#    z 0.000000 0.000000 3.538790 
# 
# 
# High freq. dielectric constant tensor:
#      x y z
#    x 1.611090 0.000000 0.000000 
#    y 0.000000 1.566970 0.000000 
#    z 0.000000 0.000000 1.608860 
# 
# From -- ./inp_files/26390.got.cif
#   From: 2010.03.12/outbox.cif.g09.slc.cpg/sg40_14_cif.got.tgz:26390.got - 2010.04.14 01:38:03.
