data_PCOD8182031
_publ_section_title
;
Structure prediction by ZEFSAII (Michael W. Deem and Ramdas Pophale) SiO2 
 PCOD8182031
Probable space group: A B M 2
;
_chemical_formula_sum "Si O2"
_cell_formula_units_Z 44
_cell_length_a 10.773340
_cell_length_b 21.141870
_cell_length_c 9.603945
_cell_angle_alpha 90.000000
_cell_angle_beta 90.000000
_cell_angle_gamma 90.000000
_cell_volume 2187.476663
_symmetry_space_group_name_H-M "A B M 2"
_symmetry_group_IT_number 39
_symmetry_cell_setting 'orthorhombic'
loop_
_space_group_symop_operation_xyz
x,y,z
-x,-y,z
-x,1/2+y,z
x,1/2-y,z
x,1/2+y,1/2+z
-x,1/2-y,1/2+z
-x,y,1/2+z
x,-y,1/2+z
loop_
_atom_site_type_symbol
_atom_site_label
_atom_site_fract_x
_atom_site_fract_y
_atom_site_fract_z
Si Si1 0.355211 0.099046 0.308890
Si Si2 0.117804 0.323973 0.388753
Si Si3 0.000000 0.000000 0.519797
Si Si4 0.930747 0.884598 0.677607
Si Si5 0.235658 0.029840 0.851048
Si Si6 0.546347 0.569914 0.033500
O O1 0.242148 0.146934 0.325021
O O2 0.435565 0.113321 0.170601
O O3 0.442956 0.105515 0.442507
O O4 0.312670 0.026621 0.281557
O O5 0.123424 0.250000 0.363452
O O6 0.105785 0.336872 0.553872
O O7 0.998564 0.350602 0.305823
O O8 0.878673 0.993838 0.425099
O O9 0.979549 0.061809 0.613961
O O10 0.808239 0.920368 0.734063
O O11 0.321283 0.068390 0.956601
O O12 0.500000 0.500000 0.072576
#
# Coordination Sequence:
#
# PCOD8182031 Si02
#       6
#     8   8   4   8   8   8
#     4  11  23  40  64  94 131 166 213 263 323 387
#     4  12  27  45  65  90 132 180 227 268 315 387
#     4  12  20  36  64 104 130 164 198 272 344 392
#     4  12  23  41  66  96 131 168 211 272 335 394
#     4  11  20  36  64  99 131 160 204 268 342 390
#     4  10  22  37  63  96 132 164 202 263 335 393
#
# _framework density 20.1145
#
# number of rings (size 3 to 8) (size 9 to 14) (size 15 to 20)
#    0.000    0.727    3.636    6.000    5.091    0.000 
#    0.000    0.909    0.000    0.000    0.000    0.000 
#    0.000    0.000    0.000    0.000    0.000    0.000 
#
# Total GULP energy -272867.254992 kJ/mol
# GULP energy per Si atom -12403.057045 kJ/mol
# Density = 2.006872 g / cm^3
# Si number density = 20.114500 Si / 1000 Ang^3
#
#
#
# Elastic Constant Matrix: (Units=GPa)
#
#
# Indices 1 2 3 4 5 6 
#
# 1 98.8425 26.6459 46.0945 0.0000 0.0000 0.0000
# 2 26.6459 84.6821 39.7435 0.0000 0.0000 0.0000
# 3 46.0945 39.7435 125.8267 0.0000 0.0000 0.0000
# 4 0.0000 0.0000 0.0000 23.4737 0.0000 0.0000
# 5 0.0000 0.0000 0.0000 0.0000 36.8348 0.0000
# 6 0.0000 0.0000 0.0000 0.0000 0.0000 12.9761
#
#
#
# Elastic Compliance Matrix: (Units=1/GPa)
#
#
# Indices 1 2 3 4 5 6 
#
# 1 0.012511 -0.002096 -0.003921 0.000000 0.000000 0.000000
# 2 -0.002096 0.014215 -0.003722 0.000000 0.000000 0.000000
# 3 -0.003921 -0.003722 0.010559 0.000000 0.000000 0.000000
# 4 0.000000 0.000000 0.000000 0.042601 0.000000 0.000000
# 5 0.000000 0.000000 0.000000 0.000000 0.027148 0.000000
# 6 0.000000 0.000000 0.000000 0.000000 0.000000 0.077065
#
#
# Mechanical properties :
#
#
# Convention : Reuss Voigt Hill
#
# Bulk Modulus (GPa) = 56.15846 59.36880 57.76363
# Shear Modulus (GPa) = 23.86475 27.78140 25.82308
#
# Velocity S-wave (km/s) = 3.44822 3.72043 3.58691
# Velocity P-wave (km/s) = 6.62070 6.93073 6.77748
#
# Compressibility (1/GPa) = 0.01780676
#
# Stress axis : x y z
#
# Youngs Moduli (GPa) = 79.93123 70.34622 94.70181
#
# Poissons Ratio (x) = 0.14748 0.37132
# Poissons Ratio (y) = 0.16757 0.35249
# Poissons Ratio (z) = 0.31340 0.26183
#
# Static dielectric constant tensor:
#      x y z
#    x 3.705480 0.000000 0.000000 
#    y 0.000000 3.280110 0.000000 
#    z 0.000000 0.000000 3.838020 
# 
# 
# High freq. dielectric constant tensor:
#      x y z
#    x 1.795000 0.000000 0.000000 
#    y 0.000000 1.736580 0.000000 
#    z 0.000000 0.000000 1.807430 
# 
# From -- ./inp_files/5897.got.cif
#   From: 2010.03.12/outbox.cif.g09.slc.cpg/sg39_3_cif.got.tgz:5897.got - 2010.04.14 02:53:20.
