data_PCOD8182523
_publ_section_title
;
Structure prediction by ZEFSAII (Michael W. Deem and Ramdas Pophale) SiO2 
 PCOD8182523
Probable space group: A M A 2
;
_chemical_formula_sum "Si O2"
_cell_formula_units_Z 64
_cell_length_a 8.861008
_cell_length_b 18.450509
_cell_length_c 26.218244
_cell_angle_alpha 90.000000
_cell_angle_beta 90.000000
_cell_angle_gamma 90.000000
_cell_volume 4286.423539
_symmetry_space_group_name_H-M "A M A 2"
_symmetry_group_IT_number 40
_symmetry_cell_setting 'orthorhombic'
loop_
_space_group_symop_operation_xyz
x,y,z
-x,-y,z
1/2-x,y,z
1/2+x,-y,z
x,1/2+y,1/2+z
-x,1/2-y,1/2+z
1/2-x,1/2+y,1/2+z
1/2+x,1/2-y,1/2+z
loop_
_atom_site_type_symbol
_atom_site_label
_atom_site_fract_x
_atom_site_fract_y
_atom_site_fract_z
Si Si1 0.570041 0.922938 0.947080
Si Si2 0.417318 0.299508 0.797341
Si Si3 0.428457 0.576384 0.249422
Si Si4 0.074397 0.660711 0.642604
Si Si5 0.570624 0.577432 0.553013
Si Si6 0.070939 0.659582 0.347383
Si Si7 0.425364 0.077164 0.245359
Si Si8 0.082866 0.714512 0.192079
O O1 0.750000 0.929907 0.952537
O O2 0.521047 0.866918 0.903117
O O3 0.500000 0.000000 0.932300
O O4 0.498002 0.894708 0.999641
O O5 0.250000 0.325924 0.813335
O O6 0.486165 0.242673 0.838888
O O7 0.521497 0.370027 0.791032
O O8 0.408184 0.255840 0.745169
O O9 0.500000 0.500000 0.235320
O O10 0.250000 0.567679 0.252440
O O11 0.492986 0.605291 0.303835
O O12 0.472831 0.632777 0.204190
O O13 0.250000 0.655253 0.628780
O O14 0.031298 0.610436 0.690591
O O15 0.973437 0.635357 0.595539
O O16 0.032668 0.744382 0.654444
O O17 0.500000 0.500000 0.567807
O O18 0.750000 0.569805 0.548959
O O19 0.250000 0.660741 0.341533
O O20 0.250000 0.066250 0.250886
O O21 0.500000 0.000000 0.251832
O O22 0.250000 0.713746 0.167089
#
# Coordination Sequence:
#
# PCOD8182523 Si02
#       8
#     8   8   8   8   8   8   8   8
#     4  10  18  29  43  60  83 109 140 174 206 238
#     4   8  14  27  43  57  77 106 137 167 200 238
#     4   9  16  26  40  60  85 112 142 171 202 240
#     4  10  19  30  44  61  80 105 139 173 207 246
#     4  11  21  32  44  59  81 108 139 173 209 243
#     4   8  15  27  43  60  80 110 142 170 203 242
#     4  10  19  28  40  60  83 107 135 167 202 241
#     4   8  15  27  41  57  80 109 137 167 203 242
#
# _framework density 14.930863
#
# number of rings (size 3 to 8) (size 9 to 14) (size 15 to 20)
#    0.000    2.750    0.000    5.250    0.000    3.000 
#    0.000    3.750    0.000    0.000    0.000    0.000 
#    0.000    1.000    0.000    7.250    0.000    3.500 
#
# Total GULP energy -396640.810666 kJ/mol
# GULP energy per Si atom -12395.025333 kJ/mol
# Density = 1.489688 g / cm^3
# Si number density = 14.930863 Si / 1000 Ang^3
#
#
#
# Elastic Constant Matrix: (Units=GPa)
#
#
# Indices 1 2 3 4 5 6 
#
# 1 64.0163 42.9392 38.2488 0.0000 0.0000 0.0000
# 2 42.9392 118.3275 55.0616 0.0000 0.0000 0.0000
# 3 38.2488 55.0616 76.3171 0.0000 0.0000 0.0000
# 4 0.0000 0.0000 0.0000 23.8784 0.0000 0.0000
# 5 0.0000 0.0000 0.0000 0.0000 13.2312 0.0000
# 6 0.0000 0.0000 0.0000 0.0000 0.0000 24.1736
#
#
#
# Elastic Compliance Matrix: (Units=1/GPa)
#
#
# Indices 1 2 3 4 5 6 
#
# 1 0.023894 -0.004664 -0.008610 0.000000 0.000000 0.000000
# 2 -0.004664 0.013633 -0.007498 0.000000 0.000000 0.000000
# 3 -0.008610 -0.007498 0.022828 0.000000 0.000000 0.000000
# 4 0.000000 0.000000 0.000000 0.041879 0.000000 0.000000
# 5 0.000000 0.000000 0.000000 0.000000 0.075579 0.000000
# 6 0.000000 0.000000 0.000000 0.000000 0.000000 0.041368
#
#
# Mechanical properties :
#
#
# Convention : Reuss Voigt Hill
#
# Bulk Modulus (GPa) = 53.16314 59.01781 56.09047
# Shear Modulus (GPa) = 18.72687 20.41737 19.57212
#
# Velocity S-wave (km/s) = 3.54537 3.70193 3.62449
# Velocity P-wave (km/s) = 7.24175 7.60826 7.42727
#
# Compressibility (1/GPa) = 0.01881002
#
# Stress axis : x y z
#
# Youngs Moduli (GPa) = 41.85152 73.35199 43.80507
#
# Poissons Ratio (x) = 0.34213 0.37717
# Poissons Ratio (y) = 0.19520 0.32846
# Poissons Ratio (z) = 0.36035 0.55002
#
# Static dielectric constant tensor:
#      x y z
#    x 2.895760 0.000000 0.000000 
#    y 0.000000 3.078960 0.000000 
#    z 0.000000 0.000000 2.804110 
# 
# 
# High freq. dielectric constant tensor:
#      x y z
#    x 1.571840 0.000000 0.000000 
#    y 0.000000 1.562760 0.000000 
#    z 0.000000 0.000000 1.538110 
# 
# From -- ./inp_files/25528.got.cif
#   From: 2010.03.12/outbox.cif.g09.slc.cpg/sg40_13_cif.got.tgz:25528.got - 2010.04.14 01:38:03.
