data_PCOD8182505
_publ_section_title
;
Structure prediction by ZEFSAII (Michael W. Deem and Ramdas Pophale) SiO2 
 PCOD8182505
Probable space group: A M A 2
;
_chemical_formula_sum "Si O2"
_cell_formula_units_Z 56
_cell_length_a 8.857890
_cell_length_b 13.671157
_cell_length_c 29.066122
_cell_angle_alpha 90.000000
_cell_angle_beta 90.000000
_cell_angle_gamma 90.000000
_cell_volume 3519.837757
_symmetry_space_group_name_H-M "A M A 2"
_symmetry_group_IT_number 40
_symmetry_cell_setting 'orthorhombic'
loop_
_space_group_symop_operation_xyz
x,y,z
-x,-y,z
1/2-x,y,z
1/2+x,-y,z
x,1/2+y,1/2+z
-x,1/2-y,1/2+z
1/2-x,1/2+y,1/2+z
1/2+x,1/2-y,1/2+z
loop_
_atom_site_type_symbol
_atom_site_label
_atom_site_fract_x
_atom_site_fract_y
_atom_site_fract_z
Si Si1 0.428204 0.218422 0.665340
Si Si2 0.073943 0.720581 0.528095
Si Si3 0.925695 0.605975 0.246753
Si Si4 0.071424 0.106927 0.937840
Si Si5 0.572930 0.395470 0.618567
Si Si6 0.927058 0.395846 0.074634
Si Si7 0.424626 0.895514 0.848512
O O1 0.250000 0.230960 0.668570
O O2 0.492527 0.180527 0.713195
O O3 0.502112 0.323271 0.656170
O O4 0.474566 0.143006 0.625013
O O5 0.250000 0.745929 0.528504
O O6 0.020737 0.675146 0.479923
O O7 0.033631 0.642374 0.567546
O O8 0.984006 0.820864 0.535815
O O9 0.750000 0.595226 0.233886
O O10 0.945028 0.652635 0.298089
O O11 0.000000 0.500000 0.242217
O O12 0.250000 0.096045 0.935838
O O13 0.009590 0.158843 0.890812
O O14 0.000000 0.000000 0.944215
O O15 0.500000 0.500000 0.625815
O O16 0.750000 0.402467 0.627027
O O17 0.750000 0.406838 0.070035
O O18 0.000000 0.500000 0.065663
O O19 0.250000 0.906191 0.861562
O O20 0.500000 0.000000 0.844643
#
# Coordination Sequence:
#
# PCOD8182505 Si02
#       7
#     8   8   8   8   8   8   8
#     4  10  20  32  47  68  91 119 154 187 224 268
#     4   9  19  32  46  66  91 120 153 186 221 263
#     4  10  19  30  45  66  92 122 153 186 225 268
#     4  10  18  28  44  66  92 121 151 184 222 264
#     4  10  19  32  48  66  92 122 152 188 225 263
#     4  10  20  32  47  66  90 119 150 186 224 264
#     4   9  17  28  42  62  89 119 150 183 221 266
#
# _framework density 15.909825
#
# number of rings (size 3 to 8) (size 9 to 14) (size 15 to 20)
#    0.000    2.286    0.000    4.286    0.000    6.286 
#    0.000    0.000    0.000    0.000    0.000    1.000 
#    0.000    2.286    0.000    0.000    0.000    0.000 
#
# Total GULP energy -347153.403302 kJ/mol
# GULP energy per Si atom -12398.335832 kJ/mol
# Density = 1.587361 g / cm^3
# Si number density = 15.909825 Si / 1000 Ang^3
#
#
#
# Elastic Constant Matrix: (Units=GPa)
#
#
# Indices 1 2 3 4 5 6 
#
# 1 85.3590 49.3323 49.7492 0.0000 0.0000 0.0000
# 2 49.3323 107.0268 58.5106 0.0000 0.0000 0.0000
# 3 49.7492 58.5106 124.0311 0.0000 0.0000 0.0000
# 4 0.0000 0.0000 0.0000 23.4293 0.0000 0.0000
# 5 0.0000 0.0000 0.0000 0.0000 75.9030 0.0000
# 6 0.0000 0.0000 0.0000 0.0000 0.0000 27.4680
#
#
#
# Elastic Compliance Matrix: (Units=1/GPa)
#
#
# Indices 1 2 3 4 5 6 
#
# 1 0.017549 -0.005715 -0.004343 0.000000 0.000000 0.000000
# 2 -0.005715 0.014451 -0.004525 0.000000 0.000000 0.000000
# 3 -0.004343 -0.004525 0.011939 0.000000 0.000000 0.000000
# 4 0.000000 0.000000 0.000000 0.042682 0.000000 0.000000
# 5 0.000000 0.000000 0.000000 0.000000 0.013175 0.000000
# 6 0.000000 0.000000 0.000000 0.000000 0.000000 0.036406
#
#
# Mechanical properties :
#
#
# Convention : Reuss Voigt Hill
#
# Bulk Modulus (GPa) = 67.68704 70.17790 68.93247
# Shear Modulus (GPa) = 29.36116 35.94837 32.65476
#
# Velocity S-wave (km/s) = 4.30056 4.75858 4.53536
# Velocity P-wave (km/s) = 8.20343 8.62541 8.41707
#
# Compressibility (1/GPa) = 0.01477388
#
# Stress axis : x y z
#
# Youngs Moduli (GPa) = 56.98237 69.19744 83.75721
#
# Poissons Ratio (x) = 0.39544 0.36378
# Poissons Ratio (y) = 0.32564 0.37901
# Poissons Ratio (z) = 0.24749 0.31313
#
# Static dielectric constant tensor:
#      x y z
#    x 3.130570 0.000000 0.000000 
#    y 0.000000 2.776400 0.000000 
#    z 0.000000 0.000000 3.465320 
# 
# 
# High freq. dielectric constant tensor:
#      x y z
#    x 1.631060 0.000000 0.000000 
#    y 0.000000 1.577770 0.000000 
#    z 0.000000 0.000000 1.612290 
# 
# From -- ./inp_files/26406.got.cif
#   From: 2010.03.12/outbox.cif.g09.slc.cpg/sg40_14_cif.got.tgz:26406.got - 2010.04.14 01:38:03.
