data_PCOD8183332
_publ_section_title
;
Structure prediction by ZEFSAII (Michael W. Deem and Ramdas Pophale) SiO2 
 PCOD8183332
Probable space group: A M A 2
;
_chemical_formula_sum "Si O2"
_cell_formula_units_Z 64
_cell_length_a 16.148534
_cell_length_b 11.889352
_cell_length_c 16.299488
_cell_angle_alpha 90.000000
_cell_angle_beta 90.000000
_cell_angle_gamma 90.000000
_cell_volume 3129.430060
_symmetry_space_group_name_H-M "A M A 2"
_symmetry_group_IT_number 40
_symmetry_cell_setting 'orthorhombic'
loop_
_space_group_symop_operation_xyz
x,y,z
-x,-y,z
1/2-x,y,z
1/2+x,-y,z
x,1/2+y,1/2+z
-x,1/2-y,1/2+z
1/2-x,1/2+y,1/2+z
1/2+x,1/2-y,1/2+z
loop_
_atom_site_type_symbol
_atom_site_label
_atom_site_fract_x
_atom_site_fract_y
_atom_site_fract_z
Si Si1 0.652488 0.642660 0.405080
Si Si2 0.914804 0.433253 0.132765
Si Si3 0.405809 0.974638 0.058918
Si Si4 0.655765 0.392215 0.959253
Si Si5 0.348877 0.798627 0.191855
Si Si6 0.093923 0.984642 0.307848
Si Si7 0.844940 0.356131 0.669354
Si Si8 0.343575 0.375500 0.225170
O O1 0.750000 0.620766 0.414434
O O2 0.604592 0.557242 0.464509
O O3 0.629242 0.771334 0.424371
O O4 0.615522 0.613711 0.315175
O O5 0.903535 0.314301 0.179233
O O6 0.845194 0.512864 0.171532
O O7 0.000000 0.500000 0.152636
O O8 0.903157 0.421703 0.035539
O O9 0.366382 0.875090 0.112846
O O10 0.500000 0.000000 0.081633
O O11 0.357909 0.091496 0.078853
O O12 0.750000 0.389997 0.991234
O O13 0.648534 0.484781 0.887411
O O14 0.250000 0.773576 0.196651
O O15 0.379913 0.860320 0.275364
O O16 0.104600 0.070421 0.233664
O O17 0.000000 0.000000 0.336974
O O18 0.750000 0.363270 0.695349
O O19 0.880859 0.229228 0.672841
O O20 0.250000 0.342871 0.244715
#
# Coordination Sequence:
#
# PCOD8183332 Si02
#       8
#     8   8   8   8   8   8   8   8
#     4  10  20  38  64  89 119 165 215 252 301 384
#     4  12  27  40  63  92 131 168 211 266 328 384
#     4  11  22  35  62  93 128 155 207 266 318 366
#     4  11  21  41  66  92 124 169 219 258 309 388
#     4  11  22  41  66  93 126 174 221 260 320 397
#     4  11  22  36  64  98 133 156 209 273 321 368
#     4  10  19  35  61  90 121 160 206 255 309 373
#     4  10  22  40  62  88 122 164 212 255 311 386
#
# _framework density 20.451008999999999
#
# number of rings (size 3 to 8) (size 9 to 14) (size 15 to 20)
#    0.000    1.250    2.500    6.000    3.500    0.500 
#    0.000    1.250    0.000    3.000    0.000    0.000 
#    0.000    0.000    0.000    0.000    0.000    0.000 
#
# Total GULP energy -396694.564610 kJ/mol
# GULP energy per Si atom -12396.705144 kJ/mol
# Density = 2.040446 g / cm^3
# Si number density = 20.451009 Si / 1000 Ang^3
#
#
#
# Elastic Constant Matrix: (Units=GPa)
#
#
# Indices 1 2 3 4 5 6 
#
# 1 71.8812 14.1091 8.1693 0.0000 0.0000 0.0000
# 2 14.1091 120.8319 65.3633 0.0000 0.0000 0.0000
# 3 8.1693 65.3633 100.5847 0.0000 0.0000 0.0000
# 4 0.0000 0.0000 0.0000 40.2477 0.0000 0.0000
# 5 0.0000 0.0000 0.0000 0.0000 11.4723 0.0000
# 6 0.0000 0.0000 0.0000 0.0000 0.0000 28.6586
#
#
#
# Elastic Compliance Matrix: (Units=1/GPa)
#
#
# Indices 1 2 3 4 5 6 
#
# 1 0.014239 -0.001599 -0.000117 0.000000 0.000000 0.000000
# 2 -0.001599 0.012942 -0.008280 0.000000 0.000000 0.000000
# 3 -0.000117 -0.008280 0.015332 0.000000 0.000000 0.000000
# 4 0.000000 0.000000 0.000000 0.024846 0.000000 0.000000
# 5 0.000000 0.000000 0.000000 0.000000 0.087166 0.000000
# 6 0.000000 0.000000 0.000000 0.000000 0.000000 0.034894
#
#
# Mechanical properties :
#
#
# Convention : Reuss Voigt Hill
#
# Bulk Modulus (GPa) = 44.40540 52.06455 48.23498
# Shear Modulus (GPa) = 23.05012 29.78613 26.41812
#
# Velocity S-wave (km/s) = 3.36086 3.82050 3.59803
# Velocity P-wave (km/s) = 6.06801 6.70635 6.39515
#
# Compressibility (1/GPa) = 0.02251978
#
# Stress axis : x y z
#
# Youngs Moduli (GPa) = 70.22934 77.26918 65.22270
#
# Poissons Ratio (x) = 0.12357 0.00765
# Poissons Ratio (y) = 0.11231 0.54005
# Poissons Ratio (z) = 0.00823 0.63980
#
# Static dielectric constant tensor:
#      x y z
#    x 3.665470 0.000000 0.000000 
#    y 0.000000 3.885420 0.000000 
#    z 0.000000 0.000000 3.684570 
# 
# 
# High freq. dielectric constant tensor:
#      x y z
#    x 1.794290 0.000000 0.000000 
#    y 0.000000 1.798910 0.000000 
#    z 0.000000 0.000000 1.792650 
# 
# From -- ./inp_files/20770.got.cif
#   From: 2010.03.12/outbox.cif.g09.slc.cpg/sg40_11_cif.got.tgz:20770.got - 2010.04.14 01:38:03.
