data_PCOD8183550
_publ_section_title
;
Structure prediction by ZEFSAII (Michael W. Deem and Ramdas Pophale) SiO2 
 PCOD8183550
Probable space group: A M A 2
;
_chemical_formula_sum "Si O2"
_cell_formula_units_Z 48
_cell_length_a 9.074742
_cell_length_b 29.516276
_cell_length_c 10.062819
_cell_angle_alpha 90.000000
_cell_angle_beta 90.000000
_cell_angle_gamma 90.000000
_cell_volume 2695.352127
_symmetry_space_group_name_H-M "A M A 2"
_symmetry_group_IT_number 40
_symmetry_cell_setting 'orthorhombic'
loop_
_space_group_symop_operation_xyz
x,y,z
-x,-y,z
1/2-x,y,z
1/2+x,-y,z
x,1/2+y,1/2+z
-x,1/2-y,1/2+z
1/2-x,1/2+y,1/2+z
1/2+x,1/2-y,1/2+z
loop_
_atom_site_type_symbol
_atom_site_label
_atom_site_fract_x
_atom_site_fract_y
_atom_site_fract_z
Si Si1 0.075701 0.953158 0.084850
Si Si2 0.578677 0.782317 0.879441
Si Si3 0.578413 0.545646 0.888806
Si Si4 0.077651 0.884633 0.612137
Si Si5 0.577880 0.718951 0.112768
Si Si6 0.922694 0.887168 0.883058
O O1 0.250000 0.956846 0.061423
O O2 0.036271 0.941663 0.237728
O O3 0.000000 0.000000 0.041601
O O4 0.008719 0.913466 0.997011
O O5 0.750000 0.773663 0.857436
O O6 0.498511 0.765672 0.747644
O O7 0.544935 0.834548 0.910826
O O8 0.516120 0.751507 0.998028
O O9 0.500000 0.500000 0.936169
O O10 0.750000 0.536341 0.901489
O O11 0.528092 0.586244 0.984864
O O12 0.250000 0.890636 0.644796
O O13 0.039060 0.832846 0.576845
O O14 0.985407 0.901370 0.739290
O O15 0.750000 0.726057 0.132376
O O16 0.750000 0.898663 0.888059
#
# Coordination Sequence:
#
# PCOD8183550 Si02
#       6
#     8   8   8   8   8   8
#     4  10  20  35  54  76 101 131 167 206 250 298
#     4   9  19  34  51  74 103 132 166 209 253 298
#     4   9  19  34  52  74  99 127 162 204 248 295
#     4   9  18  34  53  73  99 131 168 208 249 297
#     4   9  18  33  52  73  99 132 168 206 249 298
#     4  10  20  34  51  74 104 135 167 205 249 298
#
# _framework density 17.808433000000001
#
# number of rings (size 3 to 8) (size 9 to 14) (size 15 to 20)
#    0.000    2.667    0.000    1.000    0.000    4.667 
#    0.000    3.333    0.000    0.000    0.000    0.000 
#    0.000    0.000    0.000    0.000    0.000    0.000 
#
# Total GULP energy -297654.951353 kJ/mol
# GULP energy per Si atom -12402.289640 kJ/mol
# Density = 1.776790 g / cm^3
# Si number density = 17.808433 Si / 1000 Ang^3
#
#
#
# Elastic Constant Matrix: (Units=GPa)
#
#
# Indices 1 2 3 4 5 6 
#
# 1 61.4492 46.3911 58.1520 0.0000 0.0000 0.0000
# 2 46.3911 98.2383 92.3109 0.0000 0.0000 0.0000
# 3 58.1520 92.3109 146.9229 0.0000 0.0000 0.0000
# 4 0.0000 0.0000 0.0000 40.5033 0.0000 0.0000
# 5 0.0000 0.0000 0.0000 0.0000 31.2254 0.0000
# 6 0.0000 0.0000 0.0000 0.0000 0.0000 24.3399
#
#
#
# Elastic Compliance Matrix: (Units=1/GPa)
#
#
# Indices 1 2 3 4 5 6 
#
# 1 0.027763 -0.006799 -0.006717 0.000000 0.000000 0.000000
# 2 -0.006799 0.026516 -0.013969 0.000000 0.000000 0.000000
# 3 -0.006717 -0.013969 0.018241 0.000000 0.000000 0.000000
# 4 0.000000 0.000000 0.000000 0.024689 0.000000 0.000000
# 5 0.000000 0.000000 0.000000 0.000000 0.032025 0.000000
# 6 0.000000 0.000000 0.000000 0.000000 0.000000 0.041085
#
#
# Mechanical properties :
#
#
# Convention : Reuss Voigt Hill
#
# Bulk Modulus (GPa) = 56.97666 77.81314 67.39490
# Shear Modulus (GPa) = 21.63200 26.53081 24.08140
#
# Velocity S-wave (km/s) = 3.48904 3.86397 3.68128
# Velocity P-wave (km/s) = 6.94945 7.98100 7.48302
#
# Compressibility (1/GPa) = 0.01755105
#
# Stress axis : x y z
#
# Youngs Moduli (GPa) = 36.01937 37.71305 54.82055
#
# Poissons Ratio (x) = 0.25641 0.36822
# Poissons Ratio (y) = 0.24489 0.76578
# Poissons Ratio (z) = 0.24193 0.52681
#
# Static dielectric constant tensor:
#      x y z
#    x 3.289500 0.000000 0.000000 
#    y 0.000000 3.350930 0.000000 
#    z 0.000000 0.000000 3.424560 
# 
# 
# High freq. dielectric constant tensor:
#      x y z
#    x 1.689970 0.000000 0.000000 
#    y 0.000000 1.688300 0.000000 
#    z 0.000000 0.000000 1.693190 
# 
# From -- ./inp_files/4561.got.cif
#   From: 2010.03.12/outbox.cif.g09.slc.cpg/sg40_3_cif.got.tgz:4561.got - 2010.04.14 01:38:03.
