data_PCOD8183790
_publ_section_title
;
Structure prediction by ZEFSAII (Michael W. Deem and Ramdas Pophale) SiO2 
 PCOD8183790
Probable space group: A M A 2
;
_chemical_formula_sum "Si O2"
_cell_formula_units_Z 60
_cell_length_a 9.607918
_cell_length_b 29.551104
_cell_length_c 10.705537
_cell_angle_alpha 90.000000
_cell_angle_beta 90.000000
_cell_angle_gamma 90.000000
_cell_volume 3039.565140
_symmetry_space_group_name_H-M "A M A 2"
_symmetry_group_IT_number 40
_symmetry_cell_setting 'orthorhombic'
loop_
_space_group_symop_operation_xyz
x,y,z
-x,-y,z
1/2-x,y,z
1/2+x,-y,z
x,1/2+y,1/2+z
-x,1/2-y,1/2+z
1/2-x,1/2+y,1/2+z
1/2+x,1/2-y,1/2+z
loop_
_atom_site_type_symbol
_atom_site_label
_atom_site_fract_x
_atom_site_fract_y
_atom_site_fract_z
Si Si1 0.000000 0.500000 0.786381
Si Si2 0.400081 0.076477 0.115863
Si Si3 0.082579 0.113493 0.661184
Si Si4 0.099919 0.423522 0.956889
Si Si5 0.417421 0.386508 0.411567
Si Si6 0.092094 0.201114 0.521145
Si Si7 0.999997 0.848257 0.286374
Si Si8 0.907907 0.201114 0.051606
O O1 0.906290 0.468733 0.697942
O O2 0.906284 0.531265 0.874819
O O3 0.250000 0.076440 0.046386
O O4 0.397600 0.119890 0.207369
O O5 0.527525 0.078511 0.017199
O O6 0.250000 0.108408 0.674811
O O7 0.032859 0.163519 0.617096
O O8 0.027526 0.078512 0.555551
O O9 0.000000 0.101665 0.786376
O O10 0.250000 0.423555 0.026365
O O11 0.102393 0.380112 0.865372
O O12 0.250000 0.391593 0.397940
O O13 0.467139 0.336481 0.455655
O O14 0.250000 0.207998 0.561156
O O15 0.014660 0.250000 0.536374
O O16 0.085505 0.184096 0.379003
O O17 0.085500 0.815902 0.193749
O O18 0.750000 0.207999 0.011598
#
# Coordination Sequence:
#
# PCOD8183790 Si02
#       8
#     4   8   8   8   8   8   8   8
#     4  10  22  36  62  94 114 140 180 232 278 338
#     4  10  20  36  59  85 114 146 183 229 282 338
#     4  10  21  37  57  80 112 153 192 231 282 337
#     4  10  20  36  59  85 114 146 183 229 282 338
#     4  10  21  37  57  80 112 153 192 231 282 337
#     4   9  18  31  49  74 105 144 188 234 277 322
#     4   9  18  31  52  76 110 146 184 227 280 327
#     4   9  18  31  49  74 105 144 188 234 277 322
#
# _framework density 19.739666
#
# number of rings (size 3 to 8) (size 9 to 14) (size 15 to 20)
#    0.000    2.400    0.000    2.000    1.867    7.467 
#    0.000    0.667    0.000    8.000    0.000    0.000 
#    0.000    0.000    0.000    0.000    0.000    0.000 
#
# Total GULP energy -371725.202633 kJ/mol
# GULP energy per Si atom -12390.840088 kJ/mol
# Density = 1.969474 g / cm^3
# Si number density = 19.739666 Si / 1000 Ang^3
#
#
#
# Elastic Constant Matrix: (Units=GPa)
#
#
# Indices 1 2 3 4 5 6 
#
# 1 111.8430 30.2472 43.8023 0.0000 0.0000 0.0000
# 2 30.2472 109.8589 49.2128 0.0000 0.0000 0.0000
# 3 43.8023 49.2128 121.6046 0.0000 0.0000 0.0000
# 4 0.0000 0.0000 0.0000 17.9918 0.0000 0.0000
# 5 0.0000 0.0000 0.0000 0.0000 33.4030 0.0000
# 6 0.0000 0.0000 0.0000 0.0000 0.0000 5.8923
#
#
#
# Elastic Compliance Matrix: (Units=1/GPa)
#
#
# Indices 1 2 3 4 5 6 
#
# 1 0.010602 -0.001476 -0.003222 0.000000 0.000000 0.000000
# 2 -0.001476 0.011324 -0.004051 0.000000 0.000000 0.000000
# 3 -0.003222 -0.004051 0.011023 0.000000 0.000000 0.000000
# 4 0.000000 0.000000 0.000000 0.055581 0.000000 0.000000
# 5 0.000000 0.000000 0.000000 0.000000 0.029937 0.000000
# 6 0.000000 0.000000 0.000000 0.000000 0.000000 0.169712
#
#
# Mechanical properties :
#
#
# Convention : Reuss Voigt Hill
#
# Bulk Modulus (GPa) = 64.71694 65.53678 65.12686
# Shear Modulus (GPa) = 16.08614 26.12704 21.10659
#
# Velocity S-wave (km/s) = 2.85777 3.64205 3.27348
# Velocity P-wave (km/s) = 6.61404 7.13854 6.88129
#
# Compressibility (1/GPa) = 0.01545191
#
# Stress axis : x y z
#
# Youngs Moduli (GPa) = 94.32231 88.31082 90.71764
#
# Poissons Ratio (x) = 0.13033 0.29225
# Poissons Ratio (y) = 0.13921 0.36750
# Poissons Ratio (z) = 0.30387 0.35775
#
# Static dielectric constant tensor:
#      x y z
#    x 3.324750 0.000000 0.000000 
#    y 0.000000 3.828770 0.000000 
#    z 0.000000 0.000000 3.495720 
# 
# 
# High freq. dielectric constant tensor:
#      x y z
#    x 1.751000 0.000000 0.000000 
#    y 0.000000 1.767900 0.000000 
#    z 0.000000 0.000000 1.762550 
# 
# From -- ./inp_files/10527.got.cif
#   From: 2010.03.12/outbox.cif.g09.slc.cpg/sg40_6_cif.got.tgz:10527.got - 2010.04.14 01:38:03.
