data_PCOD8183802
_publ_section_title
;
Structure prediction by ZEFSAII (Michael W. Deem and Ramdas Pophale) SiO2 
 PCOD8183802
Probable space group: A M A 2
;
_chemical_formula_sum "Si O2"
_cell_formula_units_Z 48
_cell_length_a 8.692194
_cell_length_b 23.007216
_cell_length_c 11.576371
_cell_angle_alpha 90.000000
_cell_angle_beta 90.000000
_cell_angle_gamma 90.000000
_cell_volume 2315.079542
_symmetry_space_group_name_H-M "A M A 2"
_symmetry_group_IT_number 40
_symmetry_cell_setting 'orthorhombic'
loop_
_space_group_symop_operation_xyz
x,y,z
-x,-y,z
1/2-x,y,z
1/2+x,-y,z
x,1/2+y,1/2+z
-x,1/2-y,1/2+z
1/2-x,1/2+y,1/2+z
1/2+x,1/2-y,1/2+z
loop_
_atom_site_type_symbol
_atom_site_label
_atom_site_fract_x
_atom_site_fract_y
_atom_site_fract_z
Si Si1 0.427881 0.642230 0.362120
Si Si2 0.431072 0.435645 0.178359
Si Si3 0.579235 0.558119 0.778430
Si Si4 0.430660 0.772286 0.315454
Si Si5 0.930290 0.866618 0.469341
Si Si6 0.420374 0.344426 0.600498
O O1 0.250000 0.627464 0.343359
O O2 0.525418 0.590520 0.303823
O O3 0.471340 0.704663 0.308480
O O4 0.461155 0.647572 0.497339
O O5 0.500000 0.500000 0.159484
O O6 0.250000 0.441823 0.167211
O O7 0.492092 0.388156 0.087321
O O8 0.500000 0.500000 0.737570
O O9 0.750000 0.548803 0.832256
O O10 0.468583 0.586503 0.872390
O O11 0.593141 0.594255 0.662548
O O12 0.250000 0.784983 0.329739
O O13 0.510761 0.803393 0.425785
O O14 0.487535 0.798151 0.193047
O O15 0.750000 0.862483 0.491902
O O16 0.250000 0.325440 0.555914
#
# Coordination Sequence:
#
# PCOD8183802 Si02
#       6
#     8   8   8   8   8   8
#     4  11  24  41  63  93 126 163 207 257 313 375
#     4  12  26  45  66  91 127 170 216 261 317 379
#     4  10  20  36  59  87 120 158 202 252 306 362
#     4   9  21  41  63  91 127 163 205 257 313 372
#     4  11  22  38  63  94 126 162 207 258 311 367
#     4   9  20  39  59  84 120 162 204 251 304 364
#
# _framework density 20.733628
#
# number of rings (size 3 to 8) (size 9 to 14) (size 15 to 20)
#    0.000    1.667    0.000    5.500    2.333    5.333 
#    0.000    1.667    0.000    0.000    0.000    0.000 
#    0.000    0.000    0.000    0.000    0.000    0.000 
#
# Total GULP energy -297602.097490 kJ/mol
# GULP energy per Si atom -12400.087395 kJ/mol
# Density = 2.068644 g / cm^3
# Si number density = 20.733628 Si / 1000 Ang^3
#
#
#
# Elastic Constant Matrix: (Units=GPa)
#
#
# Indices 1 2 3 4 5 6 
#
# 1 121.0945 40.5105 32.4813 0.0000 0.0000 0.0000
# 2 40.5105 76.6036 19.1271 0.0000 0.0000 0.0000
# 3 32.4813 19.1271 92.8149 0.0000 0.0000 0.0000
# 4 0.0000 0.0000 0.0000 13.2363 0.0000 0.0000
# 5 0.0000 0.0000 0.0000 0.0000 35.9683 0.0000
# 6 0.0000 0.0000 0.0000 0.0000 0.0000 32.4284
#
#
#
# Elastic Compliance Matrix: (Units=1/GPa)
#
#
# Indices 1 2 3 4 5 6 
#
# 1 0.010640 -0.004952 -0.002703 0.000000 0.000000 0.000000
# 2 -0.004952 0.016067 -0.001578 0.000000 0.000000 0.000000
# 3 -0.002703 -0.001578 0.012045 0.000000 0.000000 0.000000
# 4 0.000000 0.000000 0.000000 0.075550 0.000000 0.000000
# 5 0.000000 0.000000 0.000000 0.000000 0.027802 0.000000
# 6 0.000000 0.000000 0.000000 0.000000 0.000000 0.030837
#
#
# Mechanical properties :
#
#
# Convention : Reuss Voigt Hill
#
# Bulk Modulus (GPa) = 49.29474 52.75011 51.02242
# Shear Modulus (GPa) = 25.23108 29.55289 27.39199
#
# Velocity S-wave (km/s) = 3.49222 3.77949 3.63869
# Velocity P-wave (km/s) = 6.33148 6.67406 6.50503
#
# Compressibility (1/GPa) = 0.02028614
#
# Stress axis : x y z
#
# Youngs Moduli (GPa) = 93.98915 62.23998 83.02003
#
# Poissons Ratio (x) = 0.30819 0.22440
# Poissons Ratio (y) = 0.46540 0.13102
# Poissons Ratio (z) = 0.25405 0.09823
#
# Static dielectric constant tensor:
#      x y z
#    x 3.849240 0.000000 0.000000 
#    y 0.000000 3.864380 0.000000 
#    z 0.000000 0.000000 3.711410 
# 
# 
# High freq. dielectric constant tensor:
#      x y z
#    x 1.814730 0.000000 0.000000 
#    y 0.000000 1.817270 0.000000 
#    z 0.000000 0.000000 1.807710 
# 
# From -- ./inp_files/10259.got.cif
#   From: 2010.03.12/outbox.cif.g09.slc.cpg/sg40_6_cif.got.tgz:10259.got - 2010.04.14 01:38:03.
