data_PCOD8183267
_publ_section_title
;
Structure prediction by ZEFSAII (Michael W. Deem and Ramdas Pophale) SiO2 
 PCOD8183267
Probable space group: A M A 2
;
_chemical_formula_sum "Si O2"
_cell_formula_units_Z 44
_cell_length_a 12.552580
_cell_length_b 5.346519
_cell_length_c 26.599444
_cell_angle_alpha 90.000000
_cell_angle_beta 90.000000
_cell_angle_gamma 90.000000
_cell_volume 1785.158044
_symmetry_space_group_name_H-M "A M A 2"
_symmetry_group_IT_number 40
_symmetry_cell_setting 'orthorhombic'
loop_
_space_group_symop_operation_xyz
x,y,z
-x,-y,z
1/2-x,y,z
1/2+x,-y,z
x,1/2+y,1/2+z
-x,1/2-y,1/2+z
1/2-x,1/2+y,1/2+z
1/2+x,1/2-y,1/2+z
loop_
_atom_site_type_symbol
_atom_site_label
_atom_site_fract_x
_atom_site_fract_y
_atom_site_fract_z
Si Si1 0.000000 0.000000 0.978220
Si Si2 0.866992 0.146528 0.673626
Si Si3 0.940803 0.259799 0.572493
Si Si4 0.376119 0.845978 0.333711
Si Si5 0.622674 0.146501 0.219166
Si Si6 0.376906 0.843183 0.888432
O O1 0.925526 0.180044 0.944538
O O2 0.082733 0.158696 0.014349
O O3 0.750000 0.122481 0.697921
O O4 0.850114 0.203884 0.613866
O O5 0.926412 0.376235 0.702394
O O6 0.922996 0.876180 0.684330
O O7 0.000000 0.500000 0.596994
O O8 0.000000 0.000000 0.568805
O O9 0.250000 0.855431 0.338357
O O10 0.410651 0.803456 0.276488
O O11 0.417311 0.611675 0.366856
O O12 0.420991 0.114641 0.353914
O O13 0.750000 0.126825 0.211865
O O14 0.250000 0.830820 0.891510
#
# Coordination Sequence:
#
# PCOD8183267 Si02
#       6
#     4   8   8   8   8   8
#     4  10  26  40  64  80 120 156 200 258 302 346
#     4  10  19  34  60  88 113 149 196 236 283 359
#     4  10  23  40  57  79 110 160 187 242 306 338
#     4   9  18  34  58  89 119 150 190 235 291 355
#     4   9  17  31  57  89 118 149 185 235 291 346
#     4  10  21  37  61  87 116 156 198 242 294 355
#
# _framework density 24.647676000000001
#
# number of rings (size 3 to 8) (size 9 to 14) (size 15 to 20)
#    0.545    1.818    0.000    2.182    2.545    5.091 
#    0.000    0.909   20.000    0.000    0.000    0.000 
#    0.000    0.000    0.000    0.000    0.000    0.000 
#
# Total GULP energy -272553.149905 kJ/mol
# GULP energy per Si atom -12388.779541 kJ/mol
# Density = 2.459158 g / cm^3
# Si number density = 24.647676 Si / 1000 Ang^3
#
#
#
# Elastic Constant Matrix: (Units=GPa)
#
#
# Indices 1 2 3 4 5 6 
#
# 1 26.8611 52.9568 16.1655 0.0000 0.0000 0.0000
# 2 52.9568 214.7176 91.2885 0.0000 0.0000 0.0000
# 3 16.1655 91.2885 189.1775 0.0000 0.0000 0.0000
# 4 0.0000 0.0000 0.0000 63.4670 0.0000 0.0000
# 5 0.0000 0.0000 0.0000 0.0000 33.8678 0.0000
# 6 0.0000 0.0000 0.0000 0.0000 0.0000 40.3763
#
#
#
# Elastic Compliance Matrix: (Units=1/GPa)
#
#
# Indices 1 2 3 4 5 6 
#
# 1 0.073899 -0.019553 0.003120 0.000000 0.000000 0.000000
# 2 -0.019553 0.011033 -0.003653 0.000000 0.000000 0.000000
# 3 0.003120 -0.003653 0.006782 0.000000 0.000000 0.000000
# 4 0.000000 0.000000 0.000000 0.015756 0.000000 0.000000
# 5 0.000000 0.000000 0.000000 0.000000 0.029527 0.000000
# 6 0.000000 0.000000 0.000000 0.000000 0.000000 0.024767
#
#
# Mechanical properties :
#
#
# Convention : Reuss Voigt Hill
#
# Bulk Modulus (GPa) = 19.40122 83.50867 51.45494
# Shear Modulus (GPa) = 22.81903 45.56523 34.19213
#
# Velocity S-wave (km/s) = 3.04601 4.30427 3.72860
# Velocity P-wave (km/s) = 4.50105 7.65878 6.28157
#
# Compressibility (1/GPa) = 0.05154315
#
# Stress axis : x y z
#
# Youngs Moduli (GPa) = 13.53202 90.63892 147.44435
#
# Poissons Ratio (x) = 1.77223 -0.46009
# Poissons Ratio (y) = 0.26459 0.53863
# Poissons Ratio (z) = -0.04223 0.33111
#
# Static dielectric constant tensor:
#      x y z
#    x 4.238230 0.000000 0.000000 
#    y 0.000000 4.849330 0.000000 
#    z 0.000000 0.000000 4.438440 
# 
# 
# High freq. dielectric constant tensor:
#      x y z
#    x 1.997550 0.000000 0.000000 
#    y 0.000000 2.007490 0.000000 
#    z 0.000000 0.000000 1.971170 
# 
# From -- ./inp_files/25681.got.cif
#   From: 2010.03.12/outbox.cif.g09.slc.cpg/sg40_13_cif.got.tgz:25681.got - 2010.04.14 01:38:03.
