data_PCOD8183296
_publ_section_title
;
Structure prediction by ZEFSAII (Michael W. Deem and Ramdas Pophale) SiO2 
 PCOD8183296
Probable space group: A M A 2
;
_chemical_formula_sum "Si O2"
_cell_formula_units_Z 64
_cell_length_a 8.917116
_cell_length_b 19.630531
_cell_length_c 20.422627
_cell_angle_alpha 90.000000
_cell_angle_beta 90.000000
_cell_angle_gamma 90.000000
_cell_volume 3574.934335
_symmetry_space_group_name_H-M "A M A 2"
_symmetry_group_IT_number 40
_symmetry_cell_setting 'orthorhombic'
loop_
_space_group_symop_operation_xyz
x,y,z
-x,-y,z
1/2-x,y,z
1/2+x,-y,z
x,1/2+y,1/2+z
-x,1/2-y,1/2+z
1/2-x,1/2+y,1/2+z
1/2+x,1/2-y,1/2+z
loop_
_atom_site_type_symbol
_atom_site_label
_atom_site_fract_x
_atom_site_fract_y
_atom_site_fract_z
Si Si1 0.425225 0.568254 0.119650
Si Si2 0.924841 0.566839 0.731874
Si Si3 0.427564 0.069958 0.770611
Si Si4 0.424906 0.285770 0.691990
Si Si5 0.925460 0.790783 0.560027
Si Si6 0.926682 0.713427 0.927155
Si Si7 0.425143 0.432991 0.880516
Si Si8 0.928090 0.205973 0.809532
O O1 0.500000 0.500000 0.091152
O O2 0.250000 0.558045 0.113926
O O3 0.471468 0.580796 0.194785
O O4 0.479381 0.633003 0.078067
O O5 0.750000 0.553953 0.730311
O O6 0.968317 0.634513 0.691848
O O7 0.982757 0.576809 0.806139
O O8 0.000000 0.500000 0.699617
O O9 0.250000 0.068549 0.781525
O O10 0.499784 0.131145 0.811412
O O11 0.500000 0.000000 0.796714
O O12 0.250000 0.274625 0.710247
O O13 0.461928 0.258710 0.620187
O O14 0.521783 0.246004 0.744983
O O15 0.750000 0.789522 0.542733
O O16 0.021040 0.763293 0.499000
O O17 0.750000 0.725164 0.917215
O O18 0.971152 0.633994 0.920485
O O19 0.016027 0.756018 0.873922
O O20 0.500000 0.500000 0.912552
O O21 0.250000 0.444945 0.882246
O O22 0.750000 0.200127 0.810459
#
# Coordination Sequence:
#
# PCOD8183296 Si02
#       8
#     8   8   8   8   8   8   8   8
#     4   9  18  32  52  76 109 148 183 222 266 321
#     4   9  17  31  53  79 107 139 175 218 272 326
#     4  10  19  35  57  84 115 147 182 227 280 331
#     4  10  19  37  59  79 110 148 182 224 281 332
#     4  10  21  37  55  78 108 146 187 228 276 329
#     4  11  23  39  55  76 110 150 187 231 281 330
#     4   9  18  32  51  74 105 143 181 219 266 322
#     4  12  23  35  57  86 111 143 188 234 277 330
#
# _framework density 17.902425999999998
#
# number of rings (size 3 to 8) (size 9 to 14) (size 15 to 20)
#    0.000    2.000    2.500    1.875    0.000    3.500 
#    0.000    2.500    0.000    0.750    0.000    3.500 
#    0.000    0.000    0.000    0.000    0.000    0.000 
#
# Total GULP energy -396854.902182 kJ/mol
# GULP energy per Si atom -12401.715693 kJ/mol
# Density = 1.786168 g / cm^3
# Si number density = 17.902426 Si / 1000 Ang^3
#
#
#
# Elastic Constant Matrix: (Units=GPa)
#
#
# Indices 1 2 3 4 5 6 
#
# 1 76.2777 55.7289 40.0438 0.0000 0.0000 0.0000
# 2 55.7289 128.1240 51.9900 0.0000 0.0000 0.0000
# 3 40.0438 51.9900 82.2645 0.0000 0.0000 0.0000
# 4 0.0000 0.0000 0.0000 20.9629 0.0000 0.0000
# 5 0.0000 0.0000 0.0000 0.0000 25.2308 0.0000
# 6 0.0000 0.0000 0.0000 0.0000 0.0000 33.3107
#
#
#
# Elastic Compliance Matrix: (Units=1/GPa)
#
#
# Indices 1 2 3 4 5 6 
#
# 1 0.021245 -0.006784 -0.006054 0.000000 0.000000 0.000000
# 2 -0.006784 0.012663 -0.004701 0.000000 0.000000 0.000000
# 3 -0.006054 -0.004701 0.018073 0.000000 0.000000 0.000000
# 4 0.000000 0.000000 0.000000 0.047703 0.000000 0.000000
# 5 0.000000 0.000000 0.000000 0.000000 0.039634 0.000000
# 6 0.000000 0.000000 0.000000 0.000000 0.000000 0.030020
#
#
# Mechanical properties :
#
#
# Convention : Reuss Voigt Hill
#
# Bulk Modulus (GPa) = 59.15694 64.68797 61.92245
# Shear Modulus (GPa) = 23.80378 25.16111 24.48244
#
# Velocity S-wave (km/s) = 3.65038 3.75301 3.70205
# Velocity P-wave (km/s) = 7.13322 7.41567 7.27582
#
# Compressibility (1/GPa) = 0.01690419
#
# Stress axis : x y z
#
# Youngs Moduli (GPa) = 47.07095 78.96915 55.32979
#
# Poissons Ratio (x) = 0.53573 0.33495
# Poissons Ratio (y) = 0.31933 0.26009
# Poissons Ratio (z) = 0.28496 0.37121
#
# Static dielectric constant tensor:
#      x y z
#    x 3.250150 0.000000 0.000000 
#    y 0.000000 3.538460 0.000000 
#    z 0.000000 0.000000 3.110260 
# 
# 
# High freq. dielectric constant tensor:
#      x y z
#    x 1.692090 0.000000 0.000000 
#    y 0.000000 1.700840 0.000000 
#    z 0.000000 0.000000 1.666240 
# 
# From -- ./inp_files/19637.got.cif
#   From: 2010.03.12/outbox.cif.g09.slc.cpg/sg40_10_cif.got.tgz:19637.got - 2010.04.14 01:38:03.
