data_PCOD8183193
_publ_section_title
;
Structure prediction by ZEFSAII (Michael W. Deem and Ramdas Pophale) SiO2 
 PCOD8183193
Probable space group: A M A 2
;
_chemical_formula_sum "Si O2"
_cell_formula_units_Z 48
_cell_length_a 15.394160
_cell_length_b 13.038932
_cell_length_c 12.979782
_cell_angle_alpha 90.000000
_cell_angle_beta 90.000000
_cell_angle_gamma 90.000000
_cell_volume 2605.346045
_symmetry_space_group_name_H-M "A M A 2"
_symmetry_group_IT_number 40
_symmetry_cell_setting 'orthorhombic'
loop_
_space_group_symop_operation_xyz
x,y,z
-x,-y,z
1/2-x,y,z
1/2+x,-y,z
x,1/2+y,1/2+z
-x,1/2-y,1/2+z
1/2-x,1/2+y,1/2+z
1/2+x,1/2-y,1/2+z
loop_
_atom_site_type_symbol
_atom_site_label
_atom_site_fract_x
_atom_site_fract_y
_atom_site_fract_z
Si Si1 0.407177 0.163916 0.696210
Si Si2 0.250000 0.993398 0.371852
Si Si3 0.750000 0.234081 0.297509
Si Si4 0.406997 0.993127 0.868514
Si Si5 0.750000 0.832964 0.198905
Si Si6 0.100466 0.829786 0.705083
Si Si7 0.250000 0.093433 0.969906
Si Si8 0.899335 0.997660 0.535597
O O1 0.335497 0.245349 0.729730
O O2 0.413769 0.071175 0.774924
O O3 0.502785 0.214649 0.689989
O O4 0.379995 0.112122 0.588449
O O5 0.250000 0.083516 0.288708
O O6 0.162269 0.997901 0.437583
O O7 0.250000 0.884836 0.317069
O O8 0.750000 0.302615 0.401636
O O9 0.333050 0.023131 0.947931
O O10 0.500000 0.000000 0.927176
O O11 0.388177 0.882856 0.817099
O O12 0.836040 0.765593 0.205006
O O13 0.750000 0.886681 0.089348
O O14 0.122809 0.908094 0.612219
O O15 0.000000 0.000000 0.500766
#
# Coordination Sequence:
#
# PCOD8183193 Si02
#       8
#     8   4   4   8   4   8   4   8
#     4   8  16  32  60  88 103 123 171 226 268 309
#     4  12  25  36  48  74 116 154 179 210 256 314
#     4  10  19  34  56  78 106 144 175 210 258 316
#     4   8  15  31  58  86 103 122 164 221 270 308
#     4  12  25  36  46  72 110 148 181 210 250 310
#     4   9  17  35  60  83 103 129 168 222 273 312
#     4  10  19  34  54  76 102 138 179 210 250 312
#     4   9  18  36  62  85 103 130 175 227 271 313
#
# _framework density 18.423656000000001
#
# number of rings (size 3 to 8) (size 9 to 14) (size 15 to 20)
#    0.000    2.667    0.000    4.500    0.000    4.000 
#    0.000   10.833    0.000    0.000    0.000    0.000 
#    0.000    0.000    0.000    0.000    0.000    0.000 
#
# Total GULP energy -297503.720714 kJ/mol
# GULP energy per Si atom -12395.988363 kJ/mol
# Density = 1.838172 g / cm^3
# Si number density = 18.423656 Si / 1000 Ang^3
#
#
#
# Elastic Constant Matrix: (Units=GPa)
#
#
# Indices 1 2 3 4 5 6 
#
# 1 164.0398 79.4379 75.5803 0.0000 0.0000 0.0000
# 2 79.4379 103.0190 61.7382 0.0000 0.0000 0.0000
# 3 75.5803 61.7382 100.3575 0.0000 0.0000 0.0000
# 4 0.0000 0.0000 0.0000 24.0484 0.0000 0.0000
# 5 0.0000 0.0000 0.0000 0.0000 7.0715 0.0000
# 6 0.0000 0.0000 0.0000 0.0000 0.0000 9.3117
#
#
#
# Elastic Compliance Matrix: (Units=1/GPa)
#
#
# Indices 1 2 3 4 5 6 
#
# 1 0.011058 -0.005601 -0.004882 0.000000 0.000000 0.000000
# 2 -0.005601 0.018212 -0.006986 0.000000 0.000000 0.000000
# 3 -0.004882 -0.006986 0.017939 0.000000 0.000000 0.000000
# 4 0.000000 0.000000 0.000000 0.041583 0.000000 0.000000
# 5 0.000000 0.000000 0.000000 0.000000 0.141413 0.000000
# 6 0.000000 0.000000 0.000000 0.000000 0.000000 0.107392
#
#
# Mechanical properties :
#
#
# Convention : Reuss Voigt Hill
#
# Bulk Modulus (GPa) = 81.49217 88.99211 85.24214
# Shear Modulus (GPa) = 13.27583 18.13032 15.70307
#
# Velocity S-wave (km/s) = 2.68729 3.14041 2.92264
# Velocity P-wave (km/s) = 7.34555 7.84586 7.59982
#
# Compressibility (1/GPa) = 0.01227112
#
# Stress axis : x y z
#
# Youngs Moduli (GPa) = 90.43427 54.90811 55.74502
#
# Poissons Ratio (x) = 0.30753 0.27216
# Poissons Ratio (y) = 0.50650 0.38943
# Poissons Ratio (z) = 0.44152 0.38358
#
# Static dielectric constant tensor:
#      x y z
#    x 4.195170 0.000000 0.000000 
#    y 0.000000 3.215730 0.000000 
#    z 0.000000 0.000000 3.182120 
# 
# 
# High freq. dielectric constant tensor:
#      x y z
#    x 1.736920 0.000000 0.000000 
#    y 0.000000 1.690680 0.000000 
#    z 0.000000 0.000000 1.688780 
# 
# From -- ./inp_files/12947.got.cif
#   From: 2010.03.12/outbox.cif.g09.slc.cpg/sg40_7_cif.got.tgz:12947.got - 2010.04.14 01:38:03.
