data_PCOD8183322
_publ_section_title
;
Structure prediction by ZEFSAII (Michael W. Deem and Ramdas Pophale) SiO2 
 PCOD8183322
Probable space group: A M A 2
;
_chemical_formula_sum "Si O2"
_cell_formula_units_Z 56
_cell_length_a 16.073699
_cell_length_b 20.715175
_cell_length_c 8.752321
_cell_angle_alpha 90.000000
_cell_angle_beta 90.000000
_cell_angle_gamma 90.000000
_cell_volume 2914.255839
_symmetry_space_group_name_H-M "A M A 2"
_symmetry_group_IT_number 40
_symmetry_cell_setting 'orthorhombic'
loop_
_space_group_symop_operation_xyz
x,y,z
-x,-y,z
1/2-x,y,z
1/2+x,-y,z
x,1/2+y,1/2+z
-x,1/2-y,1/2+z
1/2-x,1/2+y,1/2+z
1/2+x,1/2-y,1/2+z
loop_
_atom_site_type_symbol
_atom_site_label
_atom_site_fract_x
_atom_site_fract_y
_atom_site_fract_z
Si Si1 0.156085 0.287685 0.634290
Si Si2 0.654467 0.602519 0.864839
Si Si3 0.510845 0.389288 0.020089
Si Si4 0.926881 0.264571 0.852112
Si Si5 0.846424 0.350063 0.605615
Si Si6 0.914961 0.974112 0.267106
Si Si7 0.074341 0.677527 0.286981
O O1 0.250000 0.306427 0.604782
O O2 0.120068 0.343980 0.744635
O O3 0.114541 0.286970 0.467257
O O4 0.151298 0.216591 0.712279
O O5 0.750000 0.616351 0.917663
O O6 0.590000 0.603138 0.008299
O O7 0.650343 0.532217 0.786625
O O8 0.533673 0.321227 0.948569
O O9 0.557629 0.446712 0.932762
O O10 0.546615 0.387148 0.193845
O O11 0.862477 0.293386 0.728071
O O12 0.998396 0.227100 0.763687
O O13 0.750000 0.348586 0.558842
O O14 0.869548 0.420033 0.669111
O O15 0.904779 0.339922 0.459558
O O16 0.000000 0.000000 0.186091
#
# Coordination Sequence:
#
# PCOD8183322 Si02
#       7
#     8   8   8   8   8   8   8
#     4  10  20  34  55  84 114 143 178 226 287 340
#     4  10  19  35  60  84 111 146 191 240 286 338
#     4   9  19  36  55  82 108 150 190 228 277 344
#     4  10  20  34  56  82 116 147 182 224 285 346
#     4  11  22  37  59  88 116 150 195 243 288 337
#     4   9  20  37  61  82 110 152 200 235 282 342
#     4  11  21  35  57  82 116 148 187 234 286 341
#
# _framework density 19.215883000000002
#
# number of rings (size 3 to 8) (size 9 to 14) (size 15 to 20)
#    0.000    2.000    1.429    3.000    4.000    0.000 
#    0.000    5.000    0.000    0.000    0.000    0.000 
#    0.000    0.000    0.000    0.000    0.000    0.000 
#
# Total GULP energy -347047.596406 kJ/mol
# GULP energy per Si atom -12394.557015 kJ/mol
# Density = 1.917215 g / cm^3
# Si number density = 19.215883 Si / 1000 Ang^3
#
#
#
# Elastic Constant Matrix: (Units=GPa)
#
#
# Indices 1 2 3 4 5 6 
#
# 1 84.1177 28.5990 32.4652 0.0000 0.0000 0.0000
# 2 28.5990 84.0410 33.9174 0.0000 0.0000 0.0000
# 3 32.4652 33.9174 96.2210 0.0000 0.0000 0.0000
# 4 0.0000 0.0000 0.0000 17.2482 0.0000 0.0000
# 5 0.0000 0.0000 0.0000 0.0000 25.3490 0.0000
# 6 0.0000 0.0000 0.0000 0.0000 0.0000 25.8389
#
#
#
# Elastic Compliance Matrix: (Units=1/GPa)
#
#
# Indices 1 2 3 4 5 6 
#
# 1 0.014476 -0.003445 -0.003670 0.000000 0.000000 0.000000
# 2 -0.003445 0.014692 -0.004017 0.000000 0.000000 0.000000
# 3 -0.003670 -0.004017 0.013047 0.000000 0.000000 0.000000
# 4 0.000000 0.000000 0.000000 0.057977 0.000000 0.000000
# 5 0.000000 0.000000 0.000000 0.000000 0.039449 0.000000
# 6 0.000000 0.000000 0.000000 0.000000 0.000000 0.038701
#
#
# Mechanical properties :
#
#
# Convention : Reuss Voigt Hill
#
# Bulk Modulus (GPa) = 50.12033 50.48256 50.30145
# Shear Modulus (GPa) = 24.12475 24.98042 24.55259
#
# Velocity S-wave (km/s) = 3.54709 3.60945 3.57840
# Velocity P-wave (km/s) = 6.55097 6.61053 6.58082
#
# Compressibility (1/GPa) = 0.01995198
#
# Stress axis : x y z
#
# Youngs Moduli (GPa) = 69.08113 68.06284 76.64734
#
# Poissons Ratio (x) = 0.23448 0.28128
# Poissons Ratio (y) = 0.23799 0.30786
# Poissons Ratio (z) = 0.25351 0.27338
#
# Static dielectric constant tensor:
#      x y z
#    x 3.517570 0.000000 0.000000 
#    y 0.000000 3.668430 0.000000 
#    z 0.000000 0.000000 3.554360 
# 
# 
# High freq. dielectric constant tensor:
#      x y z
#    x 1.752310 0.000000 0.000000 
#    y 0.000000 1.744820 0.000000 
#    z 0.000000 0.000000 1.726070 
# 
# From -- ./inp_files/6703.got.cif
#   From: 2010.03.12/outbox.cif.g09.slc.cpg/sg40_4_cif.got.tgz:6703.got - 2010.04.14 01:38:03.
