data_PCOD8183249
_publ_section_title
;
Structure prediction by ZEFSAII (Michael W. Deem and Ramdas Pophale) SiO2 
 PCOD8183249
Probable space group: A M A 2
;
_chemical_formula_sum "Si O2"
_cell_formula_units_Z 56
_cell_length_a 21.782909
_cell_length_b 26.347421
_cell_length_c 5.053894
_cell_angle_alpha 90.000000
_cell_angle_beta 90.000000
_cell_angle_gamma 90.000000
_cell_volume 2900.548402
_symmetry_space_group_name_H-M "A M A 2"
_symmetry_group_IT_number 40
_symmetry_cell_setting 'orthorhombic'
loop_
_space_group_symop_operation_xyz
x,y,z
-x,-y,z
1/2-x,y,z
1/2+x,-y,z
x,1/2+y,1/2+z
-x,1/2-y,1/2+z
1/2-x,1/2+y,1/2+z
1/2+x,1/2-y,1/2+z
loop_
_atom_site_type_symbol
_atom_site_label
_atom_site_fract_x
_atom_site_fract_y
_atom_site_fract_z
Si Si1 0.821890 0.940150 0.798040
Si Si2 0.362529 0.324898 0.257693
Si Si3 0.321273 0.996580 0.285147
Si Si4 0.495405 0.284986 0.326423
Si Si5 0.878131 0.333037 0.302604
Si Si6 0.678399 0.616886 0.761203
Si Si7 0.179964 0.713558 0.804927
O O1 0.750000 0.925110 0.815428
O O2 0.861306 0.890547 0.732858
O O3 0.834261 0.981243 0.572233
O O4 0.848428 0.965233 0.065517
O O5 0.432693 0.316182 0.339860
O O6 0.330112 0.361147 0.468868
O O7 0.325695 0.272528 0.238431
O O8 0.359974 0.350252 0.969992
O O9 0.250000 0.991778 0.218454
O O10 0.349173 0.940142 0.266282
O O11 0.508415 0.257949 0.603864
O O12 0.549159 0.325333 0.271054
O O13 0.857973 0.320493 0.600392
O O14 0.844310 0.295177 0.100902
O O15 0.750000 0.617854 0.840505
O O16 0.250000 0.695989 0.786471
#
# Coordination Sequence:
#
# PCOD8183249 Si02
#       7
#     8   8   8   8   8   8   8
#     4  10  19  34  57  86 113 147 189 235 294 347
#     4  12  23  38  60  85 118 157 198 242 280 350
#     4   9  19  35  57  83 117 150 185 234 290 357
#     4  12  23  44  60  79 115 162 211 233 275 339
#     4  12  23  39  60  84 119 158 197 241 281 348
#     4  11  22  38  60  90 119 151 191 240 303 351
#     4  12  23  36  56  89 123 151 182 241 303 348
#
# _framework density 19.306692999999999
#
# number of rings (size 3 to 8) (size 9 to 14) (size 15 to 20)
#    0.000    0.857    2.857    6.000    0.000    3.429 
#    0.000    0.000    0.000    5.143    0.000    0.000 
#    0.000    0.000    0.000    0.000    0.000    0.000 
#
# Total GULP energy -347389.719802 kJ/mol
# GULP energy per Si atom -12406.775707 kJ/mol
# Density = 1.926275 g / cm^3
# Si number density = 19.306693 Si / 1000 Ang^3
#
#
#
# Elastic Constant Matrix: (Units=GPa)
#
#
# Indices 1 2 3 4 5 6 
#
# 1 51.0667 36.1256 24.7362 0.0000 0.0000 0.0000
# 2 36.1256 90.6606 3.8349 0.0000 0.0000 0.0000
# 3 24.7362 3.8349 68.7580 0.0000 0.0000 0.0000
# 4 0.0000 0.0000 0.0000 33.5969 0.0000 0.0000
# 5 0.0000 0.0000 0.0000 0.0000 21.5885 0.0000
# 6 0.0000 0.0000 0.0000 0.0000 0.0000 15.1862
#
#
#
# Elastic Compliance Matrix: (Units=1/GPa)
#
#
# Indices 1 2 3 4 5 6 
#
# 1 0.034699 -0.013330 -0.011740 0.000000 0.000000 0.000000
# 2 -0.013330 0.016177 0.003893 0.000000 0.000000 0.000000
# 3 -0.011740 0.003893 0.018550 0.000000 0.000000 0.000000
# 4 0.000000 0.000000 0.000000 0.029765 0.000000 0.000000
# 5 0.000000 0.000000 0.000000 0.000000 0.046321 0.000000
# 6 0.000000 0.000000 0.000000 0.000000 0.000000 0.065849
#
#
# Mechanical properties :
#
#
# Convention : Reuss Voigt Hill
#
# Bulk Modulus (GPa) = 36.93680 37.76430 37.35055
# Shear Modulus (GPa) = 19.03042 23.79355 21.41198
#
# Velocity S-wave (km/s) = 3.14298 3.51436 3.33385
# Velocity P-wave (km/s) = 5.68720 6.00586 5.84870
#
# Compressibility (1/GPa) = 0.02707327
#
# Stress axis : x y z
#
# Youngs Moduli (GPa) = 28.81967 61.81628 53.90822
#
# Poissons Ratio (x) = 0.82400 0.63286
# Poissons Ratio (y) = 0.38416 -0.20988
# Poissons Ratio (z) = 0.33833 -0.24066
#
# Static dielectric constant tensor:
#      x y z
#    x 3.386190 0.000000 0.000000 
#    y 0.000000 3.548110 0.000000 
#    z 0.000000 0.000000 3.638270 
# 
# 
# High freq. dielectric constant tensor:
#      x y z
#    x 1.723800 0.000000 0.000000 
#    y 0.000000 1.754900 0.000000 
#    z 0.000000 0.000000 1.771370 
# 
# From -- ./inp_files/2401.got.cif
#   From: 2010.03.12/outbox.cif.g09.slc.cpg/sg40_2_cif.got.tgz:2401.got - 2010.04.14 01:38:03.
