data_PCOD8183971
_publ_section_title
;
Structure prediction by ZEFSAII (Michael W. Deem and Ramdas Pophale) SiO2 
 PCOD8183971
Probable space group: A M A 2
;
_chemical_formula_sum "Si O2"
_cell_formula_units_Z 64
_cell_length_a 20.156528
_cell_length_b 17.017179
_cell_length_c 8.982432
_cell_angle_alpha 90.000000
_cell_angle_beta 90.000000
_cell_angle_gamma 90.000000
_cell_volume 3081.039254
_symmetry_space_group_name_H-M "A M A 2"
_symmetry_group_IT_number 40
_symmetry_cell_setting 'orthorhombic'
loop_
_space_group_symop_operation_xyz
x,y,z
-x,-y,z
1/2-x,y,z
1/2+x,-y,z
x,1/2+y,1/2+z
-x,1/2-y,1/2+z
1/2-x,1/2+y,1/2+z
1/2+x,1/2-y,1/2+z
loop_
_atom_site_type_symbol
_atom_site_label
_atom_site_fract_x
_atom_site_fract_y
_atom_site_fract_z
Si Si1 0.467889 0.825650 0.146940
Si Si2 0.417085 0.117836 0.967568
Si Si3 0.822154 0.020385 0.001874
Si Si4 0.546419 0.567630 0.917957
Si Si5 0.173932 0.677927 0.711576
Si Si6 0.825026 0.991421 0.335330
Si Si7 0.004175 0.844445 0.704010
Si Si8 0.372951 0.826816 0.892952
O O1 0.448266 0.858642 0.307442
O O2 0.510435 0.746285 0.158636
O O3 0.514873 0.888893 0.062633
O O4 0.402051 0.803598 0.054501
O O5 0.436349 0.145863 0.800561
O O6 0.381651 0.034248 0.945142
O O7 0.367874 0.177041 0.057417
O O8 0.750000 0.980072 0.975811
O O9 0.820637 0.103208 0.916198
O O10 0.831988 0.035743 0.177554
O O11 0.500000 0.500000 0.847867
O O12 0.620764 0.531884 0.944879
O O13 0.508350 0.596743 0.065221
O O14 0.250000 0.677902 0.662360
O O15 0.157466 0.600539 0.809615
O O16 0.160191 0.752938 0.813672
O O17 0.750000 0.000895 0.400531
O O18 0.068378 0.864862 0.798698
#
# Coordination Sequence:
#
# PCOD8183971 Si02
#       8
#     8   8   8   8   8   8   8   8
#     4  11  23  40  64  92 128 170 215 273 330 401
#     4  10  21  40  64  91 125 167 217 269 334 394
#     4  10  20  38  65  94 125 169 221 271 326 404
#     4  12  24  39  68  98 127 176 225 276 338 400
#     4  10  20  39  68  96 129 178 227 270 331 412
#     4   9  20  40  64  93 130 173 223 270 327 406
#     4  11  26  39  61  92 135 166 213 281 340 388
#     4  11  22  38  63  95 130 166 219 274 331 395
#
# _framework density 20.772212
#
# number of rings (size 3 to 8) (size 9 to 14) (size 15 to 20)
#    0.000    1.500    2.500    4.500    3.500    1.000 
#    0.000    1.250    0.000    3.000    0.000    0.000 
#    0.000    0.000    0.000    0.000    0.000    0.000 
#
# Total GULP energy -396612.137023 kJ/mol
# GULP energy per Si atom -12394.129282 kJ/mol
# Density = 2.072493 g / cm^3
# Si number density = 20.772212 Si / 1000 Ang^3
#
#
#
# Elastic Constant Matrix: (Units=GPa)
#
#
# Indices 1 2 3 4 5 6 
#
# 1 112.1488 47.5994 37.7708 0.0000 0.0000 0.0000
# 2 47.5994 121.9321 47.7948 0.0000 0.0000 0.0000
# 3 37.7708 47.7948 98.5657 0.0000 0.0000 0.0000
# 4 0.0000 0.0000 0.0000 35.6993 0.0000 0.0000
# 5 0.0000 0.0000 0.0000 0.0000 30.3816 0.0000
# 6 0.0000 0.0000 0.0000 0.0000 0.0000 31.3616
#
#
#
# Elastic Compliance Matrix: (Units=1/GPa)
#
#
# Indices 1 2 3 4 5 6 
#
# 1 0.011237 -0.003332 -0.002690 0.000000 0.000000 0.000000
# 2 -0.003332 0.011114 -0.004112 0.000000 0.000000 0.000000
# 3 -0.002690 -0.004112 0.013171 0.000000 0.000000 0.000000
# 4 0.000000 0.000000 0.000000 0.028012 0.000000 0.000000
# 5 0.000000 0.000000 0.000000 0.000000 0.032915 0.000000
# 6 0.000000 0.000000 0.000000 0.000000 0.000000 0.031886
#
#
# Mechanical properties :
#
#
# Convention : Reuss Voigt Hill
#
# Bulk Modulus (GPa) = 65.56501 66.55296 66.05898
# Shear Modulus (GPa) = 32.53351 32.78729 32.66040
#
# Velocity S-wave (km/s) = 3.96182 3.97724 3.96954
# Velocity P-wave (km/s) = 7.24985 7.29385 7.27189
#
# Compressibility (1/GPa) = 0.01525204
#
# Stress axis : x y z
#
# Youngs Moduli (GPa) = 88.99118 89.97650 75.92697
#
# Poissons Ratio (x) = 0.29981 0.20427
# Poissons Ratio (y) = 0.29653 0.31224
# Poissons Ratio (z) = 0.23942 0.37001
#
# Static dielectric constant tensor:
#      x y z
#    x 3.864100 0.000000 0.000000 
#    y 0.000000 3.659370 0.000000 
#    z 0.000000 0.000000 3.617060 
# 
# 
# High freq. dielectric constant tensor:
#      x y z
#    x 1.819730 0.000000 0.000000 
#    y 0.000000 1.809540 0.000000 
#    z 0.000000 0.000000 1.790110 
# 
# From -- ./inp_files/8464.got.cif
#   From: 2010.03.12/outbox.cif.g09.slc.cpg/sg40_5_cif.got.tgz:8464.got - 2010.04.14 01:38:03.
