data_PCOD8183151
_publ_section_title
;
Structure prediction by ZEFSAII (Michael W. Deem and Ramdas Pophale) SiO2 
 PCOD8183151
Probable space group: A M A 2
;
_chemical_formula_sum "Si O2"
_cell_formula_units_Z 64
_cell_length_a 8.657488
_cell_length_b 18.518948
_cell_length_c 20.811109
_cell_angle_alpha 90.000000
_cell_angle_beta 90.000000
_cell_angle_gamma 90.000000
_cell_volume 3336.594537
_symmetry_space_group_name_H-M "A M A 2"
_symmetry_group_IT_number 40
_symmetry_cell_setting 'orthorhombic'
loop_
_space_group_symop_operation_xyz
x,y,z
-x,-y,z
1/2-x,y,z
1/2+x,-y,z
x,1/2+y,1/2+z
-x,1/2-y,1/2+z
1/2-x,1/2+y,1/2+z
1/2+x,1/2-y,1/2+z
loop_
_atom_site_type_symbol
_atom_site_label
_atom_site_fract_x
_atom_site_fract_y
_atom_site_fract_z
Si Si1 0.572781 0.813225 0.464060
Si Si2 0.434049 0.655394 0.459395
Si Si3 0.566131 0.852660 0.683226
Si Si4 0.431759 0.576910 0.586625
Si Si5 0.569047 0.075789 0.560435
Si Si6 0.424090 0.708168 0.824551
Si Si7 0.572132 0.304057 0.683675
Si Si8 0.426056 0.145039 0.821990
O O1 0.750000 0.819770 0.486690
O O2 0.519548 0.730753 0.471895
O O3 0.469254 0.863571 0.508309
O O4 0.553843 0.839322 0.389311
O O5 0.250000 0.669769 0.457852
O O6 0.481789 0.600164 0.515066
O O7 0.491729 0.618339 0.391427
O O8 0.750000 0.856407 0.681281
O O9 0.497689 0.905005 0.630079
O O10 0.517387 0.770209 0.671184
O O11 0.500304 0.880314 0.753637
O O12 0.500000 0.500000 0.604043
O O13 0.250000 0.572051 0.593529
O O14 0.498315 0.635219 0.637074
O O15 0.750000 0.068117 0.566756
O O16 0.500000 0.000000 0.536940
O O17 0.250000 0.742311 0.826477
O O18 0.444394 0.665766 0.757107
O O19 0.555159 0.768796 0.825098
O O20 0.750000 0.288769 0.666061
O O21 0.250000 0.122505 0.818621
#
# Coordination Sequence:
#
# PCOD8183151 Si02
#       8
#     8   8   8   8   8   8   8   8
#     4  10  19  33  55  82 106 132 167 210 256 305
#     4   9  17  32  53  78 106 139 174 209 251 301
#     4  10  19  33  55  82 106 132 167 210 256 305
#     4  10  21  34  49  69  99 137 175 212 251 292
#     4  12  25  40  55  73 101 137 173 214 261 314
#     4   8  15  28  49  76 106 133 164 206 250 297
#     4   9  17  32  53  78 106 139 174 209 251 301
#     4   8  15  28  49  76 106 133 164 206 250 297
#
# _framework density 19.181234
#
# number of rings (size 3 to 8) (size 9 to 14) (size 15 to 20)
#    0.000    2.500    0.000    2.625    0.000    3.000 
#    0.000    1.250    0.000    3.000    0.000    0.000 
#    0.000    0.000    0.000    0.000    0.000    0.000 
#
# Total GULP energy -396436.924867 kJ/mol
# GULP energy per Si atom -12388.653902 kJ/mol
# Density = 1.913758 g / cm^3
# Si number density = 19.181234 Si / 1000 Ang^3
#
#
#
# Elastic Constant Matrix: (Units=GPa)
#
#
# Indices 1 2 3 4 5 6 
#
# 1 53.0647 15.1808 15.9614 0.0000 0.0000 0.0000
# 2 15.1808 40.9863 7.5821 0.0000 0.0000 0.0000
# 3 15.9614 7.5821 97.0370 0.0000 0.0000 0.0000
# 4 0.0000 0.0000 0.0000 22.0250 0.0000 0.0000
# 5 0.0000 0.0000 0.0000 0.0000 17.2651 0.0000
# 6 0.0000 0.0000 0.0000 0.0000 0.0000 27.1879
#
#
#
# Elastic Compliance Matrix: (Units=1/GPa)
#
#
# Indices 1 2 3 4 5 6 
#
# 1 0.021914 -0.007559 -0.003014 0.000000 0.000000 0.000000
# 2 -0.007559 0.027364 -0.000895 0.000000 0.000000 0.000000
# 3 -0.003014 -0.000895 0.010871 0.000000 0.000000 0.000000
# 4 0.000000 0.000000 0.000000 0.045403 0.000000 0.000000
# 5 0.000000 0.000000 0.000000 0.000000 0.057920 0.000000
# 6 0.000000 0.000000 0.000000 0.000000 0.000000 0.036781
#
#
# Mechanical properties :
#
#
# Convention : Reuss Voigt Hill
#
# Bulk Modulus (GPa) = 26.87222 29.83741 28.35482
# Shear Modulus (GPa) = 21.22305 23.45319 22.33812
#
# Velocity S-wave (km/s) = 3.32994 3.50053 3.41630
# Velocity P-wave (km/s) = 5.36887 5.65045 5.51146
#
# Compressibility (1/GPa) = 0.03721315
#
# Stress axis : x y z
#
# Youngs Moduli (GPa) = 45.63293 36.54473 91.98770
#
# Poissons Ratio (x) = 0.27625 0.27724
# Poissons Ratio (y) = 0.34495 0.08230
# Poissons Ratio (z) = 0.13753 0.03270
#
# Static dielectric constant tensor:
#      x y z
#    x 3.449980 0.000000 0.000000 
#    y 0.000000 2.957240 0.000000 
#    z 0.000000 0.000000 4.188870 
# 
# 
# High freq. dielectric constant tensor:
#      x y z
#    x 1.740150 0.000000 0.000000 
#    y 0.000000 1.696630 0.000000 
#    z 0.000000 0.000000 1.777470 
# 
# From -- ./inp_files/22376.got.cif
#   From: 2010.03.12/outbox.cif.g09.slc.cpg/sg40_12_cif.got.tgz:22376.got - 2010.04.14 01:38:03.
