data_PCOD8183763
_publ_section_title
;
Structure prediction by ZEFSAII (Michael W. Deem and Ramdas Pophale) SiO2 
 PCOD8183763
Probable space group: A M A 2
;
_chemical_formula_sum "Si O2"
_cell_formula_units_Z 60
_cell_length_a 19.228378
_cell_length_b 5.189270
_cell_length_c 30.290762
_cell_angle_alpha 90.000000
_cell_angle_beta 90.000000
_cell_angle_gamma 90.000000
_cell_volume 3022.449948
_symmetry_space_group_name_H-M "A M A 2"
_symmetry_group_IT_number 40
_symmetry_cell_setting 'orthorhombic'
loop_
_space_group_symop_operation_xyz
x,y,z
-x,-y,z
1/2-x,y,z
1/2+x,-y,z
x,1/2+y,1/2+z
-x,1/2-y,1/2+z
1/2-x,1/2+y,1/2+z
1/2+x,1/2-y,1/2+z
loop_
_atom_site_type_symbol
_atom_site_label
_atom_site_fract_x
_atom_site_fract_y
_atom_site_fract_z
Si Si1 0.329917 0.105925 0.639060
Si Si2 0.418243 0.022115 0.446608
Si Si3 0.329518 0.109391 0.082384
Si Si4 0.500000 0.000000 0.791457
Si Si5 0.425046 0.622202 0.847396
Si Si6 0.083169 0.018908 0.996111
Si Si7 0.327648 0.071518 0.273058
Si Si8 0.117382 0.593649 0.232409
O O1 0.250000 0.072761 0.655546
O O2 0.341450 0.382713 0.617221
O O3 0.384465 0.081260 0.679291
O O4 0.347576 0.882312 0.604263
O O5 0.397308 0.108873 0.397248
O O6 0.388554 0.245607 0.478229
O O7 0.500000 0.000000 0.449813
O O8 0.390800 0.742342 0.461998
O O9 0.250000 0.105017 0.064824
O O10 0.383136 0.073748 0.042858
O O11 0.439993 0.898738 0.825088
O O12 0.544268 0.822772 0.756497
O O13 0.500000 0.500000 0.841619
O O14 0.365727 0.488721 0.818409
O O15 0.000000 0.000000 0.000761
O O16 0.250000 0.155932 0.284566
O O17 0.364133 0.307133 0.248301
O O18 0.326622 0.815728 0.243095
#
# Coordination Sequence:
#
# PCOD8183763 Si02
#       8
#     8   8   8   4   8   8   8   8
#     4  10  20  36  58  82 108 148 189 225 273 341
#     4   9  20  32  59  82 109 142 185 225 272 331
#     4  10  21  38  59  81 110 146 185 226 279 339
#     4  10  22  36  58  86 118 152 196 236 292 328
#     4  10  20  36  57  82 114 151 191 232 278 341
#     4  10  20  38  55  84 108 139 182 229 278 331
#     4  11  22  36  57  82 115 154 190 238 285 333
#     4  11  22  38  57  84 117 150 196 239 281 340
#
# _framework density 19.851444000000001
#
# number of rings (size 3 to 8) (size 9 to 14) (size 15 to 20)
#    0.000    1.867    1.333    2.800    4.667    1.067 
#    2.400    1.333    0.000    0.000    0.000    0.000 
#    0.000    0.000    0.000    0.000    0.000    0.000 
#
# Total GULP energy -371691.516622 kJ/mol
# GULP energy per Si atom -12389.717221 kJ/mol
# Density = 1.980626 g / cm^3
# Si number density = 19.851444 Si / 1000 Ang^3
#
#
#
# Elastic Constant Matrix: (Units=GPa)
#
#
# Indices 1 2 3 4 5 6 
#
# 1 48.8705 6.0813 36.1858 0.0000 0.0000 0.0000
# 2 6.0813 90.8927 23.2352 0.0000 0.0000 0.0000
# 3 36.1858 23.2352 120.9267 0.0000 0.0000 0.0000
# 4 0.0000 0.0000 0.0000 14.1599 0.0000 0.0000
# 5 0.0000 0.0000 0.0000 0.0000 20.2756 0.0000
# 6 0.0000 0.0000 0.0000 0.0000 0.0000 17.6068
#
#
#
# Elastic Compliance Matrix: (Units=1/GPa)
#
#
# Indices 1 2 3 4 5 6 
#
# 1 0.026293 0.000265 -0.007919 0.000000 0.000000 0.000000
# 2 0.000265 0.011573 -0.002303 0.000000 0.000000 0.000000
# 3 -0.007919 -0.002303 0.011082 0.000000 0.000000 0.000000
# 4 0.000000 0.000000 0.000000 0.070622 0.000000 0.000000
# 5 0.000000 0.000000 0.000000 0.000000 0.049320 0.000000
# 6 0.000000 0.000000 0.000000 0.000000 0.000000 0.056796
#
#
# Mechanical properties :
#
#
# Convention : Reuss Voigt Hill
#
# Bulk Modulus (GPa) = 34.44233 43.52160 38.98197
# Shear Modulus (GPa) = 19.58659 23.42097 21.50378
#
# Velocity S-wave (km/s) = 3.14452 3.43857 3.29482
# Velocity P-wave (km/s) = 5.52917 6.14298 5.84414
#
# Compressibility (1/GPa) = 0.02903404
#
# Stress axis : x y z
#
# Youngs Moduli (GPa) = 38.03352 86.40824 90.24015
#
# Poissons Ratio (x) = -0.02291 0.71458
# Poissons Ratio (y) = -0.01008 0.20782
# Poissons Ratio (z) = 0.30118 0.19900
#
# Static dielectric constant tensor:
#      x y z
#    x 3.467670 0.000000 0.000000 
#    y 0.000000 4.695460 0.000000 
#    z 0.000000 0.000000 3.622080 
# 
# 
# High freq. dielectric constant tensor:
#      x y z
#    x 1.744390 0.000000 0.000000 
#    y 0.000000 1.785790 0.000000 
#    z 0.000000 0.000000 1.777000 
# 
# From -- ./inp_files/25867.got.cif
#   From: 2010.03.12/outbox.cif.g09.slc.cpg/sg40_13_cif.got.tgz:25867.got - 2010.04.14 01:38:03.
