data_PCOD8183990
_publ_section_title
;
Structure prediction by ZEFSAII (Michael W. Deem and Ramdas Pophale) SiO2 
 PCOD8183990
Probable space group: A M A 2
;
_chemical_formula_sum "Si O2"
_cell_formula_units_Z 56
_cell_length_a 14.424520
_cell_length_b 12.256940
_cell_length_c 14.656543
_cell_angle_alpha 90.000000
_cell_angle_beta 90.000000
_cell_angle_gamma 90.000000
_cell_volume 2591.283781
_symmetry_space_group_name_H-M "A M A 2"
_symmetry_group_IT_number 40
_symmetry_cell_setting 'orthorhombic'
loop_
_space_group_symop_operation_xyz
x,y,z
-x,-y,z
1/2-x,y,z
1/2+x,-y,z
x,1/2+y,1/2+z
-x,1/2-y,1/2+z
1/2-x,1/2+y,1/2+z
1/2+x,1/2-y,1/2+z
loop_
_atom_site_type_symbol
_atom_site_label
_atom_site_fract_x
_atom_site_fract_y
_atom_site_fract_z
Si Si1 0.353877 0.895865 0.177780
Si Si2 0.860372 0.796415 0.888844
Si Si3 0.643400 0.905179 0.067693
Si Si4 0.648856 0.978840 0.562627
Si Si5 0.594635 0.054376 0.370602
Si Si6 0.446484 0.671815 0.204938
Si Si7 0.648178 0.687668 0.175827
O O1 0.250000 0.860072 0.148542
O O2 0.343029 0.947625 0.279417
O O3 0.423153 0.794025 0.172518
O O4 0.399964 0.984453 0.109496
O O5 0.750000 0.775495 0.894817
O O6 0.914041 0.681548 0.898915
O O7 0.884936 0.856555 0.793543
O O8 0.898834 0.873656 0.969383
O O9 0.750000 0.931944 0.052079
O O10 0.632508 0.807793 0.138654
O O11 0.750000 0.926060 0.580042
O O12 0.574263 0.910301 0.621068
O O13 0.630460 0.979387 0.454158
O O14 0.648937 0.104965 0.591298
O O15 0.500000 0.000000 0.339106
O O16 0.555522 0.661411 0.234709
O O17 0.750000 0.679248 0.226912
#
# Coordination Sequence:
#
# PCOD8183990 Si02
#       7
#     8   8   8   8   8   8   8
#     4  10  22  39  62  93 126 159 203 255 310 365
#     4  10  20  39  64  91 121 164 213 249 296 376
#     4   9  19  37  63  87 117 165 208 241 293 368
#     4  11  21  38  63  91 125 161 200 254 314 362
#     4  11  21  33  58  91 123 159 208 250 298 357
#     4  11  22  36  65  96 123 154 207 262 307 357
#     4  10  21  37  61  89 121 163 206 248 302 371
#
# _framework density 21.610907999999998
#
# number of rings (size 3 to 8) (size 9 to 14) (size 15 to 20)
#    0.000    1.714    1.429    4.714    4.000    0.000 
#    0.000    0.000    9.429    0.000    0.000    0.000 
#    0.000    0.000    0.000    0.000    0.000    0.000 
#
# Total GULP energy -346917.249102 kJ/mol
# GULP energy per Si atom -12389.901754 kJ/mol
# Density = 2.156172 g / cm^3
# Si number density = 21.610908 Si / 1000 Ang^3
#
#
#
# Elastic Constant Matrix: (Units=GPa)
#
#
# Indices 1 2 3 4 5 6 
#
# 1 102.6610 16.5019 -4.6267 0.0000 0.0000 0.0000
# 2 16.5019 82.3975 37.7544 0.0000 0.0000 0.0000
# 3 -4.6267 37.7544 84.0389 0.0000 0.0000 0.0000
# 4 0.0000 0.0000 0.0000 38.8258 0.0000 0.0000
# 5 0.0000 0.0000 0.0000 0.0000 11.5699 0.0000
# 6 0.0000 0.0000 0.0000 0.0000 0.0000 17.8836
#
#
#
# Elastic Compliance Matrix: (Units=1/GPa)
#
#
# Indices 1 2 3 4 5 6 
#
# 1 0.010295 -0.002923 0.001880 0.000000 0.000000 0.000000
# 2 -0.002923 0.016112 -0.007399 0.000000 0.000000 0.000000
# 3 0.001880 -0.007399 0.015327 0.000000 0.000000 0.000000
# 4 0.000000 0.000000 0.000000 0.025756 0.000000 0.000000
# 5 0.000000 0.000000 0.000000 0.000000 0.086431 0.000000
# 6 0.000000 0.000000 0.000000 0.000000 0.000000 0.055917
#
#
# Mechanical properties :
#
#
# Convention : Reuss Voigt Hill
#
# Bulk Modulus (GPa) = 40.24246 40.92852 40.58549
# Shear Modulus (GPa) = 21.27596 28.28706 24.78151
#
# Velocity S-wave (km/s) = 3.14108 3.62183 3.38999
# Velocity P-wave (km/s) = 5.64065 6.03905 5.84325
#
# Compressibility (1/GPa) = 0.02484937
#
# Stress axis : x y z
#
# Youngs Moduli (GPa) = 97.13044 62.06515 65.24479
#
# Poissons Ratio (x) = 0.18144 -0.12267
# Poissons Ratio (y) = 0.28395 0.48277
# Poissons Ratio (z) = -0.18262 0.45924
#
# Static dielectric constant tensor:
#      x y z
#    x 4.037630 0.000000 0.000000 
#    y 0.000000 3.876360 0.000000 
#    z 0.000000 0.000000 3.845910 
# 
# 
# High freq. dielectric constant tensor:
#      x y z
#    x 1.851550 0.000000 0.000000 
#    y 0.000000 1.839790 0.000000 
#    z 0.000000 0.000000 1.825540 
# 
# From -- ./inp_files/17049.got.cif
#   From: 2010.03.12/outbox.cif.g09.slc.cpg/sg40_9_cif.got.tgz:17049.got - 2010.04.14 01:38:03.
