data_PCOD8183837
_publ_section_title
;
Structure prediction by ZEFSAII (Michael W. Deem and Ramdas Pophale) SiO2 
 PCOD8183837
Probable space group: A M A 2
;
_chemical_formula_sum "Si O2"
_cell_formula_units_Z 48
_cell_length_a 14.417732
_cell_length_b 15.192385
_cell_length_c 11.211895
_cell_angle_alpha 90.000000
_cell_angle_beta 90.000000
_cell_angle_gamma 90.000000
_cell_volume 2455.850514
_symmetry_space_group_name_H-M "A M A 2"
_symmetry_group_IT_number 40
_symmetry_cell_setting 'orthorhombic'
loop_
_space_group_symop_operation_xyz
x,y,z
-x,-y,z
1/2-x,y,z
1/2+x,-y,z
x,1/2+y,1/2+z
-x,1/2-y,1/2+z
1/2-x,1/2+y,1/2+z
1/2+x,1/2-y,1/2+z
loop_
_atom_site_type_symbol
_atom_site_label
_atom_site_fract_x
_atom_site_fract_y
_atom_site_fract_z
Si Si1 0.910169 0.137141 0.349380
Si Si2 0.250000 0.347192 0.680815
Si Si3 0.552648 0.710941 0.332797
Si Si4 0.855352 0.694285 0.094953
Si Si5 0.500000 0.500000 0.708840
Si Si6 0.750000 0.007430 0.994721
Si Si7 0.750000 0.694795 0.427246
Si Si8 0.082045 0.619108 0.511034
O O1 0.835765 0.180516 0.262213
O O2 0.874667 0.128325 0.485238
O O3 0.001766 0.196062 0.340036
O O4 0.923602 0.038773 0.298834
O O5 0.250000 0.449454 0.629626
O O6 0.250000 0.282533 0.567979
O O7 0.567745 0.676396 0.197326
O O8 0.655826 0.735238 0.376730
O O9 0.497201 0.637440 0.410349
O O10 0.750000 0.680998 0.143183
O O11 0.864615 0.792555 0.044004
O O12 0.466920 0.581086 0.628098
O O13 0.842123 0.951230 0.967060
O O14 0.750000 0.088920 0.902565
#
# Coordination Sequence:
#
# PCOD8183837 Si02
#       8
#     8   4   8   8   4   4   4   8
#     4  11  23  37  65  95 127 162 215 267 320 382
#     4  10  20  38  60 100 122 160 207 277 316 360
#     4  11  23  38  60  93 129 173 208 260 321 403
#     4  11  22  39  60  89 128 172 201 253 327 391
#     4  12  20  40  62  96 122 160 218 266 308 370
#     4  10  20  36  66 100 121 158 212 281 314 366
#     4  10  22  38  60  90 129 168 211 274 322 360
#     4  11  21  36  64  96 124 162 216 265 316 377
#
# _framework density 19.545164
#
# number of rings (size 3 to 8) (size 9 to 14) (size 15 to 20)
#    0.500    0.667    5.833    2.000    2.333    0.000 
#    0.000    3.333    0.000    0.000    0.000    0.000 
#    0.000    0.000    0.000    0.000    0.000    0.000 
#
# Total GULP energy -297417.106594 kJ/mol
# GULP energy per Si atom -12392.379441 kJ/mol
# Density = 1.950068 g / cm^3
# Si number density = 19.545164 Si / 1000 Ang^3
#
#
#
# Elastic Constant Matrix: (Units=GPa)
#
#
# Indices 1 2 3 4 5 6 
#
# 1 131.1328 26.0522 40.7883 0.0000 0.0000 0.0000
# 2 26.0522 52.2705 27.5517 0.0000 0.0000 0.0000
# 3 40.7883 27.5517 110.0530 0.0000 0.0000 0.0000
# 4 0.0000 0.0000 0.0000 33.4778 0.0000 0.0000
# 5 0.0000 0.0000 0.0000 0.0000 39.5034 0.0000
# 6 0.0000 0.0000 0.0000 0.0000 0.0000 33.5892
#
#
#
# Elastic Compliance Matrix: (Units=1/GPa)
#
#
# Indices 1 2 3 4 5 6 
#
# 1 0.009051 -0.003160 -0.002563 0.000000 0.000000 0.000000
# 2 -0.003160 0.023143 -0.004623 0.000000 0.000000 0.000000
# 3 -0.002563 -0.004623 0.011194 0.000000 0.000000 0.000000
# 4 0.000000 0.000000 0.000000 0.029871 0.000000 0.000000
# 5 0.000000 0.000000 0.000000 0.000000 0.025314 0.000000
# 6 0.000000 0.000000 0.000000 0.000000 0.000000 0.029771
#
#
# Mechanical properties :
#
#
# Convention : Reuss Voigt Hill
#
# Bulk Modulus (GPa) = 44.06128 53.58230 48.82179
# Shear Modulus (GPa) = 31.92823 34.58500 33.25661
#
# Velocity S-wave (km/s) = 4.04612 4.21110 4.12943
# Velocity P-wave (km/s) = 6.66486 7.14972 6.91155
#
# Compressibility (1/GPa) = 0.02269566
#
# Stress axis : x y z
#
# Youngs Moduli (GPa) = 110.48522 43.20997 89.33453
#
# Poissons Ratio (x) = 0.13654 0.22900
# Poissons Ratio (y) = 0.34913 0.41296
# Poissons Ratio (z) = 0.28322 0.19974
#
# Static dielectric constant tensor:
#      x y z
#    x 3.745000 0.000000 0.000000 
#    y 0.000000 3.255010 0.000000 
#    z 0.000000 0.000000 3.709880 
# 
# 
# High freq. dielectric constant tensor:
#      x y z
#    x 1.776420 0.000000 0.000000 
#    y 0.000000 1.726850 0.000000 
#    z 0.000000 0.000000 1.764580 
# 
# From -- ./inp_files/12196.got.cif
#   From: 2010.03.12/outbox.cif.g09.slc.cpg/sg40_7_cif.got.tgz:12196.got - 2010.04.14 01:38:03.
