data_PCOD8183840
_publ_section_title
;
Structure prediction by ZEFSAII (Michael W. Deem and Ramdas Pophale) SiO2 
 PCOD8183840
Probable space group: A M A 2
;
_chemical_formula_sum "Si O2"
_cell_formula_units_Z 48
_cell_length_a 15.838306
_cell_length_b 14.385560
_cell_length_c 10.030185
_cell_angle_alpha 90.000000
_cell_angle_beta 90.000000
_cell_angle_gamma 90.000000
_cell_volume 2285.306451
_symmetry_space_group_name_H-M "A M A 2"
_symmetry_group_IT_number 40
_symmetry_cell_setting 'orthorhombic'
loop_
_space_group_symop_operation_xyz
x,y,z
-x,-y,z
1/2-x,y,z
1/2+x,-y,z
x,1/2+y,1/2+z
-x,1/2-y,1/2+z
1/2-x,1/2+y,1/2+z
1/2+x,1/2-y,1/2+z
loop_
_atom_site_type_symbol
_atom_site_label
_atom_site_fract_x
_atom_site_fract_y
_atom_site_fract_z
Si Si1 0.250000 0.280378 0.143580
Si Si2 0.750000 0.527746 0.276577
Si Si3 0.931925 0.853705 0.581020
Si Si4 0.250000 0.630434 0.071405
Si Si5 0.250000 0.580900 0.771452
Si Si6 0.419665 0.215379 0.071260
Si Si7 0.427601 0.068006 0.292267
Si Si8 0.422586 0.058017 0.857164
O O1 0.250000 0.360972 0.255013
O O2 0.250000 0.172402 0.182458
O O3 0.339798 0.287573 0.065770
O O4 0.750000 0.472900 0.136358
O O5 0.664810 0.500313 0.356077
O O6 0.836248 0.815795 0.611756
O O7 0.932488 0.919977 0.451351
O O8 0.957319 0.911689 0.711625
O O9 0.994312 0.770543 0.548856
O O10 0.250000 0.623937 0.915891
O O11 0.336232 0.521932 0.751790
O O12 0.431359 0.166152 0.215271
O O13 0.405843 0.145569 0.950334
O O14 0.500000 0.000000 0.240177
O O15 0.500000 0.000000 0.920789
#
# Coordination Sequence:
#
# PCOD8183840 Si02
#       8
#     4   4   8   4   4   8   8   8
#     4  10  21  37  58  81 111 152 189 226 286 349
#     4  10  21  37  60  85 111 148 195 238 280 333
#     4  10  20  37  58  80 110 151 189 229 279 336
#     4   8  18  35  55  79 107 138 182 230 268 317
#     4   8  18  35  55  77 107 142 180 222 274 335
#     4  11  22  37  56  84 116 147 184 233 285 337
#     4  10  20  37  57  79 109 148 186 227 276 334
#     4  11  22  37  57  86 117 148 189 241 287 336
#
# _framework density 21.003748999999999
#
# number of rings (size 3 to 8) (size 9 to 14) (size 15 to 20)
#    0.000    2.000    0.000    3.500    0.000    5.333 
#    0.000    0.833    0.000    0.000    0.000    0.000 
#    0.000    0.000    0.000    0.000    0.000    0.000 
#
# Total GULP energy -297323.011883 kJ/mol
# GULP energy per Si atom -12388.458828 kJ/mol
# Density = 2.095594 g / cm^3
# Si number density = 21.003749 Si / 1000 Ang^3
#
#
#
# Elastic Constant Matrix: (Units=GPa)
#
#
# Indices 1 2 3 4 5 6 
#
# 1 210.8741 72.2482 14.2841 0.0000 0.0000 0.0000
# 2 72.2482 67.0027 10.1950 0.0000 0.0000 0.0000
# 3 14.2841 10.1950 58.7908 0.0000 0.0000 0.0000
# 4 0.0000 0.0000 0.0000 30.4807 0.0000 0.0000
# 5 0.0000 0.0000 0.0000 0.0000 15.7805 0.0000
# 6 0.0000 0.0000 0.0000 0.0000 0.0000 42.9416
#
#
#
# Elastic Compliance Matrix: (Units=1/GPa)
#
#
# Indices 1 2 3 4 5 6 
#
# 1 0.007531 -0.008055 -0.000433 0.000000 0.000000 0.000000
# 2 -0.008055 0.023944 -0.002195 0.000000 0.000000 0.000000
# 3 -0.000433 -0.002195 0.017495 0.000000 0.000000 0.000000
# 4 0.000000 0.000000 0.000000 0.032808 0.000000 0.000000
# 5 0.000000 0.000000 0.000000 0.000000 0.063369 0.000000
# 6 0.000000 0.000000 0.000000 0.000000 0.000000 0.023287
#
#
# Mechanical properties :
#
#
# Convention : Reuss Voigt Hill
#
# Bulk Modulus (GPa) = 36.22571 58.90247 47.56409
# Shear Modulus (GPa) = 25.12527 33.83660 29.48094
#
# Velocity S-wave (km/s) = 3.46241 4.01805 3.75053
# Velocity P-wave (km/s) = 5.76793 7.04493 6.43817
#
# Compressibility (1/GPa) = 0.02760470
#
# Stress axis : x y z
#
# Youngs Moduli (GPa) = 132.78060 41.76356 57.15805
#
# Poissons Ratio (x) = 0.33640 0.02475
# Poissons Ratio (y) = 1.06954 0.12547
# Poissons Ratio (z) = 0.05750 0.09168
#
# Static dielectric constant tensor:
#      x y z
#    x 4.838470 0.000000 0.000000 
#    y 0.000000 3.304380 0.000000 
#    z 0.000000 0.000000 3.724180 
# 
# 
# High freq. dielectric constant tensor:
#      x y z
#    x 1.861320 0.000000 0.000000 
#    y 0.000000 1.777140 0.000000 
#    z 0.000000 0.000000 1.817450 
# 
# From -- ./inp_files/12208.got.cif
#   From: 2010.03.12/outbox.cif.g09.slc.cpg/sg40_7_cif.got.tgz:12208.got - 2010.04.14 01:38:03.
