data_PCOD8183258
_publ_section_title
;
Structure prediction by ZEFSAII (Michael W. Deem and Ramdas Pophale) SiO2 
 PCOD8183258
Probable space group: A M A 2
;
_chemical_formula_sum "Si O2"
_cell_formula_units_Z 64
_cell_length_a 17.354263
_cell_length_b 12.018723
_cell_length_c 16.122304
_cell_angle_alpha 90.000000
_cell_angle_beta 90.000000
_cell_angle_gamma 90.000000
_cell_volume 3362.726967
_symmetry_space_group_name_H-M "A M A 2"
_symmetry_group_IT_number 40
_symmetry_cell_setting 'orthorhombic'
loop_
_space_group_symop_operation_xyz
x,y,z
-x,-y,z
1/2-x,y,z
1/2+x,-y,z
x,1/2+y,1/2+z
-x,1/2-y,1/2+z
1/2-x,1/2+y,1/2+z
1/2+x,1/2-y,1/2+z
loop_
_atom_site_type_symbol
_atom_site_label
_atom_site_fract_x
_atom_site_fract_y
_atom_site_fract_z
Si Si1 0.341059 0.419330 0.989150
Si Si2 0.837612 0.832959 0.520457
Si Si3 0.400083 0.207810 0.690042
Si Si4 0.575277 0.191311 0.634919
Si Si5 0.663033 0.682218 0.380686
Si Si6 0.663031 0.856672 0.233763
Si Si7 0.339675 0.402170 0.795863
Si Si8 0.589015 0.015069 0.770304
O O1 0.250000 0.406405 0.011942
O O2 0.355958 0.390385 0.893389
O O3 0.372682 0.543805 0.008451
O O4 0.395091 0.335976 0.042291
O O5 0.750000 0.842288 0.489293
O O6 0.840363 0.790385 0.614483
O O7 0.876887 0.739062 0.461480
O O8 0.483225 0.193176 0.645981
O O9 0.393727 0.317609 0.745349
O O10 0.376332 0.105738 0.749980
O O11 0.608646 0.312167 0.659983
O O12 0.610309 0.095603 0.693865
O O13 0.750000 0.646873 0.399609
O O14 0.656573 0.773622 0.309884
O O15 0.621441 0.567536 0.355174
O O16 0.750000 0.862775 0.199845
O O17 0.635044 0.976602 0.264610
O O18 0.250000 0.378692 0.777070
O O19 0.500000 0.000000 0.784899
#
# Coordination Sequence:
#
# PCOD8183258 Si02
#       8
#     8   8   8   8   8   8   8   8
#     4  10  19  36  61  88 113 141 188 244 287 331
#     4  10  19  34  58  86 112 143 189 238 284 336
#     4  11  22  37  54  83 121 154 186 229 288 347
#     4  10  20  36  56  84 115 148 192 236 279 337
#     4   9  17  32  57  86 108 139 191 240 280 332
#     4   9  17  34  58  83 112 147 188 235 284 338
#     4  10  21  38  59  85 118 150 187 239 292 341
#     4   9  19  35  54  77 117 150 185 228 278 336
#
# _framework density 19.032171999999999
#
# number of rings (size 3 to 8) (size 9 to 14) (size 15 to 20)
#    0.000    2.250    2.500    0.750    0.000    2.000 
#    6.750    2.500    0.000    1.500    0.000    0.000 
#    0.000    0.000    0.000    0.000    0.000    0.000 
#
# Total GULP energy -396686.766882 kJ/mol
# GULP energy per Si atom -12396.461465 kJ/mol
# Density = 1.898885 g / cm^3
# Si number density = 19.032172 Si / 1000 Ang^3
#
#
#
# Elastic Constant Matrix: (Units=GPa)
#
#
# Indices 1 2 3 4 5 6 
#
# 1 45.9371 41.9362 38.2790 0.0000 0.0000 0.0000
# 2 41.9362 106.5172 60.3696 0.0000 0.0000 0.0000
# 3 38.2790 60.3696 110.3668 0.0000 0.0000 0.0000
# 4 0.0000 0.0000 0.0000 33.8565 0.0000 0.0000
# 5 0.0000 0.0000 0.0000 0.0000 17.4640 0.0000
# 6 0.0000 0.0000 0.0000 0.0000 0.0000 26.2139
#
#
#
# Elastic Compliance Matrix: (Units=1/GPa)
#
#
# Indices 1 2 3 4 5 6 
#
# 1 0.037507 -0.010716 -0.007147 0.000000 0.000000 0.000000
# 2 -0.010716 0.016668 -0.005400 0.000000 0.000000 0.000000
# 3 -0.007147 -0.005400 0.014494 0.000000 0.000000 0.000000
# 4 0.000000 0.000000 0.000000 0.029536 0.000000 0.000000
# 5 0.000000 0.000000 0.000000 0.000000 0.057261 0.000000
# 6 0.000000 0.000000 0.000000 0.000000 0.000000 0.038148
#
#
# Mechanical properties :
#
#
# Convention : Reuss Voigt Hill
#
# Bulk Modulus (GPa) = 45.16447 60.44344 52.80395
# Shear Modulus (GPa) = 20.20027 23.65598 21.92813
#
# Velocity S-wave (km/s) = 3.26141 3.52937 3.39803
# Velocity P-wave (km/s) = 6.16153 6.95961 6.57269
#
# Compressibility (1/GPa) = 0.02214130
#
# Stress axis : x y z
#
# Youngs Moduli (GPa) = 26.66143 59.99575 68.99578
#
# Poissons Ratio (x) = 0.64291 0.49313
# Poissons Ratio (y) = 0.28570 0.37261
# Poissons Ratio (z) = 0.19056 0.32401
#
# Static dielectric constant tensor:
#      x y z
#    x 3.293680 0.000000 0.000000 
#    y 0.000000 3.640520 0.000000 
#    z 0.000000 0.000000 3.400570 
# 
# 
# High freq. dielectric constant tensor:
#      x y z
#    x 1.722070 0.000000 0.000000 
#    y 0.000000 1.735660 0.000000 
#    z 0.000000 0.000000 1.730400 
# 
# From -- ./inp_files/17826.got.cif
#   From: 2010.03.12/outbox.cif.g09.slc.cpg/sg40_9_cif.got.tgz:17826.got - 2010.04.14 01:38:03.
