data_PCOD8183582
_publ_section_title
;
Structure prediction by ZEFSAII (Michael W. Deem and Ramdas Pophale) SiO2 
 PCOD8183582
Probable space group: A M A 2
;
_chemical_formula_sum "Si O2"
_cell_formula_units_Z 64
_cell_length_a 8.765390
_cell_length_b 16.216261
_cell_length_c 22.188767
_cell_angle_alpha 90.000000
_cell_angle_beta 90.000000
_cell_angle_gamma 90.000000
_cell_volume 3153.952435
_symmetry_space_group_name_H-M "A M A 2"
_symmetry_group_IT_number 40
_symmetry_cell_setting 'orthorhombic'
loop_
_space_group_symop_operation_xyz
x,y,z
-x,-y,z
1/2-x,y,z
1/2+x,-y,z
x,1/2+y,1/2+z
-x,1/2-y,1/2+z
1/2-x,1/2+y,1/2+z
1/2+x,1/2-y,1/2+z
loop_
_atom_site_type_symbol
_atom_site_label
_atom_site_fract_x
_atom_site_fract_y
_atom_site_fract_z
Si Si1 0.928918 0.259925 0.941160
Si Si2 0.076313 0.868895 0.647933
Si Si3 0.578086 0.580901 0.279433
Si Si4 0.075690 0.579165 0.613732
Si Si5 0.575053 0.254148 0.321355
Si Si6 0.932402 0.415656 0.023933
Si Si7 0.922076 0.208586 0.189598
Si Si8 0.931389 0.913303 0.978679
O O1 0.750000 0.246898 0.947006
O O2 0.975674 0.288713 0.873882
O O3 0.009097 0.170763 0.948240
O O4 0.981329 0.332841 0.987024
O O5 0.250000 0.837781 0.634768
O O6 0.078569 0.926825 0.706710
O O7 0.009211 0.914064 0.589743
O O8 0.957174 0.798209 0.664512
O O9 0.500000 0.500000 0.306596
O O10 0.750000 0.589172 0.303869
O O11 0.481605 0.655041 0.306049
O O12 0.250000 0.560140 0.606726
O O13 0.009124 0.596190 0.547314
O O14 0.000000 0.500000 0.643955
O O15 0.047502 0.653026 0.658529
O O16 0.750000 0.259114 0.342096
O O17 0.556880 0.199596 0.261227
O O18 0.750000 0.422027 0.028298
O O19 0.000000 0.500000 0.993441
O O20 0.750000 0.184946 0.170472
O O21 0.750000 0.916385 0.971782
O O22 0.000000 0.000000 0.952264
#
# Coordination Sequence:
#
# PCOD8183582 Si02
#       8
#     8   8   8   8   8   8   8   8
#     4  11  24  41  60  83 113 151 194 241 289 336
#     4  10  20  34  56  85 116 149 183 224 277 336
#     4  10  20  34  54  82 115 147 180 221 270 328
#     4  10  20  34  55  83 114 146 181 225 278 335
#     4  10  22  39  58  79 105 142 187 232 277 329
#     4  11  24  40  60  86 116 151 192 240 290 342
#     4  10  20  35  56  82 112 145 183 228 279 335
#     4  10  21  37  59  88 120 153 189 231 280 339
#
# _framework density 20.291999000000001
#
# number of rings (size 3 to 8) (size 9 to 14) (size 15 to 20)
#    0.000    1.750    0.000    4.125    0.000   10.000 
#    0.000    3.125    0.000    1.500    0.000    0.000 
#    0.000    0.000    0.000    0.000    0.000    0.000 
#
# Total GULP energy -396660.604051 kJ/mol
# GULP energy per Si atom -12395.643877 kJ/mol
# Density = 2.024581 g / cm^3
# Si number density = 20.291999 Si / 1000 Ang^3
#
#
#
# Elastic Constant Matrix: (Units=GPa)
#
#
# Indices 1 2 3 4 5 6 
#
# 1 80.3090 25.3059 27.7938 0.0000 0.0000 0.0000
# 2 25.3059 74.0993 23.9899 0.0000 0.0000 0.0000
# 3 27.7938 23.9899 71.8386 0.0000 0.0000 0.0000
# 4 0.0000 0.0000 0.0000 -15.6612 0.0000 0.0000
# 5 0.0000 0.0000 0.0000 0.0000 32.1334 0.0000
# 6 0.0000 0.0000 0.0000 0.0000 0.0000 36.3231
#
#
#
# Elastic Compliance Matrix: (Units=1/GPa)
#
#
# Indices 1 2 3 4 5 6 
#
# 1 0.015228 -0.003692 -0.004658 0.000000 0.000000 0.000000
# 2 -0.003692 0.016027 -0.003923 0.000000 0.000000 0.000000
# 3 -0.004658 -0.003923 0.017033 0.000000 0.000000 0.000000
# 4 0.000000 0.000000 0.000000 -0.063852 0.000000 0.000000
# 5 0.000000 0.000000 0.000000 0.000000 0.031120 0.000000
# 6 0.000000 0.000000 0.000000 0.000000 0.000000 0.027531
#
#
# Mechanical properties :
#
#
# Convention : Reuss Voigt Hill
#
# Bulk Modulus (GPa) = 42.12562 42.26956 42.19759
# Shear Modulus (GPa) = 66.18433 20.50289 43.34361
#
# Velocity S-wave (km/s) = 5.71724 3.18212 4.62670
# Velocity P-wave (km/s) = 8.02416 5.86319 7.02724
#
# Compressibility (1/GPa) = 0.02373852
#
# Stress axis : x y z
#
# Youngs Moduli (GPa) = 65.67040 62.39637 58.71089
#
# Poissons Ratio (x) = 0.23038 0.27350
# Poissons Ratio (y) = 0.24247 0.23035
# Poissons Ratio (z) = 0.30592 0.24481
#
# Static dielectric constant tensor:
#      x y z
#    x 3.725130 0.000000 0.000000 
#    y 0.000000 4.473910 0.000000 
#    z 0.000000 0.000000 3.782420 
# 
# 
# High freq. dielectric constant tensor:
#      x y z
#    x 1.806740 0.000000 0.000000 
#    y 0.000000 1.781910 0.000000 
#    z 0.000000 0.000000 1.787610 
# 
# From -- ./inp_files/22372.got.cif
#   From: 2010.03.12/outbox.cif.g09.slc.cpg/sg40_12_cif.got.tgz:22372.got - 2010.04.14 01:38:03.
