data_PCOD8183538
_publ_section_title
;
Structure prediction by ZEFSAII (Michael W. Deem and Ramdas Pophale) SiO2 
 PCOD8183538
Probable space group: A M A 2
;
_chemical_formula_sum "Si O2"
_cell_formula_units_Z 56
_cell_length_a 8.659672
_cell_length_b 14.018615
_cell_length_c 22.736848
_cell_angle_alpha 90.000000
_cell_angle_beta 90.000000
_cell_angle_gamma 90.000000
_cell_volume 2760.176219
_symmetry_space_group_name_H-M "A M A 2"
_symmetry_group_IT_number 40
_symmetry_cell_setting 'orthorhombic'
loop_
_space_group_symop_operation_xyz
x,y,z
-x,-y,z
1/2-x,y,z
1/2+x,-y,z
x,1/2+y,1/2+z
-x,1/2-y,1/2+z
1/2-x,1/2+y,1/2+z
1/2+x,1/2-y,1/2+z
loop_
_atom_site_type_symbol
_atom_site_label
_atom_site_fract_x
_atom_site_fract_y
_atom_site_fract_z
Si Si1 0.566564 0.698313 0.720240
Si Si2 0.568075 0.596880 0.487322
Si Si3 0.572252 0.405280 0.184221
Si Si4 0.067365 0.793670 0.446245
Si Si5 0.932034 0.395015 0.835239
Si Si6 0.421140 0.639898 0.605189
Si Si7 0.081145 0.357494 0.070864
O O1 0.750000 0.694731 0.715701
O O2 0.505672 0.807629 0.712389
O O3 0.510099 0.660979 0.782188
O O4 0.497560 0.629966 0.669524
O O5 0.500000 0.500000 0.458429
O O6 0.750000 0.604659 0.477010
O O7 0.483499 0.684898 0.456113
O O8 0.531225 0.591457 0.557018
O O9 0.500000 0.500000 0.213989
O O10 0.750000 0.410629 0.196932
O O11 0.540067 0.408739 0.113790
O O12 0.250000 0.795874 0.433030
O O13 0.026891 0.859731 0.502949
O O14 0.969608 0.836613 0.393559
O O15 0.750000 0.400862 0.825364
O O16 0.000000 0.500000 0.840313
O O17 0.250000 0.592419 0.605057
O O18 0.403953 0.748931 0.588953
O O19 0.250000 0.406194 0.078151
#
# Coordination Sequence:
#
# PCOD8183538 Si02
#       7
#     8   8   8   8   8   8   8
#     4  10  21  39  60  85 116 152 194 244 294 344
#     4  11  21  35  57  88 123 159 196 237 288 349
#     4  10  20  33  55  85 119 154 189 230 280 338
#     4  10  21  40  62  86 117 153 194 244 293 343
#     4  12  26  44  65  87 111 147 192 241 293 349
#     4   9  17  32  54  82 114 150 189 233 284 339
#     4   8  16  31  53  79 111 147 183 225 276 328
#
# _framework density 20.288558999999999
#
# number of rings (size 3 to 8) (size 9 to 14) (size 15 to 20)
#    0.000    2.000    0.000    5.143    0.000    6.857 
#    0.000    3.571    0.000    1.714    0.000    0.000 
#    0.000    0.000    0.000    0.000    0.000    0.000 
#
# Total GULP energy -347111.782885 kJ/mol
# GULP energy per Si atom -12396.849389 kJ/mol
# Density = 2.024238 g / cm^3
# Si number density = 20.288559 Si / 1000 Ang^3
#
#
#
# Elastic Constant Matrix: (Units=GPa)
#
#
# Indices 1 2 3 4 5 6 
#
# 1 67.6228 9.4283 -2.2110 0.0000 0.0000 0.0000
# 2 9.4283 91.8532 20.0074 0.0000 0.0000 0.0000
# 3 -2.2110 20.0074 89.7652 0.0000 0.0000 0.0000
# 4 0.0000 0.0000 0.0000 16.3619 0.0000 0.0000
# 5 0.0000 0.0000 0.0000 0.0000 32.3186 0.0000
# 6 0.0000 0.0000 0.0000 0.0000 0.0000 33.2508
#
#
#
# Elastic Compliance Matrix: (Units=1/GPa)
#
#
# Indices 1 2 3 4 5 6 
#
# 1 0.015051 -0.001709 0.000752 0.000000 0.000000 0.000000
# 2 -0.001709 0.011636 -0.002636 0.000000 0.000000 0.000000
# 3 0.000752 -0.002636 0.011746 0.000000 0.000000 0.000000
# 4 0.000000 0.000000 0.000000 0.061118 0.000000 0.000000
# 5 0.000000 0.000000 0.000000 0.000000 0.030942 0.000000
# 6 0.000000 0.000000 0.000000 0.000000 0.000000 0.030074
#
#
# Mechanical properties :
#
#
# Convention : Reuss Voigt Hill
#
# Bulk Modulus (GPa) = 32.00223 33.74338 32.87280
# Shear Modulus (GPa) = 28.06328 31.18736 29.62532
#
# Velocity S-wave (km/s) = 3.72318 3.92495 3.82540
# Velocity P-wave (km/s) = 5.85582 6.09985 5.97908
#
# Compressibility (1/GPa) = 0.03124783
#
# Stress axis : x y z
#
# Youngs Moduli (GPa) = 66.44207 85.93707 85.13432
#
# Poissons Ratio (x) = 0.14683 -0.06398
# Poissons Ratio (y) = 0.11352 0.22439
# Poissons Ratio (z) = -0.04993 0.22650
#
# Static dielectric constant tensor:
#      x y z
#    x 3.798350 0.000000 0.000000 
#    y 0.000000 3.902670 0.000000 
#    z 0.000000 0.000000 3.676120 
# 
# 
# High freq. dielectric constant tensor:
#      x y z
#    x 1.802030 0.000000 0.000000 
#    y 0.000000 1.797710 0.000000 
#    z 0.000000 0.000000 1.772060 
# 
# From -- ./inp_files/22211.got.cif
#   From: 2010.03.12/outbox.cif.g09.slc.cpg/sg40_12_cif.got.tgz:22211.got - 2010.04.14 01:38:03.
