data_PCOD8183999
_publ_section_title
;
Structure prediction by ZEFSAII (Michael W. Deem and Ramdas Pophale) SiO2 
 PCOD8183999
Probable space group: A M A 2
;
_chemical_formula_sum "Si O2"
_cell_formula_units_Z 56
_cell_length_a 14.518722
_cell_length_b 13.461428
_cell_length_c 13.120947
_cell_angle_alpha 90.000000
_cell_angle_beta 90.000000
_cell_angle_gamma 90.000000
_cell_volume 2564.393713
_symmetry_space_group_name_H-M "A M A 2"
_symmetry_group_IT_number 40
_symmetry_cell_setting 'orthorhombic'
loop_
_space_group_symop_operation_xyz
x,y,z
-x,-y,z
1/2-x,y,z
1/2+x,-y,z
x,1/2+y,1/2+z
-x,1/2-y,1/2+z
1/2-x,1/2+y,1/2+z
1/2+x,1/2-y,1/2+z
loop_
_atom_site_type_symbol
_atom_site_label
_atom_site_fract_x
_atom_site_fract_y
_atom_site_fract_z
Si Si1 0.393556 0.505943 0.600070
Si Si2 0.509528 0.275729 0.274346
Si Si3 0.852405 0.098078 0.302757
Si Si4 0.644478 0.071888 0.521763
Si Si5 0.643907 0.950041 0.709206
Si Si6 0.645516 0.773354 0.116105
Si Si7 0.084173 0.428522 0.397029
O O1 0.500000 0.500000 0.626360
O O2 0.345331 0.472731 0.704882
O O3 0.362854 0.616909 0.567969
O O4 0.362019 0.432745 0.506050
O O5 0.573556 0.183731 0.296249
O O6 0.574264 0.359825 0.225762
O O7 0.427599 0.236526 0.205194
O O8 0.457136 0.319307 0.374110
O O9 0.750000 0.143878 0.320194
O O10 0.879588 0.037198 0.406302
O O11 0.750000 0.055295 0.547083
O O12 0.620615 0.189482 0.532223
O O13 0.599397 0.003062 0.609119
O O14 0.750000 0.912765 0.698059
O O15 0.642095 0.030264 0.801422
O O16 0.750000 0.757595 0.157272
O O17 0.000000 0.500000 0.421555
#
# Coordination Sequence:
#
# PCOD8183999 Si02
#       7
#     8   8   8   8   8   8   8
#     4  11  23  43  62  92 129 168 216 264 320 377
#     4  11  22  40  65 100 128 162 213 266 320 375
#     4  11  24  42  63  93 131 171 210 256 315 384
#     4   9  21  40  65  93 124 166 214 254 310 386
#     4  10  20  39  66  98 129 163 209 265 321 374
#     4  11  23  42  66  91 126 171 214 259 314 382
#     4   9  21  37  63  91 126 163 208 264 315 370
#
# _framework density 21.837519
#
# number of rings (size 3 to 8) (size 9 to 14) (size 15 to 20)
#    0.000    1.714    2.857    0.857    6.000    1.143 
#    2.571    1.429    0.000    0.000    0.000    0.000 
#    0.000    0.000    0.000    0.000    0.000    0.000 
#
# Total GULP energy -346901.755946 kJ/mol
# GULP energy per Si atom -12389.348427 kJ/mol
# Density = 2.178782 g / cm^3
# Si number density = 21.837519 Si / 1000 Ang^3
#
#
#
# Elastic Constant Matrix: (Units=GPa)
#
#
# Indices 1 2 3 4 5 6 
#
# 1 96.2115 10.6502 19.6814 0.0000 0.0000 0.0000
# 2 10.6502 70.4036 30.3249 0.0000 0.0000 0.0000
# 3 19.6814 30.3249 168.3021 0.0000 0.0000 0.0000
# 4 0.0000 0.0000 0.0000 26.5803 0.0000 0.0000
# 5 0.0000 0.0000 0.0000 0.0000 15.5440 0.0000
# 6 0.0000 0.0000 0.0000 0.0000 0.0000 26.8728
#
#
#
# Elastic Compliance Matrix: (Units=1/GPa)
#
#
# Indices 1 2 3 4 5 6 
#
# 1 0.010737 -0.001175 -0.001044 0.000000 0.000000 0.000000
# 2 -0.001175 0.015527 -0.002660 0.000000 0.000000 0.000000
# 3 -0.001044 -0.002660 0.006543 0.000000 0.000000 0.000000
# 4 0.000000 0.000000 0.000000 0.037622 0.000000 0.000000
# 5 0.000000 0.000000 0.000000 0.000000 0.064334 0.000000
# 6 0.000000 0.000000 0.000000 0.000000 0.000000 0.037212
#
#
# Mechanical properties :
#
#
# Convention : Reuss Voigt Hill
#
# Bulk Modulus (GPa) = 43.38408 50.69225 47.03816
# Shear Modulus (GPa) = 26.39679 32.08346 29.24012
#
# Velocity S-wave (km/s) = 3.48053 3.83716 3.66318
# Velocity P-wave (km/s) = 6.00516 6.54946 6.28321
#
# Compressibility (1/GPa) = 0.02304993
#
# Stress axis : x y z
#
# Youngs Moduli (GPa) = 93.13280 64.40225 152.83195
#
# Poissons Ratio (x) = 0.07565 0.15956
# Poissons Ratio (y) = 0.10939 0.40659
# Poissons Ratio (z) = 0.09723 0.17134
#
# Static dielectric constant tensor:
#      x y z
#    x 4.048680 0.000000 0.000000 
#    y 0.000000 3.841010 0.000000 
#    z 0.000000 0.000000 4.226920 
# 
# 
# High freq. dielectric constant tensor:
#      x y z
#    x 1.863840 0.000000 0.000000 
#    y 0.000000 1.835980 0.000000 
#    z 0.000000 0.000000 1.862020 
# 
# From -- ./inp_files/12219.got.cif
#   From: 2010.03.12/outbox.cif.g09.slc.cpg/sg40_7_cif.got.tgz:12219.got - 2010.04.14 01:38:03.
