data_PCOD8183471
_publ_section_title
;
Structure prediction by ZEFSAII (Michael W. Deem and Ramdas Pophale) SiO2 
 PCOD8183471
Probable space group: A M A 2
;
_chemical_formula_sum "Si O2"
_cell_formula_units_Z 64
_cell_length_a 8.623714
_cell_length_b 29.973757
_cell_length_c 14.257521
_cell_angle_alpha 90.000000
_cell_angle_beta 90.000000
_cell_angle_gamma 90.000000
_cell_volume 3685.356854
_symmetry_space_group_name_H-M "A M A 2"
_symmetry_group_IT_number 40
_symmetry_cell_setting 'orthorhombic'
loop_
_space_group_symop_operation_xyz
x,y,z
-x,-y,z
1/2-x,y,z
1/2+x,-y,z
x,1/2+y,1/2+z
-x,1/2-y,1/2+z
1/2-x,1/2+y,1/2+z
1/2+x,1/2-y,1/2+z
loop_
_atom_site_type_symbol
_atom_site_label
_atom_site_fract_x
_atom_site_fract_y
_atom_site_fract_z
Si Si1 0.931130 0.283306 0.707110
Si Si2 0.567731 0.300507 0.317879
Si Si3 0.433023 0.547148 0.873164
Si Si4 0.076034 0.314797 0.994007
Si Si5 0.430572 0.367900 0.179922
Si Si6 0.428851 0.274829 0.505331
Si Si7 0.072840 0.365903 0.808479
Si Si8 0.933196 0.452888 0.088245
O O1 0.750000 0.274782 0.720860
O O2 0.018514 0.243792 0.761295
O O3 0.971038 0.283509 0.597651
O O4 0.976816 0.331758 0.745350
O O5 0.750000 0.297995 0.331889
O O6 0.521400 0.346055 0.266137
O O7 0.486914 0.304831 0.419227
O O8 0.500000 0.500000 0.838926
O O9 0.250000 0.546564 0.863410
O O10 0.501686 0.584590 0.803429
O O11 0.484281 0.556338 0.980792
O O12 0.250000 0.294495 0.992685
O O13 0.036602 0.335726 0.093214
O O14 0.952452 0.276284 0.972925
O O15 0.058874 0.352631 0.916772
O O16 0.250000 0.371299 0.204010
O O17 0.495701 0.416583 0.158090
O O18 0.250000 0.284611 0.526612
O O19 0.250000 0.366373 0.773330
O O20 0.750000 0.452742 0.098174
O O21 0.000000 0.500000 0.122077
#
# Coordination Sequence:
#
# PCOD8183471 Si02
#       8
#     8   8   8   8   8   8   8   8
#     4  12  24  38  55  78 108 143 184 226 270 321
#     4  12  24  38  55  78 108 143 184 226 270 321
#     4  10  20  33  51  76 108 143 181 222 270 323
#     4  10  20  32  51  75 108 145 182 222 266 314
#     4  11  21  35  54  78 108 144 184 223 269 323
#     4  12  24  38  56  77 106 143 184 228 273 318
#     4  11  21  35  54  78 108 144 184 223 269 323
#     4  10  20  33  51  76 108 143 181 222 270 323
#
# _framework density 17.366025
#
# number of rings (size 3 to 8) (size 9 to 14) (size 15 to 20)
#    0.000    1.000    3.750    4.875    0.000    2.000 
#    0.000    0.000    0.000    0.000    0.000    0.875 
#    0.000    0.000    0.000    0.000    0.000    0.000 
#
# Total GULP energy -396916.929481 kJ/mol
# GULP energy per Si atom -12403.654046 kJ/mol
# Density = 1.732650 g / cm^3
# Si number density = 17.366025 Si / 1000 Ang^3
#
#
#
# Elastic Constant Matrix: (Units=GPa)
#
#
# Indices 1 2 3 4 5 6 
#
# 1 82.3777 28.1333 12.7217 0.0000 0.0000 0.0000
# 2 28.1333 102.4456 16.9502 0.0000 0.0000 0.0000
# 3 12.7217 16.9502 53.6926 0.0000 0.0000 0.0000
# 4 0.0000 0.0000 0.0000 23.4751 0.0000 0.0000
# 5 0.0000 0.0000 0.0000 0.0000 25.6724 0.0000
# 6 0.0000 0.0000 0.0000 0.0000 0.0000 32.6452
#
#
#
# Elastic Compliance Matrix: (Units=1/GPa)
#
#
# Indices 1 2 3 4 5 6 
#
# 1 0.013629 -0.003385 -0.002160 0.000000 0.000000 0.000000
# 2 -0.003385 0.011140 -0.002715 0.000000 0.000000 0.000000
# 3 -0.002160 -0.002715 0.019993 0.000000 0.000000 0.000000
# 4 0.000000 0.000000 0.000000 0.042598 0.000000 0.000000
# 5 0.000000 0.000000 0.000000 0.000000 0.038952 0.000000
# 6 0.000000 0.000000 0.000000 0.000000 0.000000 0.030632
#
#
# Mechanical properties :
#
#
# Convention : Reuss Voigt Hill
#
# Bulk Modulus (GPa) = 35.40884 39.34737 37.37811
# Shear Modulus (GPa) = 27.34026 28.40591 27.87309
#
# Velocity S-wave (km/s) = 3.97212 4.04879 4.01064
# Velocity P-wave (km/s) = 6.43979 6.67561 6.55876
#
# Compressibility (1/GPa) = 0.02824153
#
# Stress axis : x y z
#
# Youngs Moduli (GPa) = 73.37300 89.76579 50.01640
#
# Poissons Ratio (x) = 0.30388 0.10806
# Poissons Ratio (y) = 0.24839 0.13578
# Poissons Ratio (z) = 0.15852 0.24369
#
# Static dielectric constant tensor:
#      x y z
#    x 3.419300 0.000000 0.000000 
#    y 0.000000 3.274210 0.000000 
#    z 0.000000 0.000000 3.139840 
# 
# 
# High freq. dielectric constant tensor:
#      x y z
#    x 1.688680 0.000000 0.000000 
#    y 0.000000 1.661940 0.000000 
#    z 0.000000 0.000000 1.645780 
# 
# From -- ./inp_files/10612.got.cif
#   From: 2010.03.12/outbox.cif.g09.slc.cpg/sg40_6_cif.got.tgz:10612.got - 2010.04.14 01:38:03.
