data_PCOD8183959
_publ_section_title
;
Structure prediction by ZEFSAII (Michael W. Deem and Ramdas Pophale) SiO2 
 PCOD8183959
Probable space group: A M A 2
;
_chemical_formula_sum "Si O2"
_cell_formula_units_Z 40
_cell_length_a 22.404342
_cell_length_b 9.097619
_cell_length_c 10.221699
_cell_angle_alpha 90.000000
_cell_angle_beta 90.000000
_cell_angle_gamma 90.000000
_cell_volume 2083.449732
_symmetry_space_group_name_H-M "A M A 2"
_symmetry_group_IT_number 40
_symmetry_cell_setting 'orthorhombic'
loop_
_space_group_symop_operation_xyz
x,y,z
-x,-y,z
1/2-x,y,z
1/2+x,-y,z
x,1/2+y,1/2+z
-x,1/2-y,1/2+z
1/2-x,1/2+y,1/2+z
1/2+x,1/2-y,1/2+z
loop_
_atom_site_type_symbol
_atom_site_label
_atom_site_fract_x
_atom_site_fract_y
_atom_site_fract_z
Si Si1 0.011559 0.337213 0.881950
Si Si2 0.180216 0.644084 0.054188
Si Si3 0.389467 0.318122 0.348108
Si Si4 0.118687 0.662686 0.316894
Si Si5 0.116750 0.835843 0.555443
O O1 0.055824 0.246007 0.785673
O O2 0.000000 0.500000 0.823453
O O3 0.950584 0.249653 0.901660
O O4 0.045637 0.351188 0.022711
O O5 0.250000 0.616069 0.045560
O O6 0.163508 0.699592 0.199190
O O7 0.145944 0.493117 0.031247
O O8 0.162742 0.763569 0.944145
O O9 0.394028 0.492603 0.342011
O O10 0.375018 0.267383 0.199582
O O11 0.147450 0.725337 0.451253
#
# Coordination Sequence:
#
# PCOD8183959 Si02
#       5
#     8   8   8   8   8
#     4  10  20  38  64  92 130 160 200 255 321 382
#     4  11  24  43  64  88 127 172 215 258 311 374
#     4  11  21  38  65  96 125 162 209 257 320 369
#     4   9  23  40  62  92 126 164 204 258 316 372
#     4   9  23  41  61  91 125 166 202 256 314 369
#
# _framework density 19.198927999999999
#
# number of rings (size 3 to 8) (size 9 to 14) (size 15 to 20)
#    1.200    0.800    2.000    0.600    2.800    7.200 
#    0.000    0.000    0.000    0.000    0.000    0.000 
#    0.000    0.000    0.000    0.000    0.000    0.000 
#
# Total GULP energy -247844.056171 kJ/mol
# GULP energy per Si atom -12392.202809 kJ/mol
# Density = 1.915523 g / cm^3
# Si number density = 19.198928 Si / 1000 Ang^3
#
#
#
# Elastic Constant Matrix: (Units=GPa)
#
#
# Indices 1 2 3 4 5 6 
#
# 1 76.5750 33.9599 43.9369 0.0000 0.0000 0.0000
# 2 33.9599 93.7342 66.6404 0.0000 0.0000 0.0000
# 3 43.9369 66.6404 144.5690 0.0000 0.0000 0.0000
# 4 0.0000 0.0000 0.0000 31.2114 0.0000 0.0000
# 5 0.0000 0.0000 0.0000 0.0000 26.5515 0.0000
# 6 0.0000 0.0000 0.0000 0.0000 0.0000 13.5859
#
#
#
# Elastic Compliance Matrix: (Units=1/GPa)
#
#
# Indices 1 2 3 4 5 6 
#
# 1 0.016600 -0.003611 -0.003381 0.000000 0.000000 0.000000
# 2 -0.003611 0.016654 -0.006580 0.000000 0.000000 0.000000
# 3 -0.003381 -0.006580 0.010977 0.000000 0.000000 0.000000
# 4 0.000000 0.000000 0.000000 0.032040 0.000000 0.000000
# 5 0.000000 0.000000 0.000000 0.000000 0.037663 0.000000
# 6 0.000000 0.000000 0.000000 0.000000 0.000000 0.073606
#
#
# Mechanical properties :
#
#
# Convention : Reuss Voigt Hill
#
# Bulk Modulus (GPa) = 58.51380 67.10582 62.80981
# Shear Modulus (GPa) = 22.68819 25.62582 24.15701
#
# Velocity S-wave (km/s) = 3.44138 3.65739 3.55103
# Velocity P-wave (km/s) = 6.80695 7.27077 7.04268
#
# Compressibility (1/GPa) = 0.01708999
#
# Stress axis : x y z
#
# Youngs Moduli (GPa) = 60.24040 60.04401 91.09554
#
# Poissons Ratio (x) = 0.21681 0.30796
# Poissons Ratio (y) = 0.21751 0.59938
# Poissons Ratio (z) = 0.20365 0.39507
#
# Static dielectric constant tensor:
#      x y z
#    x 3.465660 0.000000 0.000000 
#    y 0.000000 3.494290 0.000000 
#    z 0.000000 0.000000 3.598730 
# 
# 
# High freq. dielectric constant tensor:
#      x y z
#    x 1.729430 0.000000 0.000000 
#    y 0.000000 1.752620 0.000000 
#    z 0.000000 0.000000 1.744320 
# 
# From -- ./inp_files/8600.got.cif
#   From: 2010.03.12/outbox.cif.g09.slc.cpg/sg40_5_cif.got.tgz:8600.got - 2010.04.14 01:38:03.
