data_PCOD8183515
_publ_section_title
;
Structure prediction by ZEFSAII (Michael W. Deem and Ramdas Pophale) SiO2 
 PCOD8183515
Probable space group: A M A 2
;
_chemical_formula_sum "Si O2"
_cell_formula_units_Z 48
_cell_length_a 8.663821
_cell_length_b 9.546267
_cell_length_c 30.963271
_cell_angle_alpha 90.000000
_cell_angle_beta 90.000000
_cell_angle_gamma 90.000000
_cell_volume 2560.883853
_symmetry_space_group_name_H-M "A M A 2"
_symmetry_group_IT_number 40
_symmetry_cell_setting 'orthorhombic'
loop_
_space_group_symop_operation_xyz
x,y,z
-x,-y,z
1/2-x,y,z
1/2+x,-y,z
x,1/2+y,1/2+z
-x,1/2-y,1/2+z
1/2-x,1/2+y,1/2+z
1/2+x,1/2-y,1/2+z
loop_
_atom_site_type_symbol
_atom_site_label
_atom_site_fract_x
_atom_site_fract_y
_atom_site_fract_z
Si Si1 0.930983 0.846744 0.259040
Si Si2 0.433648 0.154417 0.016693
Si Si3 0.066579 0.151035 0.589146
Si Si4 0.067186 0.352826 0.181492
Si Si5 0.568840 0.152588 0.439005
Si Si6 0.568764 0.653440 0.844245
O O1 0.750000 0.858692 0.263307
O O2 0.980402 0.758509 0.217520
O O3 0.994237 0.768723 0.302714
O O4 0.000000 0.000000 0.252949
O O5 0.250000 0.149588 0.019949
O O6 0.502142 0.229047 0.058448
O O7 0.500000 0.000000 0.013400
O O8 0.491819 0.238377 0.974437
O O9 0.250000 0.144994 0.586634
O O10 0.012694 0.192617 0.636984
O O11 0.000000 0.000000 0.575215
O O12 0.250000 0.364020 0.174403
O O13 0.000000 0.500000 0.197369
O O14 0.750000 0.132557 0.442690
O O15 0.525051 0.215722 0.391470
O O16 0.500000 0.000000 0.447663
O O17 0.500000 0.500000 0.843050
O O18 0.750000 0.648847 0.837442
#
# Coordination Sequence:
#
# PCOD8183515 Si02
#       6
#     8   8   8   8   8   8
#     4  10  20  33  52  79 108 139 176 217 262 313
#     4  11  23  39  56  79 111 143 178 220 270 322
#     4  11  22  38  60  83 107 139 179 221 266 317
#     4  10  21  37  56  79 107 139 178 220 263 314
#     4   9  19  34  55  80 105 137 178 220 261 312
#     4   9  16  29  50  76 105 137 175 218 261 306
#
# _framework density 18.74353
#
# number of rings (size 3 to 8) (size 9 to 14) (size 15 to 20)
#    0.000    2.000    0.000    6.000    0.000    6.667 
#    0.000    2.500    0.000    4.000    0.000    0.000 
#    0.000    0.000    0.000    0.000    0.000    0.000 
#
# Total GULP energy -297514.486352 kJ/mol
# GULP energy per Si atom -12396.436931 kJ/mol
# Density = 1.870087 g / cm^3
# Si number density = 18.743530 Si / 1000 Ang^3
#
#
#
# Elastic Constant Matrix: (Units=GPa)
#
#
# Indices 1 2 3 4 5 6 
#
# 1 95.6994 46.8316 64.0879 0.0000 0.0000 0.0000
# 2 46.8316 113.1352 95.4739 0.0000 0.0000 0.0000
# 3 64.0879 95.4739 159.7192 0.0000 0.0000 0.0000
# 4 0.0000 0.0000 0.0000 31.4043 0.0000 0.0000
# 5 0.0000 0.0000 0.0000 0.0000 46.2667 0.0000
# 6 0.0000 0.0000 0.0000 0.0000 0.0000 25.0422
#
#
#
# Elastic Compliance Matrix: (Units=1/GPa)
#
#
# Indices 1 2 3 4 5 6 
#
# 1 0.014558 -0.002213 -0.004519 0.000000 0.000000 0.000000
# 2 -0.002213 0.018173 -0.009975 0.000000 0.000000 0.000000
# 3 -0.004519 -0.009975 0.014037 0.000000 0.000000 0.000000
# 4 0.000000 0.000000 0.000000 0.031843 0.000000 0.000000
# 5 0.000000 0.000000 0.000000 0.000000 0.021614 0.000000
# 6 0.000000 0.000000 0.000000 0.000000 0.000000 0.039933
#
#
# Mechanical properties :
#
#
# Convention : Reuss Voigt Hill
#
# Bulk Modulus (GPa) = 74.88103 86.81562 80.84833
# Shear Modulus (GPa) = 28.08628 31.35334 29.71981
#
# Velocity S-wave (km/s) = 3.87518 4.09437 3.98628
# Velocity P-wave (km/s) = 7.74983 8.29277 8.02589
#
# Compressibility (1/GPa) = 0.01335452
#
# Stress axis : x y z
#
# Youngs Moduli (GPa) = 68.68843 55.02681 71.24085
#
# Poissons Ratio (x) = 0.12178 0.32192
# Poissons Ratio (y) = 0.15201 0.71063
# Poissons Ratio (z) = 0.31039 0.54890
#
# Static dielectric constant tensor:
#      x y z
#    x 3.551020 0.000000 0.000000 
#    y 0.000000 3.008030 0.000000 
#    z 0.000000 0.000000 4.298050 
# 
# 
# High freq. dielectric constant tensor:
#      x y z
#    x 1.742590 0.000000 0.000000 
#    y 0.000000 1.698240 0.000000 
#    z 0.000000 0.000000 1.752650 
# 
# From -- ./inp_files/26158.got.cif
#   From: 2010.03.12/outbox.cif.g09.slc.cpg/sg40_14_cif.got.tgz:26158.got - 2010.04.14 01:38:03.
