data_PCOD8183372
_publ_section_title
;
Structure prediction by ZEFSAII (Michael W. Deem and Ramdas Pophale) SiO2 
 PCOD8183372
Probable space group: A M A 2
;
_chemical_formula_sum "Si O2"
_cell_formula_units_Z 64
_cell_length_a 22.315491
_cell_length_b 9.242953
_cell_length_c 15.201258
_cell_angle_alpha 90.000000
_cell_angle_beta 90.000000
_cell_angle_gamma 90.000000
_cell_volume 3135.427201
_symmetry_space_group_name_H-M "A M A 2"
_symmetry_group_IT_number 40
_symmetry_cell_setting 'orthorhombic'
loop_
_space_group_symop_operation_xyz
x,y,z
-x,-y,z
1/2-x,y,z
1/2+x,-y,z
x,1/2+y,1/2+z
-x,1/2-y,1/2+z
1/2-x,1/2+y,1/2+z
1/2+x,1/2-y,1/2+z
loop_
_atom_site_type_symbol
_atom_site_label
_atom_site_fract_x
_atom_site_fract_y
_atom_site_fract_z
Si Si1 0.370900 0.347497 0.000000
Si Si2 0.005232 0.163149 0.771298
Si Si3 0.318413 0.408589 0.817705
Si Si4 0.520404 0.341814 0.475750
Si Si5 0.906057 0.827169 0.498114
Si Si6 0.120094 0.204314 0.305451
Si Si7 0.374971 0.205706 0.685792
Si Si8 0.182347 0.908794 0.681546
O O1 0.406591 0.499157 0.994740
O O2 0.328012 0.343750 0.084423
O O3 0.332269 0.331441 0.910855
O O4 0.415321 0.210507 0.011768
O O5 0.943976 0.255264 0.761366
O O6 0.026277 0.156448 0.871290
O O7 0.057443 0.243625 0.716843
O O8 0.000000 0.000000 0.733936
O O9 0.250000 0.465121 0.819307
O O10 0.365815 0.535195 0.797515
O O11 0.325787 0.297087 0.737828
O O12 0.500000 0.500000 0.510957
O O13 0.474229 0.221821 0.509404
O O14 0.879201 0.755300 0.409338
O O15 0.867835 0.767421 0.580949
O O16 0.172589 0.288205 0.255834
O O17 0.362910 0.037352 0.704798
O O18 0.250000 0.965287 0.686725
#
# Coordination Sequence:
#
# PCOD8183372 Si02
#       8
#     8   8   8   8   8   8   8   8
#     4  10  21  39  62  88 118 161 206 251 302 364
#     4  10  19  36  61  92 123 153 197 254 309 372
#     4  11  23  41  61  88 126 163 205 259 312 365
#     4  10  20  35  58  91 126 155 192 249 310 366
#     4   9  22  37  59  88 123 160 201 244 305 372
#     4  10  22  40  62  88 123 163 201 255 313 367
#     4  11  22  39  63  92 122 159 207 255 311 365
#     4  11  23  40  64  89 117 163 216 254 299 372
#
# _framework density 20.411891000000001
#
# number of rings (size 3 to 8) (size 9 to 14) (size 15 to 20)
#    0.000    1.750    2.500    1.500    1.750    1.500 
#    0.000    1.875    0.000    0.000    0.000    0.000 
#    0.000    0.000    0.000    0.000    0.000    0.000 
#
# Total GULP energy -396781.692990 kJ/mol
# GULP energy per Si atom -12399.427906 kJ/mol
# Density = 2.036543 g / cm^3
# Si number density = 20.411891 Si / 1000 Ang^3
#
#
#
# Elastic Constant Matrix: (Units=GPa)
#
#
# Indices 1 2 3 4 5 6 
#
# 1 112.2481 37.2004 37.2773 0.0000 0.0000 0.0000
# 2 37.2004 67.0985 44.4863 0.0000 0.0000 0.0000
# 3 37.2773 44.4863 104.3605 0.0000 0.0000 0.0000
# 4 0.0000 0.0000 0.0000 29.4734 0.0000 0.0000
# 5 0.0000 0.0000 0.0000 0.0000 27.0936 0.0000
# 6 0.0000 0.0000 0.0000 0.0000 0.0000 31.1455
#
#
#
# Elastic Compliance Matrix: (Units=1/GPa)
#
#
# Indices 1 2 3 4 5 6 
#
# 1 0.011173 -0.004947 -0.001882 0.000000 0.000000 0.000000
# 2 -0.004947 0.022965 -0.008022 0.000000 0.000000 0.000000
# 3 -0.001882 -0.008022 0.013674 0.000000 0.000000 0.000000
# 4 0.000000 0.000000 0.000000 0.033929 0.000000 0.000000
# 5 0.000000 0.000000 0.000000 0.000000 0.036909 0.000000
# 6 0.000000 0.000000 0.000000 0.000000 0.000000 0.032107
#
#
# Mechanical properties :
#
#
# Convention : Reuss Voigt Hill
#
# Bulk Modulus (GPa) = 55.21960 57.95948 56.58954
# Shear Modulus (GPa) = 26.81002 28.52536 27.66769
#
# Velocity S-wave (km/s) = 3.62809 3.74235 3.68566
# Velocity P-wave (km/s) = 6.68297 6.86515 6.77467
#
# Compressibility (1/GPa) = 0.01810951
#
# Stress axis : x y z
#
# Youngs Moduli (GPa) = 89.49855 43.54488 73.12958
#
# Poissons Ratio (x) = 0.21540 0.13767
# Poissons Ratio (y) = 0.44271 0.58668
# Poissons Ratio (z) = 0.16848 0.34934
#
# Static dielectric constant tensor:
#      x y z
#    x 3.516830 0.000000 0.000000 
#    y 0.000000 3.545970 0.000000 
#    z 0.000000 0.000000 3.827310 
# 
# 
# High freq. dielectric constant tensor:
#      x y z
#    x 1.787420 0.000000 0.000000 
#    y 0.000000 1.781450 0.000000 
#    z 0.000000 0.000000 1.804660 
# 
# From -- ./inp_files/18533.got.cif
#   From: 2010.03.12/outbox.cif.g09.slc.cpg/sg40_10_cif.got.tgz:18533.got - 2010.04.14 01:38:03.
