data_PCOD8184728
_publ_section_title
;
Structure prediction by ZEFSAII (Michael W. Deem and Ramdas Pophale) SiO2 
 PCOD8184728
Probable space group: A B A 2
;
_chemical_formula_sum "Si O2"
_cell_formula_units_Z 56
_cell_length_a 28.349011
_cell_length_b 19.212414
_cell_length_c 5.305717
_cell_angle_alpha 90.000000
_cell_angle_beta 90.000000
_cell_angle_gamma 90.000000
_cell_volume 2889.774341
_symmetry_space_group_name_H-M "A B A 2"
_symmetry_group_IT_number 41
_symmetry_cell_setting 'orthorhombic'
loop_
_space_group_symop_operation_xyz
x,y,z
-x,-y,z
1/2-x,y,1/2+z
1/2+x,-y,1/2+z
x,1/2+y,1/2+z
-x,1/2-y,1/2+z
1/2-x,1/2+y,z
1/2+x,1/2-y,z
loop_
_atom_site_type_symbol
_atom_site_label
_atom_site_fract_x
_atom_site_fract_y
_atom_site_fract_z
Si Si1 0.727206 0.793715 0.269070
Si Si2 0.621872 0.323206 0.776526
Si Si3 0.374094 0.089239 0.774371
Si Si4 0.521696 0.781836 0.226321
Si Si5 0.233123 0.051391 0.260516
Si Si6 0.024913 0.925475 0.776762
Si Si7 0.948140 0.032059 0.277109
O O1 0.749356 0.758990 0.520829
O O2 0.671015 0.781187 0.262304
O O3 0.738159 0.875855 0.276318
O O4 0.620018 0.378975 0.551212
O O5 0.578103 0.270128 0.741904
O O6 0.616082 0.356099 0.053199
O O7 0.322138 0.060033 0.739635
O O8 0.410016 0.027000 0.740472
O O9 0.496044 0.742225 0.453124
O O10 0.513256 0.864555 0.250345
O O11 0.247555 0.009992 0.515150
O O12 0.060368 0.924729 0.536209
O O13 0.054332 0.915690 0.037056
O O14 0.000000 0.000000 0.806208
O O15 0.000000 0.000000 0.309488
#
# Coordination Sequence:
#
# PCOD8184728 Si02
#       7
#     8   8   8   8   8   8   8
#     4  10  16  29  44  73 108 146 175 228 287 362
#     4  12  20  32  53  74 113 161 182 224 303 359
#     4  12  19  29  53  80 112 155 189 226 298 349
#     4  12  26  42  58  85 119 159 196 249 297 348
#     4  10  16  28  41  72 115 147 167 230 294 360
#     4  10  20  39  58  77 111 147 195 239 270 328
#     4  10  19  31  48  77 105 139 196 228 257 326
#
# _framework density 19.378674
#
# number of rings (size 3 to 8) (size 9 to 14) (size 15 to 20)
#    0.000    1.143    5.714    6.000    0.000    0.000 
#    0.000    0.000    0.000    0.000    0.000    0.000 
#    0.000   22.857    0.000    0.000    0.000    0.000 
#
# Total GULP energy -347025.796407 kJ/mol
# GULP energy per Si atom -12393.778443 kJ/mol
# Density = 1.933457 g / cm^3
# Si number density = 19.378674 Si / 1000 Ang^3
#
#
#
# Elastic Constant Matrix: (Units=GPa)
#
#
# Indices 1 2 3 4 5 6 
#
# 1 140.7851 10.8871 19.8223 0.0000 0.0000 0.0000
# 2 10.8871 30.3809 -2.3298 0.0000 0.0000 0.0000
# 3 19.8223 -2.3298 162.4552 0.0000 0.0000 0.0000
# 4 0.0000 0.0000 0.0000 10.9606 0.0000 0.0000
# 5 0.0000 0.0000 0.0000 0.0000 30.8184 0.0000
# 6 0.0000 0.0000 0.0000 0.0000 0.0000 12.5834
#
#
#
# Elastic Compliance Matrix: (Units=1/GPa)
#
#
# Indices 1 2 3 4 5 6 
#
# 1 0.007449 -0.002742 -0.000948 0.000000 0.000000 0.000000
# 2 -0.002742 0.033961 0.000822 0.000000 0.000000 0.000000
# 3 -0.000948 0.000822 0.006283 0.000000 0.000000 0.000000
# 4 0.000000 0.000000 0.000000 0.091236 0.000000 0.000000
# 5 0.000000 0.000000 0.000000 0.000000 0.032448 0.000000
# 6 0.000000 0.000000 0.000000 0.000000 0.000000 0.079470
#
#
# Mechanical properties :
#
#
# Convention : Reuss Voigt Hill
#
# Bulk Modulus (GPa) = 23.83474 43.37559 33.60516
# Shear Modulus (GPa) = 18.47959 31.22192 24.85075
#
# Velocity S-wave (km/s) = 3.09140 4.01827 3.58491
# Velocity P-wave (km/s) = 5.00684 6.63026 5.87490
#
# Compressibility (1/GPa) = 0.04195557
#
# Stress axis : x y z
#
# Youngs Moduli (GPa) = 134.25417 29.44557 159.15914
#
# Poissons Ratio (x) = 0.08074 0.15091
# Poissons Ratio (y) = 0.36811 -0.13077
# Poissons Ratio (z) = 0.12730 -0.02419
#
# Static dielectric constant tensor:
#      x y z
#    x 3.601520 0.000000 0.000000 
#    y 0.000000 2.861280 0.000000 
#    z 0.000000 0.000000 5.566450 
# 
# 
# High freq. dielectric constant tensor:
#      x y z
#    x 1.753330 0.000000 0.000000 
#    y 0.000000 1.669460 0.000000 
#    z 0.000000 0.000000 1.804330 
# 
# From -- ./inp_files/1218.got.cif
#   From: 2010.03.12/outbox.cif.g09.slc.cpg/sg41_1_cif.got.tgz:1218.got - 2010.04.14 01:55:53.
