data_PCOD8184783
_publ_section_title
;
Structure prediction by ZEFSAII (Michael W. Deem and Ramdas Pophale) SiO2 
 PCOD8184783
Probable space group: A B A 2
;
_chemical_formula_sum "Si O2"
_cell_formula_units_Z 40
_cell_length_a 9.807843
_cell_length_b 22.090356
_cell_length_c 8.749789
_cell_angle_alpha 90.000000
_cell_angle_beta 90.000000
_cell_angle_gamma 90.000000
_cell_volume 1895.718290
_symmetry_space_group_name_H-M "A B A 2"
_symmetry_group_IT_number 41
_symmetry_cell_setting 'orthorhombic'
loop_
_space_group_symop_operation_xyz
x,y,z
-x,-y,z
1/2-x,y,1/2+z
1/2+x,-y,1/2+z
x,1/2+y,1/2+z
-x,1/2-y,1/2+z
1/2-x,1/2+y,z
1/2+x,1/2-y,z
loop_
_atom_site_type_symbol
_atom_site_label
_atom_site_fract_x
_atom_site_fract_y
_atom_site_fract_z
Si Si1 0.500000 0.000000 0.622660
Si Si2 0.088095 0.715068 0.446238
Si Si3 0.879318 0.803987 0.307876
Si Si4 0.172169 0.059449 0.364491
Si Si5 0.511722 0.413998 0.870482
Si Si6 0.000000 0.000000 0.616525
O O1 0.629706 0.981858 0.722953
O O2 0.445632 0.943578 0.521157
O O3 0.106881 0.708722 0.627673
O O4 0.234262 0.721027 0.365508
O O5 0.003382 0.658300 0.376190
O O6 0.000165 0.773501 0.404554
O O7 0.895214 0.874607 0.344134
O O8 0.332334 0.064174 0.370911
O O9 0.122558 0.027343 0.518471
O O10 0.442911 0.443992 0.720738
#
# Coordination Sequence:
#
# PCOD8184783 Si02
#       6
#     4   8   8   8   8   4
#     4  10  18  38  58  88 118 154 208 252 298 384
#     4  11  24  43  70  95 130 171 219 269 325 388
#     4  11  24  43  70  95 130 171 219 269 325 388
#     4  10  21  38  63  88 123 164 208 251 324 376
#     4  10  21  38  63  88 123 164 208 251 324 376
#     4  10  22  34  62  92 118 162 204 260 294 396
#
# _framework density 21.100180999999999
#
# number of rings (size 3 to 8) (size 9 to 14) (size 15 to 20)
#    0.000    1.600    2.000    2.400   11.200    0.000 
#    0.000   12.000    0.000    0.000    0.000    0.000 
#    0.000    0.000    0.000    0.000    0.000    0.000 
#
# Total GULP energy -247963.854829 kJ/mol
# GULP energy per Si atom -12398.192741 kJ/mol
# Density = 2.105216 g / cm^3
# Si number density = 21.100181 Si / 1000 Ang^3
#
#
#
# Elastic Constant Matrix: (Units=GPa)
#
#
# Indices 1 2 3 4 5 6 
#
# 1 66.1592 66.4274 38.9962 0.0000 0.0000 0.0000
# 2 66.4274 108.3764 59.9355 0.0000 0.0000 0.0000
# 3 38.9962 59.9355 157.5854 0.0000 0.0000 0.0000
# 4 0.0000 0.0000 0.0000 -222.0480 0.0000 0.0000
# 5 0.0000 0.0000 0.0000 0.0000 31.3341 0.0000
# 6 0.0000 0.0000 0.0000 0.0000 0.0000 38.5286
#
#
#
# Elastic Compliance Matrix: (Units=1/GPa)
#
#
# Indices 1 2 3 4 5 6 
#
# 1 0.039366 -0.023733 -0.000715 0.000000 0.000000 0.000000
# 2 -0.023733 0.025993 -0.004013 0.000000 0.000000 0.000000
# 3 -0.000715 -0.004013 0.008049 0.000000 0.000000 0.000000
# 4 0.000000 0.000000 0.000000 -0.004504 0.000000 0.000000
# 5 0.000000 0.000000 0.000000 0.000000 0.031914 0.000000
# 6 0.000000 0.000000 0.000000 0.000000 0.000000 0.025955
#
#
# Mechanical properties :
#
#
# Convention : Reuss Voigt Hill
#
# Bulk Modulus (GPa) = 60.65877 73.64881 67.15379
# Shear Modulus (GPa) = 26.42818 -19.31960 3.55429
#
# Velocity S-wave (km/s) = 3.54292 -3.02919 1.29928
# Velocity P-wave (km/s) = 6.74884 4.76922 5.84347
#
# Compressibility (1/GPa) = 0.01648566
#
# Stress axis : x y z
#
# Youngs Moduli (GPa) = 25.40261 38.47119 124.23849
#
# Poissons Ratio (x) = 0.91305 0.08881
# Poissons Ratio (y) = 0.60289 0.49859
# Poissons Ratio (z) = 0.01816 0.15439
#
# Static dielectric constant tensor:
#      x y z
#    x 3.541860 0.000000 0.000000 
#    y 0.000000 4.139230 0.000000 
#    z 0.000000 0.000000 4.216400 
# 
# 
# High freq. dielectric constant tensor:
#      x y z
#    x 1.803950 0.000000 0.000000 
#    y 0.000000 1.829520 0.000000 
#    z 0.000000 0.000000 1.853030 
# 
# From -- ./inp_files/1721.got.cif
#   From: 2010.03.12/outbox.cif.g09.slc.cpg/sg41_1_cif.got.tgz:1721.got - 2010.04.14 01:55:53.
