data_PCOD8184420
_publ_section_title
;
Structure prediction by ZEFSAII (Michael W. Deem and Ramdas Pophale) SiO2 
 PCOD8184420
Probable space group: A M A 2
;
_chemical_formula_sum "Si O2"
_cell_formula_units_Z 64
_cell_length_a 14.337176
_cell_length_b 10.583154
_cell_length_c 19.772824
_cell_angle_alpha 90.000000
_cell_angle_beta 90.000000
_cell_angle_gamma 90.000000
_cell_volume 3000.180839
_symmetry_space_group_name_H-M "A M A 2"
_symmetry_group_IT_number 40
_symmetry_cell_setting 'orthorhombic'
loop_
_space_group_symop_operation_xyz
x,y,z
-x,-y,z
1/2-x,y,z
1/2+x,-y,z
x,1/2+y,1/2+z
-x,1/2-y,1/2+z
1/2-x,1/2+y,1/2+z
1/2+x,1/2-y,1/2+z
loop_
_atom_site_type_symbol
_atom_site_label
_atom_site_fract_x
_atom_site_fract_y
_atom_site_fract_z
Si Si1 0.146652 0.280746 0.328650
Si Si2 0.970843 0.635306 0.447397
Si Si3 0.147428 0.322129 0.710958
Si Si4 0.641726 0.548203 0.572379
Si Si5 0.645839 0.185364 0.451111
Si Si6 0.608710 0.505546 0.833865
Si Si7 0.520187 0.642480 0.208458
Si Si8 0.854276 0.259414 0.594433
O O1 0.250000 0.336252 0.318550
O O2 0.112819 0.308030 0.404016
O O3 0.079046 0.351339 0.276777
O O4 0.151599 0.130466 0.319620
O O5 0.928688 0.624679 0.523349
O O6 0.000000 0.500000 0.418913
O O7 0.061986 0.720158 0.434835
O O8 0.250000 0.265499 0.696971
O O9 0.117199 0.411115 0.648613
O O10 0.152822 0.401096 0.779577
O O11 0.079116 0.205696 0.720689
O O12 0.750000 0.575705 0.554010
O O13 0.620142 0.398684 0.565456
O O14 0.750000 0.241369 0.434484
O O15 0.631778 0.055471 0.409528
O O16 0.641261 0.160416 0.531942
O O17 0.500000 0.500000 0.821304
O O18 0.500000 0.500000 0.186218
O O19 0.573884 0.717213 0.150485
O O20 0.750000 0.262711 0.626182
#
# Coordination Sequence:
#
# PCOD8184420 Si02
#       8
#     8   8   8   8   8   8   8   8
#     4  12  26  44  68  98 129 171 221 275 329 389
#     4  12  23  39  65  97 135 176 217 264 325 387
#     4  11  24  42  68  99 130 168 215 274 332 385
#     4  10  22  41  68 102 132 167 222 278 326 383
#     4  11  23  40  63  96 135 175 219 268 327 389
#     4  12  23  44  70  96 129 165 221 275 333 390
#     4  12  26  45  67  95 134 175 219 267 330 401
#     4  10  22  42  69  99 131 174 221 273 329 387
#
# _framework density 21.332045999999998
#
# number of rings (size 3 to 8) (size 9 to 14) (size 15 to 20)
#    0.000    0.750    3.750    3.750    0.000    3.000 
#    2.250    0.000    0.000    0.000    0.000    0.000 
#    0.000    0.000    0.000    0.000    0.000    0.000 
#
# Total GULP energy -396820.111797 kJ/mol
# GULP energy per Si atom -12400.628494 kJ/mol
# Density = 2.128349 g / cm^3
# Si number density = 21.332046 Si / 1000 Ang^3
#
#
#
# Elastic Constant Matrix: (Units=GPa)
#
#
# Indices 1 2 3 4 5 6 
#
# 1 142.9902 27.4101 32.8214 0.0000 0.0000 0.0000
# 2 27.4101 62.6251 12.2157 0.0000 0.0000 0.0000
# 3 32.8214 12.2157 93.7564 0.0000 0.0000 0.0000
# 4 0.0000 0.0000 0.0000 35.0713 0.0000 0.0000
# 5 0.0000 0.0000 0.0000 0.0000 35.6184 0.0000
# 6 0.0000 0.0000 0.0000 0.0000 0.0000 9.5496
#
#
#
# Elastic Compliance Matrix: (Units=1/GPa)
#
#
# Indices 1 2 3 4 5 6 
#
# 1 0.008148 -0.003088 -0.002450 0.000000 0.000000 0.000000
# 2 -0.003088 0.017555 -0.001206 0.000000 0.000000 0.000000
# 3 -0.002450 -0.001206 0.011681 0.000000 0.000000 0.000000
# 4 0.000000 0.000000 0.000000 0.028513 0.000000 0.000000
# 5 0.000000 0.000000 0.000000 0.000000 0.028075 0.000000
# 6 0.000000 0.000000 0.000000 0.000000 0.000000 0.104716
#
#
# Mechanical properties :
#
#
# Convention : Reuss Voigt Hill
#
# Bulk Modulus (GPa) = 41.85006 49.36288 45.60647
# Shear Modulus (GPa) = 22.71258 31.17617 26.94437
#
# Velocity S-wave (km/s) = 3.26654 3.82707 3.55786
# Velocity P-wave (km/s) = 5.82134 6.53598 6.18899
#
# Compressibility (1/GPa) = 0.02389483
#
# Stress axis : x y z
#
# Youngs Moduli (GPa) = 122.73197 56.96375 85.61097
#
# Poissons Ratio (x) = 0.17592 0.20974
# Poissons Ratio (y) = 0.37903 0.10326
# Poissons Ratio (z) = 0.30069 0.06871
#
# Static dielectric constant tensor:
#      x y z
#    x 4.190420 0.000000 0.000000 
#    y 0.000000 3.651600 0.000000 
#    z 0.000000 0.000000 3.909990 
# 
# 
# High freq. dielectric constant tensor:
#      x y z
#    x 1.866720 0.000000 0.000000 
#    y 0.000000 1.810460 0.000000 
#    z 0.000000 0.000000 1.842500 
# 
# From -- ./inp_files/20786.got.cif
#   From: 2010.03.12/outbox.cif.g09.slc.cpg/sg40_11_cif.got.tgz:20786.got - 2010.04.14 01:38:03.
