data_PCOD8184781
_publ_section_title
;
Structure prediction by ZEFSAII (Michael W. Deem and Ramdas Pophale) SiO2 
 PCOD8184781
Probable space group: A B A 2
;
_chemical_formula_sum "Si O2"
_cell_formula_units_Z 64
_cell_length_a 11.962325
_cell_length_b 18.599974
_cell_length_c 13.924884
_cell_angle_alpha 90.000000
_cell_angle_beta 90.000000
_cell_angle_gamma 90.000000
_cell_volume 3098.271846
_symmetry_space_group_name_H-M "A B A 2"
_symmetry_group_IT_number 41
_symmetry_cell_setting 'orthorhombic'
loop_
_space_group_symop_operation_xyz
x,y,z
-x,-y,z
1/2-x,y,1/2+z
1/2+x,-y,1/2+z
x,1/2+y,1/2+z
-x,1/2-y,1/2+z
1/2-x,1/2+y,z
1/2+x,1/2-y,z
loop_
_atom_site_type_symbol
_atom_site_label
_atom_site_fract_x
_atom_site_fract_y
_atom_site_fract_z
Si Si1 0.515917 0.578592 0.630250
Si Si2 0.261104 0.417886 0.188359
Si Si3 0.904699 0.717398 0.433384
Si Si4 0.811366 0.682549 0.851123
Si Si5 0.017031 0.347731 0.615488
Si Si6 0.041615 0.213450 0.746904
Si Si7 0.042432 0.125409 0.427856
Si Si8 0.107099 0.049124 0.243319
O O1 0.500000 0.500000 0.677142
O O2 0.649046 0.592560 0.626370
O O3 0.447247 0.636556 0.694203
O O4 0.468294 0.575770 0.521652
O O5 0.243514 0.370620 0.282555
O O6 0.365918 0.387801 0.130093
O O7 0.284134 0.501583 0.217486
O O8 0.772991 0.696948 0.439341
O O9 0.984934 0.669404 0.501863
O O10 0.944006 0.707369 0.324774
O O11 0.907580 0.799989 0.465764
O O12 0.844495 0.758461 0.798835
O O13 0.921733 0.640532 0.881979
O O14 0.006397 0.272463 0.669428
O O15 0.915261 0.397348 0.652858
O O16 0.121692 0.090876 0.345197
O O17 0.000000 0.000000 0.260179
#
# Coordination Sequence:
#
# PCOD8184781 Si02
#       8
#     8   8   8   8   8   8   8   8
#     4  12  25  40  57  88 132 167 197 255 327 381
#     4  10  21  39  64  87 122 168 208 252 310 380
#     4  11  20  36  65  93 117 157 207 257 308 361
#     4  10  20  37  65  88 116 161 206 256 304 363
#     4  10  19  38  64  92 118 156 209 259 305 370
#     4  10  21  40  58  89 122 158 201 254 316 369
#     4  11  21  38  63  90 120 158 207 261 305 369
#     4  10  18  37  65  92 118 158 214 257 303 374
#
# _framework density 20.656676999999998
#
# number of rings (size 3 to 8) (size 9 to 14) (size 15 to 20)
#    0.000    1.500    7.500    1.125    0.000    1.000 
#    0.000    4.375    0.000    0.000    0.000    0.000 
#    0.000    0.000    0.000    0.000    0.000    0.000 
#
# Total GULP energy -396599.366913 kJ/mol
# GULP energy per Si atom -12393.730216 kJ/mol
# Density = 2.060966 g / cm^3
# Si number density = 20.656677 Si / 1000 Ang^3
#
#
#
# Elastic Constant Matrix: (Units=GPa)
#
#
# Indices 1 2 3 4 5 6 
#
# 1 41.2346 18.8059 24.8488 0.0000 0.0000 0.0000
# 2 18.8059 130.1263 44.2552 0.0000 0.0000 0.0000
# 3 24.8488 44.2552 87.4249 0.0000 0.0000 0.0000
# 4 0.0000 0.0000 0.0000 26.1209 0.0000 0.0000
# 5 0.0000 0.0000 0.0000 0.0000 18.6015 0.0000
# 6 0.0000 0.0000 0.0000 0.0000 0.0000 21.4836
#
#
#
# Elastic Compliance Matrix: (Units=1/GPa)
#
#
# Indices 1 2 3 4 5 6 
#
# 1 0.029575 -0.001710 -0.007541 0.000000 0.000000 0.000000
# 2 -0.001710 0.009382 -0.004263 0.000000 0.000000 0.000000
# 3 -0.007541 -0.004263 0.015740 0.000000 0.000000 0.000000
# 4 0.000000 0.000000 0.000000 0.038284 0.000000 0.000000
# 5 0.000000 0.000000 0.000000 0.000000 0.053759 0.000000
# 6 0.000000 0.000000 0.000000 0.000000 0.000000 0.046547
#
#
# Mechanical properties :
#
#
# Convention : Reuss Voigt Hill
#
# Bulk Modulus (GPa) = 36.14060 48.28950 42.21505
# Shear Modulus (GPa) = 21.78295 24.63293 23.20794
#
# Velocity S-wave (km/s) = 3.25087 3.45699 3.35551
# Velocity P-wave (km/s) = 5.62358 6.27394 5.95764
#
# Compressibility (1/GPa) = 0.02766972
#
# Stress axis : x y z
#
# Youngs Moduli (GPa) = 33.81179 106.58914 63.53329
#
# Poissons Ratio (x) = 0.18223 0.47909
# Poissons Ratio (y) = 0.05781 0.27086
# Poissons Ratio (z) = 0.25497 0.45441
#
# Static dielectric constant tensor:
#      x y z
#    x 3.435060 0.000000 0.000000 
#    y 0.000000 3.978290 0.000000 
#    z 0.000000 0.000000 3.683450 
# 
# 
# High freq. dielectric constant tensor:
#      x y z
#    x 1.779930 0.000000 0.000000 
#    y 0.000000 1.816090 0.000000 
#    z 0.000000 0.000000 1.800870 
# 
# From -- ./inp_files/8105.got.cif
#   From: 2010.03.12/outbox.cif.g09.slc.cpg/sg41_5_cif.got.tgz:8105.got - 2010.04.14 01:55:53.
