data_PCOD8184061
_publ_section_title
;
Structure prediction by ZEFSAII (Michael W. Deem and Ramdas Pophale) SiO2 
 PCOD8184061
Probable space group: A M A 2
;
_chemical_formula_sum "Si O2"
_cell_formula_units_Z 48
_cell_length_a 13.513300
_cell_length_b 16.920191
_cell_length_c 10.889410
_cell_angle_alpha 90.000000
_cell_angle_beta 90.000000
_cell_angle_gamma 90.000000
_cell_volume 2489.837647
_symmetry_space_group_name_H-M "A M A 2"
_symmetry_group_IT_number 40
_symmetry_cell_setting 'orthorhombic'
loop_
_space_group_symop_operation_xyz
x,y,z
-x,-y,z
1/2-x,y,z
1/2+x,-y,z
x,1/2+y,1/2+z
-x,1/2-y,1/2+z
1/2-x,1/2+y,1/2+z
1/2+x,1/2-y,1/2+z
loop_
_atom_site_type_symbol
_atom_site_label
_atom_site_fract_x
_atom_site_fract_y
_atom_site_fract_z
Si Si1 0.867294 0.459112 0.959670
Si Si2 0.024844 0.612365 0.567279
Si Si3 0.137430 0.079625 0.729422
Si Si4 0.631963 0.280468 0.399625
Si Si5 0.361936 0.974549 0.959793
Si Si6 0.962117 0.114817 0.342315
O O1 0.750000 0.449189 0.944285
O O2 0.900784 0.541914 0.899688
O O3 0.924479 0.388010 0.890260
O O4 0.906789 0.449790 0.100029
O O5 0.082971 0.691636 0.528763
O O6 0.102999 0.540035 0.559429
O O7 0.934360 0.600247 0.470396
O O8 0.970179 0.614324 0.696554
O O9 0.250000 0.099729 0.702336
O O10 0.093972 0.160249 0.790771
O O11 0.125893 0.007173 0.822684
O O12 0.750000 0.283823 0.413304
O O13 0.596231 0.192652 0.378428
O O14 0.250000 0.949797 0.989279
#
# Coordination Sequence:
#
# PCOD8184061 Si02
#       6
#     8   8   8   8   8   8
#     4  10  21  38  59  88 121 154 198 252 302 357
#     4  10  21  35  55  87 114 151 201 244 298 362
#     4   8  17  35  60  84 112 155 196 236 294 353
#     4  10  22  41  61  82 118 165 204 249 308 365
#     4   9  17  34  60  86 113 149 194 246 298 354
#     4  11  24  36  58  89 118 159 204 244 305 367
#
# _framework density 19.278365999999998
#
# number of rings (size 3 to 8) (size 9 to 14) (size 15 to 20)
#    0.000    2.333    0.000    4.000    2.333    9.333 
#    0.000    0.833    0.000    0.000    0.000    0.000 
#    0.000    0.000    0.000    0.000    0.000    0.000 
#
# Total GULP energy -297349.437799 kJ/mol
# GULP energy per Si atom -12389.559908 kJ/mol
# Density = 1.923449 g / cm^3
# Si number density = 19.278366 Si / 1000 Ang^3
#
#
#
# Elastic Constant Matrix: (Units=GPa)
#
#
# Indices 1 2 3 4 5 6 
#
# 1 126.5981 45.8445 29.0260 0.0000 0.0000 0.0000
# 2 45.8445 85.9721 51.0558 0.0000 0.0000 0.0000
# 3 29.0260 51.0558 84.5590 0.0000 0.0000 0.0000
# 4 0.0000 0.0000 0.0000 18.9327 0.0000 0.0000
# 5 0.0000 0.0000 0.0000 0.0000 26.4482 0.0000
# 6 0.0000 0.0000 0.0000 0.0000 0.0000 33.8852
#
#
#
# Elastic Compliance Matrix: (Units=1/GPa)
#
#
# Indices 1 2 3 4 5 6 
#
# 1 0.009795 -0.005030 -0.000325 0.000000 0.000000 0.000000
# 2 -0.005030 0.020717 -0.010782 0.000000 0.000000 0.000000
# 3 -0.000325 -0.010782 0.018448 0.000000 0.000000 0.000000
# 4 0.000000 0.000000 0.000000 0.052819 0.000000 0.000000
# 5 0.000000 0.000000 0.000000 0.000000 0.037810 0.000000
# 6 0.000000 0.000000 0.000000 0.000000 0.000000 0.029511
#
#
# Mechanical properties :
#
#
# Convention : Reuss Voigt Hill
#
# Bulk Modulus (GPa) = 59.93330 60.99799 60.46565
# Shear Modulus (GPa) = 24.16202 27.26674 25.71438
#
# Velocity S-wave (km/s) = 3.54407 3.76489 3.65615
# Velocity P-wave (km/s) = 6.92121 7.11397 7.01825
#
# Compressibility (1/GPa) = 0.01668521
#
# Stress axis : x y z
#
# Youngs Moduli (GPa) = 102.09185 48.26929 54.20693
#
# Poissons Ratio (x) = 0.24280 0.01763
# Poissons Ratio (y) = 0.51353 0.58447
# Poissons Ratio (z) = 0.03320 0.52045
#
# Static dielectric constant tensor:
#      x y z
#    x 3.730980 0.000000 0.000000 
#    y 0.000000 3.373680 0.000000 
#    z 0.000000 0.000000 3.727790 
# 
# 
# High freq. dielectric constant tensor:
#      x y z
#    x 1.758980 0.000000 0.000000 
#    y 0.000000 1.724810 0.000000 
#    z 0.000000 0.000000 1.751310 
# 
# From -- ./inp_files/6429.got.cif
#   From: 2010.03.12/outbox.cif.g09.slc.cpg/sg40_4_cif.got.tgz:6429.got - 2010.04.14 01:38:03.
