data_PCOD8184587
_publ_section_title
;
Structure prediction by ZEFSAII (Michael W. Deem and Ramdas Pophale) SiO2 
 PCOD8184587
Probable space group: A M A 2
;
_chemical_formula_sum "Si O2"
_cell_formula_units_Z 64
_cell_length_a 20.238081
_cell_length_b 14.954039
_cell_length_c 9.608809
_cell_angle_alpha 90.000000
_cell_angle_beta 90.000000
_cell_angle_gamma 90.000000
_cell_volume 2908.020070
_symmetry_space_group_name_H-M "A M A 2"
_symmetry_group_IT_number 40
_symmetry_cell_setting 'orthorhombic'
loop_
_space_group_symop_operation_xyz
x,y,z
-x,-y,z
1/2-x,y,z
1/2+x,-y,z
x,1/2+y,1/2+z
-x,1/2-y,1/2+z
1/2-x,1/2+y,1/2+z
1/2+x,1/2-y,1/2+z
loop_
_atom_site_type_symbol
_atom_site_label
_atom_site_fract_x
_atom_site_fract_y
_atom_site_fract_z
Si Si1 0.610217 0.669373 0.207310
Si Si2 0.369130 0.959506 0.195136
Si Si3 0.677507 0.038672 0.903338
Si Si4 0.893412 0.861462 0.870157
Si Si5 0.090919 0.640698 0.809829
Si Si6 0.827225 0.178078 0.429507
Si Si7 0.537322 0.317202 0.093759
Si Si8 0.008295 0.376619 0.577286
O O1 0.620664 0.599304 0.332794
O O2 0.628121 0.766301 0.273846
O O3 0.536728 0.659230 0.143107
O O4 0.660746 0.640060 0.084411
O O5 0.360250 0.883522 0.311113
O O6 0.439722 0.955382 0.111826
O O7 0.362859 0.057077 0.265779
O O8 0.317208 0.947942 0.070626
O O9 0.750000 0.062747 0.843823
O O10 0.662833 0.935843 0.868389
O O11 0.863947 0.773070 0.940130
O O12 0.911937 0.836411 0.715226
O O13 0.955937 0.899612 0.956641
O O14 0.024208 0.645105 0.723825
O O15 0.065545 0.624215 0.966586
O O16 0.750000 0.187373 0.396427
O O17 0.544816 0.215899 0.036375
#
# Coordination Sequence:
#
# PCOD8184587 Si02
#       8
#     8   8   8   8   8   8   8   8
#     4  11  25  45  70 102 139 178 226 284 350 408
#     4  12  24  43  72 102 138 179 233 285 348 412
#     4  12  27  48  68  97 140 188 241 283 332 418
#     4  12  24  44  70 102 135 182 224 286 352 409
#     4  11  23  41  68 104 137 174 212 284 354 409
#     4  12  25  45  69  97 136 188 234 278 337 414
#     4  11  22  40  69 105 141 166 220 285 353 411
#     4  11  20  42  68 104 137 169 219 283 351 413
#
# _framework density 22.008102000000001
#
# number of rings (size 3 to 8) (size 9 to 14) (size 15 to 20)
#    0.000    0.500    5.000    5.250    1.750    1.500 
#    0.000    1.875    0.000    0.000    0.000    0.000 
#    0.000    0.000    0.000    0.000    0.000    0.000 
#
# Total GULP energy -396755.297225 kJ/mol
# GULP energy per Si atom -12398.603038 kJ/mol
# Density = 2.195801 g / cm^3
# Si number density = 22.008102 Si / 1000 Ang^3
#
#
#
# Elastic Constant Matrix: (Units=GPa)
#
#
# Indices 1 2 3 4 5 6 
#
# 1 72.0039 17.0744 33.7167 0.0000 0.0000 0.0000
# 2 17.0744 113.3569 42.0893 0.0000 0.0000 0.0000
# 3 33.7167 42.0893 113.3479 0.0000 0.0000 0.0000
# 4 0.0000 0.0000 0.0000 25.6838 0.0000 0.0000
# 5 0.0000 0.0000 0.0000 0.0000 27.6922 0.0000
# 6 0.0000 0.0000 0.0000 0.0000 0.0000 22.5739
#
#
#
# Elastic Compliance Matrix: (Units=1/GPa)
#
#
# Indices 1 2 3 4 5 6 
#
# 1 0.016191 -0.000755 -0.004536 0.000000 0.000000 0.000000
# 2 -0.000755 0.010268 -0.003588 0.000000 0.000000 0.000000
# 3 -0.004536 -0.003588 0.011504 0.000000 0.000000 0.000000
# 4 0.000000 0.000000 0.000000 0.038935 0.000000 0.000000
# 5 0.000000 0.000000 0.000000 0.000000 0.036111 0.000000
# 6 0.000000 0.000000 0.000000 0.000000 0.000000 0.044299
#
#
# Mechanical properties :
#
#
# Convention : Reuss Voigt Hill
#
# Bulk Modulus (GPa) = 49.49216 53.82994 51.66105
# Shear Modulus (GPa) = 27.50261 28.91186 28.20724
#
# Velocity S-wave (km/s) = 3.53889 3.62842 3.58393
# Velocity P-wave (km/s) = 6.26381 6.48584 6.37579
#
# Compressibility (1/GPa) = 0.02020522
#
# Stress axis : x y z
#
# Youngs Moduli (GPa) = 61.76220 97.39327 86.92547
#
# Poissons Ratio (x) = 0.07349 0.39430
# Poissons Ratio (y) = 0.04660 0.31191
# Poissons Ratio (z) = 0.28016 0.34947
#
# Static dielectric constant tensor:
#      x y z
#    x 3.647570 0.000000 0.000000 
#    y 0.000000 4.128390 0.000000 
#    z 0.000000 0.000000 4.044840 
# 
# 
# High freq. dielectric constant tensor:
#      x y z
#    x 1.842620 0.000000 0.000000 
#    y 0.000000 1.869030 0.000000 
#    z 0.000000 0.000000 1.883790 
# 
# From -- ./inp_files/8948.got.cif
#   From: 2010.03.12/outbox.cif.g09.slc.cpg/sg40_5_cif.got.tgz:8948.got - 2010.04.14 01:38:03.
