data_PCOD8184533
_publ_section_title
;
Structure prediction by ZEFSAII (Michael W. Deem and Ramdas Pophale) SiO2 
 PCOD8184533
Probable space group: A M A 2
;
_chemical_formula_sum "Si O2"
_cell_formula_units_Z 40
_cell_length_a 18.763956
_cell_length_b 17.191174
_cell_length_c 5.208889
_cell_angle_alpha 90.000000
_cell_angle_beta 90.000000
_cell_angle_gamma 90.000000
_cell_volume 1680.254413
_symmetry_space_group_name_H-M "A M A 2"
_symmetry_group_IT_number 40
_symmetry_cell_setting 'orthorhombic'
loop_
_space_group_symop_operation_xyz
x,y,z
-x,-y,z
1/2-x,y,z
1/2+x,-y,z
x,1/2+y,1/2+z
-x,1/2-y,1/2+z
1/2-x,1/2+y,1/2+z
1/2+x,1/2-y,1/2+z
loop_
_atom_site_type_symbol
_atom_site_label
_atom_site_fract_x
_atom_site_fract_y
_atom_site_fract_z
Si Si1 0.410643 0.887935 0.508430
Si Si2 0.559703 0.376426 0.200716
Si Si3 0.596578 0.012811 0.000993
Si Si4 0.330670 0.733891 0.448960
Si Si5 0.326978 0.598550 0.813390
O O1 0.486042 0.846827 0.579340
O O2 0.349354 0.824092 0.476764
O O3 0.384347 0.937773 0.750712
O O4 0.424793 0.935456 0.246867
O O5 0.540255 0.441526 0.422586
O O6 0.608026 0.302620 0.270514
O O7 0.608004 0.424104 0.998526
O O8 0.666732 0.961547 0.074139
O O9 0.250000 0.727245 0.333131
O O10 0.333304 0.688079 0.718569
O O11 0.250000 0.586351 0.945816
#
# Coordination Sequence:
#
# PCOD8184533 Si02
#       5
#     8   8   8   8   8
#     4  12  28  43  77 109 149 181 245 307 367 411
#     4  11  25  44  77 102 147 195 248 287 365 438
#     4  11  26  46  70 107 143 187 236 304 358 430
#     4  10  26  48  71 106 150 194 243 301 365 437
#     4  10  23  46  73 101 143 198 243 285 356 441
#
# _framework density 23.805917000000001
#
# number of rings (size 3 to 8) (size 9 to 14) (size 15 to 20)
#    0.000    1.200    2.000    1.200   14.000    2.400 
#    0.000    0.000    0.000    0.000    0.000    0.000 
#    0.000    0.000    0.000    0.000    0.000    0.000 
#
# Total GULP energy -247774.522462 kJ/mol
# GULP energy per Si atom -12388.726123 kJ/mol
# Density = 2.375173 g / cm^3
# Si number density = 23.805917 Si / 1000 Ang^3
#
#
#
# Elastic Constant Matrix: (Units=GPa)
#
#
# Indices 1 2 3 4 5 6 
#
# 1 107.6715 37.6362 26.3797 0.0000 0.0000 0.0000
# 2 37.6362 122.7219 47.4642 0.0000 0.0000 0.0000
# 3 26.3797 47.4642 119.7673 0.0000 0.0000 0.0000
# 4 0.0000 0.0000 0.0000 35.8475 0.0000 0.0000
# 5 0.0000 0.0000 0.0000 0.0000 25.8315 0.0000
# 6 0.0000 0.0000 0.0000 0.0000 0.0000 16.2611
#
#
#
# Elastic Compliance Matrix: (Units=1/GPa)
#
#
# Indices 1 2 3 4 5 6 
#
# 1 0.010554 -0.002761 -0.001230 0.000000 0.000000 0.000000
# 2 -0.002761 0.010346 -0.003492 0.000000 0.000000 0.000000
# 3 -0.001230 -0.003492 0.010004 0.000000 0.000000 0.000000
# 4 0.000000 0.000000 0.000000 0.027896 0.000000 0.000000
# 5 0.000000 0.000000 0.000000 0.000000 0.038712 0.000000
# 6 0.000000 0.000000 0.000000 0.000000 0.000000 0.061496
#
#
# Mechanical properties :
#
#
# Convention : Reuss Voigt Hill
#
# Bulk Modulus (GPa) = 62.74439 63.68011 63.21225
# Shear Modulus (GPa) = 27.88808 31.50006 29.69407
#
# Velocity S-wave (km/s) = 3.42640 3.64153 3.53560
# Velocity P-wave (km/s) = 6.48594 6.66999 6.57861
#
# Compressibility (1/GPa) = 0.01593768
#
# Stress axis : x y z
#
# Youngs Moduli (GPa) = 94.75073 96.65816 99.95577
#
# Poissons Ratio (x) = 0.26685 0.12300
# Poissons Ratio (y) = 0.26159 0.34904
# Poissons Ratio (z) = 0.11659 0.33753
#
# Static dielectric constant tensor:
#      x y z
#    x 4.218760 0.000000 0.000000 
#    y 0.000000 4.133980 0.000000 
#    z 0.000000 0.000000 4.397150 
# 
# 
# High freq. dielectric constant tensor:
#      x y z
#    x 1.940230 0.000000 0.000000 
#    y 0.000000 1.941070 0.000000 
#    z 0.000000 0.000000 1.943920 
# 
# From -- ./inp_files/2246.got.cif
#   From: 2010.03.12/outbox.cif.g09.slc.cpg/sg40_2_cif.got.tgz:2246.got - 2010.04.14 01:38:03.
