data_PCOD8184318
_publ_section_title
;
Structure prediction by ZEFSAII (Michael W. Deem and Ramdas Pophale) SiO2 
 PCOD8184318
Probable space group: A M A 2
;
_chemical_formula_sum "Si O2"
_cell_formula_units_Z 48
_cell_length_a 21.710787
_cell_length_b 9.035588
_cell_length_c 11.624423
_cell_angle_alpha 90.000000
_cell_angle_beta 90.000000
_cell_angle_gamma 90.000000
_cell_volume 2280.359880
_symmetry_space_group_name_H-M "A M A 2"
_symmetry_group_IT_number 40
_symmetry_cell_setting 'orthorhombic'
loop_
_space_group_symop_operation_xyz
x,y,z
-x,-y,z
1/2-x,y,z
1/2+x,-y,z
x,1/2+y,1/2+z
-x,1/2-y,1/2+z
1/2-x,1/2+y,1/2+z
1/2+x,1/2-y,1/2+z
loop_
_atom_site_type_symbol
_atom_site_label
_atom_site_fract_x
_atom_site_fract_y
_atom_site_fract_z
Si Si1 0.387132 0.409796 0.414260
Si Si2 0.178808 0.903481 0.148378
Si Si3 0.500973 0.276330 0.898550
Si Si4 0.820199 0.383191 0.855897
Si Si5 0.583337 0.013081 0.496714
Si Si6 0.410552 0.151732 0.730576
O O1 0.351954 0.453350 0.529741
O O2 0.458478 0.364110 0.441773
O O3 0.353488 0.274676 0.350316
O O4 0.385294 0.551279 0.333202
O O5 0.250000 0.860176 0.129763
O O6 0.144265 0.760447 0.197052
O O7 0.172140 0.042014 0.232395
O O8 0.547089 0.416413 0.898981
O O9 0.443380 0.319311 0.984792
O O10 0.471500 0.240111 0.773427
O O11 0.750000 0.356437 0.889222
O O12 0.846032 0.492887 0.957096
O O13 0.570100 0.949769 0.622926
#
# Coordination Sequence:
#
# PCOD8184318 Si02
#       6
#     8   8   8   8   8   8
#     4  11  25  40  65  98 132 172 218 276 329 395
#     4  11  24  45  67  92 133 177 222 274 333 398
#     4  10  22  39  60  97 134 170 213 263 325 403
#     4  10  21  44  69  93 128 175 222 269 331 395
#     4  10  22  41  66  95 132 174 214 271 330 397
#     4  12  24  42  68 101 128 175 224 272 337 389
#
# _framework density 21.049308
#
# number of rings (size 3 to 8) (size 9 to 14) (size 15 to 20)
#    0.000    1.333    5.000    1.000    4.667    2.667 
#    3.000    0.000    0.000    0.000    0.000    0.000 
#    0.000    0.000    0.000    0.000    0.000    0.000 
#
# Total GULP energy -297409.817392 kJ/mol
# GULP energy per Si atom -12392.075725 kJ/mol
# Density = 2.100140 g / cm^3
# Si number density = 21.049308 Si / 1000 Ang^3
#
#
#
# Elastic Constant Matrix: (Units=GPa)
#
#
# Indices 1 2 3 4 5 6 
#
# 1 113.3888 38.4737 60.5627 0.0000 0.0000 0.0000
# 2 38.4737 63.7743 54.9207 0.0000 0.0000 0.0000
# 3 60.5627 54.9207 142.6537 0.0000 0.0000 0.0000
# 4 0.0000 0.0000 0.0000 42.2170 0.0000 0.0000
# 5 0.0000 0.0000 0.0000 0.0000 30.7335 0.0000
# 6 0.0000 0.0000 0.0000 0.0000 0.0000 20.9127
#
#
#
# Elastic Compliance Matrix: (Units=1/GPa)
#
#
# Indices 1 2 3 4 5 6 
#
# 1 0.012152 -0.004321 -0.003496 0.000000 0.000000 0.000000
# 2 -0.004321 0.024994 -0.007788 0.000000 0.000000 0.000000
# 3 -0.003496 -0.007788 0.011492 0.000000 0.000000 0.000000
# 4 0.000000 0.000000 0.000000 0.023687 0.000000 0.000000
# 5 0.000000 0.000000 0.000000 0.000000 0.032538 0.000000
# 6 0.000000 0.000000 0.000000 0.000000 0.000000 0.047818
#
#
# Mechanical properties :
#
#
# Convention : Reuss Voigt Hill
#
# Bulk Modulus (GPa) = 57.37443 69.74792 63.56118
# Shear Modulus (GPa) = 26.35732 29.82997 28.09365
#
# Velocity S-wave (km/s) = 3.54244 3.76859 3.65726
# Velocity P-wave (km/s) = 6.63688 7.22106 6.93513
#
# Compressibility (1/GPa) = 0.01742937
#
# Stress axis : x y z
#
# Youngs Moduli (GPa) = 82.28796 40.00985 87.01386
#
# Poissons Ratio (x) = 0.17288 0.30418
# Poissons Ratio (y) = 0.35556 0.67767
# Poissons Ratio (z) = 0.28766 0.31160
#
# Static dielectric constant tensor:
#      x y z
#    x 4.257420 0.000000 0.000000 
#    y 0.000000 3.856540 0.000000 
#    z 0.000000 0.000000 3.782730 
# 
# 
# High freq. dielectric constant tensor:
#      x y z
#    x 1.838390 0.000000 0.000000 
#    y 0.000000 1.819060 0.000000 
#    z 0.000000 0.000000 1.813170 
# 
# From -- ./inp_files/13920.got.cif
#   From: 2010.03.12/outbox.cif.g09.slc.cpg/sg40_7_cif.got.tgz:13920.got - 2010.04.14 01:38:03.
