data_PCOD8184885
_publ_section_title
;
Structure prediction by ZEFSAII (Michael W. Deem and Ramdas Pophale) SiO2 
 PCOD8184885
Probable space group: A B A 2
;
_chemical_formula_sum "Si O2"
_cell_formula_units_Z 40
_cell_length_a 8.870036
_cell_length_b 15.375491
_cell_length_c 14.822417
_cell_angle_alpha 90.000000
_cell_angle_beta 90.000000
_cell_angle_gamma 90.000000
_cell_volume 2021.498405
_symmetry_space_group_name_H-M "A B A 2"
_symmetry_group_IT_number 41
_symmetry_cell_setting 'orthorhombic'
loop_
_space_group_symop_operation_xyz
x,y,z
-x,-y,z
1/2-x,y,1/2+z
1/2+x,-y,1/2+z
x,1/2+y,1/2+z
-x,1/2-y,1/2+z
1/2-x,1/2+y,z
1/2+x,1/2-y,z
loop_
_atom_site_type_symbol
_atom_site_label
_atom_site_fract_x
_atom_site_fract_y
_atom_site_fract_z
Si Si1 0.698553 0.730883 0.174560
Si Si2 0.397510 0.580835 0.043782
Si Si3 0.959688 0.720401 0.049791
Si Si4 0.918699 0.367316 0.737300
Si Si5 0.592431 0.918554 0.934914
O O1 0.800838 0.689877 0.093455
O O2 0.587932 0.799621 0.124813
O O3 0.596127 0.660028 0.227191
O O4 0.810524 0.782050 0.242149
O O5 0.500000 0.500000 0.012045
O O6 0.470224 0.676246 0.027911
O O7 0.368310 0.573600 0.151848
O O8 0.251255 0.577186 0.982814
O O9 0.997111 0.667777 0.959453
O O10 0.891450 0.422359 0.826977
O O11 0.500000 0.000000 0.970811
#
# Coordination Sequence:
#
# PCOD8184885 Si02
#       5
#     8   8   8   8   8
#     4   8  18  37  66  86 118 168 207 244 332 355
#     4  10  23  44  66  88 134 171 203 264 325 371
#     4  10  19  41  63  92 119 171 211 251 318 377
#     4  10  21  40  62  94 128 164 209 264 315 382
#     4  12  26  38  62 101 126 166 224 256 312 385
#
# _framework density 19.787303000000001
#
# number of rings (size 3 to 8) (size 9 to 14) (size 15 to 20)
#    0.000    2.400    4.000    0.600    8.400    0.000 
#    0.000    1.000    0.000    0.000    0.000    0.000 
#    0.000    0.000    0.000    0.000    0.000    0.000 
#
# Total GULP energy -247796.436802 kJ/mol
# GULP energy per Si atom -12389.821840 kJ/mol
# Density = 1.974227 g / cm^3
# Si number density = 19.787303 Si / 1000 Ang^3
#
#
#
# Elastic Constant Matrix: (Units=GPa)
#
#
# Indices 1 2 3 4 5 6 
#
# 1 137.4405 43.9755 51.4242 0.0000 0.0000 0.0000
# 2 43.9755 106.5209 44.5941 0.0000 0.0000 0.0000
# 3 51.4242 44.5941 102.9816 0.0000 0.0000 0.0000
# 4 0.0000 0.0000 0.0000 14.7320 0.0000 0.0000
# 5 0.0000 0.0000 0.0000 0.0000 28.8582 0.0000
# 6 0.0000 0.0000 0.0000 0.0000 0.0000 22.3451
#
#
#
# Elastic Compliance Matrix: (Units=1/GPa)
#
#
# Indices 1 2 3 4 5 6 
#
# 1 0.009402 -0.002340 -0.003682 0.000000 0.000000 0.000000
# 2 -0.002340 0.012049 -0.004049 0.000000 0.000000 0.000000
# 3 -0.003682 -0.004049 0.013302 0.000000 0.000000 0.000000
# 4 0.000000 0.000000 0.000000 0.067879 0.000000 0.000000
# 5 0.000000 0.000000 0.000000 0.000000 0.034652 0.000000
# 6 0.000000 0.000000 0.000000 0.000000 0.000000 0.044753
#
#
# Mechanical properties :
#
#
# Convention : Reuss Voigt Hill
#
# Bulk Modulus (GPa) = 68.43809 69.65896 69.04852
# Shear Modulus (GPa) = 24.14878 26.98367 25.56622
#
# Velocity S-wave (km/s) = 3.49724 3.69682 3.59841
# Velocity P-wave (km/s) = 7.13929 7.31452 7.22744
#
# Compressibility (1/GPa) = 0.01461175
#
# Stress axis : x y z
#
# Youngs Moduli (GPa) = 106.35855 82.99412 75.17544
#
# Poissons Ratio (x) = 0.19423 0.27677
# Poissons Ratio (y) = 0.24891 0.30438
# Poissons Ratio (z) = 0.39157 0.33604
#
# Static dielectric constant tensor:
#      x y z
#    x 3.929420 0.000000 0.000000 
#    y 0.000000 3.579470 0.000000 
#    z 0.000000 0.000000 3.459650 
# 
# 
# High freq. dielectric constant tensor:
#      x y z
#    x 1.785280 0.000000 0.000000 
#    y 0.000000 1.751510 0.000000 
#    z 0.000000 0.000000 1.754290 
# 
# From -- ./inp_files/7236.got.cif
#   From: 2010.03.12/outbox.cif.g09.slc.cpg/sg41_4_cif.got.tgz:7236.got - 2010.04.14 01:55:53.
