data_PCOD8184332
_publ_section_title
;
Structure prediction by ZEFSAII (Michael W. Deem and Ramdas Pophale) SiO2 
 PCOD8184332
Probable space group: A M A 2
;
_chemical_formula_sum "Si O2"
_cell_formula_units_Z 44
_cell_length_a 13.980353
_cell_length_b 5.271659
_cell_length_c 25.950490
_cell_angle_alpha 90.000000
_cell_angle_beta 90.000000
_cell_angle_gamma 90.000000
_cell_volume 1912.542127
_symmetry_space_group_name_H-M "A M A 2"
_symmetry_group_IT_number 40
_symmetry_cell_setting 'orthorhombic'
loop_
_space_group_symop_operation_xyz
x,y,z
-x,-y,z
1/2-x,y,z
1/2+x,-y,z
x,1/2+y,1/2+z
-x,1/2-y,1/2+z
1/2-x,1/2+y,1/2+z
1/2+x,1/2-y,1/2+z
loop_
_atom_site_type_symbol
_atom_site_label
_atom_site_fract_x
_atom_site_fract_y
_atom_site_fract_z
Si Si1 0.864896 0.661329 0.261410
Si Si2 0.110795 0.231540 0.483619
Si Si3 0.000000 0.500000 0.346997
Si Si4 0.639090 0.660876 0.703729
Si Si5 0.060691 0.252585 0.593173
Si Si6 0.095537 0.731988 0.440818
O O1 0.750000 0.668003 0.270524
O O2 0.922114 0.662350 0.315141
O O3 0.901242 0.407000 0.232837
O O4 0.902836 0.899155 0.227357
O O5 0.132191 0.203876 0.544705
O O6 0.157015 0.487331 0.459337
O O7 0.996546 0.245571 0.477655
O O8 0.154009 0.992376 0.451018
O O9 0.940151 0.300300 0.381989
O O10 0.750000 0.651886 0.714210
O O11 0.621355 0.678694 0.643285
O O12 0.000000 0.500000 0.578978
O O13 0.000000 0.000000 0.604088
#
# Coordination Sequence:
#
# PCOD8184332 Si02
#       6
#     8   8   4   8   8   8
#     4  10  23  42  59  83 122 158 197 255 305 347
#     4   9  15  30  47  79 112 139 176 232 289 335
#     4  10  22  36  64  90 108 160 208 244 296 372
#     4  10  24  41  55  81 124 157 189 247 302 349
#     4  12  20  32  59  90 106 152 200 233 283 359
#     4   9  17  30  49  79 113 139 180 238 291 330
#
# _framework density 23.006029999999999
#
# number of rings (size 3 to 8) (size 9 to 14) (size 15 to 20)
#    0.000    2.182    3.636    1.091    3.818    5.818 
#    0.000    0.000    0.000    5.455    0.000    0.000 
#    0.000    0.000    0.000    0.000    0.000    0.000 
#
# Total GULP energy -272597.170576 kJ/mol
# GULP energy per Si atom -12390.780481 kJ/mol
# Density = 2.295367 g / cm^3
# Si number density = 23.006030 Si / 1000 Ang^3
#
#
#
# Elastic Constant Matrix: (Units=GPa)
#
#
# Indices 1 2 3 4 5 6 
#
# 1 31.1058 18.4179 23.0707 0.0000 0.0000 0.0000
# 2 18.4179 244.0216 80.5162 0.0000 0.0000 0.0000
# 3 23.0707 80.5162 191.7191 0.0000 0.0000 0.0000
# 4 0.0000 0.0000 0.0000 38.4714 0.0000 0.0000
# 5 0.0000 0.0000 0.0000 0.0000 -17.3086 0.0000
# 6 0.0000 0.0000 0.0000 0.0000 0.0000 1.7822
#
#
#
# Elastic Compliance Matrix: (Units=1/GPa)
#
#
# Indices 1 2 3 4 5 6 
#
# 1 0.035756 -0.001485 -0.003679 0.000000 0.000000 0.000000
# 2 -0.001485 0.004819 -0.001845 0.000000 0.000000 0.000000
# 3 -0.003679 -0.001845 0.006434 0.000000 0.000000 0.000000
# 4 0.000000 0.000000 0.000000 0.025993 0.000000 0.000000
# 5 0.000000 0.000000 0.000000 0.000000 -0.057775 0.000000
# 6 0.000000 0.000000 0.000000 0.000000 0.000000 0.561091
#
#
# Mechanical properties :
#
#
# Convention : Reuss Voigt Hill
#
# Bulk Modulus (GPa) = 30.31165 78.98400 54.64782
# Shear Modulus (GPa) = 8.31486 27.57845 17.94665
#
# Velocity S-wave (km/s) = 1.90317 3.46605 2.79603
# Velocity P-wave (km/s) = 4.24659 7.10101 5.85055
#
# Compressibility (1/GPa) = 0.03299061
#
# Stress axis : x y z
#
# Youngs Moduli (GPa) = 27.96707 207.51775 155.43415
#
# Poissons Ratio (x) = 0.30812 0.57187
# Poissons Ratio (y) = 0.04153 0.28679
# Poissons Ratio (z) = 0.10290 0.38289
#
# Static dielectric constant tensor:
#      x y z
#    x 3.509910 0.000000 0.000000 
#    y 0.000000 6.201110 0.000000 
#    z 0.000000 0.000000 4.087120 
# 
# 
# High freq. dielectric constant tensor:
#      x y z
#    x 1.867010 0.000000 0.000000 
#    y 0.000000 1.935850 0.000000 
#    z 0.000000 0.000000 1.911080 
# 
# From -- ./inp_files/24868.got.cif
#   From: 2010.03.12/outbox.cif.g09.slc.cpg/sg40_13_cif.got.tgz:24868.got - 2010.04.14 01:38:03.
