data_PCOD8184935
_publ_section_title
;
Structure prediction by ZEFSAII (Michael W. Deem and Ramdas Pophale) SiO2 
 PCOD8184935
Probable space group: A B A 2
;
_chemical_formula_sum "Si O2"
_cell_formula_units_Z 64
_cell_length_a 30.255883
_cell_length_b 8.241145
_cell_length_c 12.286851
_cell_angle_alpha 90.000000
_cell_angle_beta 90.000000
_cell_angle_gamma 90.000000
_cell_volume 3063.641750
_symmetry_space_group_name_H-M "A B A 2"
_symmetry_group_IT_number 41
_symmetry_cell_setting 'orthorhombic'
loop_
_space_group_symop_operation_xyz
x,y,z
-x,-y,z
1/2-x,y,1/2+z
1/2+x,-y,1/2+z
x,1/2+y,1/2+z
-x,1/2-y,1/2+z
1/2-x,1/2+y,z
1/2+x,1/2-y,z
loop_
_atom_site_type_symbol
_atom_site_label
_atom_site_fract_x
_atom_site_fract_y
_atom_site_fract_z
Si Si1 0.729521 0.647391 0.817320
Si Si2 0.564209 0.676990 0.666258
Si Si3 0.043532 0.072407 0.856149
Si Si4 0.520652 0.167801 0.698005
Si Si5 0.603834 0.011750 0.727943
Si Si6 0.298712 0.553989 0.186577
Si Si7 0.890922 0.201086 0.448451
Si Si8 0.204388 0.149918 0.948489
O O1 0.765197 0.576232 0.734272
O O2 0.699006 0.778980 0.755983
O O3 0.755490 0.735020 0.914174
O O4 0.699293 0.502637 0.865585
O O5 0.561295 0.533437 0.754361
O O6 0.514393 0.730248 0.624070
O O7 0.592466 0.620109 0.561480
O O8 0.588355 0.826049 0.725654
O O9 0.024659 0.239216 0.810758
O O10 0.083250 0.124704 0.936078
O O11 0.000000 0.000000 0.918452
O O12 0.570607 0.126794 0.654096
O O13 0.500000 0.000000 0.734385
O O14 0.601973 0.072754 0.852541
O O15 0.652917 0.027451 0.681106
O O16 0.281973 0.586528 0.066045
O O17 0.839684 0.244282 0.454665
#
# Coordination Sequence:
#
# PCOD8184935 Si02
#       8
#     8   8   8   8   8   8   8   8
#     4  10  24  40  63  86 118 158 200 248 303 360
#     4  10  20  39  60  83 120 158 198 244 296 351
#     4   9  20  38  58  87 119 155 204 245 289 356
#     4   8  17  36  59  82 119 157 190 246 295 343
#     4  10  20  37  59  87 122 154 193 249 297 349
#     4  11  21  41  62  87 120 158 193 249 305 350
#     4  11  22  37  60  88 120 157 196 248 297 355
#     4  11  22  40  61  90 117 154 204 244 299 368
#
# _framework density 20.890170999999999
#
# number of rings (size 3 to 8) (size 9 to 14) (size 15 to 20)
#    0.000    2.000    2.500    0.750    1.750    1.500 
#    0.000   25.000    0.000    0.000    0.000    0.000 
#    0.000    0.000    0.000    0.000    0.000    0.000 
#
# Total GULP energy -396465.036422 kJ/mol
# GULP energy per Si atom -12389.532388 kJ/mol
# Density = 2.084262 g / cm^3
# Si number density = 20.890171 Si / 1000 Ang^3
#
#
#
# Elastic Constant Matrix: (Units=GPa)
#
#
# Indices 1 2 3 4 5 6 
#
# 1 93.9111 5.8816 20.7855 0.0000 0.0000 0.0000
# 2 5.8816 52.1359 13.2117 0.0000 0.0000 0.0000
# 3 20.7855 13.2117 72.3827 0.0000 0.0000 0.0000
# 4 0.0000 0.0000 0.0000 31.6891 0.0000 0.0000
# 5 0.0000 0.0000 0.0000 0.0000 17.8999 0.0000
# 6 0.0000 0.0000 0.0000 0.0000 0.0000 18.7297
#
#
#
# Elastic Compliance Matrix: (Units=1/GPa)
#
#
# Indices 1 2 3 4 5 6 
#
# 1 0.011382 -0.000478 -0.003181 0.000000 0.000000 0.000000
# 2 -0.000478 0.020131 -0.003537 0.000000 0.000000 0.000000
# 3 -0.003181 -0.003537 0.015375 0.000000 0.000000 0.000000
# 4 0.000000 0.000000 0.000000 0.031557 0.000000 0.000000
# 5 0.000000 0.000000 0.000000 0.000000 0.055866 0.000000
# 6 0.000000 0.000000 0.000000 0.000000 0.000000 0.053391
#
#
# Mechanical properties :
#
#
# Convention : Reuss Voigt Hill
#
# Bulk Modulus (GPa) = 30.77385 33.13192 31.95289
# Shear Modulus (GPa) = 23.48227 25.56713 24.52470
#
# Velocity S-wave (km/s) = 3.35637 3.50220 3.43006
# Velocity P-wave (km/s) = 5.45743 5.67876 5.56920
#
# Compressibility (1/GPa) = 0.03249512
#
# Stress axis : x y z
#
# Youngs Moduli (GPa) = 87.85460 49.67484 65.04213
#
# Poissons Ratio (x) = 0.02374 0.20692
# Poissons Ratio (y) = 0.04199 0.23007
# Poissons Ratio (z) = 0.27950 0.17571
#
# Static dielectric constant tensor:
#      x y z
#    x 4.114350 0.000000 0.000000 
#    y 0.000000 3.925330 0.000000 
#    z 0.000000 0.000000 3.555380 
# 
# 
# High freq. dielectric constant tensor:
#      x y z
#    x 1.829120 0.000000 0.000000 
#    y 0.000000 1.820620 0.000000 
#    z 0.000000 0.000000 1.794380 
# 
# From -- ./inp_files/6658.got.cif
#   From: 2010.03.12/outbox.cif.g09.slc.cpg/sg41_4_cif.got.tgz:6658.got - 2010.04.14 01:55:53.
