data_PCOD8184369
_publ_section_title
;
Structure prediction by ZEFSAII (Michael W. Deem and Ramdas Pophale) SiO2 
 PCOD8184369
Probable space group: A M A 2
;
_chemical_formula_sum "Si O2"
_cell_formula_units_Z 36
_cell_length_a 25.876894
_cell_length_b 12.572287
_cell_length_c 5.103463
_cell_angle_alpha 90.000000
_cell_angle_beta 90.000000
_cell_angle_gamma 90.000000
_cell_volume 1660.318488
_symmetry_space_group_name_H-M "A M A 2"
_symmetry_group_IT_number 40
_symmetry_cell_setting 'orthorhombic'
loop_
_space_group_symop_operation_xyz
x,y,z
-x,-y,z
1/2-x,y,z
1/2+x,-y,z
x,1/2+y,1/2+z
-x,1/2-y,1/2+z
1/2-x,1/2+y,1/2+z
1/2+x,1/2-y,1/2+z
loop_
_atom_site_type_symbol
_atom_site_label
_atom_site_fract_x
_atom_site_fract_y
_atom_site_fract_z
Si Si1 0.401463 0.613961 0.871210
Si Si2 0.000000 0.000000 0.544179
Si Si3 0.250000 0.410373 0.348344
Si Si4 0.665085 0.413818 0.375066
Si Si5 0.750000 0.736948 0.851932
Si Si6 0.527855 0.210144 0.806843
O O1 0.361414 0.572866 0.657096
O O2 0.414245 0.739085 0.818043
O O3 0.456154 0.551702 0.860064
O O4 0.378730 0.595358 0.157823
O O5 0.971617 0.086798 0.728518
O O6 0.300941 0.481786 0.336673
O O7 0.250000 0.336301 0.599538
O O8 0.250000 0.336324 0.100910
O O9 0.699156 0.308451 0.358528
O O10 0.495683 0.278124 0.595400
#
# Coordination Sequence:
#
# PCOD8184369 Si02
#       6
#     8   4   4   8   4   8
#     4  11  23  41  65  94 130 171 212 264 319 372
#     4  10  24  42  64  90 132 176 218 264 306 368
#     4  11  24  45  72  98 124 165 210 259 330 394
#     4  11  25  43  65  98 130 159 213 268 316 389
#     4  11  24  45  68  92 128 165 202 265 328 384
#     4  10  22  40  60  87 124 167 212 256 305 359
#
# _framework density 21.682587999999999
#
# number of rings (size 3 to 8) (size 9 to 14) (size 15 to 20)
#    0.000    1.333    0.000    5.333    0.000   16.889 
#    0.000    6.667    0.000    0.000    0.000    0.000 
#    0.000    0.000    0.000    0.000    0.000    0.000 
#
# Total GULP energy -223228.383536 kJ/mol
# GULP energy per Si atom -12401.576863 kJ/mol
# Density = 2.163324 g / cm^3
# Si number density = 21.682588 Si / 1000 Ang^3
#
#
#
# Elastic Constant Matrix: (Units=GPa)
#
#
# Indices 1 2 3 4 5 6 
#
# 1 106.1835 51.2315 28.2956 0.0000 0.0000 0.0000
# 2 51.2315 148.2202 38.1309 0.0000 0.0000 0.0000
# 3 28.2956 38.1309 101.6476 0.0000 0.0000 0.0000
# 4 0.0000 0.0000 0.0000 34.3460 0.0000 0.0000
# 5 0.0000 0.0000 0.0000 0.0000 135.2974 0.0000
# 6 0.0000 0.0000 0.0000 0.0000 0.0000 32.4741
#
#
#
# Elastic Compliance Matrix: (Units=1/GPa)
#
#
# Indices 1 2 3 4 5 6 
#
# 1 0.011630 -0.003527 -0.001914 0.000000 0.000000 0.000000
# 2 -0.003527 0.008537 -0.002221 0.000000 0.000000 0.000000
# 3 -0.001914 -0.002221 0.011204 0.000000 0.000000 0.000000
# 4 0.000000 0.000000 0.000000 0.029115 0.000000 0.000000
# 5 0.000000 0.000000 0.000000 0.000000 0.007391 0.000000
# 6 0.000000 0.000000 0.000000 0.000000 0.000000 0.030794
#
#
# Mechanical properties :
#
#
# Convention : Reuss Voigt Hill
#
# Bulk Modulus (GPa) = 62.31926 65.70749 64.01338
# Shear Modulus (GPa) = 41.89576 56.31638 49.10607
#
# Velocity S-wave (km/s) = 4.40048 5.10191 4.76412
# Velocity P-wave (km/s) = 7.39074 8.06697 7.73625
#
# Compressibility (1/GPa) = 0.01604640
#
# Stress axis : x y z
#
# Youngs Moduli (GPa) = 85.98766 117.13469 89.25564
#
# Poissons Ratio (x) = 0.41317 0.17085
# Poissons Ratio (y) = 0.30330 0.19821
# Poissons Ratio (z) = 0.16459 0.26012
#
# Static dielectric constant tensor:
#      x y z
#    x 3.935230 0.000000 0.000000 
#    y 0.000000 4.173820 0.000000 
#    z 0.000000 0.000000 3.845690 
# 
# 
# High freq. dielectric constant tensor:
#      x y z
#    x 1.853680 0.000000 0.000000 
#    y 0.000000 1.864170 0.000000 
#    z 0.000000 0.000000 1.866590 
# 
# From -- ./inp_files/2603.got.cif
#   From: 2010.03.12/outbox.cif.g09.slc.cpg/sg40_2_cif.got.tgz:2603.got - 2010.04.14 01:38:03.
