data_PCOD8184004
_publ_section_title
;
Structure prediction by ZEFSAII (Michael W. Deem and Ramdas Pophale) SiO2 
 PCOD8184004
Probable space group: A M A 2
;
_chemical_formula_sum "Si O2"
_cell_formula_units_Z 40
_cell_length_a 9.631038
_cell_length_b 11.418278
_cell_length_c 16.396586
_cell_angle_alpha 90.000000
_cell_angle_beta 90.000000
_cell_angle_gamma 90.000000
_cell_volume 1803.130420
_symmetry_space_group_name_H-M "A M A 2"
_symmetry_group_IT_number 40
_symmetry_cell_setting 'orthorhombic'
loop_
_space_group_symop_operation_xyz
x,y,z
-x,-y,z
1/2-x,y,z
1/2+x,-y,z
x,1/2+y,1/2+z
-x,1/2-y,1/2+z
1/2-x,1/2+y,1/2+z
1/2+x,1/2-y,1/2+z
loop_
_atom_site_type_symbol
_atom_site_label
_atom_site_fract_x
_atom_site_fract_y
_atom_site_fract_z
Si Si1 0.750000 0.448212 0.715730
Si Si2 0.250000 0.315533 0.980014
Si Si3 0.485904 0.201574 0.583379
Si Si4 0.952516 0.243670 0.752447
Si Si5 0.250000 0.810210 0.298665
Si Si6 0.750000 0.612690 0.565828
Si Si7 0.750000 0.417508 0.999271
Si Si8 0.250000 0.808492 0.889707
O O1 0.885265 0.370324 0.734306
O O2 0.750000 0.551402 0.781768
O O3 0.750000 0.494082 0.620533
O O4 0.389358 0.270137 0.022011
O O5 0.250000 0.454125 0.964775
O O6 0.250000 0.265829 0.890371
O O7 0.560521 0.168323 0.669075
O O8 0.389008 0.317009 0.589855
O O9 0.389687 0.095207 0.552946
O O10 0.883965 0.178762 0.830368
O O11 0.115860 0.253344 0.759888
O O12 0.750000 0.597921 0.465326
O O13 0.750000 0.322233 0.926910
#
# Coordination Sequence:
#
# PCOD8184004 Si02
#       8
#     4   4   8   8   4   4   4   4
#     4  11  22  35  58  87 122 156 197 242 300 367
#     4  12  22  34  60  94 116 148 192 253 305 364
#     4  10  21  37  55  83 120 156 195 232 304 364
#     4  11  21  37  58  90 117 160 197 249 294 360
#     4  12  21  33  56  92 124 136 187 251 306 346
#     4  10  20  40  54  82 124 166 188 234 307 370
#     4  10  21  39  56  86 116 156 185 252 302 365
#     4   9  20  37  60  83 122 152 199 244 304 356
#
# _framework density 22.183641000000001
#
# number of rings (size 3 to 8) (size 9 to 14) (size 15 to 20)
#    0.000    1.600    2.000    6.600    0.000    1.600 
#    0.000    0.000    0.000    0.000   72.800    0.000 
#    0.000    0.000    0.000    0.000    0.000    0.000 
#
# Total GULP energy -247814.947110 kJ/mol
# GULP energy per Si atom -12390.747355 kJ/mol
# Density = 2.213315 g / cm^3
# Si number density = 22.183641 Si / 1000 Ang^3
#
#
#
# Elastic Constant Matrix: (Units=GPa)
#
#
# Indices 1 2 3 4 5 6 
#
# 1 150.1540 5.4013 45.8840 0.0000 0.0000 0.0000
# 2 5.4013 9.0046 2.6612 0.0000 0.0000 0.0000
# 3 45.8840 2.6612 185.5456 0.0000 0.0000 0.0000
# 4 0.0000 0.0000 0.0000 26.1132 0.0000 0.0000
# 5 0.0000 0.0000 0.0000 0.0000 47.6741 0.0000
# 6 0.0000 0.0000 0.0000 0.0000 0.0000 -13.4129
#
#
#
# Elastic Compliance Matrix: (Units=1/GPa)
#
#
# Indices 1 2 3 4 5 6 
#
# 1 0.007337 -0.003881 -0.001759 0.000000 0.000000 0.000000
# 2 -0.003881 0.113581 -0.000669 0.000000 0.000000 0.000000
# 3 -0.001759 -0.000669 0.005834 0.000000 0.000000 0.000000
# 4 0.000000 0.000000 0.000000 0.038295 0.000000 0.000000
# 5 0.000000 0.000000 0.000000 0.000000 0.020976 0.000000
# 6 0.000000 0.000000 0.000000 0.000000 0.000000 -0.074555
#
#
# Mechanical properties :
#
#
# Convention : Reuss Voigt Hill
#
# Bulk Modulus (GPa) = 8.76167 50.28857 29.52512
# Shear Modulus (GPa) = 30.83944 31.45872 31.14908
#
# Velocity S-wave (km/s) = 3.73257 3.76986 3.75126
# Velocity P-wave (km/s) = 4.74703 6.45504 5.66577
#
# Compressibility (1/GPa) = 0.11413349
#
# Stress axis : x y z
#
# Youngs Moduli (GPa) = 136.29808 8.80430 171.40847
#
# Poissons Ratio (x) = 0.03417 0.30145
# Poissons Ratio (y) = 0.52900 0.11471
# Poissons Ratio (z) = 0.23971 0.00589
#
# Static dielectric constant tensor:
#      x y z
#    x 4.156110 0.000000 0.000000 
#    y 0.000000 3.364320 0.000000 
#    z 0.000000 0.000000 4.358260 
# 
# 
# High freq. dielectric constant tensor:
#      x y z
#    x 1.894470 0.000000 0.000000 
#    y 0.000000 1.810850 0.000000 
#    z 0.000000 0.000000 1.898460 
# 
# From -- ./inp_files/19036.got.cif
#   From: 2010.03.12/outbox.cif.g09.slc.cpg/sg40_10_cif.got.tgz:19036.got - 2010.04.14 01:38:03.
