data_PCOD8184803
_publ_section_title
;
Structure prediction by ZEFSAII (Michael W. Deem and Ramdas Pophale) SiO2 
 PCOD8184803
Probable space group: A B A 2
;
_chemical_formula_sum "Si O2"
_cell_formula_units_Z 60
_cell_length_a 15.202600
_cell_length_b 23.027674
_cell_length_c 8.586039
_cell_angle_alpha 90.000000
_cell_angle_beta 90.000000
_cell_angle_gamma 90.000000
_cell_volume 3005.804970
_symmetry_space_group_name_H-M "A B A 2"
_symmetry_group_IT_number 41
_symmetry_cell_setting 'orthorhombic'
loop_
_space_group_symop_operation_xyz
x,y,z
-x,-y,z
1/2-x,y,1/2+z
1/2+x,-y,1/2+z
x,1/2+y,1/2+z
-x,1/2-y,1/2+z
1/2-x,1/2+y,z
1/2+x,1/2-y,z
loop_
_atom_site_type_symbol
_atom_site_label
_atom_site_fract_x
_atom_site_fract_y
_atom_site_fract_z
Si Si1 0.187029 0.194051 0.295430
Si Si2 0.000000 0.500000 0.789331
Si Si3 0.832909 0.888886 0.914329
Si Si4 0.233487 0.536912 0.166437
Si Si5 0.157550 0.843502 0.264358
Si Si6 0.037315 0.621096 0.667816
Si Si7 0.169649 0.963669 0.403231
Si Si8 0.761482 0.227250 0.522898
O O1 0.279604 0.163127 0.334293
O O2 0.103600 0.150705 0.294120
O O3 0.191710 0.223557 0.125978
O O4 0.179495 0.244095 0.427192
O O5 0.038987 0.551191 0.681645
O O6 0.064726 0.466687 0.906763
O O7 0.845114 0.936411 0.774987
O O8 0.774736 0.913354 0.058446
O O9 0.926149 0.868546 0.990042
O O10 0.306572 0.515282 0.285556
O O11 0.204090 0.479141 0.074346
O O12 0.199907 0.901440 0.339971
O O13 0.163637 0.795993 0.402738
O O14 0.220903 0.825044 0.123446
O O15 0.059206 0.851816 0.196588
#
# Coordination Sequence:
#
# PCOD8184803 Si02
#       8
#     8   4   8   8   8   8   8   8
#     4  11  20  37  65  86 127 158 209 261 319 366
#     4  10  20  36  56  86 126 152 192 254 314 366
#     4  11  18  35  59  95 123 160 202 255 314 382
#     4  10  19  31  61  88 118 159 205 237 306 393
#     4  10  23  39  64  84 126 166 217 263 319 377
#     4  11  21  37  63  93 124 166 205 260 316 380
#     4  10  19  35  57  83 117 163 196 247 307 378
#     4  10  22  41  60  89 121 168 214 267 314 369
#
# _framework density 19.961376000000001
#
# number of rings (size 3 to 8) (size 9 to 14) (size 15 to 20)
#    0.000    1.600    4.000    1.600    0.000    1.067 
#    0.000    0.667   17.600    0.000    0.000    0.000 
#    0.000    0.000    0.000    0.000    0.000    0.000 
#
# Total GULP energy -371658.315940 kJ/mol
# GULP energy per Si atom -12388.610531 kJ/mol
# Density = 1.991594 g / cm^3
# Si number density = 19.961376 Si / 1000 Ang^3
#
#
#
# Elastic Constant Matrix: (Units=GPa)
#
#
# Indices 1 2 3 4 5 6 
#
# 1 78.9868 35.5418 35.9690 0.0000 0.0000 0.0000
# 2 35.5418 103.4095 43.9518 0.0000 0.0000 0.0000
# 3 35.9690 43.9518 115.4889 0.0000 0.0000 0.0000
# 4 0.0000 0.0000 0.0000 41.4092 0.0000 0.0000
# 5 0.0000 0.0000 0.0000 0.0000 28.3217 0.0000
# 6 0.0000 0.0000 0.0000 0.0000 0.0000 32.0417
#
#
#
# Elastic Compliance Matrix: (Units=1/GPa)
#
#
# Indices 1 2 3 4 5 6 
#
# 1 0.016058 -0.004048 -0.003461 0.000000 0.000000 0.000000
# 2 -0.004048 0.012557 -0.003518 0.000000 0.000000 0.000000
# 3 -0.003461 -0.003518 0.011075 0.000000 0.000000 0.000000
# 4 0.000000 0.000000 0.000000 0.024149 0.000000 0.000000
# 5 0.000000 0.000000 0.000000 0.000000 0.035309 0.000000
# 6 0.000000 0.000000 0.000000 0.000000 0.000000 0.031209
#
#
# Mechanical properties :
#
#
# Convention : Reuss Voigt Hill
#
# Bulk Modulus (GPa) = 56.70014 58.75671 57.72843
# Shear Modulus (GPa) = 31.58765 32.51603 32.05184
#
# Velocity S-wave (km/s) = 3.98230 4.04040 4.01146
# Velocity P-wave (km/s) = 7.04355 7.16000 7.10201
#
# Compressibility (1/GPa) = 0.01763664
#
# Stress axis : x y z
#
# Youngs Moduli (GPa) = 62.27507 79.63748 90.28952
#
# Poissons Ratio (x) = 0.32239 0.31245
# Poissons Ratio (y) = 0.25210 0.31764
# Poissons Ratio (z) = 0.21551 0.28016
#
# Static dielectric constant tensor:
#      x y z
#    x 3.372560 0.000000 0.000000 
#    y 0.000000 3.829210 0.000000 
#    z 0.000000 0.000000 3.841250 
# 
# 
# High freq. dielectric constant tensor:
#      x y z
#    x 1.741110 0.000000 0.000000 
#    y 0.000000 1.795790 0.000000 
#    z 0.000000 0.000000 1.782360 
# 
# From -- ./inp_files/2755.got.cif
#   From: 2010.03.12/outbox.cif.g09.slc.cpg/sg41_2_cif.got.tgz:2755.got - 2010.04.14 01:55:53.
