data_PCOD8184240
_publ_section_title
;
Structure prediction by ZEFSAII (Michael W. Deem and Ramdas Pophale) SiO2 
 PCOD8184240
Probable space group: A M A 2
;
_chemical_formula_sum "Si O2"
_cell_formula_units_Z 40
_cell_length_a 11.635269
_cell_length_b 32.503537
_cell_length_c 5.021713
_cell_angle_alpha 90.000000
_cell_angle_beta 90.000000
_cell_angle_gamma 90.000000
_cell_volume 1899.148565
_symmetry_space_group_name_H-M "A M A 2"
_symmetry_group_IT_number 40
_symmetry_cell_setting 'orthorhombic'
loop_
_space_group_symop_operation_xyz
x,y,z
-x,-y,z
1/2-x,y,z
1/2+x,-y,z
x,1/2+y,1/2+z
-x,1/2-y,1/2+z
1/2-x,1/2+y,1/2+z
1/2+x,1/2-y,1/2+z
loop_
_atom_site_type_symbol
_atom_site_label
_atom_site_fract_x
_atom_site_fract_y
_atom_site_fract_z
Si Si1 0.621161 0.279453 0.885270
Si Si2 0.250000 0.448928 0.354618
Si Si3 0.009058 0.804360 0.885387
Si Si4 0.621936 0.918555 0.281177
Si Si5 0.250000 0.503599 0.857296
Si Si6 0.976939 0.104034 0.782030
O O1 0.750000 0.291340 0.816052
O O2 0.607036 0.230186 0.852565
O O3 0.539483 0.304189 0.684454
O O4 0.594026 0.293823 0.183546
O O5 0.250000 0.465224 0.656451
O O6 0.137132 0.422495 0.303883
O O7 0.250000 0.487650 0.158228
O O8 0.061755 0.848925 0.827079
O O9 0.750000 0.898082 0.308113
O O10 0.636137 0.968078 0.316159
O O11 0.532848 0.900264 0.491871
O O12 0.573528 0.910029 0.989143
#
# Coordination Sequence:
#
# PCOD8184240 Si02
#       6
#     8   4   8   8   4   8
#     4  10  21  40  62  87 120 167 198 245 300 354
#     4  12  26  40  66  96 121 174 203 246 332 364
#     4  10  23  38  59  93 121 157 208 241 301 363
#     4  10  24  43  64  92 122 166 205 268 311 350
#     4  10  24  46  62  96 121 164 217 250 314 382
#     4  12  24  41  64  96 130 160 208 262 310 372
#
# _framework density 21.062069000000001
#
# number of rings (size 3 to 8) (size 9 to 14) (size 15 to 20)
#    0.600    0.800    0.000    4.800    1.400    9.600 
#    0.000    0.000    0.000    0.000    0.000    0.000 
#    0.000    0.000    0.000    0.000    0.000    0.000 
#
# Total GULP energy -248041.362410 kJ/mol
# GULP energy per Si atom -12402.068121 kJ/mol
# Density = 2.101413 g / cm^3
# Si number density = 21.062069 Si / 1000 Ang^3
#
#
#
# Elastic Constant Matrix: (Units=GPa)
#
#
# Indices 1 2 3 4 5 6 
#
# 1 65.6725 4.4245 7.8835 0.0000 0.0000 0.0000
# 2 4.4245 103.4523 3.7086 0.0000 0.0000 0.0000
# 3 7.8835 3.7086 83.1893 0.0000 0.0000 0.0000
# 4 0.0000 0.0000 0.0000 21.3444 0.0000 0.0000
# 5 0.0000 0.0000 0.0000 0.0000 24.7935 0.0000
# 6 0.0000 0.0000 0.0000 0.0000 0.0000 1.0749
#
#
#
# Elastic Compliance Matrix: (Units=1/GPa)
#
#
# Indices 1 2 3 4 5 6 
#
# 1 0.015440 -0.000609 -0.001436 0.000000 0.000000 0.000000
# 2 -0.000609 0.009706 -0.000375 0.000000 0.000000 0.000000
# 3 -0.001436 -0.000375 0.012174 0.000000 0.000000 0.000000
# 4 0.000000 0.000000 0.000000 0.046851 0.000000 0.000000
# 5 0.000000 0.000000 0.000000 0.000000 0.040333 0.000000
# 6 0.000000 0.000000 0.000000 0.000000 0.000000 0.930315
#
#
# Mechanical properties :
#
#
# Convention : Reuss Voigt Hill
#
# Bulk Modulus (GPa) = 30.78822 31.59412 31.19117
# Shear Modulus (GPa) = 4.67078 25.19573 14.93326
#
# Velocity S-wave (km/s) = 1.49079 3.46245 2.66562
# Velocity P-wave (km/s) = 4.19677 5.56936 4.93106
#
# Compressibility (1/GPa) = 0.03247996
#
# Stress axis : x y z
#
# Youngs Moduli (GPa) = 64.76477 103.03141 82.14512
#
# Poissons Ratio (x) = 0.06273 0.11797
# Poissons Ratio (y) = 0.03943 0.03080
# Poissons Ratio (z) = 0.09301 0.03863
#
# Static dielectric constant tensor:
#      x y z
#    x 3.645740 0.000000 0.000000 
#    y 0.000000 3.878760 0.000000 
#    z 0.000000 0.000000 3.860180 
# 
# 
# High freq. dielectric constant tensor:
#      x y z
#    x 1.808180 0.000000 0.000000 
#    y 0.000000 1.831930 0.000000 
#    z 0.000000 0.000000 1.840750 
# 
# From -- ./inp_files/833.got.cif
#   From: 2010.03.12/outbox.cif.g09.slc.cpg/sg40_1_cif.got.tgz:833.got - 2010.04.14 01:38:03.
