data_PCOD8184916
_publ_section_title
;
Structure prediction by ZEFSAII (Michael W. Deem and Ramdas Pophale) SiO2 
 PCOD8184916
Probable space group: A B A 2
;
_chemical_formula_sum "Si O2"
_cell_formula_units_Z 48
_cell_length_a 18.254131
_cell_length_b 15.924751
_cell_length_c 8.320031
_cell_angle_alpha 90.000000
_cell_angle_beta 90.000000
_cell_angle_gamma 90.000000
_cell_volume 2418.570536
_symmetry_space_group_name_H-M "A B A 2"
_symmetry_group_IT_number 41
_symmetry_cell_setting 'orthorhombic'
loop_
_space_group_symop_operation_xyz
x,y,z
-x,-y,z
1/2-x,y,1/2+z
1/2+x,-y,1/2+z
x,1/2+y,1/2+z
-x,1/2-y,1/2+z
1/2-x,1/2+y,z
1/2+x,1/2-y,z
loop_
_atom_site_type_symbol
_atom_site_label
_atom_site_fract_x
_atom_site_fract_y
_atom_site_fract_z
Si Si1 0.160370 0.405001 0.865710
Si Si2 0.920868 0.752658 0.349950
Si Si3 0.798362 0.831425 0.766651
Si Si4 0.660610 0.405323 0.454243
Si Si5 0.702239 0.169084 0.554211
Si Si6 0.921394 0.747208 0.970045
O O1 0.143465 0.499849 0.910052
O O2 0.174185 0.403217 0.674329
O O3 0.090274 0.348059 0.908225
O O4 0.228564 0.365450 0.960147
O O5 0.909103 0.848231 0.409719
O O6 0.860507 0.691050 0.426356
O O7 0.999621 0.721554 0.410891
O O8 0.915553 0.749351 0.160004
O O9 0.729615 0.866536 0.861561
O O10 0.826500 0.903388 0.645920
O O11 0.775640 0.750261 0.660719
O O12 0.861331 0.809295 0.893884
#
# Coordination Sequence:
#
# PCOD8184916 Si02
#       6
#     8   8   8   8   8   8
#     4  11  21  35  58  86 115 144 181 234 283 329
#     4  11  22  39  59  80 109 149 191 231 277 340
#     4  10  20  36  57  83 110 148 190 225 272 335
#     4  11  21  35  58  86 115 144 181 234 283 329
#     4  10  20  36  57  83 110 148 190 225 272 335
#     4  11  22  39  59  80 109 149 191 231 277 340
#
# _framework density 19.846433000000001
#
# number of rings (size 3 to 8) (size 9 to 14) (size 15 to 20)
#    0.000    1.333    0.000   11.000    0.000    0.667 
#    0.000    0.000    0.000    7.000    0.000    0.000 
#    0.000    0.000    0.000    0.000    0.000    0.000 
#
# Total GULP energy -297637.977534 kJ/mol
# GULP energy per Si atom -12401.582397 kJ/mol
# Density = 1.980126 g / cm^3
# Si number density = 19.846433 Si / 1000 Ang^3
#
#
#
# Elastic Constant Matrix: (Units=GPa)
#
#
# Indices 1 2 3 4 5 6 
#
# 1 38.0349 -10.4792 6.8826 0.0000 0.0000 0.0000
# 2 -10.4792 57.3593 2.9001 0.0000 0.0000 0.0000
# 3 6.8826 2.9001 141.8653 0.0000 0.0000 0.0000
# 4 0.0000 0.0000 0.0000 27.1584 0.0000 0.0000
# 5 0.0000 0.0000 0.0000 0.0000 36.5876 0.0000
# 6 0.0000 0.0000 0.0000 0.0000 0.0000 22.6171
#
#
#
# Elastic Compliance Matrix: (Units=1/GPa)
#
#
# Indices 1 2 3 4 5 6 
#
# 1 0.027986 0.005187 -0.001464 0.000000 0.000000 0.000000
# 2 0.005187 0.018413 -0.000628 0.000000 0.000000 0.000000
# 3 -0.001464 -0.000628 0.007133 0.000000 0.000000 0.000000
# 4 0.000000 0.000000 0.000000 0.036821 0.000000 0.000000
# 5 0.000000 0.000000 0.000000 0.000000 0.027332 0.000000
# 6 0.000000 0.000000 0.000000 0.000000 0.000000 0.044214
#
#
# Mechanical properties :
#
#
# Convention : Reuss Voigt Hill
#
# Bulk Modulus (GPa) = 16.74436 26.20741 21.47589
# Shear Modulus (GPa) = 28.47123 33.13635 30.80379
#
# Velocity S-wave (km/s) = 3.79169 4.09055 3.94395
# Velocity P-wave (km/s) = 5.25590 5.96187 5.61998
#
# Compressibility (1/GPa) = 0.05972159
#
# Stress axis : x y z
#
# Youngs Moduli (GPa) = 35.73273 54.30852 140.19755
#
# Poissons Ratio (x) = -0.28169 0.20522
# Poissons Ratio (y) = -0.18534 0.08805
# Poissons Ratio (z) = 0.05230 0.03411
#
# Static dielectric constant tensor:
#      x y z
#    x 3.607970 0.000000 0.000000 
#    y 0.000000 3.628640 0.000000 
#    z 0.000000 0.000000 3.792400 
# 
# 
# High freq. dielectric constant tensor:
#      x y z
#    x 1.770700 0.000000 0.000000 
#    y 0.000000 1.751840 0.000000 
#    z 0.000000 0.000000 1.802040 
# 
# From -- ./inp_files/3026.got.cif
#   From: 2010.03.12/outbox.cif.g09.slc.cpg/sg41_2_cif.got.tgz:3026.got - 2010.04.14 01:55:53.
