data_PCOD8184367
_publ_section_title
;
Structure prediction by ZEFSAII (Michael W. Deem and Ramdas Pophale) SiO2 
 PCOD8184367
Probable space group: A M A 2
;
_chemical_formula_sum "Si O2"
_cell_formula_units_Z 36
_cell_length_a 8.982093
_cell_length_b 18.655346
_cell_length_c 10.961443
_cell_angle_alpha 90.000000
_cell_angle_beta 90.000000
_cell_angle_gamma 90.000000
_cell_volume 1836.743813
_symmetry_space_group_name_H-M "A M A 2"
_symmetry_group_IT_number 40
_symmetry_cell_setting 'orthorhombic'
loop_
_space_group_symop_operation_xyz
x,y,z
-x,-y,z
1/2-x,y,z
1/2+x,-y,z
x,1/2+y,1/2+z
-x,1/2-y,1/2+z
1/2-x,1/2+y,1/2+z
1/2+x,1/2-y,1/2+z
loop_
_atom_site_type_symbol
_atom_site_label
_atom_site_fract_x
_atom_site_fract_y
_atom_site_fract_z
Si Si1 0.250000 0.268212 0.488930
Si Si2 0.250000 0.399715 0.083924
Si Si3 0.499431 0.845016 0.443926
Si Si4 0.000000 0.500000 0.492297
Si Si5 0.750000 0.085685 0.860819
Si Si6 0.250000 0.852769 0.237135
Si Si7 0.250000 0.044351 0.431471
Si Si8 0.750000 0.484840 0.657111
O O1 0.398939 0.224742 0.455671
O O2 0.250000 0.331497 0.391634
O O3 0.250000 0.292251 0.630893
O O4 0.250000 0.430704 0.218100
O O5 0.391405 0.348859 0.060589
O O6 0.250000 0.464403 0.984371
O O7 0.399837 0.845123 0.319601
O O8 0.599149 0.915550 0.465494
O O9 0.901964 0.552049 0.410213
O O10 0.891906 0.455454 0.582087
O O11 0.250000 0.928059 0.164364
O O12 0.250000 0.049087 0.286928
#
# Coordination Sequence:
#
# PCOD8184367 Si02
#       8
#     4   4   8   4   4   4   4   4
#     4  11  25  45  62  89 132 172 210 253 313 376
#     4  11  24  41  64  94 128 164 213 262 314 371
#     4  10  24  41  64  96 121 170 209 257 318 367
#     4  10  22  40  58  94 120 170 202 248 318 364
#     4  11  26  43  62  90 134 168 208 257 311 390
#     4  11  21  43  66  91 127 162 212 263 308 374
#     4  11  21  37  68  99 124 154 205 275 318 359
#     4  11  19  37  68  93 127 148 210 266 318 360
#
# _framework density 19.599903999999999
#
# number of rings (size 3 to 8) (size 9 to 14) (size 15 to 20)
#    0.000    1.333    4.444    2.000    6.222    0.000 
#    0.000    4.444    0.000    0.000    0.000    0.000 
#    0.000    0.000    0.000    0.000    0.000    0.000 
#
# Total GULP energy -223082.029809 kJ/mol
# GULP energy per Si atom -12393.446101 kJ/mol
# Density = 1.955529 g / cm^3
# Si number density = 19.599904 Si / 1000 Ang^3
#
#
#
# Elastic Constant Matrix: (Units=GPa)
#
#
# Indices 1 2 3 4 5 6 
#
# 1 164.5323 48.1036 53.6967 0.0000 0.0000 0.0000
# 2 48.1036 85.5392 13.9235 0.0000 0.0000 0.0000
# 3 53.6967 13.9235 113.5221 0.0000 0.0000 0.0000
# 4 0.0000 0.0000 0.0000 30.7856 0.0000 0.0000
# 5 0.0000 0.0000 0.0000 0.0000 18.4131 0.0000
# 6 0.0000 0.0000 0.0000 0.0000 0.0000 26.0503
#
#
#
# Elastic Compliance Matrix: (Units=1/GPa)
#
#
# Indices 1 2 3 4 5 6 
#
# 1 0.008434 -0.004177 -0.003477 0.000000 0.000000 0.000000
# 2 -0.004177 0.013997 0.000259 0.000000 0.000000 0.000000
# 3 -0.003477 0.000259 0.010422 0.000000 0.000000 0.000000
# 4 0.000000 0.000000 0.000000 0.032483 0.000000 0.000000
# 5 0.000000 0.000000 0.000000 0.000000 0.054309 0.000000
# 6 0.000000 0.000000 0.000000 0.000000 0.000000 0.038387
#
#
# Mechanical properties :
#
#
# Convention : Reuss Voigt Hill
#
# Bulk Modulus (GPa) = 55.36170 66.11569 60.73870
# Shear Modulus (GPa) = 27.95754 31.57444 29.76599
#
# Velocity S-wave (km/s) = 3.78088 4.01802 3.90125
# Velocity P-wave (km/s) = 6.88239 7.43854 7.16586
#
# Compressibility (1/GPa) = 0.01806303
#
# Stress axis : x y z
#
# Youngs Moduli (GPa) = 118.57160 71.44245 95.95348
#
# Poissons Ratio (x) = 0.29840 0.33362
# Poissons Ratio (y) = 0.49525 -0.02484
# Poissons Ratio (z) = 0.41226 -0.01850
#
# Static dielectric constant tensor:
#      x y z
#    x 3.926600 0.000000 0.000000 
#    y 0.000000 3.348270 0.000000 
#    z 0.000000 0.000000 3.639640 
# 
# 
# High freq. dielectric constant tensor:
#      x y z
#    x 1.791720 0.000000 0.000000 
#    y 0.000000 1.741290 0.000000 
#    z 0.000000 0.000000 1.769480 
# 
# From -- ./inp_files/10122.got.cif
#   From: 2010.03.12/outbox.cif.g09.slc.cpg/sg40_6_cif.got.tgz:10122.got - 2010.04.14 01:38:03.
