data_PCOD8184436
_publ_section_title
;
Structure prediction by ZEFSAII (Michael W. Deem and Ramdas Pophale) SiO2 
 PCOD8184436
Probable space group: A M A 2
;
_chemical_formula_sum "Si O2"
_cell_formula_units_Z 64
_cell_length_a 20.447452
_cell_length_b 16.969544
_cell_length_c 8.728526
_cell_angle_alpha 90.000000
_cell_angle_beta 90.000000
_cell_angle_gamma 90.000000
_cell_volume 3028.658310
_symmetry_space_group_name_H-M "A M A 2"
_symmetry_group_IT_number 40
_symmetry_cell_setting 'orthorhombic'
loop_
_space_group_symop_operation_xyz
x,y,z
-x,-y,z
1/2-x,y,z
1/2+x,-y,z
x,1/2+y,1/2+z
-x,1/2-y,1/2+z
1/2-x,1/2+y,1/2+z
1/2+x,1/2-y,1/2+z
loop_
_atom_site_type_symbol
_atom_site_label
_atom_site_fract_x
_atom_site_fract_y
_atom_site_fract_z
Si Si1 0.323114 0.530114 0.201680
Si Si2 0.675500 0.627294 0.374727
Si Si3 0.003103 0.647262 0.821967
Si Si4 0.052533 0.559559 0.382197
Si Si5 0.823239 0.776921 0.189791
Si Si6 0.550415 0.780552 0.023783
Si Si7 0.640326 0.427466 0.863833
Si Si8 0.100731 0.452179 0.642623
O O1 0.250000 0.556992 0.256143
O O2 0.333274 0.438605 0.243483
O O3 0.381108 0.575668 0.288324
O O4 0.328658 0.546476 0.023064
O O5 0.750000 0.635258 0.428144
O O6 0.649967 0.707999 0.301140
O O7 0.634722 0.609277 0.528066
O O8 0.948701 0.590339 0.755387
O O9 0.023722 0.710729 0.695244
O O10 0.063749 0.595344 0.882872
O O11 0.973117 0.696727 0.962261
O O12 0.024241 0.646644 0.418216
O O13 0.065406 0.520695 0.546856
O O14 0.000000 0.500000 0.298177
O O15 0.750000 0.757783 0.130494
O O16 0.870244 0.783968 0.041045
O O17 0.820315 0.855115 0.292320
O O18 0.651482 0.502019 0.751536
#
# Coordination Sequence:
#
# PCOD8184436 Si02
#       8
#     8   8   8   8   8   8   8   8
#     4  10  24  41  64  96 129 166 216 265 319 386
#     4   9  22  42  65  91 124 169 212 255 321 387
#     4  11  25  40  62  93 132 161 219 258 324 388
#     4  11  21  42  65  93 130 169 215 265 326 384
#     4  10  22  42  66  93 127 169 214 262 322 384
#     4  11  25  40  64  95 127 170 208 268 323 385
#     4  11  23  41  64  96 125 167 212 270 318 372
#     4  11  21  42  64  90 128 166 209 263 314 387
#
# _framework density 21.131468999999999
#
# number of rings (size 3 to 8) (size 9 to 14) (size 15 to 20)
#    0.000    1.500    3.750    0.750    7.000    2.500 
#    0.000    0.625    0.000    0.000    0.000    0.000 
#    0.000    0.000    0.000    0.000    0.000    0.000 
#
# Total GULP energy -396706.717717 kJ/mol
# GULP energy per Si atom -12397.084929 kJ/mol
# Density = 2.108337 g / cm^3
# Si number density = 21.131469 Si / 1000 Ang^3
#
#
#
# Elastic Constant Matrix: (Units=GPa)
#
#
# Indices 1 2 3 4 5 6 
#
# 1 86.3360 24.4593 28.2495 0.0000 0.0000 0.0000
# 2 24.4593 69.4230 19.0176 0.0000 0.0000 0.0000
# 3 28.2495 19.0176 64.3240 0.0000 0.0000 0.0000
# 4 0.0000 0.0000 0.0000 33.7573 0.0000 0.0000
# 5 0.0000 0.0000 0.0000 0.0000 31.4384 0.0000
# 6 0.0000 0.0000 0.0000 0.0000 0.0000 29.5903
#
#
#
# Elastic Compliance Matrix: (Units=1/GPa)
#
#
# Indices 1 2 3 4 5 6 
#
# 1 0.014314 -0.003614 -0.005218 0.000000 0.000000 0.000000
# 2 -0.003614 0.016586 -0.003317 0.000000 0.000000 0.000000
# 3 -0.005218 -0.003317 0.018818 0.000000 0.000000 0.000000
# 4 0.000000 0.000000 0.000000 0.029623 0.000000 0.000000
# 5 0.000000 0.000000 0.000000 0.000000 0.031808 0.000000
# 6 0.000000 0.000000 0.000000 0.000000 0.000000 0.033795
#
#
# Mechanical properties :
#
#
# Convention : Reuss Voigt Hill
#
# Bulk Modulus (GPa) = 39.33618 40.39286 39.86452
# Shear Modulus (GPa) = 28.13493 28.84765 28.49129
#
# Velocity S-wave (km/s) = 3.65283 3.69880 3.67589
# Velocity P-wave (km/s) = 6.03707 6.11540 6.07636
#
# Compressibility (1/GPa) = 0.02542189
#
# Stress axis : x y z
#
# Youngs Moduli (GPa) = 69.86303 60.29106 53.13939
#
# Poissons Ratio (x) = 0.21787 0.27727
# Poissons Ratio (y) = 0.25246 0.17625
# Poissons Ratio (z) = 0.36453 0.19997
#
# Static dielectric constant tensor:
#      x y z
#    x 4.022140 0.000000 0.000000 
#    y 0.000000 3.844990 0.000000 
#    z 0.000000 0.000000 3.614730 
# 
# 
# High freq. dielectric constant tensor:
#      x y z
#    x 1.834540 0.000000 0.000000 
#    y 0.000000 1.829470 0.000000 
#    z 0.000000 0.000000 1.809280 
# 
# From -- ./inp_files/8449.got.cif
#   From: 2010.03.12/outbox.cif.g09.slc.cpg/sg40_5_cif.got.tgz:8449.got - 2010.04.14 01:38:03.
