data_PCOD8184634
_publ_section_title
;
Structure prediction by ZEFSAII (Michael W. Deem and Ramdas Pophale) SiO2 
 PCOD8184634
Probable space group: A M A 2
;
_chemical_formula_sum "Si O2"
_cell_formula_units_Z 40
_cell_length_a 19.285957
_cell_length_b 17.449349
_cell_length_c 4.997260
_cell_angle_alpha 90.000000
_cell_angle_beta 90.000000
_cell_angle_gamma 90.000000
_cell_volume 1681.714887
_symmetry_space_group_name_H-M "A M A 2"
_symmetry_group_IT_number 40
_symmetry_cell_setting 'orthorhombic'
loop_
_space_group_symop_operation_xyz
x,y,z
-x,-y,z
1/2-x,y,z
1/2+x,-y,z
x,1/2+y,1/2+z
-x,1/2-y,1/2+z
1/2-x,1/2+y,1/2+z
1/2+x,1/2-y,1/2+z
loop_
_atom_site_type_symbol
_atom_site_label
_atom_site_fract_x
_atom_site_fract_y
_atom_site_fract_z
Si Si1 0.826790 0.054750 0.701950
Si Si2 0.005796 0.625307 0.574760
Si Si3 0.170068 0.268159 0.235717
Si Si4 0.581559 0.264608 0.229861
Si Si5 0.397473 0.998088 0.177362
O O1 0.750000 0.042112 0.586618
O O2 0.836708 0.142017 0.796266
O O3 0.879093 0.034151 0.465990
O O4 0.834973 0.999507 0.962207
O O5 0.036837 0.659452 0.297432
O O6 0.069096 0.581651 0.724972
O O7 0.973648 0.694569 0.748625
O O8 0.948223 0.561080 0.519423
O O9 0.250000 0.240747 0.263631
O O10 0.119238 0.225468 0.444684
O O11 0.143174 0.248811 0.941264
#
# Coordination Sequence:
#
# PCOD8184634 Si02
#       5
#     8   8   8   8   8
#     4  11  22  43  71  99 132 179 235 287 344 414
#     4  11  26  43  69  99 145 176 231 276 361 409
#     4  11  23  42  68  97 131 177 234 284 339 412
#     4  12  24  43  67 100 132 185 221 288 338 422
#     4  11  25  44  68 104 133 182 224 295 343 426
#
# _framework density 23.785243999999999
#
# number of rings (size 3 to 8) (size 9 to 14) (size 15 to 20)
#    0.000    0.800    4.000    2.400    0.000   12.800 
#    0.000    6.000    0.000    0.000    0.000    0.000 
#    0.000    0.000    0.000    0.000    0.000    0.000 
#
# Total GULP energy -247969.472217 kJ/mol
# GULP energy per Si atom -12398.473611 kJ/mol
# Density = 2.373111 g / cm^3
# Si number density = 23.785244 Si / 1000 Ang^3
#
#
#
# Elastic Constant Matrix: (Units=GPa)
#
#
# Indices 1 2 3 4 5 6 
#
# 1 87.1167 33.3191 31.2775 0.0000 0.0000 0.0000
# 2 33.3191 80.6980 16.3231 0.0000 0.0000 0.0000
# 3 31.2775 16.3231 106.4163 0.0000 0.0000 0.0000
# 4 0.0000 0.0000 0.0000 30.3332 0.0000 0.0000
# 5 0.0000 0.0000 0.0000 0.0000 36.9583 0.0000
# 6 0.0000 0.0000 0.0000 0.0000 0.0000 32.0993
#
#
#
# Elastic Compliance Matrix: (Units=1/GPa)
#
#
# Indices 1 2 3 4 5 6 
#
# 1 0.014810 -0.005402 -0.003524 0.000000 0.000000 0.000000
# 2 -0.005402 0.014759 -0.000676 0.000000 0.000000 0.000000
# 3 -0.003524 -0.000676 0.010537 0.000000 0.000000 0.000000
# 4 0.000000 0.000000 0.000000 0.032967 0.000000 0.000000
# 5 0.000000 0.000000 0.000000 0.000000 0.027058 0.000000
# 6 0.000000 0.000000 0.000000 0.000000 0.000000 0.031153
#
#
# Mechanical properties :
#
#
# Convention : Reuss Voigt Hill
#
# Bulk Modulus (GPa) = 47.84487 48.45226 48.14857
# Shear Modulus (GPa) = 31.75486 32.76558 32.26022
#
# Velocity S-wave (km/s) = 3.65782 3.71557 3.68681
# Velocity P-wave (km/s) = 6.16430 6.23075 6.19761
#
# Compressibility (1/GPa) = 0.02090088
#
# Stress axis : x y z
#
# Youngs Moduli (GPa) = 67.52046 67.75488 94.90692
#
# Poissons Ratio (x) = 0.36602 0.33449
# Poissons Ratio (y) = 0.36475 0.06417
# Poissons Ratio (z) = 0.23797 0.04581
#
# Static dielectric constant tensor:
#      x y z
#    x 4.540530 0.000000 0.000000 
#    y 0.000000 4.216260 0.000000 
#    z 0.000000 0.000000 3.864490 
# 
# 
# High freq. dielectric constant tensor:
#      x y z
#    x 1.957720 0.000000 0.000000 
#    y 0.000000 1.928110 0.000000 
#    z 0.000000 0.000000 1.937320 
# 
# From -- ./inp_files/1744.got.cif
#   From: 2010.03.12/outbox.cif.g09.slc.cpg/sg40_1_cif.got.tgz:1744.got - 2010.04.14 01:38:03.
