data_PCOD8184239
_publ_section_title
;
Structure prediction by ZEFSAII (Michael W. Deem and Ramdas Pophale) SiO2 
 PCOD8184239
Probable space group: A M A 2
;
_chemical_formula_sum "Si O2"
_cell_formula_units_Z 64
_cell_length_a 19.182827
_cell_length_b 21.472878
_cell_length_c 7.786250
_cell_angle_alpha 90.000000
_cell_angle_beta 90.000000
_cell_angle_gamma 90.000000
_cell_volume 3207.238161
_symmetry_space_group_name_H-M "A M A 2"
_symmetry_group_IT_number 40
_symmetry_cell_setting 'orthorhombic'
loop_
_space_group_symop_operation_xyz
x,y,z
-x,-y,z
1/2-x,y,z
1/2+x,-y,z
x,1/2+y,1/2+z
-x,1/2-y,1/2+z
1/2-x,1/2+y,1/2+z
1/2+x,1/2-y,1/2+z
loop_
_atom_site_type_symbol
_atom_site_label
_atom_site_fract_x
_atom_site_fract_y
_atom_site_fract_z
Si Si1 0.674287 0.554470 0.784190
Si Si2 0.470887 0.671037 0.790450
Si Si3 0.041073 0.436724 0.978049
Si Si4 0.328866 0.327013 0.550346
Si Si5 0.428627 0.902460 0.841333
Si Si6 0.423844 0.127378 0.952063
Si Si7 0.669930 0.987259 0.942300
Si Si8 0.076276 0.226749 0.650899
O O1 0.750000 0.553268 0.873168
O O2 0.661796 0.620594 0.694159
O O3 0.668826 0.499812 0.644930
O O4 0.618676 0.541859 0.930541
O O5 0.413025 0.656804 0.642707
O O6 0.520830 0.720897 0.701036
O O7 0.508980 0.605219 0.827549
O O8 0.438911 0.695683 0.967054
O O9 0.045132 0.393703 0.146837
O O10 0.000000 0.500000 0.015115
O O11 0.250000 0.325333 0.480051
O O12 0.381834 0.342821 0.393917
O O13 0.348863 0.260600 0.631474
O O14 0.499446 0.905582 0.954483
O O15 0.381289 0.964008 0.849955
O O16 0.361091 0.080701 0.909937
O O17 0.419568 0.178047 0.803176
O O18 0.750000 0.992008 0.872913
#
# Coordination Sequence:
#
# PCOD8184239 Si02
#       8
#     8   8   8   8   8   8   8   8
#     4   9  19  37  60  85 119 163 208 255 308 375
#     4  12  23  39  64  95 125 165 210 269 315 378
#     4  12  23  36  61  98 127 157 213 270 322 381
#     4  10  21  40  62  86 120 167 216 263 319 374
#     4  11  21  39  63  93 121 166 219 268 314 382
#     4  12  23  40  67  93 129 167 212 267 322 379
#     4  10  22  41  63  90 129 172 209 255 331 396
#     4  12  23  40  64  94 125 167 216 263 316 381
#
# _framework density 19.954864000000001
#
# number of rings (size 3 to 8) (size 9 to 14) (size 15 to 20)
#    0.000    1.000    5.000    3.750    0.000    1.500 
#    0.000    0.625    0.000    0.000    0.000    0.000 
#    0.000    0.000    0.000    0.000    0.000    0.000 
#
# Total GULP energy -396721.971263 kJ/mol
# GULP energy per Si atom -12397.561602 kJ/mol
# Density = 1.990945 g / cm^3
# Si number density = 19.954864 Si / 1000 Ang^3
#
#
#
# Elastic Constant Matrix: (Units=GPa)
#
#
# Indices 1 2 3 4 5 6 
#
# 1 111.2790 46.1484 34.9908 0.0000 0.0000 0.0000
# 2 46.1484 98.4251 33.8709 0.0000 0.0000 0.0000
# 3 34.9908 33.8709 113.9312 0.0000 0.0000 0.0000
# 4 0.0000 0.0000 0.0000 26.7733 0.0000 0.0000
# 5 0.0000 0.0000 0.0000 0.0000 20.0220 0.0000
# 6 0.0000 0.0000 0.0000 0.0000 0.0000 26.7711
#
#
#
# Elastic Compliance Matrix: (Units=1/GPa)
#
#
# Indices 1 2 3 4 5 6 
#
# 1 0.011618 -0.004700 -0.002171 0.000000 0.000000 0.000000
# 2 -0.004700 0.013220 -0.002486 0.000000 0.000000 0.000000
# 3 -0.002171 -0.002486 0.010183 0.000000 0.000000 0.000000
# 4 0.000000 0.000000 0.000000 0.037351 0.000000 0.000000
# 5 0.000000 0.000000 0.000000 0.000000 0.049945 0.000000
# 6 0.000000 0.000000 0.000000 0.000000 0.000000 0.037354
#
#
# Mechanical properties :
#
#
# Convention : Reuss Voigt Hill
#
# Bulk Modulus (GPa) = 61.32876 61.51728 61.42302
# Shear Modulus (GPa) = 27.20035 28.62162 27.91099
#
# Velocity S-wave (km/s) = 3.69602 3.79135 3.74399
# Velocity P-wave (km/s) = 7.00104 7.07537 7.03830
#
# Compressibility (1/GPa) = 0.01630556
#
# Stress axis : x y z
#
# Youngs Moduli (GPa) = 86.07092 75.64555 98.20144
#
# Poissons Ratio (x) = 0.35557 0.21318
# Poissons Ratio (y) = 0.40457 0.24417
# Poissons Ratio (z) = 0.18685 0.18809
#
# Static dielectric constant tensor:
#      x y z
#    x 3.707770 0.000000 0.000000 
#    y 0.000000 3.665160 0.000000 
#    z 0.000000 0.000000 3.615720 
# 
# 
# High freq. dielectric constant tensor:
#      x y z
#    x 1.771880 0.000000 0.000000 
#    y 0.000000 1.776000 0.000000 
#    z 0.000000 0.000000 1.776150 
# 
# From -- ./inp_files/7785.got.cif
#   From: 2010.03.12/outbox.cif.g09.slc.cpg/sg40_4_cif.got.tgz:7785.got - 2010.04.14 01:38:03.
