data_PCOD8184072
_publ_section_title
;
Structure prediction by ZEFSAII (Michael W. Deem and Ramdas Pophale) SiO2 
 PCOD8184072
Probable space group: A M A 2
;
_chemical_formula_sum "Si O2"
_cell_formula_units_Z 56
_cell_length_a 17.064002
_cell_length_b 5.097974
_cell_length_c 30.901621
_cell_angle_alpha 90.000000
_cell_angle_beta 90.000000
_cell_angle_gamma 90.000000
_cell_volume 2688.188824
_symmetry_space_group_name_H-M "A M A 2"
_symmetry_group_IT_number 40
_symmetry_cell_setting 'orthorhombic'
loop_
_space_group_symop_operation_xyz
x,y,z
-x,-y,z
1/2-x,y,z
1/2+x,-y,z
x,1/2+y,1/2+z
-x,1/2-y,1/2+z
1/2-x,1/2+y,1/2+z
1/2+x,1/2-y,1/2+z
loop_
_atom_site_type_symbol
_atom_site_label
_atom_site_fract_x
_atom_site_fract_y
_atom_site_fract_z
Si Si1 0.160993 0.359128 0.133570
Si Si2 0.908383 0.541609 0.042769
Si Si3 0.945989 0.245214 0.271025
Si Si4 0.908340 0.042837 0.997152
Si Si5 0.838431 0.160964 0.351648
Si Si6 0.839307 0.129912 0.189357
Si Si7 0.661469 0.173623 0.907204
O O1 0.250000 0.290815 0.120362
O O2 0.107668 0.364185 0.091293
O O3 0.155373 0.642810 0.154441
O O4 0.130110 0.138520 0.167098
O O5 0.000000 0.500000 0.035852
O O6 0.871715 0.760835 0.010022
O O7 0.871718 0.259639 0.030228
O O8 0.889075 0.261836 0.311760
O O9 0.894501 0.205950 0.228623
O O10 0.000000 0.500000 0.266657
O O11 0.000000 0.000000 0.278766
O O12 0.892055 0.147318 0.949227
O O13 0.000000 0.000000 0.003517
O O14 0.750000 0.104704 0.335188
O O15 0.839875 0.391294 0.385918
O O16 0.872235 0.897402 0.374695
O O17 0.750000 0.093903 0.206123
O O18 0.750000 0.252348 0.920475
#
# Coordination Sequence:
#
# PCOD8184072 Si02
#       7
#     8   8   8   8   8   8   8
#     4  10  21  37  60  86 111 149 198 240 285 343
#     4  10  21  36  54  80 115 153 190 233 290 346
#     4  12  25  40  61  92 120 148 194 240 285 344
#     4  10  21  36  54  80 115 153 190 233 290 346
#     4  10  22  41  61  84 118 156 191 235 295 352
#     4  10  22  41  61  84 118 156 191 235 295 352
#     4  10  21  37  60  86 111 149 198 240 285 343
#
# _framework density 20.831869999999999
#
# number of rings (size 3 to 8) (size 9 to 14) (size 15 to 20)
#    0.000    1.714    0.000    3.857    0.000    4.571 
#    0.000    5.714    0.000    0.000    0.000    0.000 
#    0.000    0.000    0.000    0.000    0.000    0.000 
#
# Total GULP energy -347144.662084 kJ/mol
# GULP energy per Si atom -12398.023646 kJ/mol
# Density = 2.078446 g / cm^3
# Si number density = 20.831870 Si / 1000 Ang^3
#
#
#
# Elastic Constant Matrix: (Units=GPa)
#
#
# Indices 1 2 3 4 5 6 
#
# 1 42.4094 33.7419 36.1234 0.0000 0.0000 0.0000
# 2 33.7419 128.2437 32.7655 0.0000 0.0000 0.0000
# 3 36.1234 32.7655 106.4395 0.0000 0.0000 0.0000
# 4 0.0000 0.0000 0.0000 37.1221 0.0000 0.0000
# 5 0.0000 0.0000 0.0000 0.0000 43.3093 0.0000
# 6 0.0000 0.0000 0.0000 0.0000 0.0000 27.6090
#
#
#
# Elastic Compliance Matrix: (Units=1/GPa)
#
#
# Indices 1 2 3 4 5 6 
#
# 1 0.038732 -0.007415 -0.010862 0.000000 0.000000 0.000000
# 2 -0.007415 0.009883 -0.000526 0.000000 0.000000 0.000000
# 3 -0.010862 -0.000526 0.013243 0.000000 0.000000 0.000000
# 4 0.000000 0.000000 0.000000 0.026938 0.000000 0.000000
# 5 0.000000 0.000000 0.000000 0.000000 0.023090 0.000000
# 6 0.000000 0.000000 0.000000 0.000000 0.000000 0.036220
#
#
# Mechanical properties :
#
#
# Convention : Reuss Voigt Hill
#
# Bulk Modulus (GPa) = 41.23442 53.59491 47.41467
# Shear Modulus (GPa) = 25.80038 33.23888 29.51963
#
# Velocity S-wave (km/s) = 3.52306 3.99880 3.76845
# Velocity P-wave (km/s) = 6.03209 6.86322 6.46103
#
# Compressibility (1/GPa) = 0.02425158
#
# Stress axis : x y z
#
# Youngs Moduli (GPa) = 25.81875 101.18384 75.51060
#
# Poissons Ratio (x) = 0.75032 0.82020
# Poissons Ratio (y) = 0.19146 0.03969
# Poissons Ratio (z) = 0.28044 0.05319
#
# Static dielectric constant tensor:
#      x y z
#    x 3.736110 0.000000 0.000000 
#    y 0.000000 4.319980 0.000000 
#    z 0.000000 0.000000 3.608770 
# 
# 
# High freq. dielectric constant tensor:
#      x y z
#    x 1.799510 0.000000 0.000000 
#    y 0.000000 1.842660 0.000000 
#    z 0.000000 0.000000 1.815410 
# 
# From -- ./inp_files/26596.got.cif
#   From: 2010.03.12/outbox.cif.g09.slc.cpg/sg40_14_cif.got.tgz:26596.got - 2010.04.14 01:38:03.
