data_PCOD8184547
_publ_section_title
;
Structure prediction by ZEFSAII (Michael W. Deem and Ramdas Pophale) SiO2 
 PCOD8184547
Probable space group: A M A 2
;
_chemical_formula_sum "Si O2"
_cell_formula_units_Z 48
_cell_length_a 8.472480
_cell_length_b 27.632756
_cell_length_c 9.632924
_cell_angle_alpha 90.000000
_cell_angle_beta 90.000000
_cell_angle_gamma 90.000000
_cell_volume 2255.240637
_symmetry_space_group_name_H-M "A M A 2"
_symmetry_group_IT_number 40
_symmetry_cell_setting 'orthorhombic'
loop_
_space_group_symop_operation_xyz
x,y,z
-x,-y,z
1/2-x,y,z
1/2+x,-y,z
x,1/2+y,1/2+z
-x,1/2-y,1/2+z
1/2-x,1/2+y,1/2+z
1/2+x,1/2-y,1/2+z
loop_
_atom_site_type_symbol
_atom_site_label
_atom_site_fract_x
_atom_site_fract_y
_atom_site_fract_z
Si Si1 0.066565 0.786064 0.310110
Si Si2 0.431307 0.890172 0.403065
Si Si3 0.934159 0.801140 0.010038
Si Si4 0.933295 0.948955 0.169607
Si Si5 0.566809 0.446008 0.151960
Si Si6 0.567399 0.597983 0.418580
O O1 0.250000 0.784522 0.269692
O O2 0.030392 0.833204 0.404309
O O3 0.015471 0.741191 0.404904
O O4 0.969060 0.785405 0.167613
O O5 0.250000 0.900566 0.441865
O O6 0.469474 0.907319 0.247496
O O7 0.543833 0.920347 0.504211
O O8 0.750000 0.813439 0.997686
O O9 0.032723 0.847402 0.963073
O O10 0.750000 0.945664 0.204952
O O11 0.000000 0.000000 0.219704
O O12 0.964974 0.940299 0.007139
O O13 0.500000 0.500000 0.150311
O O14 0.750000 0.448359 0.188952
O O15 0.476732 0.411448 0.259599
O O16 0.750000 0.586808 0.443179
#
# Coordination Sequence:
#
# PCOD8184547 Si02
#       6
#     8   8   8   8   8   8
#     4  10  24  44  67  98 134 172 217 269 327 389
#     4  11  23  43  67  96 133 173 217 269 325 388
#     4  11  24  43  68 101 133 171 221 270 326 394
#     4  12  24  41  66  97 129 169 215 267 325 391
#     4  12  26  45  67  97 133 175 222 273 327 393
#     4  12  25  44  67  95 132 174 217 273 330 389
#
# _framework density 21.283760000000001
#
# number of rings (size 3 to 8) (size 9 to 14) (size 15 to 20)
#    0.000    0.667    1.667    6.500    2.333    2.000 
#    0.000    0.000    0.000    0.000    0.000    0.000 
#    0.000    0.000    0.000    0.000    0.000    0.000 
#
# Total GULP energy -297775.952104 kJ/mol
# GULP energy per Si atom -12407.331338 kJ/mol
# Density = 2.123532 g / cm^3
# Si number density = 21.283760 Si / 1000 Ang^3
#
#
#
# Elastic Constant Matrix: (Units=GPa)
#
#
# Indices 1 2 3 4 5 6 
#
# 1 81.6380 42.0393 25.4504 0.0000 0.0000 0.0000
# 2 42.0393 109.7299 38.5093 0.0000 0.0000 0.0000
# 3 25.4504 38.5093 99.4738 0.0000 0.0000 0.0000
# 4 0.0000 0.0000 0.0000 44.6331 0.0000 0.0000
# 5 0.0000 0.0000 0.0000 0.0000 40.0527 0.0000
# 6 0.0000 0.0000 0.0000 0.0000 0.0000 24.7129
#
#
#
# Elastic Compliance Matrix: (Units=1/GPa)
#
#
# Indices 1 2 3 4 5 6 
#
# 1 0.015576 -0.005287 -0.001938 0.000000 0.000000 0.000000
# 2 -0.005287 0.012341 -0.003425 0.000000 0.000000 0.000000
# 3 -0.001938 -0.003425 0.011875 0.000000 0.000000 0.000000
# 4 0.000000 0.000000 0.000000 0.022405 0.000000 0.000000
# 5 0.000000 0.000000 0.000000 0.000000 0.024967 0.000000
# 6 0.000000 0.000000 0.000000 0.000000 0.000000 0.040465
#
#
# Mechanical properties :
#
#
# Convention : Reuss Voigt Hill
#
# Bulk Modulus (GPa) = 54.08040 55.87106 54.97573
# Shear Modulus (GPa) = 32.23882 34.20258 33.22070
#
# Velocity S-wave (km/s) = 3.89616 4.01306 3.95504
# Velocity P-wave (km/s) = 6.76051 6.91234 6.83684
#
# Compressibility (1/GPa) = 0.01849099
#
# Stress axis : x y z
#
# Youngs Moduli (GPa) = 64.20094 81.03195 84.21303
#
# Poissons Ratio (x) = 0.42843 0.16323
# Poissons Ratio (y) = 0.33944 0.28841
# Poissons Ratio (z) = 0.12444 0.27752
#
# Static dielectric constant tensor:
#      x y z
#    x 3.788080 0.000000 0.000000 
#    y 0.000000 3.831530 0.000000 
#    z 0.000000 0.000000 3.783880 
# 
# 
# High freq. dielectric constant tensor:
#      x y z
#    x 1.842160 0.000000 0.000000 
#    y 0.000000 1.846900 0.000000 
#    z 0.000000 0.000000 1.842380 
# 
# From -- ./inp_files/4634.got.cif
#   From: 2010.03.12/outbox.cif.g09.slc.cpg/sg40_3_cif.got.tgz:4634.got - 2010.04.14 01:38:03.
