data_PCOD8184458
_publ_section_title
;
Structure prediction by ZEFSAII (Michael W. Deem and Ramdas Pophale) SiO2 
 PCOD8184458
Probable space group: A M A 2
;
_chemical_formula_sum "Si O2"
_cell_formula_units_Z 48
_cell_length_a 16.809861
_cell_length_b 11.567417
_cell_length_c 10.860490
_cell_angle_alpha 90.000000
_cell_angle_beta 90.000000
_cell_angle_gamma 90.000000
_cell_volume 2111.786136
_symmetry_space_group_name_H-M "A M A 2"
_symmetry_group_IT_number 40
_symmetry_cell_setting 'orthorhombic'
loop_
_space_group_symop_operation_xyz
x,y,z
-x,-y,z
1/2-x,y,z
1/2+x,-y,z
x,1/2+y,1/2+z
-x,1/2-y,1/2+z
1/2-x,1/2+y,1/2+z
1/2+x,1/2-y,1/2+z
loop_
_atom_site_type_symbol
_atom_site_label
_atom_site_fract_x
_atom_site_fract_y
_atom_site_fract_z
Si Si1 0.839933 0.024240 0.666880
Si Si2 0.086971 0.815904 0.243890
Si Si3 0.840233 0.363519 0.401574
Si Si4 0.657175 0.810803 0.516371
Si Si5 0.408180 0.247290 0.264016
Si Si6 0.160090 0.036745 0.152761
O O1 0.750000 0.070003 0.652092
O O2 0.897867 0.131351 0.692748
O O3 0.847107 0.942459 0.783552
O O4 0.864061 0.946432 0.546961
O O5 0.112156 0.756340 0.374385
O O6 0.994074 0.797196 0.223359
O O7 0.105508 0.952148 0.235481
O O8 0.141329 0.762862 0.137386
O O9 0.750000 0.328835 0.433626
O O10 0.875322 0.437777 0.515832
O O11 0.750000 0.799653 0.481793
O O12 0.602440 0.751394 0.411740
O O13 0.340178 0.159419 0.220885
O O14 0.250000 0.988672 0.146021
#
# Coordination Sequence:
#
# PCOD8184458 Si02
#       6
#     8   8   8   8   8   8
#     4   9  19  40  66  92 122 166 223 270 320 400
#     4  11  24  42  64  98 135 167 218 282 338 394
#     4   9  20  40  69  94 120 169 224 267 322 399
#     4  10  22  43  69  93 128 180 228 268 332 413
#     4  12  25  39  62  99 135 169 217 276 341 398
#     4  11  23  41  64  91 130 175 219 266 328 408
#
# _framework density 22.729574
#
# number of rings (size 3 to 8) (size 9 to 14) (size 15 to 20)
#    0.000    1.667    0.000    5.500    2.333    5.333 
#    6.000    1.667    0.000    0.000    0.000    0.000 
#    0.000    0.000    0.000    0.000    0.000    0.000 
#
# Total GULP energy -297478.196587 kJ/mol
# GULP energy per Si atom -12394.924858 kJ/mol
# Density = 2.267784 g / cm^3
# Si number density = 22.729574 Si / 1000 Ang^3
#
#
#
# Elastic Constant Matrix: (Units=GPa)
#
#
# Indices 1 2 3 4 5 6 
#
# 1 69.4792 26.6145 19.4232 0.0000 0.0000 0.0000
# 2 26.6145 103.7361 17.9989 0.0000 0.0000 0.0000
# 3 19.4232 17.9989 41.7730 0.0000 0.0000 0.0000
# 4 0.0000 0.0000 0.0000 28.1552 0.0000 0.0000
# 5 0.0000 0.0000 0.0000 0.0000 25.5758 0.0000
# 6 0.0000 0.0000 0.0000 0.0000 0.0000 32.0104
#
#
#
# Elastic Compliance Matrix: (Units=1/GPa)
#
#
# Indices 1 2 3 4 5 6 
#
# 1 0.017550 -0.003336 -0.006723 0.000000 0.000000 0.000000
# 2 -0.003336 0.011053 -0.003211 0.000000 0.000000 0.000000
# 3 -0.006723 -0.003211 0.028448 0.000000 0.000000 0.000000
# 4 0.000000 0.000000 0.000000 0.035517 0.000000 0.000000
# 5 0.000000 0.000000 0.000000 0.000000 0.039100 0.000000
# 6 0.000000 0.000000 0.000000 0.000000 0.000000 0.031240
#
#
# Mechanical properties :
#
#
# Convention : Reuss Voigt Hill
#
# Bulk Modulus (GPa) = 32.77496 38.11795 35.44645
# Shear Modulus (GPa) = 25.04771 27.21172 26.12971
#
# Velocity S-wave (km/s) = 3.32322 3.46380 3.39424
# Velocity P-wave (km/s) = 5.40147 5.72746 5.56685
#
# Compressibility (1/GPa) = 0.03051110
#
# Stress axis : x y z
#
# Youngs Moduli (GPa) = 56.97958 90.47357 35.15132
#
# Poissons Ratio (x) = 0.30184 0.23632
# Poissons Ratio (y) = 0.19010 0.11288
# Poissons Ratio (z) = 0.38306 0.29053
#
# Static dielectric constant tensor:
#      x y z
#    x 3.778620 0.000000 0.000000 
#    y 0.000000 4.412600 0.000000 
#    z 0.000000 0.000000 4.323130 
# 
# 
# High freq. dielectric constant tensor:
#      x y z
#    x 1.879540 0.000000 0.000000 
#    y 0.000000 1.901140 0.000000 
#    z 0.000000 0.000000 1.895370 
# 
# From -- ./inp_files/12914.got.cif
#   From: 2010.03.12/outbox.cif.g09.slc.cpg/sg40_7_cif.got.tgz:12914.got - 2010.04.14 01:38:03.
