data_PCOD8184786
_publ_section_title
;
Structure prediction by ZEFSAII (Michael W. Deem and Ramdas Pophale) SiO2 
 PCOD8184786
Probable space group: A B A 2
;
_chemical_formula_sum "Si O2"
_cell_formula_units_Z 52
_cell_length_a 18.522713
_cell_length_b 17.233674
_cell_length_c 7.763284
_cell_angle_alpha 90.000000
_cell_angle_beta 90.000000
_cell_angle_gamma 90.000000
_cell_volume 2478.152024
_symmetry_space_group_name_H-M "A B A 2"
_symmetry_group_IT_number 41
_symmetry_cell_setting 'orthorhombic'
loop_
_space_group_symop_operation_xyz
x,y,z
-x,-y,z
1/2-x,y,1/2+z
1/2+x,-y,1/2+z
x,1/2+y,1/2+z
-x,1/2-y,1/2+z
1/2-x,1/2+y,z
1/2+x,1/2-y,z
loop_
_atom_site_type_symbol
_atom_site_label
_atom_site_fract_x
_atom_site_fract_y
_atom_site_fract_z
Si Si1 0.500000 0.500000 0.348541
Si Si2 0.844450 0.471166 0.247296
Si Si3 0.094986 0.889049 0.584569
Si Si4 0.756970 0.389901 0.956887
Si Si5 0.052546 0.653658 0.176648
Si Si6 0.864803 0.770247 0.973856
Si Si7 0.597853 0.865155 0.791434
O O1 0.443362 0.449520 0.457844
O O2 0.549568 0.440769 0.239222
O O3 0.848418 0.561558 0.199832
O O4 0.802906 0.458542 0.427296
O O5 0.923689 0.432844 0.239320
O O6 0.798105 0.412327 0.128745
O O7 0.142164 0.822844 0.490716
O O8 0.034056 0.845875 0.699319
O O9 0.715262 0.307194 0.965873
O O10 0.817252 0.386528 0.805074
O O11 0.090253 0.717025 0.297740
O O12 0.070968 0.669829 0.974731
O O13 0.910402 0.804574 0.135373
#
# Coordination Sequence:
#
# PCOD8184786 Si02
#       7
#     4   8   8   8   8   8   8
#     4  10  20  40  64  86 120 164 200 244 322 358
#     4  10  18  38  62  81 121 164 200 246 310 367
#     4  11  20  39  62  91 119 161 202 258 306 368
#     4  10  19  38  61  83 120 167 200 245 311 367
#     4   9  21  39  63  85 120 160 200 253 310 356
#     4  11  24  37  64  93 120 160 211 251 308 369
#     4  10  20  42  64  86 121 164 201 254 304 375
#
# _framework density 20.983377000000001
#
# number of rings (size 3 to 8) (size 9 to 14) (size 15 to 20)
#    0.000    1.846    6.154    0.000    4.308    0.000 
#    8.308    0.000    0.000    0.000    0.000    0.000 
#    0.000    0.000    0.000    0.000    0.000    0.000 
#
# Total GULP energy -322128.935605 kJ/mol
# GULP energy per Si atom -12389.574446 kJ/mol
# Density = 2.093562 g / cm^3
# Si number density = 20.983377 Si / 1000 Ang^3
#
#
#
# Elastic Constant Matrix: (Units=GPa)
#
#
# Indices 1 2 3 4 5 6 
#
# 1 87.9227 39.9484 4.9190 0.0000 0.0000 0.0000
# 2 39.9484 130.2310 16.6517 0.0000 0.0000 0.0000
# 3 4.9190 16.6517 50.5701 0.0000 0.0000 0.0000
# 4 0.0000 0.0000 0.0000 29.5988 0.0000 0.0000
# 5 0.0000 0.0000 0.0000 0.0000 15.2468 0.0000
# 6 0.0000 0.0000 0.0000 0.0000 0.0000 22.1848
#
#
#
# Elastic Compliance Matrix: (Units=1/GPa)
#
#
# Indices 1 2 3 4 5 6 
#
# 1 0.013216 -0.004061 0.000052 0.000000 0.000000 0.000000
# 2 -0.004061 0.009264 -0.002655 0.000000 0.000000 0.000000
# 3 0.000052 -0.002655 0.020644 0.000000 0.000000 0.000000
# 4 0.000000 0.000000 0.000000 0.033785 0.000000 0.000000
# 5 0.000000 0.000000 0.000000 0.000000 0.065588 0.000000
# 6 0.000000 0.000000 0.000000 0.000000 0.000000 0.045076
#
#
# Mechanical properties :
#
#
# Convention : Reuss Voigt Hill
#
# Bulk Modulus (GPa) = 33.56313 43.52911 38.54612
# Shear Modulus (GPa) = 23.71554 27.21972 25.46763
#
# Velocity S-wave (km/s) = 3.36550 3.60558 3.48761
# Velocity P-wave (km/s) = 5.57960 6.17440 5.88452
#
# Compressibility (1/GPa) = 0.02979460
#
# Stress axis : x y z
#
# Youngs Moduli (GPa) = 75.66773 107.94761 48.44047
#
# Poissons Ratio (x) = 0.43832 -0.00250
# Poissons Ratio (y) = 0.30725 0.12863
# Poissons Ratio (z) = -0.00390 0.28664
#
# Static dielectric constant tensor:
#      x y z
#    x 4.116470 0.000000 0.000000 
#    y 0.000000 3.631100 0.000000 
#    z 0.000000 0.000000 3.673540 
# 
# 
# High freq. dielectric constant tensor:
#      x y z
#    x 1.828230 0.000000 0.000000 
#    y 0.000000 1.799660 0.000000 
#    z 0.000000 0.000000 1.803470 
# 
# From -- ./inp_files/3115.got.cif
#   From: 2010.03.12/outbox.cif.g09.slc.cpg/sg41_2_cif.got.tgz:3115.got - 2010.04.14 01:55:53.
