data_PCOD8184832
_publ_section_title
;
Structure prediction by ZEFSAII (Michael W. Deem and Ramdas Pophale) SiO2 
 PCOD8184832
Probable space group: A B A 2
;
_chemical_formula_sum "Si O2"
_cell_formula_units_Z 60
_cell_length_a 33.141125
_cell_length_b 5.182144
_cell_length_c 17.105475
_cell_angle_alpha 90.000000
_cell_angle_beta 90.000000
_cell_angle_gamma 90.000000
_cell_volume 2937.729891
_symmetry_space_group_name_H-M "A B A 2"
_symmetry_group_IT_number 41
_symmetry_cell_setting 'orthorhombic'
loop_
_space_group_symop_operation_xyz
x,y,z
-x,-y,z
1/2-x,y,1/2+z
1/2+x,-y,1/2+z
x,1/2+y,1/2+z
-x,1/2-y,1/2+z
1/2-x,1/2+y,z
1/2+x,1/2-y,z
loop_
_atom_site_type_symbol
_atom_site_label
_atom_site_fract_x
_atom_site_fract_y
_atom_site_fract_z
Si Si1 0.640327 0.115864 0.320960
Si Si2 0.366470 0.871174 0.139036
Si Si3 0.774272 0.123435 0.632139
Si Si4 0.916754 0.616805 0.648196
Si Si5 0.903442 0.610148 0.829225
Si Si6 0.271952 0.368720 0.818710
Si Si7 0.521397 0.252810 0.918870
Si Si8 0.000000 0.500000 0.569414
O O1 0.639501 0.177728 0.229929
O O2 0.609506 0.324524 0.358882
O O3 0.684132 0.174863 0.355502
O O4 0.633017 0.813370 0.333914
O O5 0.321153 0.884985 0.101745
O O6 0.391906 0.621804 0.110167
O O7 0.392816 0.126581 0.120998
O O8 0.750734 0.376165 0.600691
O O9 0.774082 0.123378 0.725436
O O10 0.921124 0.603147 0.741862
O O11 0.963267 0.617056 0.619737
O O12 0.932991 0.734593 0.892182
O O13 0.255360 0.638341 0.850649
O O14 0.500000 0.500000 0.878321
O O15 0.500000 0.000000 0.886326
O O16 0.518259 0.275257 0.013212
#
# Coordination Sequence:
#
# PCOD8184832 Si02
#       8
#     8   8   8   8   8   8   8   4
#     4   9  17  29  47  72 106 138 178 214 259 314
#     4   9  18  31  46  75 108 140 175 222 264 314
#     4   9  15  24  42  66 101 142 174 201 256 321
#     4  10  21  34  55  76 109 141 181 222 273 320
#     4  10  19  35  53  78 102 142 176 222 265 321
#     4   9  15  23  38  65 101 142 169 202 253 312
#     4  10  23  39  57  77 106 137 171 233 268 322
#     4  10  26  40  58  80 108 144 182 234 274 334
#
# _framework density 20.423933999999999
#
# number of rings (size 3 to 8) (size 9 to 14) (size 15 to 20)
#    0.400    2.133    0.000    2.400    2.800    6.400 
#    0.000    0.000    0.000    0.000    0.000    0.000 
#    0.000   21.333    0.000    0.000    0.000    0.000 
#
# Total GULP energy -371713.976634 kJ/mol
# GULP energy per Si atom -12390.465888 kJ/mol
# Density = 2.037745 g / cm^3
# Si number density = 20.423934 Si / 1000 Ang^3
#
#
#
# Elastic Constant Matrix: (Units=GPa)
#
#
# Indices 1 2 3 4 5 6 
#
# 1 168.2532 64.8734 34.7265 0.0000 0.0000 0.0000
# 2 64.8734 159.4892 21.3244 0.0000 0.0000 0.0000
# 3 34.7265 21.3244 23.5870 0.0000 0.0000 0.0000
# 4 0.0000 0.0000 0.0000 -37.4849 0.0000 0.0000
# 5 0.0000 0.0000 0.0000 0.0000 1.4656 0.0000
# 6 0.0000 0.0000 0.0000 0.0000 0.0000 31.8454
#
#
#
# Elastic Compliance Matrix: (Units=1/GPa)
#
#
# Indices 1 2 3 4 5 6 
#
# 1 0.009163 -0.002188 -0.011513 0.000000 0.000000 0.000000
# 2 -0.002188 0.007655 -0.003699 0.000000 0.000000 0.000000
# 3 -0.011513 -0.003699 0.062690 0.000000 0.000000 0.000000
# 4 0.000000 0.000000 0.000000 -0.026677 0.000000 0.000000
# 5 0.000000 0.000000 0.000000 0.000000 0.682302 0.000000
# 6 0.000000 0.000000 0.000000 0.000000 0.000000 0.031402
#
#
# Mechanical properties :
#
#
# Convention : Reuss Voigt Hill
#
# Bulk Modulus (GPa) = 22.36704 65.90866 44.13785
# Shear Modulus (GPa) = 6.12568 14.52556 10.32562
#
# Velocity S-wave (km/s) = 1.73372 2.66973 2.25092
# Velocity P-wave (km/s) = 3.87077 6.46867 5.33041
#
# Compressibility (1/GPa) = 0.04470864
#
# Stress axis : x y z
#
# Youngs Moduli (GPa) = 109.13273 130.64142 15.95146
#
# Poissons Ratio (x) = 0.28583 0.18364
# Poissons Ratio (y) = 0.23877 0.05901
# Poissons Ratio (z) = 1.25641 0.48326
#
# Static dielectric constant tensor:
#      x y z
#    x 3.909830 0.000000 0.000000 
#    y 0.000000 3.978930 0.000000 
#    z 0.000000 0.000000 3.003700 
# 
# 
# High freq. dielectric constant tensor:
#      x y z
#    x 1.809680 0.000000 0.000000 
#    y 0.000000 1.815990 0.000000 
#    z 0.000000 0.000000 1.724610 
# 
# From -- ./inp_files/10827.got.cif
#   From: 2010.03.12/outbox.cif.g09.slc.cpg/sg41_6_cif.got.tgz:10827.got - 2010.04.14 01:55:53.
