data_PCOD8184450
_publ_section_title
;
Structure prediction by ZEFSAII (Michael W. Deem and Ramdas Pophale) SiO2 
 PCOD8184450
Probable space group: A M A 2
;
_chemical_formula_sum "Si O2"
_cell_formula_units_Z 40
_cell_length_a 20.298349
_cell_length_b 7.843934
_cell_length_c 11.968115
_cell_angle_alpha 90.000000
_cell_angle_beta 90.000000
_cell_angle_gamma 90.000000
_cell_volume 1905.550223
_symmetry_space_group_name_H-M "A M A 2"
_symmetry_group_IT_number 40
_symmetry_cell_setting 'orthorhombic'
loop_
_space_group_symop_operation_xyz
x,y,z
-x,-y,z
1/2-x,y,z
1/2+x,-y,z
x,1/2+y,1/2+z
-x,1/2-y,1/2+z
1/2-x,1/2+y,1/2+z
1/2+x,1/2-y,1/2+z
loop_
_atom_site_type_symbol
_atom_site_label
_atom_site_fract_x
_atom_site_fract_y
_atom_site_fract_z
Si Si1 0.545597 0.664193 0.757220
Si Si2 0.250000 0.458345 0.453092
Si Si3 0.250000 0.316257 0.022071
Si Si4 0.391912 0.843984 0.017277
Si Si5 0.357797 0.011718 0.405874
Si Si6 0.750000 0.308859 0.770732
Si Si7 0.500000 0.000000 0.868888
O O1 0.500000 0.500000 0.745367
O O2 0.584274 0.684123 0.642380
O O3 0.595946 0.635374 0.858692
O O4 0.506622 0.836668 0.787414
O O5 0.250000 0.661309 0.432959
O O6 0.315362 0.400183 0.520215
O O7 0.250000 0.373948 0.331328
O O8 0.250000 0.224520 0.140433
O O9 0.313888 0.432943 0.005268
O O10 0.401246 0.662325 0.957231
O O11 0.436126 0.979574 0.948695
O O12 0.314074 0.083770 0.304057
#
# Coordination Sequence:
#
# PCOD8184450 Si02
#       7
#     8   4   4   8   8   4   4
#     4  12  25  44  69  95 137 180 223 282 340 399
#     4  10  22  42  70  98 138 174 231 282 331 420
#     4  11  21  39  66 100 132 178 215 279 344 393
#     4  11  24  46  69 100 136 182 228 283 344 405
#     4  10  23  41  64  97 136 172 226 278 331 409
#     4   9  21  41  66  94 134 174 220 277 337 399
#     4  12  26  44  70 104 132 184 236 276 340 412
#
# _framework density 20.991313000000002
#
# number of rings (size 3 to 8) (size 9 to 14) (size 15 to 20)
#    0.000    1.200    3.000    3.000    0.000    7.200 
#    3.600    3.000    0.000    0.000    0.000    0.000 
#    0.000    0.000    0.000    0.000    0.000    0.000 
#
# Total GULP energy -248053.006900 kJ/mol
# GULP energy per Si atom -12402.650345 kJ/mol
# Density = 2.094354 g / cm^3
# Si number density = 20.991313 Si / 1000 Ang^3
#
#
#
# Elastic Constant Matrix: (Units=GPa)
#
#
# Indices 1 2 3 4 5 6 
#
# 1 116.1374 37.8115 46.1634 0.0000 0.0000 0.0000
# 2 37.8115 123.1799 33.0285 0.0000 0.0000 0.0000
# 3 46.1634 33.0285 84.9014 0.0000 0.0000 0.0000
# 4 0.0000 0.0000 0.0000 24.7952 0.0000 0.0000
# 5 0.0000 0.0000 0.0000 0.0000 20.7768 0.0000
# 6 0.0000 0.0000 0.0000 0.0000 0.0000 37.4867
#
#
#
# Elastic Compliance Matrix: (Units=1/GPa)
#
#
# Indices 1 2 3 4 5 6 
#
# 1 0.011433 -0.002057 -0.005416 0.000000 0.000000 0.000000
# 2 -0.002057 0.009434 -0.002551 0.000000 0.000000 0.000000
# 3 -0.005416 -0.002551 0.015716 0.000000 0.000000 0.000000
# 4 0.000000 0.000000 0.000000 0.040330 0.000000 0.000000
# 5 0.000000 0.000000 0.000000 0.000000 0.048131 0.000000
# 6 0.000000 0.000000 0.000000 0.000000 0.000000 0.026676
#
#
# Mechanical properties :
#
#
# Convention : Reuss Voigt Hill
#
# Bulk Modulus (GPa) = 60.48460 62.02504 61.25482
# Shear Modulus (GPa) = 28.20384 30.42609 29.31497
#
# Velocity S-wave (km/s) = 3.66949 3.81131 3.74107
# Velocity P-wave (km/s) = 6.84326 6.99859 6.92136
#
# Compressibility (1/GPa) = 0.01653313
#
# Stress axis : x y z
#
# Youngs Moduli (GPa) = 87.46472 106.00163 63.62995
#
# Poissons Ratio (x) = 0.21808 0.34463
# Poissons Ratio (y) = 0.17994 0.16234
# Poissons Ratio (z) = 0.47373 0.27045
#
# Static dielectric constant tensor:
#      x y z
#    x 3.943100 0.000000 0.000000 
#    y 0.000000 3.929330 0.000000 
#    z 0.000000 0.000000 3.557450 
# 
# 
# High freq. dielectric constant tensor:
#      x y z
#    x 1.830600 0.000000 0.000000 
#    y 0.000000 1.835620 0.000000 
#    z 0.000000 0.000000 1.813030 
# 
# From -- ./inp_files/12754.got.cif
#   From: 2010.03.12/outbox.cif.g09.slc.cpg/sg40_7_cif.got.tgz:12754.got - 2010.04.14 01:38:03.
