data_PCOD8184249
_publ_section_title
;
Structure prediction by ZEFSAII (Michael W. Deem and Ramdas Pophale) SiO2 
 PCOD8184249
Probable space group: A M A 2
;
_chemical_formula_sum "Si O2"
_cell_formula_units_Z 64
_cell_length_a 18.663937
_cell_length_b 8.836597
_cell_length_c 19.909902
_cell_angle_alpha 90.000000
_cell_angle_beta 90.000000
_cell_angle_gamma 90.000000
_cell_volume 3283.654319
_symmetry_space_group_name_H-M "A M A 2"
_symmetry_group_IT_number 40
_symmetry_cell_setting 'orthorhombic'
loop_
_space_group_symop_operation_xyz
x,y,z
-x,-y,z
1/2-x,y,z
1/2+x,-y,z
x,1/2+y,1/2+z
-x,1/2-y,1/2+z
1/2-x,1/2+y,1/2+z
1/2+x,1/2-y,1/2+z
loop_
_atom_site_type_symbol
_atom_site_label
_atom_site_fract_x
_atom_site_fract_y
_atom_site_fract_z
Si Si1 0.550402 0.728785 0.799790
Si Si2 0.831835 0.246325 0.068807
Si Si3 0.925726 0.933551 0.671044
Si Si4 0.668043 0.232671 0.916464
Si Si5 0.422191 0.555769 0.423354
Si Si6 0.666894 0.720048 0.181075
Si Si7 0.332540 0.099535 0.050452
Si Si8 0.106571 0.094553 0.299724
O O1 0.556890 0.829394 0.734061
O O2 0.572752 0.822026 0.864913
O O3 0.469734 0.673512 0.807114
O O4 0.602590 0.585748 0.793068
O O5 0.750000 0.290045 0.087679
O O6 0.886911 0.338982 0.113506
O O7 0.845138 0.068269 0.079752
O O8 0.849041 0.288378 0.991722
O O9 0.875677 0.068109 0.696907
O O10 0.000000 0.000000 0.641768
O O11 0.750000 0.181035 0.911520
O O12 0.652016 0.369699 0.866333
O O13 0.621882 0.086995 0.895570
O O14 0.500000 0.500000 0.447031
O O15 0.382755 0.632052 0.486746
O O16 0.750000 0.681546 0.186019
O O17 0.646342 0.780330 0.107274
O O18 0.647939 0.848150 0.234523
O O19 0.250000 0.117387 0.028026
#
# Coordination Sequence:
#
# PCOD8184249 Si02
#       8
#     8   8   8   8   8   8   8   8
#     4  11  24  40  59  87 126 152 198 256 299 345
#     4   9  20  40  62  88 122 157 196 247 298 357
#     4  12  23  40  61  89 122 158 201 249 302 357
#     4  10  21  40  64  89 121 160 200 246 301 359
#     4  11  20  38  64  92 122 158 200 245 298 357
#     4  11  23  40  63  89 120 159 202 250 302 358
#     4   9  21  41  62  89 123 157 197 247 298 356
#     4  11  22  42  61  86 118 164 198 247 303 357
#
# _framework density 19.490480999999999
#
# number of rings (size 3 to 8) (size 9 to 14) (size 15 to 20)
#    0.000    1.500    2.500    3.750    0.000    3.000 
#    4.500    7.500    0.000    0.000    0.000    0.000 
#    0.000    0.000    0.000    0.000    0.000    0.000 
#
# Total GULP energy -396929.523330 kJ/mol
# GULP energy per Si atom -12404.047604 kJ/mol
# Density = 1.944612 g / cm^3
# Si number density = 19.490481 Si / 1000 Ang^3
#
#
#
# Elastic Constant Matrix: (Units=GPa)
#
#
# Indices 1 2 3 4 5 6 
#
# 1 101.9555 45.2962 53.9124 0.0000 0.0000 0.0000
# 2 45.2962 86.5918 48.1176 0.0000 0.0000 0.0000
# 3 53.9124 48.1176 100.9438 0.0000 0.0000 0.0000
# 4 0.0000 0.0000 0.0000 38.6897 0.0000 0.0000
# 5 0.0000 0.0000 0.0000 0.0000 38.6993 0.0000
# 6 0.0000 0.0000 0.0000 0.0000 0.0000 31.3579
#
#
#
# Elastic Compliance Matrix: (Units=1/GPa)
#
#
# Indices 1 2 3 4 5 6 
#
# 1 0.014897 -0.004586 -0.005770 0.000000 0.000000 0.000000
# 2 -0.004586 0.017122 -0.005712 0.000000 0.000000 0.000000
# 3 -0.005770 -0.005712 0.015711 0.000000 0.000000 0.000000
# 4 0.000000 0.000000 0.000000 0.025847 0.000000 0.000000
# 5 0.000000 0.000000 0.000000 0.000000 0.025840 0.000000
# 6 0.000000 0.000000 0.000000 0.000000 0.000000 0.031890
#
#
# Mechanical properties :
#
#
# Convention : Reuss Voigt Hill
#
# Bulk Modulus (GPa) = 64.13203 64.90483 64.51843
# Shear Modulus (GPa) = 29.64889 31.22703 30.43796
#
# Velocity S-wave (km/s) = 3.90449 4.00705 3.95610
# Velocity P-wave (km/s) = 7.30085 7.40147 7.35133
#
# Compressibility (1/GPa) = 0.01559283
#
# Stress axis : x y z
#
# Youngs Moduli (GPa) = 67.12838 58.40581 63.64988
#
# Poissons Ratio (x) = 0.26786 0.36726
# Poissons Ratio (y) = 0.30787 0.36357
# Poissons Ratio (z) = 0.38733 0.33362
#
# Static dielectric constant tensor:
#      x y z
#    x 3.643280 0.000000 0.000000 
#    y 0.000000 3.601410 0.000000 
#    z 0.000000 0.000000 3.588450 
# 
# 
# High freq. dielectric constant tensor:
#      x y z
#    x 1.769860 0.000000 0.000000 
#    y 0.000000 1.757940 0.000000 
#    z 0.000000 0.000000 1.764300 
# 
# From -- ./inp_files/23338.got.cif
#   From: 2010.03.12/outbox.cif.g09.slc.cpg/sg40_12_cif.got.tgz:23338.got - 2010.04.14 01:38:03.
