data_PCOD8184912
_publ_section_title
;
Structure prediction by ZEFSAII (Michael W. Deem and Ramdas Pophale) SiO2 
 PCOD8184912
Probable space group: A B A 2
;
_chemical_formula_sum "Si O2"
_cell_formula_units_Z 60
_cell_length_a 18.664393
_cell_length_b 33.224277
_cell_length_c 4.830164
_cell_angle_alpha 90.000000
_cell_angle_beta 90.000000
_cell_angle_gamma 90.000000
_cell_volume 2995.237650
_symmetry_space_group_name_H-M "A B A 2"
_symmetry_group_IT_number 41
_symmetry_cell_setting 'orthorhombic'
loop_
_space_group_symop_operation_xyz
x,y,z
-x,-y,z
1/2-x,y,1/2+z
1/2+x,-y,1/2+z
x,1/2+y,1/2+z
-x,1/2-y,1/2+z
1/2-x,1/2+y,z
1/2+x,1/2-y,z
loop_
_atom_site_type_symbol
_atom_site_label
_atom_site_fract_x
_atom_site_fract_y
_atom_site_fract_z
Si Si1 0.202076 0.432556 0.942920
Si Si2 0.581204 0.722705 0.411901
Si Si3 0.500000 0.500000 0.978643
Si Si4 0.081177 0.722745 0.913764
Si Si5 0.298889 0.159662 0.061372
Si Si6 0.594625 0.499465 0.478145
Si Si7 0.201095 0.841597 0.390664
Si Si8 0.702232 0.931568 0.010874
O O1 0.272255 0.439786 0.755454
O O2 0.140818 0.463897 0.856825
O O3 0.172349 0.387280 0.910692
O O4 0.500074 0.706625 0.451992
O O5 0.595941 0.761416 0.605425
O O6 0.635090 0.686544 0.472436
O O7 0.594058 0.738198 0.102759
O O8 0.552088 0.520017 0.742941
O O9 0.551042 0.479181 0.214736
O O10 0.133813 0.686909 0.989500
O O11 0.269558 0.168487 0.366951
O O12 0.326699 0.113833 0.042639
O O13 0.640481 0.462558 0.597525
O O14 0.269705 0.833222 0.584449
O O15 0.727667 0.939041 0.698335
#
# Coordination Sequence:
#
# PCOD8184912 Si02
#       8
#     8   8   4   8   8   8   8   8
#     4  10  20  35  60  85 109 144 187 238 279 329
#     4  10  21  37  56  78 111 148 188 224 274 342
#     4  10  24  36  52  80 116 150 180 240 260 330
#     4  10  21  37  56  78 111 148 188 224 274 342
#     4  10  21  36  56  85 115 139 186 238 279 325
#     4  11  20  39  58  79 118 149 190 224 276 333
#     4  10  21  36  56  85 115 139 186 238 279 325
#     4  10  20  35  60  85 109 144 187 238 279 329
#
# _framework density 20.0318
#
# number of rings (size 3 to 8) (size 9 to 14) (size 15 to 20)
#    0.000    1.867    0.000    4.000    0.000    3.200 
#    4.800    0.000    5.867    0.000    0.000    0.000 
#    0.000    0.000    0.000    0.000    0.000    0.000 
#
# Total GULP energy -371645.237331 kJ/mol
# GULP energy per Si atom -12388.174578 kJ/mol
# Density = 1.998621 g / cm^3
# Si number density = 20.031800 Si / 1000 Ang^3
#
#
#
# Elastic Constant Matrix: (Units=GPa)
#
#
# Indices 1 2 3 4 5 6 
#
# 1 101.1369 72.9426 15.5722 0.0000 0.0000 0.0000
# 2 72.9426 104.0796 16.2321 0.0000 0.0000 0.0000
# 3 15.5722 16.2321 82.0954 0.0000 0.0000 0.0000
# 4 0.0000 0.0000 0.0000 20.9565 0.0000 0.0000
# 5 0.0000 0.0000 0.0000 0.0000 13.0150 0.0000
# 6 0.0000 0.0000 0.0000 0.0000 0.0000 0.3650
#
#
#
# Elastic Compliance Matrix: (Units=1/GPa)
#
#
# Indices 1 2 3 4 5 6 
#
# 1 0.020082 -0.013909 -0.001059 0.000000 0.000000 0.000000
# 2 -0.013909 0.019547 -0.001227 0.000000 0.000000 0.000000
# 3 -0.001059 -0.001227 0.012624 0.000000 0.000000 0.000000
# 4 0.000000 0.000000 0.000000 0.047718 0.000000 0.000000
# 5 0.000000 0.000000 0.000000 0.000000 0.076834 0.000000
# 6 0.000000 0.000000 0.000000 0.000000 0.000000 2.739863
#
#
# Mechanical properties :
#
#
# Convention : Reuss Voigt Hill
#
# Bulk Modulus (GPa) = 50.34180 55.20062 52.77121
# Shear Modulus (GPa) = 1.69166 19.03830 10.36498
#
# Velocity S-wave (km/s) = 0.91996 3.08621 2.27717
# Velocity P-wave (km/s) = 5.12971 6.34948 5.77191
#
# Compressibility (1/GPa) = 0.01986421
#
# Stress axis : x y z
#
# Youngs Moduli (GPa) = 49.79482 51.15756 79.21183
#
# Poissons Ratio (x) = 0.71157 0.08390
# Poissons Ratio (y) = 0.69261 0.09716
# Poissons Ratio (z) = 0.05274 0.06275
#
# Static dielectric constant tensor:
#      x y z
#    x 3.560930 0.000000 0.000000 
#    y 0.000000 3.368740 0.000000 
#    z 0.000000 0.000000 3.907780 
# 
# 
# High freq. dielectric constant tensor:
#      x y z
#    x 1.777480 0.000000 0.000000 
#    y 0.000000 1.755780 0.000000 
#    z 0.000000 0.000000 1.806520 
# 
# From -- ./inp_files/566.got.cif
#   From: 2010.03.12/outbox.cif.g09.slc.cpg/sg41_1_cif.got.tgz:566.got - 2010.04.14 01:55:53.
