data_PCOD8185243
_publ_section_title
;
Structure prediction by ZEFSAII (Michael W. Deem and Ramdas Pophale) SiO2 
 PCOD8185243
Probable space group: A B A 2
;
_chemical_formula_sum "Si O2"
_cell_formula_units_Z 60
_cell_length_a 17.155680
_cell_length_b 9.327432
_cell_length_c 16.187288
_cell_angle_alpha 90.000000
_cell_angle_beta 90.000000
_cell_angle_gamma 90.000000
_cell_volume 2590.264551
_symmetry_space_group_name_H-M "A B A 2"
_symmetry_group_IT_number 41
_symmetry_cell_setting 'orthorhombic'
loop_
_space_group_symop_operation_xyz
x,y,z
-x,-y,z
1/2-x,y,1/2+z
1/2+x,-y,1/2+z
x,1/2+y,1/2+z
-x,1/2-y,1/2+z
1/2-x,1/2+y,z
1/2+x,1/2-y,z
loop_
_atom_site_type_symbol
_atom_site_label
_atom_site_fract_x
_atom_site_fract_y
_atom_site_fract_z
Si Si1 0.302564 0.719608 0.303820
Si Si2 0.409478 0.972594 0.766023
Si Si3 0.819164 0.699667 0.120198
Si Si4 0.665514 0.374380 0.588474
Si Si5 0.000000 0.000000 0.864572
Si Si6 0.410142 0.040225 0.586421
Si Si7 0.369028 0.662687 0.771973
Si Si8 0.618350 0.170072 0.455025
O O1 0.367110 0.596696 0.316812
O O2 0.315788 0.813572 0.220497
O O3 0.219797 0.638319 0.300913
O O4 0.315077 0.819670 0.384073
O O5 0.376883 0.975128 0.672062
O O6 0.391495 0.819619 0.805377
O O7 0.500000 0.000000 0.767023
O O8 0.820882 0.544291 0.078566
O O9 0.747107 0.791438 0.086827
O O10 0.896164 0.788016 0.090764
O O11 0.619788 0.346453 0.673546
O O12 0.614433 0.313462 0.511912
O O13 0.073791 0.046390 0.810584
O O14 0.968011 0.135285 0.917694
O O15 0.360361 0.967024 0.512939
O O16 0.500000 0.000000 0.574487
#
# Coordination Sequence:
#
# PCOD8185243 Si02
#       8
#     8   8   8   8   4   8   8   8
#     4  10  25  42  76 106 149 184 253 299 367 432
#     4  10  21  44  72 101 139 199 243 297 352 446
#     4  10  23  45  73 108 138 195 246 303 355 456
#     4  11  24  44  77 106 142 186 257 299 366 439
#     4  12  28  46  72 104 156 192 240 306 386 430
#     4  10  21  43  72  99 146 195 236 290 376 434
#     4  11  25  45  76 104 140 204 248 296 362 457
#     4  12  24  47  69 109 146 188 235 316 364 434
#
# _framework density 23.163656
#
# number of rings (size 3 to 8) (size 9 to 14) (size 15 to 20)
#    0.000    1.333    2.000    2.400   11.200    4.267 
#    2.400    1.333    0.000    0.000    0.000    0.000 
#    0.000    0.000    0.000    0.000    0.000    0.000 
#
# Total GULP energy -371954.052278 kJ/mol
# GULP energy per Si atom -12398.468409 kJ/mol
# Density = 2.311093 g / cm^3
# Si number density = 23.163656 Si / 1000 Ang^3
#
#
#
# Elastic Constant Matrix: (Units=GPa)
#
#
# Indices 1 2 3 4 5 6 
#
# 1 115.7815 54.1332 59.7979 0.0000 0.0000 0.0000
# 2 54.1332 160.1525 54.9164 0.0000 0.0000 0.0000
# 3 59.7979 54.9164 122.5646 0.0000 0.0000 0.0000
# 4 0.0000 0.0000 0.0000 31.7180 0.0000 0.0000
# 5 0.0000 0.0000 0.0000 0.0000 21.4463 0.0000
# 6 0.0000 0.0000 0.0000 0.0000 0.0000 44.2044
#
#
#
# Elastic Compliance Matrix: (Units=1/GPa)
#
#
# Indices 1 2 3 4 5 6 
#
# 1 0.012332 -0.002487 -0.004902 0.000000 0.000000 0.000000
# 2 -0.002487 0.007879 -0.002317 0.000000 0.000000 0.000000
# 3 -0.004902 -0.002317 0.011589 0.000000 0.000000 0.000000
# 4 0.000000 0.000000 0.000000 0.031528 0.000000 0.000000
# 5 0.000000 0.000000 0.000000 0.000000 0.046628 0.000000
# 6 0.000000 0.000000 0.000000 0.000000 0.000000 0.022622
#
#
# Mechanical properties :
#
#
# Convention : Reuss Voigt Hill
#
# Bulk Modulus (GPa) = 80.72830 81.79931 81.26381
# Shear Modulus (GPa) = 32.02683 34.78381 33.40532
#
# Velocity S-wave (km/s) = 3.72241 3.87932 3.80168
# Velocity P-wave (km/s) = 7.30767 7.44687 7.37760
#
# Compressibility (1/GPa) = 0.01238723
#
# Stress axis : x y z
#
# Youngs Moduli (GPa) = 81.09224 126.91586 86.29112
#
# Poissons Ratio (x) = 0.31568 0.42300
# Poissons Ratio (y) = 0.20170 0.19992
# Poissons Ratio (z) = 0.39751 0.29404
#
# Static dielectric constant tensor:
#      x y z
#    x 4.030250 0.000000 0.000000 
#    y 0.000000 4.181330 0.000000 
#    z 0.000000 0.000000 4.313530 
# 
# 
# High freq. dielectric constant tensor:
#      x y z
#    x 1.903600 0.000000 0.000000 
#    y 0.000000 1.916930 0.000000 
#    z 0.000000 0.000000 1.910180 
# 
# From -- ./inp_files/10599.got.cif
#   From: 2010.03.12/outbox.cif.g09.slc.cpg/sg41_6_cif.got.tgz:10599.got - 2010.04.14 01:55:53.
