data_PCOD8185467
_publ_section_title
;
Structure prediction by ZEFSAII (Michael W. Deem and Ramdas Pophale) SiO2 
 PCOD8185467
Probable space group: A B A 2
;
_chemical_formula_sum "Si O2"
_cell_formula_units_Z 60
_cell_length_a 28.455598
_cell_length_b 11.712950
_cell_length_c 8.484735
_cell_angle_alpha 90.000000
_cell_angle_beta 90.000000
_cell_angle_gamma 90.000000
_cell_volume 2827.953662
_symmetry_space_group_name_H-M "A B A 2"
_symmetry_group_IT_number 41
_symmetry_cell_setting 'orthorhombic'
loop_
_space_group_symop_operation_xyz
x,y,z
-x,-y,z
1/2-x,y,1/2+z
1/2+x,-y,1/2+z
x,1/2+y,1/2+z
-x,1/2-y,1/2+z
1/2-x,1/2+y,z
1/2+x,1/2-y,z
loop_
_atom_site_type_symbol
_atom_site_label
_atom_site_fract_x
_atom_site_fract_y
_atom_site_fract_z
Si Si1 0.746158 0.995606 0.787830
Si Si2 0.313626 0.120227 0.047971
Si Si3 0.500000 0.000000 0.918965
Si Si4 0.810592 0.112507 0.024211
Si Si5 0.959964 0.819252 0.185438
Si Si6 0.455003 0.292502 0.990002
Si Si7 0.406367 0.016713 0.483374
Si Si8 0.084490 0.570406 0.122290
O O1 0.780841 0.910292 0.696126
O O2 0.712398 0.072320 0.684395
O O3 0.713355 0.914846 0.891367
O O4 0.774322 0.091262 0.883851
O O5 0.324495 0.255232 0.038897
O O6 0.362198 0.048328 0.062685
O O7 0.507559 0.891239 0.807549
O O8 0.546859 0.010237 0.030164
O O9 0.854324 0.030629 0.989812
O O10 0.943999 0.716564 0.300995
O O11 0.914487 0.882813 0.112381
O O12 0.990517 0.774332 0.038603
O O13 0.442254 0.419819 0.040463
O O14 0.424807 0.202919 0.087850
O O15 0.419691 0.056451 0.308964
#
# Coordination Sequence:
#
# PCOD8185467 Si02
#       8
#     8   8   4   8   8   8   8   8
#     4  10  24  42  70  96 131 167 212 276 327 400
#     4  11  22  45  66  98 133 166 218 269 329 396
#     4  10  24  40  66  94 130 176 224 272 326 388
#     4  11  23  42  68  96 129 172 213 264 340 389
#     4  11  24  42  65  94 127 172 229 269 326 384
#     4  11  24  42  64  91 127 175 217 273 322 382
#     4  12  24  42  64  92 133 170 216 272 328 387
#     4  11  25  42  65  95 135 173 221 271 324 393
#
# _framework density 21.216754999999999
#
# number of rings (size 3 to 8) (size 9 to 14) (size 15 to 20)
#    0.000    1.067    4.000    1.600    9.333    0.000 
#    0.000    0.000    0.000    0.000    0.000    0.000 
#    0.000    0.000    0.000    0.000    0.000    0.000 
#
# Total GULP energy -371899.999198 kJ/mol
# GULP energy per Si atom -12396.666640 kJ/mol
# Density = 2.116846 g / cm^3
# Si number density = 21.216755 Si / 1000 Ang^3
#
#
#
# Elastic Constant Matrix: (Units=GPa)
#
#
# Indices 1 2 3 4 5 6 
#
# 1 110.5958 22.1879 45.4869 0.0000 0.0000 0.0000
# 2 22.1879 46.0300 27.9989 0.0000 0.0000 0.0000
# 3 45.4869 27.9989 121.2397 0.0000 0.0000 0.0000
# 4 0.0000 0.0000 0.0000 26.6749 0.0000 0.0000
# 5 0.0000 0.0000 0.0000 0.0000 57.6959 0.0000
# 6 0.0000 0.0000 0.0000 0.0000 0.0000 35.8282
#
#
#
# Elastic Compliance Matrix: (Units=1/GPa)
#
#
# Indices 1 2 3 4 5 6 
#
# 1 0.011101 -0.003278 -0.003408 0.000000 0.000000 0.000000
# 2 -0.003278 0.026244 -0.004831 0.000000 0.000000 0.000000
# 3 -0.003408 -0.004831 0.010642 0.000000 0.000000 0.000000
# 4 0.000000 0.000000 0.000000 0.037488 0.000000 0.000000
# 5 0.000000 0.000000 0.000000 0.000000 0.017332 0.000000
# 6 0.000000 0.000000 0.000000 0.000000 0.000000 0.027911
#
#
# Mechanical properties :
#
#
# Convention : Reuss Voigt Hill
#
# Bulk Modulus (GPa) = 40.07466 52.13475 46.10471
# Shear Modulus (GPa) = 30.85083 36.18594 33.51838
#
# Velocity S-wave (km/s) = 3.81738 4.13429 3.97899
# Velocity P-wave (km/s) = 6.19347 6.88590 6.54884
#
# Compressibility (1/GPa) = 0.02495343
#
# Stress axis : x y z
#
# Youngs Moduli (GPa) = 90.07989 38.10462 93.96452
#
# Poissons Ratio (x) = 0.12491 0.32022
# Poissons Ratio (y) = 0.29530 0.45392
# Poissons Ratio (z) = 0.30699 0.18407
#
# Static dielectric constant tensor:
#      x y z
#    x 3.909600 0.000000 0.000000 
#    y 0.000000 3.803850 0.000000 
#    z 0.000000 0.000000 4.048350 
# 
# 
# High freq. dielectric constant tensor:
#      x y z
#    x 1.835010 0.000000 0.000000 
#    y 0.000000 1.825390 0.000000 
#    z 0.000000 0.000000 1.847700 
# 
# From -- ./inp_files/3814.got.cif
#   From: 2010.03.12/outbox.cif.g09.slc.cpg/sg41_2_cif.got.tgz:3814.got - 2010.04.14 01:55:53.
