data_PCOD8185544
_publ_section_title
;
Structure prediction by ZEFSAII (Michael W. Deem and Ramdas Pophale) SiO2 
 PCOD8185544
Probable space group: A B A 2
;
_chemical_formula_sum "Si O2"
_cell_formula_units_Z 60
_cell_length_a 12.616572
_cell_length_b 12.592270
_cell_length_c 17.772124
_cell_angle_alpha 90.000000
_cell_angle_beta 90.000000
_cell_angle_gamma 90.000000
_cell_volume 2823.480108
_symmetry_space_group_name_H-M "A B A 2"
_symmetry_group_IT_number 41
_symmetry_cell_setting 'orthorhombic'
loop_
_space_group_symop_operation_xyz
x,y,z
-x,-y,z
1/2-x,y,1/2+z
1/2+x,-y,1/2+z
x,1/2+y,1/2+z
-x,1/2-y,1/2+z
1/2-x,1/2+y,z
1/2+x,1/2-y,z
loop_
_atom_site_type_symbol
_atom_site_label
_atom_site_fract_x
_atom_site_fract_y
_atom_site_fract_z
Si Si1 0.175274 0.427917 0.502800
Si Si2 0.436424 0.237276 0.084254
Si Si3 0.156758 0.573236 0.764572
Si Si4 0.000000 0.500000 0.387015
Si Si5 0.739263 0.880637 0.605693
Si Si6 0.565273 0.156028 0.743827
Si Si7 0.149147 0.663870 0.344395
Si Si8 0.143730 0.282891 0.999281
O O1 0.117700 0.325226 0.533281
O O2 0.103943 0.471248 0.435370
O O3 0.189996 0.516451 0.566443
O O4 0.292529 0.390060 0.475797
O O5 0.366575 0.132004 0.100804
O O6 0.465551 0.299619 0.161321
O O7 0.528859 0.189346 0.031963
O O8 0.207854 0.624861 0.691676
O O9 0.137050 0.449845 0.745055
O O10 0.242052 0.596853 0.830847
O O11 0.045997 0.630935 0.785682
O O12 0.043033 0.592766 0.332846
O O13 0.697396 0.772875 0.570028
O O14 0.637970 0.238784 0.787881
O O15 0.145917 0.702112 0.430146
#
# Coordination Sequence:
#
# PCOD8185544 Si02
#       8
#     8   8   8   4   8   8   8   8
#     4  11  23  42  71  98 132 177 231 281 339 411
#     4  11  21  42  69 103 132 177 231 281 341 405
#     4  11  25  43  69 102 138 187 229 283 353 408
#     4  12  26  48  72  98 130 196 228 284 352 428
#     4  11  21  41  71 100 130 177 232 278 333 415
#     4  11  25  42  70 101 144 183 230 285 349 424
#     4  12  27  45  67 102 140 180 233 292 348 415
#     4  11  25  41  71  98 137 177 225 290 339 409
#
# _framework density 21.250371999999999
#
# number of rings (size 3 to 8) (size 9 to 14) (size 15 to 20)
#    0.000    0.800    6.667    0.000    3.733    0.533 
#    2.400    0.000    0.000    0.000    0.000    0.000 
#    0.000    0.000    0.000    0.000    0.000    0.000 
#
# Total GULP energy -371810.375752 kJ/mol
# GULP energy per Si atom -12393.679192 kJ/mol
# Density = 2.120201 g / cm^3
# Si number density = 21.250372 Si / 1000 Ang^3
#
#
#
# Elastic Constant Matrix: (Units=GPa)
#
#
# Indices 1 2 3 4 5 6 
#
# 1 136.8510 43.9217 34.6965 0.0000 0.0000 0.0000
# 2 43.9217 64.7243 10.7266 0.0000 0.0000 0.0000
# 3 34.6965 10.7266 71.5802 0.0000 0.0000 0.0000
# 4 0.0000 0.0000 0.0000 23.6038 0.0000 0.0000
# 5 0.0000 0.0000 0.0000 0.0000 33.6558 0.0000
# 6 0.0000 0.0000 0.0000 0.0000 0.0000 43.5868
#
#
#
# Elastic Compliance Matrix: (Units=1/GPa)
#
#
# Indices 1 2 3 4 5 6 
#
# 1 0.010387 -0.006372 -0.004080 0.000000 0.000000 0.000000
# 2 -0.006372 0.019753 0.000129 0.000000 0.000000 0.000000
# 3 -0.004080 0.000129 0.015929 0.000000 0.000000 0.000000
# 4 0.000000 0.000000 0.000000 0.042366 0.000000 0.000000
# 5 0.000000 0.000000 0.000000 0.000000 0.029713 0.000000
# 6 0.000000 0.000000 0.000000 0.000000 0.000000 0.022943
#
#
# Mechanical properties :
#
#
# Convention : Reuss Voigt Hill
#
# Bulk Modulus (GPa) = 39.33649 50.20500 44.77075
# Shear Modulus (GPa) = 29.37546 32.42334 30.89940
#
# Velocity S-wave (km/s) = 3.72203 3.91036 3.81736
# Velocity P-wave (km/s) = 6.08461 6.63812 6.36738
#
# Compressibility (1/GPa) = 0.02542169
#
# Stress axis : x y z
#
# Youngs Moduli (GPa) = 96.27673 50.62519 62.78017
#
# Poissons Ratio (x) = 0.32260 0.25613
# Poissons Ratio (y) = 0.61350 -0.00808
# Poissons Ratio (z) = 0.39279 -0.00652
#
# Static dielectric constant tensor:
#      x y z
#    x 4.322790 0.000000 0.000000 
#    y 0.000000 3.977020 0.000000 
#    z 0.000000 0.000000 3.701240 
# 
# 
# High freq. dielectric constant tensor:
#      x y z
#    x 1.844460 0.000000 0.000000 
#    y 0.000000 1.833850 0.000000 
#    z 0.000000 0.000000 1.825250 
# 
# From -- ./inp_files/11421.got.cif
#   From: 2010.03.12/outbox.cif.g09.slc.cpg/sg41_6_cif.got.tgz:11421.got - 2010.04.14 01:55:53.
