data_PCOD8185245
_publ_section_title
;
Structure prediction by ZEFSAII (Michael W. Deem and Ramdas Pophale) SiO2 
 PCOD8185245
Probable space group: A B A 2
;
_chemical_formula_sum "Si O2"
_cell_formula_units_Z 60
_cell_length_a 10.480307
_cell_length_b 8.572637
_cell_length_c 29.544768
_cell_angle_alpha 90.000000
_cell_angle_beta 90.000000
_cell_angle_gamma 90.000000
_cell_volume 2654.416223
_symmetry_space_group_name_H-M "A B A 2"
_symmetry_group_IT_number 41
_symmetry_cell_setting 'orthorhombic'
loop_
_space_group_symop_operation_xyz
x,y,z
-x,-y,z
1/2-x,y,1/2+z
1/2+x,-y,1/2+z
x,1/2+y,1/2+z
-x,1/2-y,1/2+z
1/2-x,1/2+y,z
1/2+x,1/2-y,z
loop_
_atom_site_type_symbol
_atom_site_label
_atom_site_fract_x
_atom_site_fract_y
_atom_site_fract_z
Si Si1 0.350791 0.842310 0.753240
Si Si2 0.585424 0.702606 0.036591
Si Si3 0.644240 0.617204 0.881856
Si Si4 0.107504 0.683885 0.716803
Si Si5 0.124966 0.207244 0.851018
Si Si6 0.103046 0.703889 0.611655
Si Si7 0.500000 0.500000 0.962316
Si Si8 0.806348 0.001601 0.565834
O O1 0.222179 0.799550 0.726993
O O2 0.473002 0.746639 0.734443
O O3 0.344324 0.802932 0.805911
O O4 0.367557 0.024708 0.743838
O O5 0.520952 0.647037 0.083902
O O6 0.717483 0.605694 0.032829
O O7 0.603450 0.890322 0.034665
O O8 0.491864 0.652579 0.995093
O O9 0.771987 0.719075 0.886106
O O10 0.521115 0.726509 0.868920
O O11 0.655509 0.477248 0.844726
O O12 0.621967 0.526213 0.929589
O O13 0.085536 0.663159 0.663708
O O14 0.114975 0.888383 0.600074
O O15 0.231759 0.620782 0.596637
#
# Coordination Sequence:
#
# PCOD8185245 Si02
#       8
#     8   8   8   8   8   8   4   8
#     4  11  24  42  64  97 130 180 226 289 341 413
#     4  11  22  41  65  91 134 173 225 281 336 415
#     4  10  24  42  73 100 140 177 226 293 353 435
#     4  11  26  39  64  96 136 173 236 285 336 401
#     4  10  21  44  68  98 136 180 228 279 367 424
#     4  11  22  41  59  90 133 176 226 279 340 401
#     4  10  22  42  66 100 128 168 224 286 348 396
#     4  10  23  37  66  89 118 192 219 273 344 404
#
# _framework density 22.603840000000002
#
# number of rings (size 3 to 8) (size 9 to 14) (size 15 to 20)
#    0.000    1.600    1.333    2.800    7.467    5.333 
#    2.400    0.000    5.867    0.000    0.000    0.000 
#    0.000    0.000    0.000    0.000    0.000    0.000 
#
# Total GULP energy -371782.918701 kJ/mol
# GULP energy per Si atom -12392.763957 kJ/mol
# Density = 2.255239 g / cm^3
# Si number density = 22.603840 Si / 1000 Ang^3
#
#
#
# Elastic Constant Matrix: (Units=GPa)
#
#
# Indices 1 2 3 4 5 6 
#
# 1 95.2857 30.3204 23.7201 0.0000 0.0000 0.0000
# 2 30.3204 108.6393 34.2605 0.0000 0.0000 0.0000
# 3 23.7201 34.2605 117.2535 0.0000 0.0000 0.0000
# 4 0.0000 0.0000 0.0000 28.3269 0.0000 0.0000
# 5 0.0000 0.0000 0.0000 0.0000 26.3723 0.0000
# 6 0.0000 0.0000 0.0000 0.0000 0.0000 53.4454
#
#
#
# Elastic Compliance Matrix: (Units=1/GPa)
#
#
# Indices 1 2 3 4 5 6 
#
# 1 0.011773 -0.002792 -0.001566 0.000000 0.000000 0.000000
# 2 -0.002792 0.010801 -0.002591 0.000000 0.000000 0.000000
# 3 -0.001566 -0.002591 0.009602 0.000000 0.000000 0.000000
# 4 0.000000 0.000000 0.000000 0.035302 0.000000 0.000000
# 5 0.000000 0.000000 0.000000 0.000000 0.037919 0.000000
# 6 0.000000 0.000000 0.000000 0.000000 0.000000 0.018711
#
#
# Mechanical properties :
#
#
# Convention : Reuss Voigt Hill
#
# Bulk Modulus (GPa) = 54.70899 55.30895 55.00897
# Shear Modulus (GPa) = 34.69842 37.15408 35.92625
#
# Velocity S-wave (km/s) = 3.92224 4.05866 3.99104
# Velocity P-wave (km/s) = 6.69089 6.81804 6.75476
#
# Compressibility (1/GPa) = 0.01827853
#
# Stress axis : x y z
#
# Youngs Moduli (GPa) = 84.94033 92.58277 104.14029
#
# Poissons Ratio (x) = 0.25849 0.16307
# Poissons Ratio (y) = 0.23715 0.26985
# Poissons Ratio (z) = 0.13301 0.23990
#
# Static dielectric constant tensor:
#      x y z
#    x 4.426280 0.000000 0.000000 
#    y 0.000000 4.251230 0.000000 
#    z 0.000000 0.000000 3.904590 
# 
# 
# High freq. dielectric constant tensor:
#      x y z
#    x 1.901400 0.000000 0.000000 
#    y 0.000000 1.892040 0.000000 
#    z 0.000000 0.000000 1.871060 
# 
# From -- ./inp_files/12524.got.cif
#   From: 2010.03.12/outbox.cif.g09.slc.cpg/sg41_7_cif.got.tgz:12524.got - 2010.04.14 01:55:53.
