data_PCOD8185304
_publ_section_title
;
Structure prediction by ZEFSAII (Michael W. Deem and Ramdas Pophale) SiO2 
 PCOD8185304
Probable space group: A B A 2
;
_chemical_formula_sum "Si O2"
_cell_formula_units_Z 28
_cell_length_a 13.461847
_cell_length_b 11.900292
_cell_length_c 8.537761
_cell_angle_alpha 90.000000
_cell_angle_beta 90.000000
_cell_angle_gamma 90.000000
_cell_volume 1367.748545
_symmetry_space_group_name_H-M "A B A 2"
_symmetry_group_IT_number 41
_symmetry_cell_setting 'orthorhombic'
loop_
_space_group_symop_operation_xyz
x,y,z
-x,-y,z
1/2-x,y,1/2+z
1/2+x,-y,1/2+z
x,1/2+y,1/2+z
-x,1/2-y,1/2+z
1/2-x,1/2+y,z
1/2+x,1/2-y,z
loop_
_atom_site_type_symbol
_atom_site_label
_atom_site_fract_x
_atom_site_fract_y
_atom_site_fract_z
Si Si1 0.944983 0.857046 0.004090
Si Si2 0.642591 0.070675 0.647054
Si Si3 0.652852 0.615395 0.503803
Si Si4 0.500000 0.000000 0.220079
O O1 0.898697 0.735443 0.002151
O O2 0.045929 0.855611 0.105437
O O3 0.867720 0.944334 0.081139
O O4 0.969824 0.893996 0.826957
O O5 0.736400 0.130798 0.568196
O O6 0.656165 0.062440 0.832249
O O7 0.593898 0.529723 0.613698
#
# Coordination Sequence:
#
# PCOD8185304 Si02
#       4
#     8   8   8   4
#     4  10  23  43  61  88 125 155 197 252 298 352
#     4  10  23  40  61  91 120 157 204 241 297 365
#     4  12  23  40  65  88 121 162 197 248 300 348
#     4  10  22  40  62  92 120 154 204 244 294 362
#
# _framework density 20.471599000000001
#
# number of rings (size 3 to 8) (size 9 to 14) (size 15 to 20)
#    0.000    1.714    0.000    6.857    0.000    6.857 
#    0.000    2.857    0.000    0.000    0.000    0.000 
#    0.000    0.000    0.000    0.000    0.000    0.000 
#
# Total GULP energy -173670.253012 kJ/mol
# GULP energy per Si atom -12405.018072 kJ/mol
# Density = 2.042500 g / cm^3
# Si number density = 20.471599 Si / 1000 Ang^3
#
#
#
# Elastic Constant Matrix: (Units=GPa)
#
#
# Indices 1 2 3 4 5 6 
#
# 1 117.5862 27.3746 47.5625 0.0000 0.0000 0.0000
# 2 27.3746 39.1414 16.5236 0.0000 0.0000 0.0000
# 3 47.5625 16.5236 164.2435 0.0000 0.0000 0.0000
# 4 0.0000 0.0000 0.0000 20.0540 0.0000 0.0000
# 5 0.0000 0.0000 0.0000 0.0000 40.1949 0.0000
# 6 0.0000 0.0000 0.0000 0.0000 0.0000 25.4288
#
#
#
# Elastic Compliance Matrix: (Units=1/GPa)
#
#
# Indices 1 2 3 4 5 6 
#
# 1 0.011087 -0.006682 -0.002538 0.000000 0.000000 0.000000
# 2 -0.006682 0.030709 -0.001154 0.000000 0.000000 0.000000
# 3 -0.002538 -0.001154 0.006940 0.000000 0.000000 0.000000
# 4 0.000000 0.000000 0.000000 0.049865 0.000000 0.000000
# 5 0.000000 0.000000 0.000000 0.000000 0.024879 0.000000
# 6 0.000000 0.000000 0.000000 0.000000 0.000000 0.039325
#
#
# Mechanical properties :
#
#
# Convention : Reuss Voigt Hill
#
# Bulk Modulus (GPa) = 35.73254 55.98806 45.86030
# Shear Modulus (GPa) = 25.92235 32.43624 29.17930
#
# Velocity S-wave (km/s) = 3.56231 3.98483 3.77948
# Velocity P-wave (km/s) = 5.86623 6.96996 6.44178
#
# Compressibility (1/GPa) = 0.02798569
#
# Stress axis : x y z
#
# Youngs Moduli (GPa) = 90.19743 32.56358 144.09820
#
# Poissons Ratio (x) = 0.21760 0.36576
# Poissons Ratio (y) = 0.60273 0.16634
# Poissons Ratio (z) = 0.22895 0.03759
#
# Static dielectric constant tensor:
#      x y z
#    x 3.930100 0.000000 0.000000 
#    y 0.000000 3.459990 0.000000 
#    z 0.000000 0.000000 3.956100 
# 
# 
# High freq. dielectric constant tensor:
#      x y z
#    x 1.810370 0.000000 0.000000 
#    y 0.000000 1.788410 0.000000 
#    z 0.000000 0.000000 1.821680 
# 
# From -- ./inp_files/1877.got.cif
#   From: 2010.03.12/outbox.cif.g09.slc.cpg/sg41_1_cif.got.tgz:1877.got - 2010.04.14 01:55:53.
