data_PCOD8185541
_publ_section_title
;
Structure prediction by ZEFSAII (Michael W. Deem and Ramdas Pophale) SiO2 
 PCOD8185541
Probable space group: A B A 2
;
_chemical_formula_sum "Si O2"
_cell_formula_units_Z 64
_cell_length_a 8.558046
_cell_length_b 18.134733
_cell_length_c 20.735157
_cell_angle_alpha 90.000000
_cell_angle_beta 90.000000
_cell_angle_gamma 90.000000
_cell_volume 3218.052392
_symmetry_space_group_name_H-M "A B A 2"
_symmetry_group_IT_number 41
_symmetry_cell_setting 'orthorhombic'
loop_
_space_group_symop_operation_xyz
x,y,z
-x,-y,z
1/2-x,y,1/2+z
1/2+x,-y,1/2+z
x,1/2+y,1/2+z
-x,1/2-y,1/2+z
1/2-x,1/2+y,z
1/2+x,1/2-y,z
loop_
_atom_site_type_symbol
_atom_site_label
_atom_site_fract_x
_atom_site_fract_y
_atom_site_fract_z
Si Si1 0.604543 0.186863 0.285370
Si Si2 0.533549 0.655277 0.285708
Si Si3 0.072661 0.923226 0.552938
Si Si4 0.056828 0.683849 0.158385
Si Si5 0.078648 0.154221 0.156016
Si Si6 0.964818 0.654856 0.927054
Si Si7 0.394458 0.312186 0.926883
Si Si8 0.560634 0.078147 0.535647
O O1 0.576730 0.273553 0.285923
O O2 0.786758 0.174489 0.272999
O O3 0.504815 0.151216 0.227073
O O4 0.552207 0.157513 0.356127
O O5 0.468593 0.611322 0.223095
O O6 0.510052 0.617231 0.355999
O O7 0.029508 0.858671 0.601614
O O8 0.000171 0.905012 0.482279
O O9 0.257940 0.928433 0.551391
O O10 0.000000 0.000000 0.576837
O O11 0.020671 0.770404 0.150740
O O12 0.240056 0.672465 0.153230
O O13 0.036225 0.099520 0.098757
O O14 0.789885 0.683250 0.933772
O O15 0.071213 0.726294 0.937453
O O16 0.477881 0.362118 0.980432
O O17 0.500000 0.000000 0.509935
#
# Coordination Sequence:
#
# PCOD8185541 Si02
#       8
#     8   8   8   8   8   8   8   8
#     4   9  16  30  52  80 109 137 171 219 268 316
#     4   9  16  30  52  80 109 137 171 219 268 316
#     4  11  23  39  55  77 108 144 182 224 269 319
#     4  11  21  35  56  83 110 142 180 222 267 317
#     4  11  21  35  56  83 110 142 180 222 267 317
#     4   9  19  34  56  82 108 137 175 219 267 318
#     4   9  19  34  56  82 108 137 175 219 267 318
#     4  11  23  39  55  77 108 144 182 224 269 319
#
# _framework density 19.887803999999999
#
# number of rings (size 3 to 8) (size 9 to 14) (size 15 to 20)
#    0.000    2.000    0.000    6.000    0.000    5.000 
#    0.000    1.250    0.000    3.000    0.000    0.000 
#    0.000    0.000    0.000    0.000    0.000    0.000 
#
# Total GULP energy -396639.484476 kJ/mol
# GULP energy per Si atom -12394.983890 kJ/mol
# Density = 1.984254 g / cm^3
# Si number density = 19.887804 Si / 1000 Ang^3
#
#
#
# Elastic Constant Matrix: (Units=GPa)
#
#
# Indices 1 2 3 4 5 6 
#
# 1 70.3780 4.3057 15.0609 0.0000 0.0000 0.0000
# 2 4.3057 39.4999 12.6193 0.0000 0.0000 0.0000
# 3 15.0609 12.6193 117.5986 0.0000 0.0000 0.0000
# 4 0.0000 0.0000 0.0000 6.0382 0.0000 0.0000
# 5 0.0000 0.0000 0.0000 0.0000 19.9556 0.0000
# 6 0.0000 0.0000 0.0000 0.0000 0.0000 21.6212
#
#
#
# Elastic Compliance Matrix: (Units=1/GPa)
#
#
# Indices 1 2 3 4 5 6 
#
# 1 0.014650 -0.001033 -0.001765 0.000000 0.000000 0.000000
# 2 -0.001033 0.026288 -0.002689 0.000000 0.000000 0.000000
# 3 -0.001765 -0.002689 0.009018 0.000000 0.000000 0.000000
# 4 0.000000 0.000000 0.000000 0.165611 0.000000 0.000000
# 5 0.000000 0.000000 0.000000 0.000000 0.050111 0.000000
# 6 0.000000 0.000000 0.000000 0.000000 0.000000 0.046251
#
#
# Mechanical properties :
#
#
# Convention : Reuss Voigt Hill
#
# Bulk Modulus (GPa) = 25.65270 32.38315 29.01792
# Shear Modulus (GPa) = 14.88551 22.55572 18.72061
#
# Velocity S-wave (km/s) = 2.73879 3.37137 3.07141
# Velocity P-wave (km/s) = 4.78832 5.61009 5.21541
#
# Compressibility (1/GPa) = 0.03898226
#
# Stress axis : x y z
#
# Youngs Moduli (GPa) = 68.25952 38.04006 110.88790
#
# Poissons Ratio (x) = 0.03929 0.19576
# Poissons Ratio (y) = 0.07051 0.29814
# Poissons Ratio (z) = 0.12050 0.10228
#
# Static dielectric constant tensor:
#      x y z
#    x 3.614750 0.000000 0.000000 
#    y 0.000000 3.552940 0.000000 
#    z 0.000000 0.000000 4.522620 
# 
# 
# High freq. dielectric constant tensor:
#      x y z
#    x 1.784820 0.000000 0.000000 
#    y 0.000000 1.725650 0.000000 
#    z 0.000000 0.000000 1.804150 
# 
# From -- ./inp_files/11321.got.cif
#   From: 2010.03.12/outbox.cif.g09.slc.cpg/sg41_6_cif.got.tgz:11321.got - 2010.04.14 01:55:53.
