data_PCOD8185142
_publ_section_title
;
Structure prediction by ZEFSAII (Michael W. Deem and Ramdas Pophale) SiO2 
 PCOD8185142
Probable space group: A B A 2
;
_chemical_formula_sum "Si O2"
_cell_formula_units_Z 56
_cell_length_a 9.103980
_cell_length_b 15.582906
_cell_length_c 19.339369
_cell_angle_alpha 90.000000
_cell_angle_beta 90.000000
_cell_angle_gamma 90.000000
_cell_volume 2743.607907
_symmetry_space_group_name_H-M "A B A 2"
_symmetry_group_IT_number 41
_symmetry_cell_setting 'orthorhombic'
loop_
_space_group_symop_operation_xyz
x,y,z
-x,-y,z
1/2-x,y,1/2+z
1/2+x,-y,1/2+z
x,1/2+y,1/2+z
-x,1/2-y,1/2+z
1/2-x,1/2+y,z
1/2+x,1/2-y,z
loop_
_atom_site_type_symbol
_atom_site_label
_atom_site_fract_x
_atom_site_fract_y
_atom_site_fract_z
Si Si1 0.384911 0.679662 0.352370
Si Si2 0.322899 0.645307 0.507008
Si Si3 0.435008 0.229759 0.567584
Si Si4 0.329543 0.023548 0.761856
Si Si5 0.799599 0.169309 0.142171
Si Si6 0.293402 0.839872 0.803622
Si Si7 0.667020 0.993152 0.122992
O O1 0.356036 0.637105 0.426663
O O2 0.306708 0.612601 0.301389
O O3 0.327949 0.777469 0.339002
O O4 0.558864 0.681781 0.343988
O O5 0.459071 0.696959 0.539311
O O6 0.158532 0.686031 0.506519
O O7 0.314369 0.557736 0.550970
O O8 0.537655 0.165850 0.610426
O O9 0.304459 0.253527 0.619979
O O10 0.257411 0.043924 0.687776
O O11 0.500000 0.000000 0.750568
O O12 0.255196 0.942859 0.804449
O O13 0.815239 0.179209 0.223348
O O14 0.722971 0.087695 0.108820
O O15 0.500000 0.000000 0.147060
#
# Coordination Sequence:
#
# PCOD8185142 Si02
#       7
#     8   8   8   8   8   8   8
#     4  11  23  42  64  92 129 171 205 257 324 392
#     4  11  24  40  62  92 129 169 207 256 324 387
#     4  10  22  39  61  93 123 160 209 264 309 383
#     4   9  23  42  64  94 123 165 215 265 318 378
#     4  10  21  39  64  97 120 160 216 268 322 362
#     4  10  22  39  67  92 123 166 209 265 314 378
#     4  11  23  39  62  92 125 165 211 269 313 374
#
# _framework density 20.411080999999999
#
# number of rings (size 3 to 8) (size 9 to 14) (size 15 to 20)
#    0.000    1.714    1.429    1.714   10.000    4.000 
#    5.143    0.000    3.143    0.000    0.000    0.000 
#    0.000    0.000    0.000    0.000    0.000    0.000 
#
# Total GULP energy -346888.481124 kJ/mol
# GULP energy per Si atom -12388.874326 kJ/mol
# Density = 2.036462 g / cm^3
# Si number density = 20.411081 Si / 1000 Ang^3
#
#
#
# Elastic Constant Matrix: (Units=GPa)
#
#
# Indices 1 2 3 4 5 6 
#
# 1 112.5355 26.0640 35.6125 0.0000 0.0000 0.0000
# 2 26.0640 70.9814 24.6540 0.0000 0.0000 0.0000
# 3 35.6125 24.6540 102.8901 0.0000 0.0000 0.0000
# 4 0.0000 0.0000 0.0000 26.7466 0.0000 0.0000
# 5 0.0000 0.0000 0.0000 0.0000 26.6979 0.0000
# 6 0.0000 0.0000 0.0000 0.0000 0.0000 205.7283
#
#
#
# Elastic Compliance Matrix: (Units=1/GPa)
#
#
# Indices 1 2 3 4 5 6 
#
# 1 0.010473 -0.002821 -0.002949 0.000000 0.000000 0.000000
# 2 -0.002821 0.016127 -0.002888 0.000000 0.000000 0.000000
# 3 -0.002949 -0.002888 0.011432 0.000000 0.000000 0.000000
# 4 0.000000 0.000000 0.000000 0.037388 0.000000 0.000000
# 5 0.000000 0.000000 0.000000 0.000000 0.037456 0.000000
# 6 0.000000 0.000000 0.000000 0.000000 0.000000 0.004861
#
#
# Mechanical properties :
#
#
# Convention : Reuss Voigt Hill
#
# Bulk Modulus (GPa) = 48.27238 51.00755 49.63996
# Shear Modulus (GPa) = 35.22178 65.17298 50.19738
#
# Velocity S-wave (km/s) = 4.15857 5.65681 4.96453
# Velocity P-wave (km/s) = 6.83810 8.22863 7.56538
#
# Compressibility (1/GPa) = 0.02071578
#
# Stress axis : x y z
#
# Youngs Moduli (GPa) = 95.48651 62.00705 87.47592
#
# Poissons Ratio (x) = 0.17494 0.25795
# Poissons Ratio (y) = 0.26940 0.25261
# Poissons Ratio (z) = 0.28157 0.17906
#
# Static dielectric constant tensor:
#      x y z
#    x 3.836690 0.000000 0.000000 
#    y 0.000000 4.011980 0.000000 
#    z 0.000000 0.000000 3.626560 
# 
# 
# High freq. dielectric constant tensor:
#      x y z
#    x 1.807900 0.000000 0.000000 
#    y 0.000000 1.799040 0.000000 
#    z 0.000000 0.000000 1.791080 
# 
# From -- ./inp_files/11214.got.cif
#   From: 2010.03.12/outbox.cif.g09.slc.cpg/sg41_6_cif.got.tgz:11214.got - 2010.04.14 01:55:53.
