data_PCOD8185834
_publ_section_title
;
Structure prediction by ZEFSAII (Michael W. Deem and Ramdas Pophale) SiO2 
 PCOD8185834
Probable space group: F M M 2
;
_chemical_formula_sum "Si O2"
_cell_formula_units_Z 96
_cell_length_a 20.395608
_cell_length_b 23.600148
_cell_length_c 10.780783
_cell_angle_alpha 90.000000
_cell_angle_beta 90.000000
_cell_angle_gamma 90.000000
_cell_volume 5189.215269
_symmetry_space_group_name_H-M "F M M 2"
_symmetry_group_IT_number 42
_symmetry_cell_setting 'orthorhombic'
loop_
_space_group_symop_operation_xyz
x,y,z
-x,-y,z
-x,y,z
x,-y,z
x,1/2+y,1/2+z
-x,1/2-y,1/2+z
-x,1/2+y,1/2+z
x,1/2-y,1/2+z
1/2+x,y,1/2+z
1/2-x,-y,1/2+z
1/2-x,y,1/2+z
1/2+x,-y,1/2+z
1/2+x,1/2+y,z
1/2-x,1/2-y,z
1/2-x,1/2+y,z
1/2+x,1/2-y,z
loop_
_atom_site_type_symbol
_atom_site_label
_atom_site_fract_x
_atom_site_fract_y
_atom_site_fract_z
Si Si1 0.572892 0.647676 0.511200
Si Si2 0.312657 0.220219 0.679083
Si Si3 0.243613 0.391973 0.246999
Si Si4 0.193001 0.935622 0.488880
Si Si5 0.120217 0.324981 0.274855
Si Si6 0.428172 0.728199 0.997142
O O1 0.500000 0.622800 0.483379
O O2 0.627801 0.602310 0.476428
O O3 0.576648 0.666149 0.654279
O O4 0.583931 0.707992 0.441879
O O5 0.250000 0.250000 0.609906
O O6 0.291830 0.161923 0.744122
O O7 0.337224 0.266847 0.776999
O O8 0.370908 0.206864 0.585682
O O9 0.269359 0.432733 0.356573
O O10 0.170206 0.376883 0.290068
O O11 0.238698 0.418133 0.107059
O O12 0.170619 0.000000 0.509691
O O13 0.070597 0.318499 0.388357
O O14 0.500000 0.726009 0.062179
#
# Coordination Sequence:
#
# PCOD8185834 Si02
#       6
#    16  16  16  16  16  16
#     4   9  19  33  48  70 100 133 169 205 243 293
#     4   9  18  30  48  73 101 133 166 201 247 305
#     4  10  20  35  54  76 102 130 165 209 254 300
#     4  11  22  36  54  74  97 129 171 217 257 291
#     4   9  17  29  49  74 101 133 165 199 243 302
#     4  10  18  29  48  75 107 137 164 199 248 305
#
# _framework density 18.499908000000001
#
# number of rings (size 3 to 8) (size 9 to 14) (size 15 to 20)
#    0.000    2.333    0.000    4.000    0.000    3.000 
#    0.000    0.833    0.000    0.000    0.000    0.000 
#    0.000    8.000    0.000    0.000    0.000    0.000 
#
# Total GULP energy -297318.500055 kJ/mol
# GULP energy per Si atom -12388.270836 kJ/mol
# Density = 1.845780 g / cm^3
# Si number density = 18.499908 Si / 1000 Ang^3
#
#
#
# Elastic Constant Matrix: (Units=GPa)
#
#
# Indices 1 2 3 4 5 6 
#
# 1 90.8385 18.6893 31.4871 0.0000 0.0000 0.0000
# 2 18.6893 60.2151 17.9573 0.0000 0.0000 0.0000
# 3 31.4871 17.9573 74.1627 0.0000 0.0000 0.0000
# 4 0.0000 0.0000 0.0000 19.4923 0.0000 0.0000
# 5 0.0000 0.0000 0.0000 0.0000 16.9827 0.0000
# 6 0.0000 0.0000 0.0000 0.0000 0.0000 11.6986
#
#
#
# Elastic Compliance Matrix: (Units=1/GPa)
#
#
# Indices 1 2 3 4 5 6 
#
# 1 0.013284 -0.002631 -0.005003 0.000000 0.000000 0.000000
# 2 -0.002631 0.018421 -0.003343 0.000000 0.000000 0.000000
# 3 -0.005003 -0.003343 0.016417 0.000000 0.000000 0.000000
# 4 0.000000 0.000000 0.000000 0.051302 0.000000 0.000000
# 5 0.000000 0.000000 0.000000 0.000000 0.058884 0.000000
# 6 0.000000 0.000000 0.000000 0.000000 0.000000 0.085480
#
#
# Mechanical properties :
#
#
# Convention : Reuss Voigt Hill
#
# Bulk Modulus (GPa) = 38.21484 40.16485 39.18984
# Shear Modulus (GPa) = 18.21722 20.10687 19.16204
#
# Velocity S-wave (km/s) = 3.14143 3.30034 3.22186
# Velocity P-wave (km/s) = 5.81891 6.02337 5.92202
#
# Compressibility (1/GPa) = 0.02616785
#
# Stress axis : x y z
#
# Youngs Moduli (GPa) = 75.27844 54.28652 60.91075
#
# Poissons Ratio (x) = 0.14283 0.30473
# Poissons Ratio (y) = 0.19806 0.20364
# Poissons Ratio (z) = 0.37661 0.18149
#
# Static dielectric constant tensor:
#      x y z
#    x 3.425340 0.000000 0.000000 
#    y 0.000000 3.186500 0.000000 
#    z 0.000000 0.000000 3.240630 
# 
# 
# High freq. dielectric constant tensor:
#      x y z
#    x 1.725310 0.000000 0.000000 
#    y 0.000000 1.687280 0.000000 
#    z 0.000000 0.000000 1.704500 
# 
# From -- ./inp_files/8815.got.cif
#   From: 2010.03.12/outbox.cif.g09.slc.cpg/sg42_5_cif.got.tgz:8815.got - 2010.04.14 02:04:31.
