data_PCOD8185272
_publ_section_title
;
Structure prediction by ZEFSAII (Michael W. Deem and Ramdas Pophale) SiO2 
 PCOD8185272
Probable space group: A B A 2
;
_chemical_formula_sum "Si O2"
_cell_formula_units_Z 60
_cell_length_a 30.967878
_cell_length_b 10.344232
_cell_length_c 8.630660
_cell_angle_alpha 90.000000
_cell_angle_beta 90.000000
_cell_angle_gamma 90.000000
_cell_volume 2764.736257
_symmetry_space_group_name_H-M "A B A 2"
_symmetry_group_IT_number 41
_symmetry_cell_setting 'orthorhombic'
loop_
_space_group_symop_operation_xyz
x,y,z
-x,-y,z
1/2-x,y,1/2+z
1/2+x,-y,1/2+z
x,1/2+y,1/2+z
-x,1/2-y,1/2+z
1/2-x,1/2+y,z
1/2+x,1/2-y,z
loop_
_atom_site_type_symbol
_atom_site_label
_atom_site_fract_x
_atom_site_fract_y
_atom_site_fract_z
Si Si1 0.935462 0.073833 0.650420
Si Si2 0.435856 0.951268 0.499721
Si Si3 0.000000 0.000000 0.422210
Si Si4 0.986769 0.330063 0.646378
Si Si5 0.295504 0.160304 0.642388
Si Si6 0.702951 0.839626 0.005896
Si Si7 0.846404 0.099448 0.142772
Si Si8 0.845327 0.602978 0.004597
O O1 0.956459 0.977029 0.524965
O O2 0.971359 0.185382 0.654254
O O3 0.889173 0.125483 0.598700
O O4 0.932039 0.010250 0.819173
O O5 0.474319 0.847219 0.523169
O O6 0.391513 0.886847 0.554459
O O7 0.446143 0.079808 0.597733
O O8 0.995475 0.126857 0.314762
O O9 0.248851 0.124517 0.577501
O O10 0.311587 0.289269 0.558059
O O11 0.326494 0.040213 0.604443
O O12 0.292563 0.186335 0.824314
O O13 0.685228 0.710881 0.084815
O O14 0.671962 0.960178 0.042477
O O15 0.854401 0.118774 0.323847
#
# Coordination Sequence:
#
# PCOD8185272 Si02
#       8
#     8   8   4   8   8   8   8   8
#     4  12  23  38  62  89 120 160 203 250 305 360
#     4  10  22  39  61  89 120 159 206 251 301 359
#     4  10  22  38  60  86 118 160 204 248 302 362
#     4  10  22  41  59  84 123 161 202 253 302 358
#     4  11  24  44  66  92 124 161 203 250 307 367
#     4  11  25  42  65  94 124 159 203 252 306 367
#     4  11  24  43  65  91 127 165 204 254 306 365
#     4  11  25  41  64  95 125 162 207 253 306 366
#
# _framework density 21.701889000000001
#
# number of rings (size 3 to 8) (size 9 to 14) (size 15 to 20)
#    0.000    1.333    0.000    6.400    0.000   11.733 
#    0.000    0.000    0.000    0.000    0.000    0.000 
#    0.000    0.000    0.000    0.000    0.000    0.000 
#
# Total GULP energy -372123.847327 kJ/mol
# GULP energy per Si atom -12404.128244 kJ/mol
# Density = 2.165249 g / cm^3
# Si number density = 21.701889 Si / 1000 Ang^3
#
#
#
# Elastic Constant Matrix: (Units=GPa)
#
#
# Indices 1 2 3 4 5 6 
#
# 1 108.0459 8.1629 43.0381 0.0000 0.0000 0.0000
# 2 8.1629 70.5112 29.4688 0.0000 0.0000 0.0000
# 3 43.0381 29.4688 135.6289 0.0000 0.0000 0.0000
# 4 0.0000 0.0000 0.0000 23.4378 0.0000 0.0000
# 5 0.0000 0.0000 0.0000 0.0000 44.3984 0.0000
# 6 0.0000 0.0000 0.0000 0.0000 0.0000 111.9583
#
#
#
# Elastic Compliance Matrix: (Units=1/GPa)
#
#
# Indices 1 2 3 4 5 6 
#
# 1 0.010597 0.000196 -0.003405 0.000000 0.000000 0.000000
# 2 0.000196 0.015602 -0.003452 0.000000 0.000000 0.000000
# 3 -0.003405 -0.003452 0.009204 0.000000 0.000000 0.000000
# 4 0.000000 0.000000 0.000000 0.042666 0.000000 0.000000
# 5 0.000000 0.000000 0.000000 0.000000 0.022523 0.000000
# 6 0.000000 0.000000 0.000000 0.000000 0.000000 0.008932
#
#
# Mechanical properties :
#
#
# Convention : Reuss Voigt Hill
#
# Bulk Modulus (GPa) = 45.28886 52.83616 49.06251
# Shear Modulus (GPa) = 38.40045 51.52665 44.96355
#
# Velocity S-wave (km/s) = 4.21105 4.87796 4.55672
# Velocity P-wave (km/s) = 6.67517 7.49167 7.09517
#
# Compressibility (1/GPa) = 0.02208049
#
# Stress axis : x y z
#
# Youngs Moduli (GPa) = 94.36696 64.09339 108.65146
#
# Poissons Ratio (x) = -0.01259 0.36999
# Poissons Ratio (y) = -0.01853 0.37510
# Poissons Ratio (z) = 0.32135 0.22127
#
# Static dielectric constant tensor:
#      x y z
#    x 3.910470 0.000000 0.000000 
#    y 0.000000 3.764270 0.000000 
#    z 0.000000 0.000000 4.144790 
# 
# 
# High freq. dielectric constant tensor:
#      x y z
#    x 1.860340 0.000000 0.000000 
#    y 0.000000 1.847860 0.000000 
#    z 0.000000 0.000000 1.871900 
# 
# From -- ./inp_files/3798.got.cif
#   From: 2010.03.12/outbox.cif.g09.slc.cpg/sg41_2_cif.got.tgz:3798.got - 2010.04.14 01:55:53.
