data_PCOD8185223
_publ_section_title
;
Structure prediction by ZEFSAII (Michael W. Deem and Ramdas Pophale) SiO2 
 PCOD8185223
Probable space group: A B A 2
;
_chemical_formula_sum "Si O2"
_cell_formula_units_Z 36
_cell_length_a 12.760735
_cell_length_b 5.137246
_cell_length_c 23.088845
_cell_angle_alpha 90.000000
_cell_angle_beta 90.000000
_cell_angle_gamma 90.000000
_cell_volume 1513.590038
_symmetry_space_group_name_H-M "A B A 2"
_symmetry_group_IT_number 41
_symmetry_cell_setting 'orthorhombic'
loop_
_space_group_symop_operation_xyz
x,y,z
-x,-y,z
1/2-x,y,1/2+z
1/2+x,-y,1/2+z
x,1/2+y,1/2+z
-x,1/2-y,1/2+z
1/2-x,1/2+y,z
1/2+x,1/2-y,z
loop_
_atom_site_type_symbol
_atom_site_label
_atom_site_fract_x
_atom_site_fract_y
_atom_site_fract_z
Si Si1 0.819265 0.346151 0.821810
Si Si2 0.434121 0.242804 0.578259
Si Si3 0.000000 0.000000 0.399391
Si Si4 0.815051 0.363501 0.689842
Si Si5 0.184363 0.788501 0.468496
O O1 0.762068 0.617820 0.836370
O O2 0.856552 0.329871 0.755103
O O3 0.924468 0.322332 0.859565
O O4 0.500000 0.500000 0.572121
O O5 0.407332 0.195958 0.645271
O O6 0.331064 0.274451 0.538085
O O7 0.500000 0.000000 0.554073
O O8 0.930371 0.192292 0.439196
O O9 0.778148 0.658104 0.678632
O O10 0.246396 0.533888 0.448117
#
# Coordination Sequence:
#
# PCOD8185223 Si02
#       5
#     8   8   4   8   8
#     4  10  24  45  68 102 137 179 230 281 343 407
#     4  12  24  42  69 104 137 180 232 283 346 413
#     4  12  26  46  74 102 138 188 232 290 334 414
#     4  10  21  42  67  96 137 178 222 280 345 408
#     4  12  27  46  71 102 140 183 232 289 348 411
#
# _framework density 23.784513
#
# number of rings (size 3 to 8) (size 9 to 14) (size 15 to 20)
#    0.000    0.889    1.111    5.333    1.556    2.667 
#    0.000    0.000    0.000    0.000    0.000    0.000 
#    0.000    0.000    0.000    0.000    0.000    0.000 
#
# Total GULP energy -223312.726564 kJ/mol
# GULP energy per Si atom -12406.262587 kJ/mol
# Density = 2.373038 g / cm^3
# Si number density = 23.784513 Si / 1000 Ang^3
#
#
#
# Elastic Constant Matrix: (Units=GPa)
#
#
# Indices 1 2 3 4 5 6 
#
# 1 113.4368 43.1099 62.4374 0.0000 0.0000 0.0000
# 2 43.1099 147.3249 36.0152 0.0000 0.0000 0.0000
# 3 62.4374 36.0152 111.4909 0.0000 0.0000 0.0000
# 4 0.0000 0.0000 0.0000 34.9870 0.0000 0.0000
# 5 0.0000 0.0000 0.0000 0.0000 66.2854 0.0000
# 6 0.0000 0.0000 0.0000 0.0000 0.0000 26.5558
#
#
#
# Elastic Compliance Matrix: (Units=1/GPa)
#
#
# Indices 1 2 3 4 5 6 
#
# 1 0.013406 -0.002267 -0.006776 0.000000 0.000000 0.000000
# 2 -0.002267 0.007753 -0.001235 0.000000 0.000000 0.000000
# 3 -0.006776 -0.001235 0.013163 0.000000 0.000000 0.000000
# 4 0.000000 0.000000 0.000000 0.028582 0.000000 0.000000
# 5 0.000000 0.000000 0.000000 0.000000 0.015086 0.000000
# 6 0.000000 0.000000 0.000000 0.000000 0.000000 0.037657
#
#
# Mechanical properties :
#
#
# Convention : Reuss Voigt Hill
#
# Bulk Modulus (GPa) = 72.63542 72.81972 72.72757
# Shear Modulus (GPa) = 35.51373 40.94498 38.22935
#
# Velocity S-wave (km/s) = 3.86832 4.15359 4.01349
# Velocity P-wave (km/s) = 7.11035 7.32708 7.21953
#
# Compressibility (1/GPa) = 0.01376739
#
# Stress axis : x y z
#
# Youngs Moduli (GPa) = 74.59201 128.98419 75.97152
#
# Poissons Ratio (x) = 0.29235 0.51476
# Poissons Ratio (y) = 0.16907 0.09383
# Poissons Ratio (z) = 0.50541 0.15931
#
# Static dielectric constant tensor:
#      x y z
#    x 3.998700 0.000000 0.000000 
#    y 0.000000 4.291450 0.000000 
#    z 0.000000 0.000000 4.724030 
# 
# 
# High freq. dielectric constant tensor:
#      x y z
#    x 1.927310 0.000000 0.000000 
#    y 0.000000 1.948360 0.000000 
#    z 0.000000 0.000000 1.973250 
# 
# From -- ./inp_files/12081.got.cif
#   From: 2010.03.12/outbox.cif.g09.slc.cpg/sg41_7_cif.got.tgz:12081.got - 2010.04.14 01:55:53.
