data_PCOD8185668
_publ_section_title
;
Structure prediction by ZEFSAII (Michael W. Deem and Ramdas Pophale) SiO2 
 PCOD8185668
Probable space group: A B A 2
;
_chemical_formula_sum "Si O2"
_cell_formula_units_Z 64
_cell_length_a 19.546952
_cell_length_b 16.506271
_cell_length_c 8.311341
_cell_angle_alpha 90.000000
_cell_angle_beta 90.000000
_cell_angle_gamma 90.000000
_cell_volume 2681.631624
_symmetry_space_group_name_H-M "A B A 2"
_symmetry_group_IT_number 41
_symmetry_cell_setting 'orthorhombic'
loop_
_space_group_symop_operation_xyz
x,y,z
-x,-y,z
1/2-x,y,1/2+z
1/2+x,-y,1/2+z
x,1/2+y,1/2+z
-x,1/2-y,1/2+z
1/2-x,1/2+y,z
1/2+x,1/2-y,z
loop_
_atom_site_type_symbol
_atom_site_label
_atom_site_fract_x
_atom_site_fract_y
_atom_site_fract_z
Si Si1 0.815213 0.703495 0.294820
Si Si2 0.075031 0.016893 0.451963
Si Si3 0.455301 0.821074 0.400326
Si Si4 0.719531 0.297527 0.586415
Si Si5 0.568602 0.320553 0.631336
Si Si6 0.299825 0.961917 0.134811
Si Si7 0.295554 0.553473 0.938182
Si Si8 0.576285 0.517461 0.076182
O O1 0.897425 0.710264 0.276285
O O2 0.782864 0.778379 0.199727
O O3 0.793211 0.718075 0.478126
O O4 0.786467 0.618207 0.235486
O O5 0.081788 0.111590 0.492905
O O6 0.126165 0.960057 0.551640
O O7 0.085518 0.989787 0.267728
O O8 0.000000 0.000000 0.516404
O O9 0.469097 0.753619 0.538346
O O10 0.523112 0.841051 0.291530
O O11 0.416017 0.894466 0.494438
O O12 0.647769 0.306687 0.687270
O O13 0.745483 0.372854 0.478873
O O14 0.296323 0.043337 0.245942
O O15 0.239021 0.971275 0.007698
O O16 0.373656 0.551050 0.001417
O O17 0.500000 0.500000 0.023485
#
# Coordination Sequence:
#
# PCOD8185668 Si02
#       8
#     8   8   8   8   8   8   8   8
#     4  11  25  46  68 109 145 191 247 312 369 450
#     4  11  26  48  76 107 148 192 255 314 377 454
#     4  11  27  50  75 111 155 199 258 313 391 464
#     4  11  26  46  72 108 155 193 252 311 378 459
#     4  11  27  49  77 113 153 204 253 317 393 466
#     4  12  24  45  72 106 144 198 243 312 369 460
#     4  12  25  43  74 105 145 196 247 303 382 440
#     4  11  28  47  75 109 149 193 257 316 377 454
#
# _framework density 23.866067000000001
#
# number of rings (size 3 to 8) (size 9 to 14) (size 15 to 20)
#    0.000    0.750    2.500    3.000   10.500    1.000 
#    0.000    0.000    0.000    0.000    0.000    0.000 
#    0.000    0.000    0.000    0.000    0.000    0.000 
#
# Total GULP energy -396440.174457 kJ/mol
# GULP energy per Si atom -12388.755452 kJ/mol
# Density = 2.381175 g / cm^3
# Si number density = 23.866067 Si / 1000 Ang^3
#
#
#
# Elastic Constant Matrix: (Units=GPa)
#
#
# Indices 1 2 3 4 5 6 
#
# 1 144.5250 23.4287 49.9739 0.0000 0.0000 0.0000
# 2 23.4287 80.8427 34.6481 0.0000 0.0000 0.0000
# 3 49.9739 34.6481 100.0521 0.0000 0.0000 0.0000
# 4 0.0000 0.0000 0.0000 -81.7277 0.0000 0.0000
# 5 0.0000 0.0000 0.0000 0.0000 38.8765 0.0000
# 6 0.0000 0.0000 0.0000 0.0000 0.0000 36.1819
#
#
#
# Elastic Compliance Matrix: (Units=1/GPa)
#
#
# Indices 1 2 3 4 5 6 
#
# 1 0.008402 -0.000747 -0.003938 0.000000 0.000000 0.000000
# 2 -0.000747 0.014592 -0.004680 0.000000 0.000000 0.000000
# 3 -0.003938 -0.004680 0.013582 0.000000 0.000000 0.000000
# 4 0.000000 0.000000 0.000000 -0.012236 0.000000 0.000000
# 5 0.000000 0.000000 0.000000 0.000000 0.025722 0.000000
# 6 0.000000 0.000000 0.000000 0.000000 0.000000 0.027638
#
#
# Mechanical properties :
#
#
# Convention : Reuss Voigt Hill
#
# Bulk Modulus (GPa) = 56.03431 60.16900 58.10165
# Shear Modulus (GPa) = 48.83764 13.15743 30.99753
#
# Velocity S-wave (km/s) = 4.52854 2.35053 3.60781
# Velocity P-wave (km/s) = 7.13254 5.71249 6.46164
#
# Compressibility (1/GPa) = 0.01784621
#
# Stress axis : x y z
#
# Youngs Moduli (GPa) = 119.01961 68.53058 73.62498
#
# Poissons Ratio (x) = 0.05121 0.28992
# Poissons Ratio (y) = 0.08894 0.34456
# Poissons Ratio (z) = 0.46868 0.32072
#
# Static dielectric constant tensor:
#      x y z
#    x 4.482800 0.000000 0.000000 
#    y 0.000000 6.974160 0.000000 
#    z 0.000000 0.000000 4.280400 
# 
# 
# High freq. dielectric constant tensor:
#      x y z
#    x 1.962200 0.000000 0.000000 
#    y 0.000000 1.944570 0.000000 
#    z 0.000000 0.000000 1.948090 
# 
# From -- ./inp_files/3512.got.cif
#   From: 2010.03.12/outbox.cif.g09.slc.cpg/sg41_2_cif.got.tgz:3512.got - 2010.04.14 01:55:53.
