data_PCOD8185614
_publ_section_title
;
Structure prediction by ZEFSAII (Michael W. Deem and Ramdas Pophale) SiO2 
 PCOD8185614
Probable space group: A B A 2
;
_chemical_formula_sum "Si O2"
_cell_formula_units_Z 48
_cell_length_a 8.982925
_cell_length_b 18.517067
_cell_length_c 12.923162
_cell_angle_alpha 90.000000
_cell_angle_beta 90.000000
_cell_angle_gamma 90.000000
_cell_volume 2149.605478
_symmetry_space_group_name_H-M "A B A 2"
_symmetry_group_IT_number 41
_symmetry_cell_setting 'orthorhombic'
loop_
_space_group_symop_operation_xyz
x,y,z
-x,-y,z
1/2-x,y,1/2+z
1/2+x,-y,1/2+z
x,1/2+y,1/2+z
-x,1/2-y,1/2+z
1/2-x,1/2+y,z
1/2+x,1/2-y,z
loop_
_atom_site_type_symbol
_atom_site_label
_atom_site_fract_x
_atom_site_fract_y
_atom_site_fract_z
Si Si1 0.184906 0.593005 0.117560
Si Si2 0.175101 0.736013 0.700587
Si Si3 0.173038 0.492817 0.480756
Si Si4 0.125448 0.366635 0.047095
Si Si5 0.169427 0.980717 0.273549
Si Si6 0.889898 0.673174 0.810210
O O1 0.228868 0.671964 0.152441
O O2 0.264347 0.530978 0.185587
O O3 0.006245 0.590968 0.107855
O O4 0.249748 0.569855 0.006609
O O5 0.161597 0.793695 0.608229
O O6 0.257256 0.769097 0.800882
O O7 0.023882 0.706641 0.745853
O O8 0.237372 0.422702 0.542030
O O9 0.206174 0.484635 0.361284
O O10 0.000000 0.500000 0.505993
O O11 0.074927 0.344596 0.929980
O O12 0.161592 0.896569 0.243542
O O13 0.000000 0.000000 0.308231
#
# Coordination Sequence:
#
# PCOD8185614 Si02
#       6
#     8   8   8   8   8   8
#     4  12  25  43  75 102 143 189 242 305 369 441
#     4  12  26  45  71 105 143 198 243 296 385 443
#     4  11  26  44  71 105 142 191 242 309 373 439
#     4  11  27  49  73 106 152 193 248 314 374 449
#     4  11  23  47  75 103 142 188 246 307 374 445
#     4  11  26  47  71 104 148 192 245 313 368 453
#
# _framework density 22.329678999999999
#
# number of rings (size 3 to 8) (size 9 to 14) (size 15 to 20)
#    0.000    0.667    3.333    4.000    4.667    4.000 
#    3.000    0.000    0.000    0.000    0.000    0.000 
#    0.000    0.000    0.000    0.000    0.000    0.000 
#
# Total GULP energy -297418.088319 kJ/mol
# GULP energy per Si atom -12392.420347 kJ/mol
# Density = 2.227886 g / cm^3
# Si number density = 22.329679 Si / 1000 Ang^3
#
#
#
# Elastic Constant Matrix: (Units=GPa)
#
#
# Indices 1 2 3 4 5 6 
#
# 1 149.7543 74.1124 45.0089 0.0000 0.0000 0.0000
# 2 74.1124 153.9881 55.3958 0.0000 0.0000 0.0000
# 3 45.0089 55.3958 77.7944 0.0000 0.0000 0.0000
# 4 0.0000 0.0000 0.0000 5.6776 0.0000 0.0000
# 5 0.0000 0.0000 0.0000 0.0000 17.0821 0.0000
# 6 0.0000 0.0000 0.0000 0.0000 0.0000 -29.2635
#
#
#
# Elastic Compliance Matrix: (Units=1/GPa)
#
#
# Indices 1 2 3 4 5 6 
#
# 1 0.009236 -0.003392 -0.002929 0.000000 0.000000 0.000000
# 2 -0.003392 0.009976 -0.005141 0.000000 0.000000 0.000000
# 3 -0.002929 -0.005141 0.018210 0.000000 0.000000 0.000000
# 4 0.000000 0.000000 0.000000 0.176130 0.000000 0.000000
# 5 0.000000 0.000000 0.000000 0.000000 0.058541 0.000000
# 6 0.000000 0.000000 0.000000 0.000000 0.000000 -0.034172
#
#
# Mechanical properties :
#
#
# Convention : Reuss Voigt Hill
#
# Bulk Modulus (GPa) = 68.97159 81.17456 75.07308
# Shear Modulus (GPa) = 18.81987 12.50056 15.66021
#
# Velocity S-wave (km/s) = 2.90628 2.36861 2.65111
# Velocity P-wave (km/s) = 6.49745 6.62662 6.56236
#
# Compressibility (1/GPa) = 0.01449872
#
# Stress axis : x y z
#
# Youngs Moduli (GPa) = 108.26748 100.24072 54.91554
#
# Poissons Ratio (x) = 0.34000 0.16082
# Poissons Ratio (y) = 0.36722 0.28234
# Poissons Ratio (z) = 0.31707 0.51537
#
# Static dielectric constant tensor:
#      x y z
#    x 4.029150 0.000000 0.000000 
#    y 0.000000 4.468870 0.000000 
#    z 0.000000 0.000000 4.171700 
# 
# 
# High freq. dielectric constant tensor:
#      x y z
#    x 1.887460 0.000000 0.000000 
#    y 0.000000 1.899510 0.000000 
#    z 0.000000 0.000000 1.884530 
# 
# From -- ./inp_files/7319.got.cif
#   From: 2010.03.12/outbox.cif.g09.slc.cpg/sg41_4_cif.got.tgz:7319.got - 2010.04.14 01:55:53.
