data_PCOD8185106
_publ_section_title
;
Structure prediction by ZEFSAII (Michael W. Deem and Ramdas Pophale) SiO2 
 PCOD8185106
Probable space group: A B A 2
;
_chemical_formula_sum "Si O2"
_cell_formula_units_Z 64
_cell_length_a 14.179448
_cell_length_b 12.512354
_cell_length_c 17.058937
_cell_angle_alpha 90.000000
_cell_angle_beta 90.000000
_cell_angle_gamma 90.000000
_cell_volume 3026.567140
_symmetry_space_group_name_H-M "A B A 2"
_symmetry_group_IT_number 41
_symmetry_cell_setting 'orthorhombic'
loop_
_space_group_symop_operation_xyz
x,y,z
-x,-y,z
1/2-x,y,1/2+z
1/2+x,-y,1/2+z
x,1/2+y,1/2+z
-x,1/2-y,1/2+z
1/2-x,1/2+y,z
1/2+x,1/2-y,z
loop_
_atom_site_type_symbol
_atom_site_label
_atom_site_fract_x
_atom_site_fract_y
_atom_site_fract_z
Si Si1 0.563917 0.400893 0.833250
Si Si2 0.580645 0.200084 0.229892
Si Si3 0.587081 0.430568 0.013224
Si Si4 0.080645 0.299916 0.055377
Si Si5 0.227561 0.458883 0.980679
Si Si6 0.587081 0.430568 0.272045
Si Si7 0.772439 0.541117 0.304591
Si Si8 0.936083 0.900893 0.452019
O O1 0.500000 0.500000 0.809813
O O2 0.513403 0.305501 0.785342
O O3 0.566756 0.384369 0.926115
O O4 0.668794 0.429590 0.804004
O O5 0.558399 0.156023 0.142635
O O6 0.605652 0.325221 0.221151
O O7 0.671758 0.137296 0.263144
O O8 0.500000 0.500000 0.044809
O O9 0.674671 0.511819 0.022192
O O10 0.605652 0.325221 0.064119
O O11 0.171758 0.362704 0.022126
O O12 0.986597 0.305501 0.999928
O O13 0.250000 0.419509 0.892635
O O14 0.168794 0.570410 0.981266
O O15 0.500000 0.500000 0.240460
O O16 0.674671 0.511819 0.263077
O O17 0.566756 0.384369 0.359154
O O18 0.000000 0.000000 0.475456
#
# Coordination Sequence:
#
# PCOD8185106 Si02
#       8
#     8   8   8   8   8   8   8   8
#     4   8  17  36  60  84 111 149 197 241 282 341
#     4  11  23  37  59  90 120 153 192 243 303 347
#     4  10  21  38  59  84 117 156 198 239 284 348
#     4  11  23  37  59  90 120 153 192 243 303 347
#     4   9  20  38  60  85 113 152 199 241 284 344
#     4  10  21  38  59  84 117 156 198 239 284 348
#     4   9  20  38  60  85 113 152 199 241 284 344
#     4   8  17  36  60  84 111 149 197 241 282 341
#
# _framework density 21.146070000000002
#
# number of rings (size 3 to 8) (size 9 to 14) (size 15 to 20)
#    0.000    2.500    0.000    2.250    0.000   11.000 
#    0.000    2.500    0.000    0.000    0.000    0.000 
#    0.000    0.000    0.000    0.000    0.000    0.000 
#
# Total GULP energy -396556.726976 kJ/mol
# GULP energy per Si atom -12392.397718 kJ/mol
# Density = 2.109794 g / cm^3
# Si number density = 21.146070 Si / 1000 Ang^3
#
#
#
# Elastic Constant Matrix: (Units=GPa)
#
#
# Indices 1 2 3 4 5 6 
#
# 1 136.8858 44.2424 32.3935 0.0000 0.0000 0.0000
# 2 44.2424 100.5681 25.5432 0.0000 0.0000 0.0000
# 3 32.3935 25.5432 86.2284 0.0000 0.0000 0.0000
# 4 0.0000 0.0000 0.0000 10.3052 0.0000 0.0000
# 5 0.0000 0.0000 0.0000 0.0000 15.3333 0.0000
# 6 0.0000 0.0000 0.0000 0.0000 0.0000 27.3088
#
#
#
# Elastic Compliance Matrix: (Units=1/GPa)
#
#
# Indices 1 2 3 4 5 6 
#
# 1 0.008944 -0.003332 -0.002373 0.000000 0.000000 0.000000
# 2 -0.003332 0.011994 -0.002301 0.000000 0.000000 0.000000
# 3 -0.002373 -0.002301 0.013170 0.000000 0.000000 0.000000
# 4 0.000000 0.000000 0.000000 0.097039 0.000000 0.000000
# 5 0.000000 0.000000 0.000000 0.000000 0.065217 0.000000
# 6 0.000000 0.000000 0.000000 0.000000 0.000000 0.036618
#
#
# Mechanical properties :
#
#
# Convention : Reuss Voigt Hill
#
# Bulk Modulus (GPa) = 55.26154 58.67118 56.96636
# Shear Modulus (GPa) = 19.60585 25.35633 22.48109
#
# Velocity S-wave (km/s) = 3.04824 3.46656 3.26411
# Velocity P-wave (km/s) = 6.21120 6.62032 6.41902
#
# Compressibility (1/GPa) = 0.01809577
#
# Stress axis : x y z
#
# Youngs Moduli (GPa) = 111.80934 83.37665 75.92885
#
# Poissons Ratio (x) = 0.27780 0.18017
# Poissons Ratio (y) = 0.37254 0.17473
# Poissons Ratio (z) = 0.26532 0.19186
#
# Static dielectric constant tensor:
#      x y z
#    x 4.191150 0.000000 0.000000 
#    y 0.000000 3.593730 0.000000 
#    z 0.000000 0.000000 3.604700 
# 
# 
# High freq. dielectric constant tensor:
#      x y z
#    x 1.834410 0.000000 0.000000 
#    y 0.000000 1.812870 0.000000 
#    z 0.000000 0.000000 1.811240 
# 
# From -- ./inp_files/10433.got.cif
#   From: 2010.03.12/outbox.cif.g09.slc.cpg/sg41_6_cif.got.tgz:10433.got - 2010.04.14 01:55:53.
