data_PCOD8185075
_publ_section_title
;
Structure prediction by ZEFSAII (Michael W. Deem and Ramdas Pophale) SiO2 
 PCOD8185075
Probable space group: A B A 2
;
_chemical_formula_sum "Si O2"
_cell_formula_units_Z 56
_cell_length_a 5.239550
_cell_length_b 13.474742
_cell_length_c 34.574847
_cell_angle_alpha 90.000000
_cell_angle_beta 90.000000
_cell_angle_gamma 90.000000
_cell_volume 2441.038980
_symmetry_space_group_name_H-M "A B A 2"
_symmetry_group_IT_number 41
_symmetry_cell_setting 'orthorhombic'
loop_
_space_group_symop_operation_xyz
x,y,z
-x,-y,z
1/2-x,y,1/2+z
1/2+x,-y,1/2+z
x,1/2+y,1/2+z
-x,1/2-y,1/2+z
1/2-x,1/2+y,z
1/2+x,1/2-y,z
loop_
_atom_site_type_symbol
_atom_site_label
_atom_site_fract_x
_atom_site_fract_y
_atom_site_fract_z
Si Si1 0.969360 0.685232 0.894670
Si Si2 0.403612 0.148146 0.688848
Si Si3 0.409221 0.310247 0.480511
Si Si4 0.500000 0.000000 0.290449
Si Si5 0.902186 0.632696 0.220929
Si Si6 0.500000 0.000000 0.840218
Si Si7 0.493375 0.388130 0.561377
Si Si8 0.507647 0.381167 0.102568
O O1 0.742618 0.763666 0.887564
O O2 0.952542 0.641180 0.938347
O O3 0.933623 0.594657 0.865939
O O4 0.373467 0.249176 0.714169
O O5 0.638778 0.083967 0.705622
O O6 0.454023 0.170794 0.643992
O O7 0.138202 0.089631 0.695459
O O8 0.613781 0.221253 0.484497
O O9 0.465543 0.386126 0.515052
O O10 0.446238 0.900974 0.265066
O O11 0.749981 0.976081 0.315277
O O12 0.500000 0.500000 0.575256
O O13 0.762476 0.341925 0.575098
O O14 0.251211 0.338624 0.583117
O O15 0.500000 0.500000 0.107232
#
# Coordination Sequence:
#
# PCOD8185075 Si02
#       8
#     8   8   8   4   8   4   8   8
#     4  10  23  46  72 105 142 183 233 275 331 418
#     4  10  21  42  60  87 117 170 221 256 328 390
#     4  10  21  40  63  93 132 173 216 268 317 391
#     4  12  26  46  68 104 135 160 221 278 352 424
#     4  10  23  41  62  87 120 161 208 270 325 409
#     4  12  26  48  74 110 137 184 217 282 360 410
#     4  10  21  38  57  90 125 170 215 267 332 371
#     4  10  21  36  59  87 125 165 221 281 318 373
#
# _framework density 22.941051999999999
#
# number of rings (size 3 to 8) (size 9 to 14) (size 15 to 20)
#    0.000    1.714    0.000    3.429    3.000    0.000 
#   30.857    0.000    0.000    0.000    0.000    0.000 
#    0.000    0.000    0.000    0.000    0.000    0.000 
#
# Total GULP energy -347039.920469 kJ/mol
# GULP energy per Si atom -12394.282874 kJ/mol
# Density = 2.288884 g / cm^3
# Si number density = 22.941052 Si / 1000 Ang^3
#
#
#
# Elastic Constant Matrix: (Units=GPa)
#
#
# Indices 1 2 3 4 5 6 
#
# 1 200.2314 0.7395 50.5059 0.0000 0.0000 0.0000
# 2 0.7395 51.6682 26.2810 0.0000 0.0000 0.0000
# 3 50.5059 26.2810 145.9271 0.0000 0.0000 0.0000
# 4 0.0000 0.0000 0.0000 18.5566 0.0000 0.0000
# 5 0.0000 0.0000 0.0000 0.0000 40.6755 0.0000
# 6 0.0000 0.0000 0.0000 0.0000 0.0000 4.8206
#
#
#
# Elastic Compliance Matrix: (Units=1/GPa)
#
#
# Indices 1 2 3 4 5 6 
#
# 1 0.005517 0.000982 -0.002086 0.000000 0.000000 0.000000
# 2 0.000982 0.021481 -0.004209 0.000000 0.000000 0.000000
# 3 -0.002086 -0.004209 0.008333 0.000000 0.000000 0.000000
# 4 0.000000 0.000000 0.000000 0.053889 0.000000 0.000000
# 5 0.000000 0.000000 0.000000 0.000000 0.024585 0.000000
# 6 0.000000 0.000000 0.000000 0.000000 0.000000 0.207442
#
#
# Mechanical properties :
#
#
# Convention : Reuss Voigt Hill
#
# Bulk Modulus (GPa) = 40.47731 61.43106 50.95419
# Shear Modulus (GPa) = 14.70124 34.16390 24.43257
#
# Velocity S-wave (km/s) = 2.53420 3.86321 3.26700
# Velocity P-wave (km/s) = 5.12301 6.83631 6.04071
#
# Compressibility (1/GPa) = 0.02470520
#
# Stress axis : x y z
#
# Youngs Moduli (GPa) = 181.26330 46.55293 120.00812
#
# Poissons Ratio (x) = -0.04573 0.25037
# Poissons Ratio (y) = -0.17804 0.50507
# Poissons Ratio (z) = 0.37817 0.19592
#
# Static dielectric constant tensor:
#      x y z
#    x 5.169840 0.000000 0.000000 
#    y 0.000000 3.766070 0.000000 
#    z 0.000000 0.000000 4.113760 
# 
# 
# High freq. dielectric constant tensor:
#      x y z
#    x 1.943710 0.000000 0.000000 
#    y 0.000000 1.888850 0.000000 
#    z 0.000000 0.000000 1.901390 
# 
# From -- ./inp_files/12637.got.cif
#   From: 2010.03.12/outbox.cif.g09.slc.cpg/sg41_7_cif.got.tgz:12637.got - 2010.04.14 01:55:53.
