data_PCOD8185248
_publ_section_title
;
Structure prediction by ZEFSAII (Michael W. Deem and Ramdas Pophale) SiO2 
 PCOD8185248
Probable space group: A B A 2
;
_chemical_formula_sum "Si O2"
_cell_formula_units_Z 48
_cell_length_a 9.650567
_cell_length_b 17.699491
_cell_length_c 12.846585
_cell_angle_alpha 90.000000
_cell_angle_beta 90.000000
_cell_angle_gamma 90.000000
_cell_volume 2194.326774
_symmetry_space_group_name_H-M "A B A 2"
_symmetry_group_IT_number 41
_symmetry_cell_setting 'orthorhombic'
loop_
_space_group_symop_operation_xyz
x,y,z
-x,-y,z
1/2-x,y,1/2+z
1/2+x,-y,1/2+z
x,1/2+y,1/2+z
-x,1/2-y,1/2+z
1/2-x,1/2+y,z
1/2+x,1/2-y,z
loop_
_atom_site_type_symbol
_atom_site_label
_atom_site_fract_x
_atom_site_fract_y
_atom_site_fract_z
Si Si1 0.242092 0.479023 0.205830
Si Si2 0.103295 0.844567 0.155444
Si Si3 0.000000 0.500000 0.847518
Si Si4 0.033719 0.831689 0.386325
Si Si5 0.278454 0.239920 0.989270
Si Si6 0.859250 0.914485 0.044048
Si Si7 0.000000 0.500000 0.358540
O O1 0.257860 0.393304 0.167261
O O2 0.364187 0.509748 0.278537
O O3 0.242941 0.533738 0.102873
O O4 0.107517 0.466839 0.276059
O O5 0.052279 0.814228 0.265401
O O6 0.996026 0.907301 0.113292
O O7 0.130873 0.774376 0.082032
O O8 0.015575 0.421606 0.913752
O O9 0.169849 0.800776 0.445078
O O10 0.892749 0.786425 0.407073
O O11 0.198357 0.168911 0.033233
O O12 0.911029 0.943422 0.931063
#
# Coordination Sequence:
#
# PCOD8185248 Si02
#       7
#     8   8   4   8   8   8   4
#     4  11  23  47  76 106 142 196 242 315 369 436
#     4  11  25  46  70 101 149 188 238 303 367 433
#     4  10  21  44  71  96 142 192 237 300 369 430
#     4  11  26  45  72 102 144 192 245 297 374 439
#     4  12  28  44  72 108 145 196 238 306 374 446
#     4  12  24  49  73 106 151 186 251 309 367 446
#     4  12  27  44  83 112 142 196 257 302 381 444
#
# _framework density 21.874590000000001
#
# number of rings (size 3 to 8) (size 9 to 14) (size 15 to 20)
#    0.000    0.667    6.667    1.000    7.000    2.667 
#    0.000    0.833    0.000    0.000    0.000    0.000 
#    0.000    0.000    0.000    0.000    0.000    0.000 
#
# Total GULP energy -297368.869860 kJ/mol
# GULP energy per Si atom -12390.369577 kJ/mol
# Density = 2.182480 g / cm^3
# Si number density = 21.874590 Si / 1000 Ang^3
#
#
#
# Elastic Constant Matrix: (Units=GPa)
#
#
# Indices 1 2 3 4 5 6 
#
# 1 70.3371 24.7126 27.9721 0.0000 0.0000 0.0000
# 2 24.7126 129.1858 39.9807 0.0000 0.0000 0.0000
# 3 27.9721 39.9807 99.4316 0.0000 0.0000 0.0000
# 4 0.0000 0.0000 0.0000 42.6415 0.0000 0.0000
# 5 0.0000 0.0000 0.0000 0.0000 89.9620 0.0000
# 6 0.0000 0.0000 0.0000 0.0000 0.0000 16.2951
#
#
#
# Elastic Compliance Matrix: (Units=1/GPa)
#
#
# Indices 1 2 3 4 5 6 
#
# 1 0.016430 -0.001956 -0.003836 0.000000 0.000000 0.000000
# 2 -0.001956 0.009074 -0.003098 0.000000 0.000000 0.000000
# 3 -0.003836 -0.003098 0.012382 0.000000 0.000000 0.000000
# 4 0.000000 0.000000 0.000000 0.023451 0.000000 0.000000
# 5 0.000000 0.000000 0.000000 0.000000 0.011116 0.000000
# 6 0.000000 0.000000 0.000000 0.000000 0.000000 0.061368
#
#
# Mechanical properties :
#
#
# Convention : Reuss Voigt Hill
#
# Bulk Modulus (GPa) = 49.73619 53.80947 51.77283
# Shear Modulus (GPa) = 31.58512 43.53233 37.55872
#
# Velocity S-wave (km/s) = 3.80401 4.46588 4.14817
# Velocity P-wave (km/s) = 6.48694 7.15853 6.83099
#
# Compressibility (1/GPa) = 0.02010608
#
# Stress axis : x y z
#
# Youngs Moduli (GPa) = 60.86507 110.20737 80.76250
#
# Poissons Ratio (x) = 0.21555 0.30977
# Poissons Ratio (y) = 0.11905 0.25022
# Poissons Ratio (z) = 0.23345 0.34145
#
# Static dielectric constant tensor:
#      x y z
#    x 4.220430 0.000000 0.000000 
#    y 0.000000 3.930030 0.000000 
#    z 0.000000 0.000000 4.049760 
# 
# 
# High freq. dielectric constant tensor:
#      x y z
#    x 1.865740 0.000000 0.000000 
#    y 0.000000 1.863680 0.000000 
#    z 0.000000 0.000000 1.863440 
# 
# From -- ./inp_files/7333.got.cif
#   From: 2010.03.12/outbox.cif.g09.slc.cpg/sg41_4_cif.got.tgz:7333.got - 2010.04.14 01:55:53.
