data_PCOD8185644
_publ_section_title
;
Structure prediction by ZEFSAII (Michael W. Deem and Ramdas Pophale) SiO2 
 PCOD8185644
Probable space group: A B A 2
;
_chemical_formula_sum "Si O2"
_cell_formula_units_Z 64
_cell_length_a 17.850551
_cell_length_b 11.282773
_cell_length_c 14.838945
_cell_angle_alpha 90.000000
_cell_angle_beta 90.000000
_cell_angle_gamma 90.000000
_cell_volume 2988.618648
_symmetry_space_group_name_H-M "A B A 2"
_symmetry_group_IT_number 41
_symmetry_cell_setting 'orthorhombic'
loop_
_space_group_symop_operation_xyz
x,y,z
-x,-y,z
1/2-x,y,1/2+z
1/2+x,-y,1/2+z
x,1/2+y,1/2+z
-x,1/2-y,1/2+z
1/2-x,1/2+y,z
1/2+x,1/2-y,z
loop_
_atom_site_type_symbol
_atom_site_label
_atom_site_fract_x
_atom_site_fract_y
_atom_site_fract_z
Si Si1 0.940228 0.669657 0.320690
Si Si2 0.669019 0.173784 0.474318
Si Si3 0.676744 0.437289 0.078700
Si Si4 0.912101 0.020095 0.430943
Si Si5 0.425887 0.079420 0.748099
Si Si6 0.827617 0.755375 0.927602
Si Si7 0.397338 0.584266 0.788122
Si Si8 0.159273 0.612834 0.096417
O O1 0.904176 0.709087 0.415742
O O2 0.940410 0.778955 0.250360
O O3 0.889157 0.558544 0.288698
O O4 0.024823 0.625704 0.332349
O O5 0.745633 0.196082 0.418663
O O6 0.666842 0.253168 0.563359
O O7 0.664125 0.038654 0.504811
O O8 0.620418 0.452888 0.160428
O O9 0.759676 0.440566 0.121262
O O10 0.662957 0.315563 0.025235
O O11 0.893468 0.158738 0.419827
O O12 0.882379 0.955035 0.340343
O O13 0.872451 0.970923 0.518905
O O14 0.000000 0.000000 0.441416
O O15 0.500000 0.000000 0.743521
O O16 0.833218 0.851135 0.846509
O O17 0.393225 0.619356 0.683528
#
# Coordination Sequence:
#
# PCOD8185644 Si02
#       8
#     8   8   8   8   8   8   8   8
#     4  11  25  47  68 100 141 183 234 287 349 417
#     4  11  24  47  70  98 144 185 232 288 351 421
#     4  11  26  45  68 105 139 184 236 287 355 417
#     4  11  24  45  70  97 137 186 231 289 349 420
#     4  11  26  45  71 103 138 185 235 285 351 419
#     4  11  25  45  70 103 142 183 234 288 355 423
#     4  11  26  44  70 105 139 182 236 288 357 411
#     4  11  26  43  68 103 139 184 233 289 349 419
#
# _framework density 21.414574999999999
#
# number of rings (size 3 to 8) (size 9 to 14) (size 15 to 20)
#    0.000    1.000    3.750    1.500    8.750    2.000 
#    0.000    0.000    0.000    0.000    0.000    0.000 
#    0.000    0.000    0.000    0.000    0.000    0.000 
#
# Total GULP energy -396865.119565 kJ/mol
# GULP energy per Si atom -12402.034986 kJ/mol
# Density = 2.136583 g / cm^3
# Si number density = 21.414575 Si / 1000 Ang^3
#
#
#
# Elastic Constant Matrix: (Units=GPa)
#
#
# Indices 1 2 3 4 5 6 
#
# 1 93.7803 48.7802 58.5136 0.0000 0.0000 0.0000
# 2 48.7802 139.0681 38.4125 0.0000 0.0000 0.0000
# 3 58.5136 38.4125 129.3635 0.0000 0.0000 0.0000
# 4 0.0000 0.0000 0.0000 15.2463 0.0000 0.0000
# 5 0.0000 0.0000 0.0000 0.0000 29.3580 0.0000
# 6 0.0000 0.0000 0.0000 0.0000 0.0000 35.6325
#
#
#
# Elastic Compliance Matrix: (Units=1/GPa)
#
#
# Indices 1 2 3 4 5 6 
#
# 1 0.016782 -0.004128 -0.006365 0.000000 0.000000 0.000000
# 2 -0.004128 0.008849 -0.000760 0.000000 0.000000 0.000000
# 3 -0.006365 -0.000760 0.010835 0.000000 0.000000 0.000000
# 4 0.000000 0.000000 0.000000 0.065590 0.000000 0.000000
# 5 0.000000 0.000000 0.000000 0.000000 0.034062 0.000000
# 6 0.000000 0.000000 0.000000 0.000000 0.000000 0.028064
#
#
# Mechanical properties :
#
#
# Convention : Reuss Voigt Hill
#
# Bulk Modulus (GPa) = 71.64046 72.62495 72.13271
# Shear Modulus (GPa) = 26.13124 30.48107 28.30615
#
# Velocity S-wave (km/s) = 3.49700 3.77686 3.63962
# Velocity P-wave (km/s) = 7.05918 7.28059 7.17074
#
# Compressibility (1/GPa) = 0.01395859
#
# Stress axis : x y z
#
# Youngs Moduli (GPa) = 59.58752 113.00971 92.29464
#
# Poissons Ratio (x) = 0.46656 0.58745
# Poissons Ratio (y) = 0.24600 0.07016
# Poissons Ratio (z) = 0.37927 0.08590
#
# Static dielectric constant tensor:
#      x y z
#    x 3.785860 0.000000 0.000000 
#    y 0.000000 4.150100 0.000000 
#    z 0.000000 0.000000 3.755500 
# 
# 
# High freq. dielectric constant tensor:
#      x y z
#    x 1.836870 0.000000 0.000000 
#    y 0.000000 1.860770 0.000000 
#    z 0.000000 0.000000 1.834530 
# 
# From -- ./inp_files/8824.got.cif
#   From: 2010.03.12/outbox.cif.g09.slc.cpg/sg41_5_cif.got.tgz:8824.got - 2010.04.14 01:55:53.
