data_PCOD8185357
_publ_section_title
;
Structure prediction by ZEFSAII (Michael W. Deem and Ramdas Pophale) SiO2 
 PCOD8185357
Probable space group: A B A 2
;
_chemical_formula_sum "Si O2"
_cell_formula_units_Z 64
_cell_length_a 17.019687
_cell_length_b 17.669713
_cell_length_c 8.939836
_cell_angle_alpha 90.000000
_cell_angle_beta 90.000000
_cell_angle_gamma 90.000000
_cell_volume 2688.503562
_symmetry_space_group_name_H-M "A B A 2"
_symmetry_group_IT_number 41
_symmetry_cell_setting 'orthorhombic'
loop_
_space_group_symop_operation_xyz
x,y,z
-x,-y,z
1/2-x,y,1/2+z
1/2+x,-y,1/2+z
x,1/2+y,1/2+z
-x,1/2-y,1/2+z
1/2-x,1/2+y,z
1/2+x,1/2-y,z
loop_
_atom_site_type_symbol
_atom_site_label
_atom_site_fract_x
_atom_site_fract_y
_atom_site_fract_z
Si Si1 0.280945 0.439443 0.611540
Si Si2 0.101226 0.355165 0.940182
Si Si3 0.379054 0.590818 0.002871
Si Si4 0.796586 0.893275 0.558150
Si Si5 0.888107 0.790594 0.771330
Si Si6 0.940557 0.201404 0.753187
Si Si7 0.071346 0.130356 0.326365
Si Si8 0.641592 0.076496 0.412728
O O1 0.338474 0.423970 0.468047
O O2 0.286155 0.528519 0.646430
O O3 0.302556 0.404926 0.770920
O O4 0.193287 0.411555 0.563680
O O5 0.105561 0.317003 0.103222
O O6 0.136034 0.293387 0.824706
O O7 0.016382 0.386774 0.888392
O O8 0.289174 0.621816 0.992155
O O9 0.417662 0.589559 0.166704
O O10 0.419138 0.655548 0.905472
O O11 0.391931 0.509011 0.923729
O O12 0.819193 0.825574 0.671188
O O13 0.863042 0.904532 0.433605
O O14 0.971415 0.787041 0.686817
O O15 0.910967 0.280334 0.821166
O O16 0.928293 0.137456 0.885811
#
# Coordination Sequence:
#
# PCOD8185357 Si02
#       8
#     8   8   8   8   8   8   8   8
#     4  10  23  43  64  92 131 169 213 266 336 386
#     4  10  22  43  66  93 131 170 213 275 322 395
#     4  11  23  40  64  97 130 166 218 269 321 389
#     4  11  23  40  66  92 129 171 214 269 324 387
#     4  11  21  42  65  93 125 172 217 265 326 384
#     4  10  22  43  66  92 132 169 215 269 331 387
#     4  11  23  42  67  96 129 171 220 270 323 390
#     4  10  23  43  64  93 131 170 210 271 327 394
#
# _framework density 23.805063000000001
#
# number of rings (size 3 to 8) (size 9 to 14) (size 15 to 20)
#    0.000    1.500    3.750    0.750    5.250    3.000 
#    4.500    1.250    0.000    0.000    0.000    0.000 
#    0.000    0.000    0.000    0.000    0.000    0.000 
#
# Total GULP energy -396487.104891 kJ/mol
# GULP energy per Si atom -12390.222028 kJ/mol
# Density = 2.375088 g / cm^3
# Si number density = 23.805063 Si / 1000 Ang^3
#
#
#
# Elastic Constant Matrix: (Units=GPa)
#
#
# Indices 1 2 3 4 5 6 
#
# 1 52.1964 19.1917 -8.6633 0.0000 0.0000 0.0000
# 2 19.1917 77.9213 7.8459 0.0000 0.0000 0.0000
# 3 -8.6633 7.8459 63.3749 0.0000 0.0000 0.0000
# 4 0.0000 0.0000 0.0000 39.9941 0.0000 0.0000
# 5 0.0000 0.0000 0.0000 0.0000 29.8129 0.0000
# 6 0.0000 0.0000 0.0000 0.0000 0.0000 30.6758
#
#
#
# Elastic Compliance Matrix: (Units=1/GPa)
#
#
# Indices 1 2 3 4 5 6 
#
# 1 0.021893 -0.005765 0.003707 0.000000 0.000000 0.000000
# 2 -0.005765 0.014514 -0.002585 0.000000 0.000000 0.000000
# 3 0.003707 -0.002585 0.016606 0.000000 0.000000 0.000000
# 4 0.000000 0.000000 0.000000 0.025004 0.000000 0.000000
# 5 0.000000 0.000000 0.000000 0.000000 0.033543 0.000000
# 6 0.000000 0.000000 0.000000 0.000000 0.000000 0.032599
#
#
# Mechanical properties :
#
#
# Convention : Reuss Voigt Hill
#
# Bulk Modulus (GPa) = 22.87002 25.58234 24.22618
# Shear Modulus (GPa) = 29.75818 31.77112 30.76465
#
# Velocity S-wave (km/s) = 3.53948 3.65723 3.59884
# Velocity P-wave (km/s) = 5.13147 5.34824 5.24098
#
# Compressibility (1/GPa) = 0.04372537
#
# Stress axis : x y z
#
# Youngs Moduli (GPa) = 45.67573 68.90015 60.21981
#
# Poissons Ratio (x) = 0.39724 -0.22321
# Poissons Ratio (y) = 0.26334 0.15567
# Poissons Ratio (z) = -0.16930 0.17810
#
# Static dielectric constant tensor:
#      x y z
#    x 4.361070 0.000000 0.000000 
#    y 0.000000 4.199970 0.000000 
#    z 0.000000 0.000000 4.178800 
# 
# 
# High freq. dielectric constant tensor:
#      x y z
#    x 1.938210 0.000000 0.000000 
#    y 0.000000 1.935590 0.000000 
#    z 0.000000 0.000000 1.944610 
# 
# From -- ./inp_files/3242.got.cif
#   From: 2010.03.12/outbox.cif.g09.slc.cpg/sg41_2_cif.got.tgz:3242.got - 2010.04.14 01:55:53.
