data_PCOD8185139
_publ_section_title
;
Structure prediction by ZEFSAII (Michael W. Deem and Ramdas Pophale) SiO2 
 PCOD8185139
Probable space group: A B A 2
;
_chemical_formula_sum "Si O2"
_cell_formula_units_Z 48
_cell_length_a 8.692284
_cell_length_b 16.405860
_cell_length_c 17.247211
_cell_angle_alpha 90.000000
_cell_angle_beta 90.000000
_cell_angle_gamma 90.000000
_cell_volume 2459.528079
_symmetry_space_group_name_H-M "A B A 2"
_symmetry_group_IT_number 41
_symmetry_cell_setting 'orthorhombic'
loop_
_space_group_symop_operation_xyz
x,y,z
-x,-y,z
1/2-x,y,1/2+z
1/2+x,-y,1/2+z
x,1/2+y,1/2+z
-x,1/2-y,1/2+z
1/2-x,1/2+y,z
1/2+x,1/2-y,z
loop_
_atom_site_type_symbol
_atom_site_label
_atom_site_fract_x
_atom_site_fract_y
_atom_site_fract_z
Si Si1 0.744707 0.810530 0.864350
Si Si2 0.270819 0.828221 0.658061
Si Si3 0.005647 0.767023 0.757884
Si Si4 0.828929 0.530909 0.555003
Si Si5 0.396966 0.573953 0.473969
Si Si6 0.316569 0.821623 0.994380
O O1 0.881419 0.822236 0.802716
O O2 0.587046 0.791338 0.819953
O O3 0.721247 0.896005 0.907932
O O4 0.785655 0.738624 0.924366
O O5 0.423383 0.788401 0.693310
O O6 0.304876 0.923542 0.637846
O O7 0.222788 0.780668 0.578282
O O8 0.130987 0.825806 0.718849
O O9 0.706125 0.456882 0.546987
O O10 0.791639 0.597305 0.486693
O O11 0.000000 0.500000 0.544991
O O12 0.500000 0.500000 0.441104
O O13 0.504303 0.650373 0.497753
#
# Coordination Sequence:
#
# PCOD8185139 Si02
#       6
#     8   8   8   8   8   8
#     4  11  21  38  67  95 125 170 216 272 322 378
#     4   9  22  39  60  92 128 166 214 262 319 387
#     4  10  22  39  61  96 133 163 211 270 328 382
#     4   9  21  39  64  93 126 161 214 271 315 372
#     4  10  21  39  63  93 129 160 214 275 320 372
#     4   9  21  37  65  93 121 164 230 262 303 378
#
# _framework density 19.515938999999999
#
# number of rings (size 3 to 8) (size 9 to 14) (size 15 to 20)
#    1.000    1.333    1.667    0.000    4.667    1.333 
#    3.000    0.833    3.667    0.000    0.000    0.000 
#    0.000    0.000    0.000    0.000    0.000    0.000 
#
# Total GULP energy -297377.882869 kJ/mol
# GULP energy per Si atom -12390.745120 kJ/mol
# Density = 1.947152 g / cm^3
# Si number density = 19.515939 Si / 1000 Ang^3
#
#
#
# Elastic Constant Matrix: (Units=GPa)
#
#
# Indices 1 2 3 4 5 6 
#
# 1 126.8396 51.9332 37.1434 0.0000 0.0000 0.0000
# 2 51.9332 75.3169 35.6688 0.0000 0.0000 0.0000
# 3 37.1434 35.6688 81.6950 0.0000 0.0000 0.0000
# 4 0.0000 0.0000 0.0000 26.7029 0.0000 0.0000
# 5 0.0000 0.0000 0.0000 0.0000 28.4823 0.0000
# 6 0.0000 0.0000 0.0000 0.0000 0.0000 22.3798
#
#
#
# Elastic Compliance Matrix: (Units=1/GPa)
#
#
# Indices 1 2 3 4 5 6 
#
# 1 0.011287 -0.006747 -0.002186 0.000000 0.000000 0.000000
# 2 -0.006747 0.020772 -0.006001 0.000000 0.000000 0.000000
# 3 -0.002186 -0.006001 0.015855 0.000000 0.000000 0.000000
# 4 0.000000 0.000000 0.000000 0.037449 0.000000 0.000000
# 5 0.000000 0.000000 0.000000 0.000000 0.035109 0.000000
# 6 0.000000 0.000000 0.000000 0.000000 0.000000 0.044683
#
#
# Mechanical properties :
#
#
# Convention : Reuss Voigt Hill
#
# Bulk Modulus (GPa) = 55.41911 59.26027 57.33969
# Shear Modulus (GPa) = 24.87082 26.12007 25.49544
#
# Velocity S-wave (km/s) = 3.57373 3.66238 3.61832
# Velocity P-wave (km/s) = 6.74442 6.95090 6.84844
#
# Compressibility (1/GPa) = 0.01804432
#
# Stress axis : x y z
#
# Youngs Moduli (GPa) = 88.60015 48.14184 63.07297
#
# Poissons Ratio (x) = 0.32483 0.13785
# Poissons Ratio (y) = 0.59782 0.37853
# Poissons Ratio (z) = 0.19364 0.28892
#
# Static dielectric constant tensor:
#      x y z
#    x 3.693800 0.000000 0.000000 
#    y 0.000000 3.324700 0.000000 
#    z 0.000000 0.000000 3.523010 
# 
# 
# High freq. dielectric constant tensor:
#      x y z
#    x 1.779740 0.000000 0.000000 
#    y 0.000000 1.731330 0.000000 
#    z 0.000000 0.000000 1.745850 
# 
# From -- ./inp_files/11137.got.cif
#   From: 2010.03.12/outbox.cif.g09.slc.cpg/sg41_6_cif.got.tgz:11137.got - 2010.04.14 01:55:53.
