data_PCOD8185361
_publ_section_title
;
Structure prediction by ZEFSAII (Michael W. Deem and Ramdas Pophale) SiO2 
 PCOD8185361
Probable space group: A B A 2
;
_chemical_formula_sum "Si O2"
_cell_formula_units_Z 64
_cell_length_a 9.630779
_cell_length_b 14.303690
_cell_length_c 21.448794
_cell_angle_alpha 90.000000
_cell_angle_beta 90.000000
_cell_angle_gamma 90.000000
_cell_volume 2954.693144
_symmetry_space_group_name_H-M "A B A 2"
_symmetry_group_IT_number 41
_symmetry_cell_setting 'orthorhombic'
loop_
_space_group_symop_operation_xyz
x,y,z
-x,-y,z
1/2-x,y,1/2+z
1/2+x,-y,1/2+z
x,1/2+y,1/2+z
-x,1/2-y,1/2+z
1/2-x,1/2+y,z
1/2+x,1/2-y,z
loop_
_atom_site_type_symbol
_atom_site_label
_atom_site_fract_x
_atom_site_fract_y
_atom_site_fract_z
Si Si1 0.131407 0.439860 0.550460
Si Si2 0.140536 0.778706 0.715156
Si Si3 0.582609 0.340010 0.438603
Si Si4 0.708993 0.081900 0.795584
Si Si5 0.873616 0.435647 0.061266
Si Si6 0.387925 0.756428 0.630793
Si Si7 0.262789 0.844742 0.933892
Si Si8 0.893259 0.384563 0.799733
O O1 0.235903 0.511334 0.586390
O O2 0.081639 0.352261 0.592852
O O3 0.213085 0.413514 0.487976
O O4 0.000000 0.500000 0.530540
O O5 0.176239 0.877871 0.747329
O O6 0.231294 0.763450 0.653970
O O7 0.179119 0.704763 0.769251
O O8 0.984751 0.762946 0.690883
O O9 0.631325 0.419368 0.486933
O O10 0.669021 0.245833 0.441625
O O11 0.420783 0.314827 0.447208
O O12 0.611368 0.388518 0.373512
O O13 0.753842 0.107325 0.866159
O O14 0.554194 0.117242 0.778566
O O15 0.701697 0.972113 0.780458
O O16 0.897149 0.331750 0.086269
O O17 0.000000 0.500000 0.082698
#
# Coordination Sequence:
#
# PCOD8185361 Si02
#       8
#     8   8   8   8   8   8   8   8
#     4  12  27  46  71 104 139 187 236 293 359 418
#     4  12  24  45  69  99 135 188 234 282 339 405
#     4  11  23  41  75 102 142 179 223 289 362 425
#     4  10  22  44  70 102 137 179 227 282 352 417
#     4  12  25  46  71  99 140 181 231 295 361 418
#     4  12  28  45  69  98 142 184 245 291 338 413
#     4  11  23  43  72 106 140 181 224 288 365 422
#     4  10  22  43  71 101 138 180 225 284 347 419
#
# _framework density 21.660456
#
# number of rings (size 3 to 8) (size 9 to 14) (size 15 to 20)
#    0.000    0.750    5.000    2.250    3.500    3.000 
#    0.000    0.000    0.000    0.000    0.000    0.000 
#    0.000    0.000    0.000    0.000    0.000    0.000 
#
# Total GULP energy -396728.941930 kJ/mol
# GULP energy per Si atom -12397.779435 kJ/mol
# Density = 2.161116 g / cm^3
# Si number density = 21.660456 Si / 1000 Ang^3
#
#
#
# Elastic Constant Matrix: (Units=GPa)
#
#
# Indices 1 2 3 4 5 6 
#
# 1 85.2904 57.6315 39.1676 0.0000 0.0000 0.0000
# 2 57.6315 132.7333 36.8729 0.0000 0.0000 0.0000
# 3 39.1676 36.8729 73.7698 0.0000 0.0000 0.0000
# 4 0.0000 0.0000 0.0000 18.0795 0.0000 0.0000
# 5 0.0000 0.0000 0.0000 0.0000 34.1473 0.0000
# 6 0.0000 0.0000 0.0000 0.0000 0.0000 37.0816
#
#
#
# Elastic Compliance Matrix: (Units=1/GPa)
#
#
# Indices 1 2 3 4 5 6 
#
# 1 0.019296 -0.006424 -0.007034 0.000000 0.000000 0.000000
# 2 -0.006424 0.010887 -0.002031 0.000000 0.000000 0.000000
# 3 -0.007034 -0.002031 0.018306 0.000000 0.000000 0.000000
# 4 0.000000 0.000000 0.000000 0.055311 0.000000 0.000000
# 5 0.000000 0.000000 0.000000 0.000000 0.029285 0.000000
# 6 0.000000 0.000000 0.000000 0.000000 0.000000 0.026968
#
#
# Mechanical properties :
#
#
# Convention : Reuss Voigt Hill
#
# Bulk Modulus (GPa) = 57.10888 62.12640 59.61764
# Shear Modulus (GPa) = 25.39788 28.40313 26.90050
#
# Velocity S-wave (km/s) = 3.42796 3.62510 3.52791
# Velocity P-wave (km/s) = 6.48773 6.80191 6.64668
#
# Compressibility (1/GPa) = 0.01751041
#
# Stress axis : x y z
#
# Youngs Moduli (GPa) = 51.82549 91.84967 54.62822
#
# Poissons Ratio (x) = 0.59004 0.38425
# Poissons Ratio (y) = 0.33292 0.11096
# Poissons Ratio (z) = 0.36454 0.18656
#
# Static dielectric constant tensor:
#      x y z
#    x 3.999420 0.000000 0.000000 
#    y 0.000000 4.415990 0.000000 
#    z 0.000000 0.000000 3.995400 
# 
# 
# High freq. dielectric constant tensor:
#      x y z
#    x 1.847020 0.000000 0.000000 
#    y 0.000000 1.864060 0.000000 
#    z 0.000000 0.000000 1.853950 
# 
# From -- ./inp_files/12048.got.cif
#   From: 2010.03.12/outbox.cif.g09.slc.cpg/sg41_7_cif.got.tgz:12048.got - 2010.04.14 01:55:53.
