data_PCOD8185691
_publ_section_title
;
Structure prediction by ZEFSAII (Michael W. Deem and Ramdas Pophale) SiO2 
 PCOD8185691
Probable space group: A B A 2
;
_chemical_formula_sum "Si O2"
_cell_formula_units_Z 36
_cell_length_a 8.156982
_cell_length_b 9.878380
_cell_length_c 17.617704
_cell_angle_alpha 90.000000
_cell_angle_beta 90.000000
_cell_angle_gamma 90.000000
_cell_volume 1419.595263
_symmetry_space_group_name_H-M "A B A 2"
_symmetry_group_IT_number 41
_symmetry_cell_setting 'orthorhombic'
loop_
_space_group_symop_operation_xyz
x,y,z
-x,-y,z
1/2-x,y,1/2+z
1/2+x,-y,1/2+z
x,1/2+y,1/2+z
-x,1/2-y,1/2+z
1/2-x,1/2+y,z
1/2+x,1/2-y,z
loop_
_atom_site_type_symbol
_atom_site_label
_atom_site_fract_x
_atom_site_fract_y
_atom_site_fract_z
Si Si1 0.860995 0.359925 0.729530
Si Si2 0.668699 0.579478 0.814891
Si Si3 0.824224 0.066965 0.989177
Si Si4 0.500000 0.500000 0.556244
Si Si5 0.395401 0.248974 0.124219
O O1 0.821915 0.492607 0.780572
O O2 0.845705 0.226407 0.779688
O O3 0.738391 0.351157 0.659627
O O4 0.039419 0.360075 0.686361
O O5 0.500000 0.500000 0.800634
O O6 0.700088 0.611883 0.902671
O O7 0.824721 0.191969 0.046593
O O8 0.000000 0.000000 0.000737
O O9 0.665961 0.973108 0.007351
O O10 0.535988 0.636774 0.604856
#
# Coordination Sequence:
#
# PCOD8185691 Si02
#       5
#     8   8   8   4   8
#     4  12  25  46  78 106 151 200 253 320 391 448
#     4  11  27  50  72 111 159 200 253 324 389 474
#     4  11  28  47  77 110 154 202 260 312 393 462
#     4  12  26  48  74 112 156 198 262 324 378 454
#     4  12  25  45  77 108 147 196 265 313 379 464
#
# _framework density 25.359342999999999
#
# number of rings (size 3 to 8) (size 9 to 14) (size 15 to 20)
#    0.000    0.444    4.444    2.667    6.222    3.556 
#    0.000    0.000    0.000    0.000    0.000    0.000 
#    0.000    0.000    0.000    0.000    0.000    0.000 
#
# Total GULP energy -223058.810067 kJ/mol
# GULP energy per Si atom -12392.156115 kJ/mol
# Density = 2.530162 g / cm^3
# Si number density = 25.359343 Si / 1000 Ang^3
#
#
#
# Elastic Constant Matrix: (Units=GPa)
#
#
# Indices 1 2 3 4 5 6 
#
# 1 107.7315 15.7885 34.7619 0.0000 0.0000 0.0000
# 2 15.7885 101.7051 75.3206 0.0000 0.0000 0.0000
# 3 34.7619 75.3206 166.1669 0.0000 0.0000 0.0000
# 4 0.0000 0.0000 0.0000 41.9857 0.0000 0.0000
# 5 0.0000 0.0000 0.0000 0.0000 35.7671 0.0000
# 6 0.0000 0.0000 0.0000 0.0000 0.0000 35.1262
#
#
#
# Elastic Compliance Matrix: (Units=1/GPa)
#
#
# Indices 1 2 3 4 5 6 
#
# 1 0.009954 -0.000005 -0.002080 0.000000 0.000000 0.000000
# 2 -0.000005 0.014801 -0.006708 0.000000 0.000000 0.000000
# 3 -0.002080 -0.006708 0.009494 0.000000 0.000000 0.000000
# 4 0.000000 0.000000 0.000000 0.023818 0.000000 0.000000
# 5 0.000000 0.000000 0.000000 0.000000 0.027959 0.000000
# 6 0.000000 0.000000 0.000000 0.000000 0.000000 0.028469
#
#
# Mechanical properties :
#
#
# Convention : Reuss Voigt Hill
#
# Bulk Modulus (GPa) = 60.01289 69.70504 64.85896
# Shear Modulus (GPa) = 36.32813 39.22464 37.77638
#
# Velocity S-wave (km/s) = 3.78899 3.93714 3.86378
# Velocity P-wave (km/s) = 6.54663 6.94368 6.74808
#
# Compressibility (1/GPa) = 0.01666309
#
# Stress axis : x y z
#
# Youngs Moduli (GPa) = 100.45934 67.56356 105.33120
#
# Poissons Ratio (x) = 0.00031 0.21912
# Poissons Ratio (y) = 0.00047 0.70656
# Poissons Ratio (z) = 0.20899 0.45322
#
# Static dielectric constant tensor:
#      x y z
#    x 4.870320 0.000000 0.000000 
#    y 0.000000 4.310830 0.000000 
#    z 0.000000 0.000000 4.846590 
# 
# 
# High freq. dielectric constant tensor:
#      x y z
#    x 2.029030 0.000000 0.000000 
#    y 0.000000 2.009880 0.000000 
#    z 0.000000 0.000000 2.023100 
# 
# From -- ./inp_files/11070.got.cif
#   From: 2010.03.12/outbox.cif.g09.slc.cpg/sg41_6_cif.got.tgz:11070.got - 2010.04.14 01:55:53.
