data_PCOD8185471
_publ_section_title
;
Structure prediction by ZEFSAII (Michael W. Deem and Ramdas Pophale) SiO2 
 PCOD8185471
Probable space group: A B A 2
;
_chemical_formula_sum "Si O2"
_cell_formula_units_Z 48
_cell_length_a 13.863499
_cell_length_b 8.911074
_cell_length_c 15.023433
_cell_angle_alpha 90.000000
_cell_angle_beta 90.000000
_cell_angle_gamma 90.000000
_cell_volume 1855.974864
_symmetry_space_group_name_H-M "A B A 2"
_symmetry_group_IT_number 41
_symmetry_cell_setting 'orthorhombic'
loop_
_space_group_symop_operation_xyz
x,y,z
-x,-y,z
1/2-x,y,1/2+z
1/2+x,-y,1/2+z
x,1/2+y,1/2+z
-x,1/2-y,1/2+z
1/2-x,1/2+y,z
1/2+x,1/2-y,z
loop_
_atom_site_type_symbol
_atom_site_label
_atom_site_fract_x
_atom_site_fract_y
_atom_site_fract_z
Si Si1 0.801935 0.582492 0.315740
Si Si2 0.722866 0.162662 0.051494
Si Si3 0.187287 0.073271 0.163596
Si Si4 0.040157 0.327549 0.926655
Si Si5 0.677932 0.868326 0.916657
Si Si6 0.500000 0.000000 0.382061
Si Si7 0.000000 0.500000 0.763240
O O1 0.760315 0.511367 0.228063
O O2 0.805591 0.765363 0.326482
O O3 0.740826 0.519434 0.401809
O O4 0.910399 0.525463 0.318282
O O5 0.702422 0.249923 0.144889
O O6 0.787420 0.014708 0.070998
O O7 0.622731 0.125344 0.998488
O O8 0.792303 0.273240 0.999539
O O9 0.078158 0.069005 0.197395
O O10 0.934665 0.412758 0.934905
O O11 0.061157 0.374504 0.822546
O O12 0.021640 0.149358 0.940713
#
# Coordination Sequence:
#
# PCOD8185471 Si02
#       7
#     8   8   8   8   8   4   4
#     4  11  22  47  72 106 139 197 249 302 365 455
#     4  12  28  47  71 108 155 187 243 314 389 431
#     4  12  29  47  72 110 155 188 240 325 388 433
#     4  11  26  47  79 106 138 207 258 297 360 471
#     4  11  23  45  77 100 143 195 256 296 359 462
#     4  10  24  41  81 100 140 186 268 290 354 439
#     4  12  28  51  79 104 148 204 258 298 380 467
#
# _framework density 25.862418999999999
#
# number of rings (size 3 to 8) (size 9 to 14) (size 15 to 20)
#    0.000    0.667    3.333    3.000   11.667    0.000 
#    3.000    0.000    0.000    0.000    0.000    0.000 
#    0.000    0.000    0.000    0.000    0.000    0.000 
#
# Total GULP energy -297352.318483 kJ/mol
# GULP energy per Si atom -12389.679937 kJ/mol
# Density = 2.580356 g / cm^3
# Si number density = 25.862419 Si / 1000 Ang^3
#
#
#
# Elastic Constant Matrix: (Units=GPa)
#
#
# Indices 1 2 3 4 5 6 
#
# 1 131.8010 46.3502 23.5165 0.0000 0.0000 0.0000
# 2 46.3502 127.6796 24.8952 0.0000 0.0000 0.0000
# 3 23.5165 24.8952 67.1386 0.0000 0.0000 0.0000
# 4 0.0000 0.0000 0.0000 46.0641 0.0000 0.0000
# 5 0.0000 0.0000 0.0000 0.0000 62.4093 0.0000
# 6 0.0000 0.0000 0.0000 0.0000 0.0000 42.3679
#
#
#
# Elastic Compliance Matrix: (Units=1/GPa)
#
#
# Indices 1 2 3 4 5 6 
#
# 1 0.008960 -0.002846 -0.002083 0.000000 0.000000 0.000000
# 2 -0.002846 0.009347 -0.002469 0.000000 0.000000 0.000000
# 3 -0.002083 -0.002469 0.016540 0.000000 0.000000 0.000000
# 4 0.000000 0.000000 0.000000 0.021709 0.000000 0.000000
# 5 0.000000 0.000000 0.000000 0.000000 0.016023 0.000000
# 6 0.000000 0.000000 0.000000 0.000000 0.000000 0.023603
#
#
# Mechanical properties :
#
#
# Convention : Reuss Voigt Hill
#
# Bulk Modulus (GPa) = 49.87550 57.34924 53.61237
# Shear Modulus (GPa) = 42.49508 45.62542 44.06025
#
# Velocity S-wave (km/s) = 4.05794 4.20475 4.13200
# Velocity P-wave (km/s) = 6.42516 6.76728 6.59844
#
# Compressibility (1/GPa) = 0.02004992
#
# Stress axis : x y z
#
# Youngs Moduli (GPa) = 111.60908 106.98850 60.46112
#
# Poissons Ratio (x) = 0.30454 0.12593
# Poissons Ratio (y) = 0.31769 0.14927
# Poissons Ratio (z) = 0.23247 0.26413
#
# Static dielectric constant tensor:
#      x y z
#    x 4.915190 0.000000 0.000000 
#    y 0.000000 5.768700 0.000000 
#    z 0.000000 0.000000 4.783640 
# 
# 
# High freq. dielectric constant tensor:
#      x y z
#    x 2.045170 0.000000 0.000000 
#    y 0.000000 2.079660 0.000000 
#    z 0.000000 0.000000 2.025970 
# 
# From -- ./inp_files/8367.got.cif
#   From: 2010.03.12/outbox.cif.g09.slc.cpg/sg41_5_cif.got.tgz:8367.got - 2010.04.14 01:55:53.
