data_PCOD8185072
_publ_section_title
;
Structure prediction by ZEFSAII (Michael W. Deem and Ramdas Pophale) SiO2 
 PCOD8185072
Probable space group: A B A 2
;
_chemical_formula_sum "Si O2"
_cell_formula_units_Z 56
_cell_length_a 5.173750
_cell_length_b 16.723971
_cell_length_c 28.839882
_cell_angle_alpha 90.000000
_cell_angle_beta 90.000000
_cell_angle_gamma 90.000000
_cell_volume 2495.389391
_symmetry_space_group_name_H-M "A B A 2"
_symmetry_group_IT_number 41
_symmetry_cell_setting 'orthorhombic'
loop_
_space_group_symop_operation_xyz
x,y,z
-x,-y,z
1/2-x,y,1/2+z
1/2+x,-y,1/2+z
x,1/2+y,1/2+z
-x,1/2-y,1/2+z
1/2-x,1/2+y,z
1/2+x,1/2-y,z
loop_
_atom_site_type_symbol
_atom_site_label
_atom_site_fract_x
_atom_site_fract_y
_atom_site_fract_z
Si Si1 0.253432 0.541397 0.418300
Si Si2 0.748823 0.029014 0.019825
Si Si3 0.366029 0.696056 0.369134
Si Si4 0.669880 0.701554 0.644506
Si Si5 0.481752 0.094845 0.779323
Si Si6 0.984163 0.093681 0.725232
Si Si7 0.662262 0.201911 0.037036
O O1 0.500000 0.500000 0.394252
O O2 0.248282 0.524260 0.473068
O O3 0.285648 0.636554 0.411079
O O4 0.000000 0.500000 0.395067
O O5 0.735696 0.122824 0.008146
O O6 0.500000 0.000000 0.049130
O O7 0.000000 0.000000 0.048607
O O8 0.648841 0.735434 0.371677
O O9 0.374601 0.641187 0.323761
O O10 0.459219 0.769840 0.656015
O O11 0.595291 0.625431 0.674900
O O12 0.663466 0.676804 0.590760
O O13 0.765489 0.123069 0.762240
O O14 0.269767 0.120727 0.740717
O O15 0.500000 0.000000 0.788922
O O16 0.000000 0.000000 0.720702
O O17 0.377720 0.232569 0.023850
#
# Coordination Sequence:
#
# PCOD8185072 Si02
#       7
#     8   8   8   8   8   8   8
#     4  10  22  43  64  86 119 157 196 242 305 369
#     4  10  21  40  63  89 117 155 199 243 303 367
#     4  12  25  40  62  93 121 155 204 256 303 361
#     4  10  21  36  57  84 121 160 193 242 303 347
#     4  10  22  39  59  82 119 161 200 246 298 350
#     4  10  21  37  57  86 117 157 205 246 288 348
#     4  10  21  39  61  90 123 159 203 251 300 358
#
# _framework density 22.441386000000001
#
# number of rings (size 3 to 8) (size 9 to 14) (size 15 to 20)
#    0.000    1.714    0.000    3.857    0.000    5.714 
#    0.000   19.286    0.000    0.000    0.000    0.000 
#    0.000    0.000    0.000    0.000    0.000    0.000 
#
# Total GULP energy -346983.515305 kJ/mol
# GULP energy per Si atom -12392.268404 kJ/mol
# Density = 2.239031 g / cm^3
# Si number density = 22.441386 Si / 1000 Ang^3
#
#
#
# Elastic Constant Matrix: (Units=GPa)
#
#
# Indices 1 2 3 4 5 6 
#
# 1 177.9857 42.2815 15.0538 0.0000 0.0000 0.0000
# 2 42.2815 89.9175 27.8054 0.0000 0.0000 0.0000
# 3 15.0538 27.8054 49.3487 0.0000 0.0000 0.0000
# 4 0.0000 0.0000 0.0000 28.3151 0.0000 0.0000
# 5 0.0000 0.0000 0.0000 0.0000 -4.0963 0.0000
# 6 0.0000 0.0000 0.0000 0.0000 0.0000 45.9652
#
#
#
# Elastic Compliance Matrix: (Units=1/GPa)
#
#
# Indices 1 2 3 4 5 6 
#
# 1 0.006329 -0.002881 -0.000307 0.000000 0.000000 0.000000
# 2 -0.002881 0.014779 -0.007449 0.000000 0.000000 0.000000
# 3 -0.000307 -0.007449 0.024555 0.000000 0.000000 0.000000
# 4 0.000000 0.000000 0.000000 0.035317 0.000000 0.000000
# 5 0.000000 0.000000 0.000000 0.000000 -0.244123 0.000000
# 6 0.000000 0.000000 0.000000 0.000000 0.000000 0.021756
#
#
# Mechanical properties :
#
#
# Convention : Reuss Voigt Hill
#
# Bulk Modulus (GPa) = 41.00197 54.17038 47.58617
# Shear Modulus (GPa) = -44.64891 29.51087 -7.56902
#
# Velocity S-wave (km/s) = -4.46531 3.63025 -1.83851
# Velocity P-wave (km/s) = 2.87662 6.46240 4.09193
#
# Compressibility (1/GPa) = 0.02438907
#
# Stress axis : x y z
#
# Youngs Moduli (GPa) = 158.00774 67.66212 40.72555
#
# Poissons Ratio (x) = 0.19493 0.01252
# Poissons Ratio (y) = 0.45521 0.30335
# Poissons Ratio (z) = 0.04856 0.50398
#
# Static dielectric constant tensor:
#      x y z
#    x 7.757840 0.000000 0.000000 
#    y 0.000000 3.969440 0.000000 
#    z 0.000000 0.000000 3.727490 
# 
# 
# High freq. dielectric constant tensor:
#      x y z
#    x 1.918270 0.000000 0.000000 
#    y 0.000000 1.881430 0.000000 
#    z 0.000000 0.000000 1.852620 
# 
# From -- ./inp_files/12629.got.cif
#   From: 2010.03.12/outbox.cif.g09.slc.cpg/sg41_7_cif.got.tgz:12629.got - 2010.04.14 01:55:53.
