data_PCOD8185305
_publ_section_title
;
Structure prediction by ZEFSAII (Michael W. Deem and Ramdas Pophale) SiO2 
 PCOD8185305
Probable space group: A B A 2
;
_chemical_formula_sum "Si O2"
_cell_formula_units_Z 40
_cell_length_a 4.747666
_cell_length_b 12.180625
_cell_length_c 29.586756
_cell_angle_alpha 90.000000
_cell_angle_beta 90.000000
_cell_angle_gamma 90.000000
_cell_volume 1710.988465
_symmetry_space_group_name_H-M "A B A 2"
_symmetry_group_IT_number 41
_symmetry_cell_setting 'orthorhombic'
loop_
_space_group_symop_operation_xyz
x,y,z
-x,-y,z
1/2-x,y,1/2+z
1/2+x,-y,1/2+z
x,1/2+y,1/2+z
-x,1/2-y,1/2+z
1/2-x,1/2+y,z
1/2+x,1/2-y,z
loop_
_atom_site_type_symbol
_atom_site_label
_atom_site_fract_x
_atom_site_fract_y
_atom_site_fract_z
Si Si1 0.937898 0.823802 0.149520
Si Si2 0.294241 0.670120 0.952032
Si Si3 0.000000 0.500000 0.018680
Si Si4 0.561197 0.323824 0.249478
Si Si5 0.000000 0.000000 0.320314
Si Si6 0.500000 0.000000 0.578803
Si Si7 0.500000 0.500000 0.880484
O O1 0.260729 0.787799 0.143898
O O2 0.885540 0.875744 0.199478
O O3 0.857167 0.908796 0.110483
O O4 0.608753 0.719348 0.953751
O O5 0.325523 0.592589 0.908186
O O6 0.173666 0.591850 0.991144
O O7 0.248118 0.446431 0.048907
O O8 0.738185 0.212107 0.254916
O O9 0.641745 0.408681 0.288489
O O10 0.747641 0.052898 0.350077
#
# Coordination Sequence:
#
# PCOD8185305 Si02
#       7
#     8   8   4   8   4   4   4
#     4  10  22  40  62  92 132 177 220 261 319 390
#     4  12  26  48  72  92 132 178 212 276 350 402
#     4  12  27  44  67 103 128 163 231 274 327 424
#     4  10  22  40  62  92 132 177 220 261 319 390
#     4  12  24  40  66  97 134 167 214 284 328 378
#     4  12  24  40  66  97 134 167 214 284 328 378
#     4  12  27  44  67 103 128 163 231 274 327 424
#
# _framework density 23.378297
#
# number of rings (size 3 to 8) (size 9 to 14) (size 15 to 20)
#    0.000    0.800    0.000    7.800    0.000    9.600 
#    0.000    8.000    0.000    0.000    0.000    0.000 
#    0.000    0.000    0.000    0.000    0.000    0.000 
#
# Total GULP energy -247801.310446 kJ/mol
# GULP energy per Si atom -12390.065522 kJ/mol
# Density = 2.332509 g / cm^3
# Si number density = 23.378297 Si / 1000 Ang^3
#
#
#
# Elastic Constant Matrix: (Units=GPa)
#
#
# Indices 1 2 3 4 5 6 
#
# 1 110.7526 17.3527 55.3218 0.0000 0.0000 0.0000
# 2 17.3527 82.0731 53.6696 0.0000 0.0000 0.0000
# 3 55.3218 53.6696 147.9169 0.0000 0.0000 0.0000
# 4 0.0000 0.0000 0.0000-2182.9509 0.0000 0.0000
# 5 0.0000 0.0000 0.0000 0.0000 42.3665 0.0000
# 6 0.0000 0.0000 0.0000 0.0000 0.0000 45.1018
#
#
#
# Elastic Compliance Matrix: (Units=1/GPa)
#
#
# Indices 1 2 3 4 5 6 
#
# 1 0.011118 0.000483 -0.004334 0.000000 0.000000 0.000000
# 2 0.000483 0.015995 -0.005984 0.000000 0.000000 0.000000
# 3 -0.004334 -0.005984 0.010553 0.000000 0.000000 0.000000
# 4 0.000000 0.000000 0.000000 -0.000458 0.000000 0.000000
# 5 0.000000 0.000000 0.000000 0.000000 0.023604 0.000000
# 6 0.000000 0.000000 0.000000 0.000000 0.000000 0.022172
#
#
# Mechanical properties :
#
#
# Convention : Reuss Voigt Hill
#
# Bulk Modulus (GPa) = 55.56618 65.93675 60.75147
# Shear Modulus (GPa) = 46.01838 -404.80329 -179.39245
#
# Velocity S-wave (km/s) = 4.44150 -13.17305 -8.76933
# Velocity P-wave (km/s) = 7.07972 14.25156 8.74598
#
# Compressibility (1/GPa) = 0.01799656
#
# Stress axis : x y z
#
# Youngs Moduli (GPa) = 89.94376 62.51771 94.76273
#
# Poissons Ratio (x) = -0.03020 0.41065
# Poissons Ratio (y) = -0.04345 0.56710
# Poissons Ratio (z) = 0.38977 0.37413
#
# Static dielectric constant tensor:
#      x y z
#    x 4.343160 0.000000 0.000000 
#    y 0.000000 4.782310 0.000000 
#    z 0.000000 0.000000 4.398170 
# 
# 
# High freq. dielectric constant tensor:
#      x y z
#    x 1.945300 0.000000 0.000000 
#    y 0.000000 1.897930 0.000000 
#    z 0.000000 0.000000 1.937140 
# 
# From -- ./inp_files/12366.got.cif
#   From: 2010.03.12/outbox.cif.g09.slc.cpg/sg41_7_cif.got.tgz:12366.got - 2010.04.14 01:55:53.
