data_PCOD8185990
_publ_section_title
;
Structure prediction by ZEFSAII (Michael W. Deem and Ramdas Pophale) SiO2 
 PCOD8185990
Probable space group: F M M 2
;
_chemical_formula_sum "Si O2"
_cell_formula_units_Z 96
_cell_length_a 9.062590
_cell_length_b 25.329405
_cell_length_c 25.217706
_cell_angle_alpha 90.000000
_cell_angle_beta 90.000000
_cell_angle_gamma 90.000000
_cell_volume 5788.724726
_symmetry_space_group_name_H-M "F M M 2"
_symmetry_group_IT_number 42
_symmetry_cell_setting 'orthorhombic'
loop_
_space_group_symop_operation_xyz
x,y,z
-x,-y,z
-x,y,z
x,-y,z
x,1/2+y,1/2+z
-x,1/2-y,1/2+z
-x,1/2+y,1/2+z
x,1/2-y,1/2+z
1/2+x,y,1/2+z
1/2-x,-y,1/2+z
1/2-x,y,1/2+z
1/2+x,-y,1/2+z
1/2+x,1/2+y,z
1/2-x,1/2-y,z
1/2-x,1/2+y,z
1/2+x,1/2-y,z
loop_
_atom_site_type_symbol
_atom_site_label
_atom_site_fract_x
_atom_site_fract_y
_atom_site_fract_z
Si Si1 0.674571 0.307157 0.781680
Si Si2 0.326994 0.193905 0.051803
Si Si3 0.326935 0.105743 0.851194
Si Si4 0.665158 0.500000 0.976093
Si Si5 0.331253 0.804109 0.166665
Si Si6 0.332511 0.000000 0.350083
Si Si7 0.328588 0.103560 0.975045
O O1 0.500000 0.302164 0.793520
O O2 0.750000 0.250000 0.786512
O O3 0.750078 0.344925 0.823842
O O4 0.703740 0.333173 0.722693
O O5 0.500000 0.203289 0.044007
O O6 0.250000 0.250000 0.043751
O O7 0.292079 0.167834 0.110394
O O8 0.266912 0.153583 0.007639
O O9 0.500000 0.104104 0.838045
O O10 0.297136 0.113220 0.913404
O O11 0.253177 0.051849 0.829628
O O12 0.500000 0.500000 0.998547
O O13 0.667809 0.500000 0.913004
O O14 0.746591 0.551983 0.997165
O O15 0.500000 0.788325 0.166159
O O16 0.250000 0.750000 0.167602
O O17 0.500000 0.000000 0.327888
O O18 0.500000 0.094452 0.986213
#
# Coordination Sequence:
#
# PCOD8185990 Si02
#       7
#    16  16  16   8  16   8  16
#     4  10  19  31  47  68  93 122 154 190 229 271
#     4   9  17  30  47  68  92 119 150 185 224 267
#     4  10  19  31  47  69  95 123 152 185 226 273
#     4   9  17  29  47  68  89 116 153 190 222 259
#     4   8  15  28  46  65  86 114 152 190 223 261
#     4   9  17  31  49  68  89 118 155 192 226 265
#     4   9  18  31  47  67  93 122 150 181 223 271
#
# _framework density 16.583963000000001
#
# number of rings (size 3 to 8) (size 9 to 14) (size 15 to 20)
#    0.000    2.833    0.000    1.500    0.000    4.667 
#    0.000    1.667    0.000    1.000    0.000    3.500 
#    0.000    0.000    0.000    0.000    0.000    0.000 
#
# Total GULP energy -297346.268669 kJ/mol
# GULP energy per Si atom -12389.427861 kJ/mol
# Density = 1.654622 g / cm^3
# Si number density = 16.583963 Si / 1000 Ang^3
#
#
#
# Elastic Constant Matrix: (Units=GPa)
#
#
# Indices 1 2 3 4 5 6 
#
# 1 85.0788 57.6180 47.0481 0.0000 0.0000 0.0000
# 2 57.6180 121.9917 61.3624 0.0000 0.0000 0.0000
# 3 47.0481 61.3624 77.8148 0.0000 0.0000 0.0000
# 4 0.0000 0.0000 0.0000 2.4267 0.0000 0.0000
# 5 0.0000 0.0000 0.0000 0.0000 20.4938 0.0000
# 6 0.0000 0.0000 0.0000 0.0000 0.0000 31.2900
#
#
#
# Elastic Compliance Matrix: (Units=1/GPa)
#
#
# Indices 1 2 3 4 5 6 
#
# 1 0.019641 -0.005475 -0.007558 0.000000 0.000000 0.000000
# 2 -0.005475 0.015113 -0.008607 0.000000 0.000000 0.000000
# 3 -0.007558 -0.008607 0.024208 0.000000 0.000000 0.000000
# 4 0.000000 0.000000 0.000000 0.412082 0.000000 0.000000
# 5 0.000000 0.000000 0.000000 0.000000 0.048795 0.000000
# 6 0.000000 0.000000 0.000000 0.000000 0.000000 0.031959
#
#
# Mechanical properties :
#
#
# Convention : Reuss Voigt Hill
#
# Bulk Modulus (GPa) = 63.76866 68.54914 66.15890
# Shear Modulus (GPa) = 8.32910 18.76589 13.54749
#
# Velocity S-wave (km/s) = 2.24350 3.36753 2.86125
# Velocity P-wave (km/s) = 6.72655 7.51962 7.13411
#
# Compressibility (1/GPa) = 0.01568168
#
# Stress axis : x y z
#
# Youngs Moduli (GPa) = 50.91348 66.17003 41.30891
#
# Poissons Ratio (x) = 0.36229 0.31221
# Poissons Ratio (y) = 0.27876 0.35555
# Poissons Ratio (z) = 0.38480 0.56953
#
# Static dielectric constant tensor:
#      x y z
#    x 3.215850 0.000000 0.000000 
#    y 0.000000 3.005450 0.000000 
#    z 0.000000 0.000000 3.592880 
# 
# 
# High freq. dielectric constant tensor:
#      x y z
#    x 1.649780 0.000000 0.000000 
#    y 0.000000 1.618550 0.000000 
#    z 0.000000 0.000000 1.628810 
# 
# From -- ./inp_files/28073.got.cif
#   From: 2010.03.12/outbox.cif.g09.slc.cpg/sg42_15_cif.got.tgz:28073.got - 2010.04.14 02:04:31.
