data_PCOD8185101
_publ_section_title
;
Structure prediction by ZEFSAII (Michael W. Deem and Ramdas Pophale) SiO2 
 PCOD8185101
Probable space group: A B A 2
;
_chemical_formula_sum "Si O2"
_cell_formula_units_Z 64
_cell_length_a 5.230726
_cell_length_b 34.480585
_cell_length_c 15.876270
_cell_angle_alpha 90.000000
_cell_angle_beta 90.000000
_cell_angle_gamma 90.000000
_cell_volume 2863.420123
_symmetry_space_group_name_H-M "A B A 2"
_symmetry_group_IT_number 41
_symmetry_cell_setting 'orthorhombic'
loop_
_space_group_symop_operation_xyz
x,y,z
-x,-y,z
1/2-x,y,1/2+z
1/2+x,-y,1/2+z
x,1/2+y,1/2+z
-x,1/2-y,1/2+z
1/2-x,1/2+y,z
1/2+x,1/2-y,z
loop_
_atom_site_type_symbol
_atom_site_label
_atom_site_fract_x
_atom_site_fract_y
_atom_site_fract_z
Si Si1 0.317295 0.395803 0.508700
Si Si2 0.752462 0.518951 0.065211
Si Si3 0.807384 0.847515 0.008897
Si Si4 0.247701 0.481118 0.758835
Si Si5 0.190159 0.652164 0.313950
Si Si6 0.941673 0.265045 0.562790
Si Si7 0.319914 0.396024 0.315405
Si Si8 0.057268 0.733622 0.250156
O O1 0.273065 0.434901 0.559996
O O2 0.561746 0.371504 0.542858
O O3 0.367837 0.406872 0.412182
O O4 0.061227 0.371945 0.521313
O O5 0.500000 0.500000 0.021764
O O6 0.750012 0.506136 0.162007
O O7 0.000000 0.500000 0.020425
O O8 0.844114 0.809153 0.065032
O O9 0.767391 0.835738 0.911251
O O10 0.500000 0.500000 0.802387
O O11 0.228624 0.435011 0.764282
O O12 0.000000 0.500000 0.803638
O O13 0.432693 0.627321 0.280677
O O14 0.932229 0.628674 0.302548
O O15 0.157961 0.689845 0.255788
O O16 0.717259 0.239711 0.516076
O O17 0.016646 0.247516 0.654149
O O18 0.781194 0.740055 0.294374
#
# Coordination Sequence:
#
# PCOD8185101 Si02
#       8
#     8   8   8   8   8   8   8   8
#     4  10  21  38  59  88 117 150 196 240 288 348
#     4  10  21  38  58  84 120 154 194 236 285 344
#     4  10  21  38  59  83 117 152 191 242 295 346
#     4  10  21  38  58  84 120 154 194 236 285 344
#     4  10  21  38  59  83 117 152 191 242 295 346
#     4  10  21  38  56  81 115 147 189 245 281 348
#     4  10  21  38  59  88 117 150 196 240 288 348
#     4  10  21  38  56  81 115 147 189 245 281 348
#
# _framework density 22.350892999999999
#
# number of rings (size 3 to 8) (size 9 to 14) (size 15 to 20)
#    0.000    2.000    0.000    3.000    0.000    2.000 
#   13.500    0.000    0.000    0.000    0.000    0.000 
#    0.000    0.000    0.000    0.000    0.000    0.000 
#
# Total GULP energy -396593.382780 kJ/mol
# GULP energy per Si atom -12393.543212 kJ/mol
# Density = 2.230002 g / cm^3
# Si number density = 22.350893 Si / 1000 Ang^3
#
#
#
# Elastic Constant Matrix: (Units=GPa)
#
#
# Indices 1 2 3 4 5 6 
#
# 1 232.5313 79.2593 19.0161 0.0000 0.0000 0.0000
# 2 79.2593 158.3483 24.8503 0.0000 0.0000 0.0000
# 3 19.0161 24.8503 28.2360 0.0000 0.0000 0.0000
# 4 0.0000 0.0000 0.0000 4.3298 0.0000 0.0000
# 5 0.0000 0.0000 0.0000 0.0000 -0.2332 0.0000
# 6 0.0000 0.0000 0.0000 0.0000 0.0000 49.3293
#
#
#
# Elastic Compliance Matrix: (Units=1/GPa)
#
#
# Indices 1 2 3 4 5 6 
#
# 1 0.005233 -0.002398 -0.001414 0.000000 0.000000 0.000000
# 2 -0.002398 0.008426 -0.005801 0.000000 0.000000 0.000000
# 3 -0.001414 -0.005801 0.041473 0.000000 0.000000 0.000000
# 4 0.000000 0.000000 0.000000 0.230956 0.000000 0.000000
# 5 0.000000 0.000000 0.000000 0.000000 -4.288357 0.000000
# 6 0.000000 0.000000 0.000000 0.000000 0.000000 0.020272
#
#
# Mechanical properties :
#
#
# Convention : Reuss Voigt Hill
#
# Bulk Modulus (GPa) = 27.84959 73.92966 50.88963
# Shear Modulus (GPa) = -1.26557 30.41785 14.57614
#
# Velocity S-wave (km/s) = -0.75330 3.69307 2.55649
# Velocity P-wave (km/s) = 3.42500 7.16475 5.61535
#
# Compressibility (1/GPa) = 0.03590717
#
# Stress axis : x y z
#
# Youngs Moduli (GPa) = 191.08125 118.68643 24.11181
#
# Poissons Ratio (x) = 0.28455 0.03411
# Poissons Ratio (y) = 0.45812 0.13986
# Poissons Ratio (z) = 0.27028 0.68845
#
# Static dielectric constant tensor:
#      x y z
#    x 8.129950 0.000000 0.000000 
#    y 0.000000 4.301620 0.000000 
#    z 0.000000 0.000000 3.722630 
# 
# 
# High freq. dielectric constant tensor:
#      x y z
#    x 1.920950 0.000000 0.000000 
#    y 0.000000 1.881540 0.000000 
#    z 0.000000 0.000000 1.838520 
# 
# From -- ./inp_files/9505.got.cif
#   From: 2010.03.12/outbox.cif.g09.slc.cpg/sg41_5_cif.got.tgz:9505.got - 2010.04.14 01:55:53.
