data_PCOD8185927
_publ_section_title
;
Structure prediction by ZEFSAII (Michael W. Deem and Ramdas Pophale) SiO2 
 PCOD8185927
Probable space group: F M M 2
;
_chemical_formula_sum "Si O2"
_cell_formula_units_Z 96
_cell_length_a 8.867771
_cell_length_b 25.657257
_cell_length_c 23.416790
_cell_angle_alpha 90.000000
_cell_angle_beta 90.000000
_cell_angle_gamma 90.000000
_cell_volume 5327.850808
_symmetry_space_group_name_H-M "F M M 2"
_symmetry_group_IT_number 42
_symmetry_cell_setting 'orthorhombic'
loop_
_space_group_symop_operation_xyz
x,y,z
-x,-y,z
-x,y,z
x,-y,z
x,1/2+y,1/2+z
-x,1/2-y,1/2+z
-x,1/2+y,1/2+z
x,1/2-y,1/2+z
1/2+x,y,1/2+z
1/2-x,-y,1/2+z
1/2-x,y,1/2+z
1/2+x,-y,1/2+z
1/2+x,1/2+y,z
1/2-x,1/2-y,z
1/2-x,1/2+y,z
1/2+x,1/2-y,z
loop_
_atom_site_type_symbol
_atom_site_label
_atom_site_fract_x
_atom_site_fract_y
_atom_site_fract_z
Si Si1 0.678455 0.904602 0.156410
Si Si2 0.178077 0.938982 0.043488
Si Si3 0.178876 0.500000 0.343660
Si Si4 0.678173 0.000000 0.721654
Si Si5 0.321378 0.595873 0.920247
Si Si6 0.178497 0.696365 0.354815
Si Si7 0.322948 0.196699 0.224800
O O1 0.500000 0.912284 0.160058
O O2 0.733459 0.906742 0.091356
O O3 0.757942 0.949300 0.191760
O O4 0.729546 0.849771 0.183575
O O5 0.000000 0.930953 0.051137
O O6 0.219164 0.000000 0.046889
O O7 0.238172 0.915251 0.983895
O O8 0.272775 0.500000 0.286486
O O9 0.232196 0.449759 0.378582
O O10 0.000000 0.500000 0.330844
O O11 0.500000 0.000000 0.715286
O O12 0.500000 0.595945 0.921542
O O13 0.259293 0.650524 0.895747
O O14 0.250000 0.750000 0.377002
O O15 0.229403 0.684519 0.289728
O O16 0.000000 0.700741 0.359060
O O17 0.500000 0.204165 0.222579
O O18 0.250000 0.250000 0.202149
#
# Coordination Sequence:
#
# PCOD8185927 Si02
#       7
#    16  16   8   8  16  16  16
#     4  11  22  37  56  79 107 143 184 224 270 323
#     4  10  19  34  55  80 107 141 184 224 267 317
#     4  10  18  33  56  79 103 134 172 218 269 324
#     4  12  24  35  50  79 113 142 174 220 275 326
#     4   9  17  32  56  80 104 138 178 216 262 323
#     4   9  17  32  53  77 104 136 174 215 261 315
#     4   9  19  35  56  81 107 138 178 221 269 323
#
# _framework density 18.018521
#
# number of rings (size 3 to 8) (size 9 to 14) (size 15 to 20)
#    0.000    2.167    1.667    2.250    0.000    4.000 
#    0.000    6.667    0.000    4.000    0.000    0.000 
#    0.000    0.000    0.000    0.000    0.000    0.000 
#
# Total GULP energy -297622.643270 kJ/mol
# GULP energy per Si atom -12400.943470 kJ/mol
# Density = 1.797751 g / cm^3
# Si number density = 18.018521 Si / 1000 Ang^3
#
#
#
# Elastic Constant Matrix: (Units=GPa)
#
#
# Indices 1 2 3 4 5 6 
#
# 1 44.4760 44.3706 34.8392 0.0000 0.0000 0.0000
# 2 44.3706 167.1230 87.9518 0.0000 0.0000 0.0000
# 3 34.8392 87.9518 139.9479 0.0000 0.0000 0.0000
# 4 0.0000 0.0000 0.0000 40.2879 0.0000 0.0000
# 5 0.0000 0.0000 0.0000 0.0000 28.0676 0.0000
# 6 0.0000 0.0000 0.0000 0.0000 0.0000 28.9292
#
#
#
# Elastic Compliance Matrix: (Units=1/GPa)
#
#
# Indices 1 2 3 4 5 6 
#
# 1 0.031963 -0.006423 -0.003920 0.000000 0.000000 0.000000
# 2 -0.006423 0.010231 -0.004831 0.000000 0.000000 0.000000
# 3 -0.003920 -0.004831 0.011158 0.000000 0.000000 0.000000
# 4 0.000000 0.000000 0.000000 0.024821 0.000000 0.000000
# 5 0.000000 0.000000 0.000000 0.000000 0.035628 0.000000
# 6 0.000000 0.000000 0.000000 0.000000 0.000000 0.034567
#
#
# Mechanical properties :
#
#
# Convention : Reuss Voigt Hill
#
# Bulk Modulus (GPa) = 43.47265 76.20781 59.84023
# Shear Modulus (GPa) = 26.82628 31.74930 29.28779
#
# Velocity S-wave (km/s) = 3.86271 4.20222 4.03603
# Velocity P-wave (km/s) = 6.63875 8.11978 7.41633
#
# Compressibility (1/GPa) = 0.02300297
#
# Stress axis : x y z
#
# Youngs Moduli (GPa) = 31.28657 97.73952 89.62488
#
# Poissons Ratio (x) = 0.62776 0.35137
# Poissons Ratio (y) = 0.20095 0.43298
# Poissons Ratio (z) = 0.12266 0.47218
#
# Static dielectric constant tensor:
#      x y z
#    x 3.109100 0.000000 0.000000 
#    y 0.000000 3.443490 0.000000 
#    z 0.000000 0.000000 3.569960 
# 
# 
# High freq. dielectric constant tensor:
#      x y z
#    x 1.677000 0.000000 0.000000 
#    y 0.000000 1.703200 0.000000 
#    z 0.000000 0.000000 1.701700 
# 
# From -- ./inp_files/28097.got.cif
#   From: 2010.03.12/outbox.cif.g09.slc.cpg/sg42_15_cif.got.tgz:28097.got - 2010.04.14 02:04:31.
