data_PCOD8186803
_publ_section_title
;
Structure prediction by ZEFSAII (Michael W. Deem and Ramdas Pophale) SiO2 
 PCOD8186803
Probable space group: F M M 2
;
_chemical_formula_sum "Si O2"
_cell_formula_units_Z 96
_cell_length_a 24.236054
_cell_length_b 17.252881
_cell_length_c 13.610227
_cell_angle_alpha 90.000000
_cell_angle_beta 90.000000
_cell_angle_gamma 90.000000
_cell_volume 5691.004212
_symmetry_space_group_name_H-M "F M M 2"
_symmetry_group_IT_number 42
_symmetry_cell_setting 'orthorhombic'
loop_
_space_group_symop_operation_xyz
x,y,z
-x,-y,z
-x,y,z
x,-y,z
x,1/2+y,1/2+z
-x,1/2-y,1/2+z
-x,1/2+y,1/2+z
x,1/2-y,1/2+z
1/2+x,y,1/2+z
1/2-x,-y,1/2+z
1/2-x,y,1/2+z
1/2+x,-y,1/2+z
1/2+x,1/2+y,z
1/2-x,1/2-y,z
1/2-x,1/2+y,z
1/2+x,1/2-y,z
loop_
_atom_site_type_symbol
_atom_site_label
_atom_site_fract_x
_atom_site_fract_y
_atom_site_fract_z
Si Si1 0.234842 0.338779 0.102990
Si Si2 0.439280 0.092298 0.605340
Si Si3 0.667585 0.589925 0.436525
Si Si4 0.438889 0.408021 0.325786
Si Si5 0.773210 0.589636 0.307970
Si Si6 0.834246 0.408751 0.497256
O O1 0.250000 0.250000 0.089783
O O2 0.216872 0.357161 0.213736
O O3 0.288154 0.389851 0.077963
O O4 0.184233 0.359601 0.030993
O O5 0.500000 0.118542 0.568403
O O6 0.428892 0.124116 0.715546
O O7 0.392996 0.126853 0.531598
O O8 0.435500 0.000000 0.607129
O O9 0.664390 0.500000 0.468338
O O10 0.608643 0.622757 0.398776
O O11 0.711429 0.600045 0.348789
O O12 0.500000 0.382322 0.363005
O O13 0.435015 0.500000 0.321978
O O14 0.784559 0.500000 0.281559
O O15 0.816313 0.621848 0.389900
O O16 0.838172 0.500000 0.491050
#
# Coordination Sequence:
#
# PCOD8186803 Si02
#       6
#    16  16  16  16  16  16
#     4  11  21  30  43  64  90 121 152 186 222 263
#     4   8  13  23  43  71  96 114 140 183 228 265
#     4   9  17  30  48  67  89 116 146 184 227 269
#     4   8  13  22  41  70  96 115 141 182 227 265
#     4   9  17  29  45  64  87 118 151 182 222 269
#     4   9  17  30  48  68  90 116 146 183 226 269
#
# _framework density 16.868727
#
# number of rings (size 3 to 8) (size 9 to 14) (size 15 to 20)
#    0.000    3.000    0.000    4.500    0.000    5.333 
#    0.000    0.000    0.000    2.000    0.000    4.667 
#    0.000    0.000    0.000    0.000    0.000    0.000 
#
# Total GULP energy -297461.576210 kJ/mol
# GULP energy per Si atom -12394.232342 kJ/mol
# Density = 1.683033 g / cm^3
# Si number density = 16.868727 Si / 1000 Ang^3
#
#
#
# Elastic Constant Matrix: (Units=GPa)
#
#
# Indices 1 2 3 4 5 6 
#
# 1 153.6959 18.9134 78.6049 0.0000 0.0000 0.0000
# 2 18.9134 26.3375 30.8104 0.0000 0.0000 0.0000
# 3 78.6049 30.8104 120.3871 0.0000 0.0000 0.0000
# 4 0.0000 0.0000 0.0000 6.6096 0.0000 0.0000
# 5 0.0000 0.0000 0.0000 0.0000 29.2420 0.0000
# 6 0.0000 0.0000 0.0000 0.0000 0.0000 7.7091
#
#
#
# Elastic Compliance Matrix: (Units=1/GPa)
#
#
# Indices 1 2 3 4 5 6 
#
# 1 0.009776 0.000638 -0.006546 0.000000 0.000000 0.000000
# 2 0.000638 0.054236 -0.014297 0.000000 0.000000 0.000000
# 3 -0.006546 -0.014297 0.016240 0.000000 0.000000 0.000000
# 4 0.000000 0.000000 0.000000 0.151295 0.000000 0.000000
# 5 0.000000 0.000000 0.000000 0.000000 0.034197 0.000000
# 6 0.000000 0.000000 0.000000 0.000000 0.000000 0.129718
#
#
# Mechanical properties :
#
#
# Convention : Reuss Voigt Hill
#
# Bulk Modulus (GPa) = 25.09999 61.89756 43.49878
# Shear Modulus (GPa) = 11.13210 20.18491 15.65850
#
# Velocity S-wave (km/s) = 2.57169 3.46293 3.05004
# Velocity P-wave (km/s) = 4.87134 7.26378 6.18435
#
# Compressibility (1/GPa) = 0.03984066
#
# Stress axis : x y z
#
# Youngs Moduli (GPa) = 102.29353 18.43806 61.57745
#
# Poissons Ratio (x) = -0.01176 0.40310
# Poissons Ratio (y) = -0.06524 0.88036
# Poissons Ratio (z) = 0.66963 0.26361
#
# Static dielectric constant tensor:
#      x y z
#    x 3.561170 0.000000 0.000000 
#    y 0.000000 2.691060 0.000000 
#    z 0.000000 0.000000 3.211990 
# 
# 
# High freq. dielectric constant tensor:
#      x y z
#    x 1.648980 0.000000 0.000000 
#    y 0.000000 1.601380 0.000000 
#    z 0.000000 0.000000 1.644420 
# 
# From -- ./inp_files/8812.got.cif
#   From: 2010.03.12/outbox.cif.g09.slc.cpg/sg42_5_cif.got.tgz:8812.got - 2010.04.14 02:04:31.
