data_PCOD8186394
_publ_section_title
;
Structure prediction by ZEFSAII (Michael W. Deem and Ramdas Pophale) SiO2 
 PCOD8186394
Probable space group: F M M 2
;
_chemical_formula_sum "Si O2"
_cell_formula_units_Z 80
_cell_length_a 28.684260
_cell_length_b 8.492051
_cell_length_c 15.423870
_cell_angle_alpha 90.000000
_cell_angle_beta 90.000000
_cell_angle_gamma 90.000000
_cell_volume 3757.072712
_symmetry_space_group_name_H-M "F M M 2"
_symmetry_group_IT_number 42
_symmetry_cell_setting 'orthorhombic'
loop_
_space_group_symop_operation_xyz
x,y,z
-x,-y,z
-x,y,z
x,-y,z
x,1/2+y,1/2+z
-x,1/2-y,1/2+z
-x,1/2+y,1/2+z
x,1/2-y,1/2+z
1/2+x,y,1/2+z
1/2-x,-y,1/2+z
1/2-x,y,1/2+z
1/2+x,-y,1/2+z
1/2+x,1/2+y,z
1/2-x,1/2-y,z
1/2-x,1/2+y,z
1/2+x,1/2-y,z
loop_
_atom_site_type_symbol
_atom_site_label
_atom_site_fract_x
_atom_site_fract_y
_atom_site_fract_z
Si Si1 0.894674 0.680481 0.276160
Si Si2 0.053657 0.317638 0.614002
Si Si3 0.106332 0.681465 0.953838
Si Si4 0.702556 0.183668 0.196441
Si Si5 0.200521 0.184623 0.008170
O O1 0.903065 0.500000 0.300533
O O2 0.923394 0.717852 0.190249
O O3 0.912546 0.784374 0.356935
O O4 0.839873 0.713372 0.261345
O O5 0.059903 0.500000 0.636442
O O6 0.077966 0.283449 0.522761
O O7 0.000000 0.268489 0.606280
O O8 0.099392 0.500000 0.977391
O O9 0.160504 0.728373 0.954389
O O10 0.750000 0.250000 0.240200
O O11 0.707860 0.000000 0.172243
O O12 0.692947 0.281187 0.109397
O O13 0.250000 0.250000 0.975448
O O14 0.197444 0.000000 0.989888
#
# Coordination Sequence:
#
# PCOD8186394 Si02
#       5
#    16  16  16  16  16
#     4  11  24  42  66  96 131 170 215 262 317 381
#     4  11  25  46  71  97 126 163 210 266 328 388
#     4  12  25  42  66  96 131 171 217 264 318 380
#     4  10  20  35  59  91 127 169 213 257 311 374
#     4  11  21  36  61  91 129 171 216 263 314 375
#
# _framework density 21.293174
#
# number of rings (size 3 to 8) (size 9 to 14) (size 15 to 20)
#    0.000    1.000    2.000    6.600    0.000    5.600 
#    0.000    2.000    0.000    0.000    0.000    0.000 
#    0.000    0.000    0.000    0.000    0.000    0.000 
#
# Total GULP energy -248120.032613 kJ/mol
# GULP energy per Si atom -12406.001631 kJ/mol
# Density = 2.124471 g / cm^3
# Si number density = 21.293174 Si / 1000 Ang^3
#
#
#
# Elastic Constant Matrix: (Units=GPa)
#
#
# Indices 1 2 3 4 5 6 
#
# 1 108.7381 27.4623 37.3188 0.0000 0.0000 0.0000
# 2 27.4623 74.6403 5.4755 0.0000 0.0000 0.0000
# 3 37.3188 5.4755 101.0577 0.0000 0.0000 0.0000
# 4 0.0000 0.0000 0.0000 31.8367 0.0000 0.0000
# 5 0.0000 0.0000 0.0000 0.0000 3.6650 0.0000
# 6 0.0000 0.0000 0.0000 0.0000 0.0000 29.4288
#
#
#
# Elastic Compliance Matrix: (Units=1/GPa)
#
#
# Indices 1 2 3 4 5 6 
#
# 1 0.011594 -0.003967 -0.004067 0.000000 0.000000 0.000000
# 2 -0.003967 0.014809 0.000663 0.000000 0.000000 0.000000
# 3 -0.004067 0.000663 0.011361 0.000000 0.000000 0.000000
# 4 0.000000 0.000000 0.000000 0.031410 0.000000 0.000000
# 5 0.000000 0.000000 0.000000 0.000000 0.272854 0.000000
# 6 0.000000 0.000000 0.000000 0.000000 0.000000 0.033980
#
#
# Mechanical properties :
#
#
# Convention : Reuss Voigt Hill
#
# Bulk Modulus (GPa) = 43.43779 47.21659 45.32719
# Shear Modulus (GPa) = 12.54943 27.26472 19.90708
#
# Velocity S-wave (km/s) = 2.43032 3.58221 3.06094
# Velocity P-wave (km/s) = 5.32160 6.27155 5.81600
#
# Compressibility (1/GPa) = 0.02302143
#
# Stress axis : x y z
#
# Youngs Moduli (GPa) = 86.25127 67.52778 88.01949
#
# Poissons Ratio (x) = 0.26791 0.35793
# Poissons Ratio (y) = 0.34220 -0.05834
# Poissons Ratio (z) = 0.35074 -0.04475
#
# Static dielectric constant tensor:
#      x y z
#    x 4.047220 0.000000 0.000000 
#    y 0.000000 3.915900 0.000000 
#    z 0.000000 0.000000 3.633210 
# 
# 
# High freq. dielectric constant tensor:
#      x y z
#    x 1.835940 0.000000 0.000000 
#    y 0.000000 1.846530 0.000000 
#    z 0.000000 0.000000 1.831060 
# 
# From -- ./inp_files/22431.got.cif
#   From: 2010.03.12/outbox.cif.g09.slc.cpg/sg42_12_cif.got.tgz:22431.got - 2010.04.14 02:04:31.
