data_PCOD8186235
_publ_section_title
;
Structure prediction by ZEFSAII (Michael W. Deem and Ramdas Pophale) SiO2 
 PCOD8186235
Probable space group: F M M 2
;
_chemical_formula_sum "Si O2"
_cell_formula_units_Z 96
_cell_length_a 8.838884
_cell_length_b 25.252749
_cell_length_c 24.672941
_cell_angle_alpha 90.000000
_cell_angle_beta 90.000000
_cell_angle_gamma 90.000000
_cell_volume 5507.151407
_symmetry_space_group_name_H-M "F M M 2"
_symmetry_group_IT_number 42
_symmetry_cell_setting 'orthorhombic'
loop_
_space_group_symop_operation_xyz
x,y,z
-x,-y,z
-x,y,z
x,-y,z
x,1/2+y,1/2+z
-x,1/2-y,1/2+z
-x,1/2+y,1/2+z
x,1/2-y,1/2+z
1/2+x,y,1/2+z
1/2-x,-y,1/2+z
1/2-x,y,1/2+z
1/2+x,-y,1/2+z
1/2+x,1/2+y,z
1/2-x,1/2-y,z
1/2-x,1/2+y,z
1/2+x,1/2-y,z
loop_
_atom_site_type_symbol
_atom_site_label
_atom_site_fract_x
_atom_site_fract_y
_atom_site_fract_z
Si Si1 0.326509 0.893775 0.203970
Si Si2 0.674547 0.107333 0.075882
Si Si3 0.175719 0.307094 0.775984
Si Si4 0.669873 0.000000 0.703999
Si Si5 0.323801 0.693121 0.395277
Si Si6 0.820551 0.308253 0.501543
Si Si7 0.828895 0.500000 0.575128
O O1 0.500000 0.893879 0.221321
O O2 0.305803 0.888302 0.139994
O O3 0.244931 0.844609 0.231039
O O4 0.254072 0.948063 0.225960
O O5 0.500000 0.110455 0.058421
O O6 0.767194 0.155866 0.051157
O O7 0.742306 0.052029 0.053835
O O8 0.250000 0.250000 0.770901
O O9 0.200569 0.333227 0.836043
O O10 0.000000 0.299772 0.763900
O O11 0.671321 0.000000 0.639559
O O12 0.500000 0.000000 0.726923
O O13 0.500000 0.697861 0.409875
O O14 0.250000 0.750000 0.390739
O O15 0.238441 0.664231 0.445277
O O16 0.750000 0.250000 0.508340
O O17 0.000000 0.304064 0.501448
O O18 0.000000 0.500000 0.552484
#
# Coordination Sequence:
#
# PCOD8186235 Si02
#       7
#    16  16  16   8  16  16   8
#     4  10  20  33  51  74 101 132 166 203 244 290
#     4  10  20  34  51  73 101 133 166 202 244 291
#     4  10  20  33  51  74 101 132 165 202 246 293
#     4   9  17  31  51  72  97 128 165 205 242 286
#     4   9  17  31  50  71  95 126 164 203 242 289
#     4  11  21  33  51  74 100 131 165 204 247 293
#     4   9  17  31  51  74  97 126 165 205 242 286
#
# _framework density 17.431881000000001
#
# number of rings (size 3 to 8) (size 9 to 14) (size 15 to 20)
#    0.000    2.167    0.000    5.000    0.000    6.667 
#    0.000    0.000    0.000    1.000    0.000    1.167 
#    0.000    0.000    0.000    0.000    0.000    0.000 
#
# Total GULP energy -297523.499067 kJ/mol
# GULP energy per Si atom -12396.812461 kJ/mol
# Density = 1.739220 g / cm^3
# Si number density = 17.431881 Si / 1000 Ang^3
#
#
#
# Elastic Constant Matrix: (Units=GPa)
#
#
# Indices 1 2 3 4 5 6 
#
# 1 164.9974 63.8230 46.9600 0.0000 0.0000 0.0000
# 2 63.8230 106.1652 39.7722 0.0000 0.0000 0.0000
# 3 46.9600 39.7722 45.4245 0.0000 0.0000 0.0000
# 4 0.0000 0.0000 0.0000 1.9852 0.0000 0.0000
# 5 0.0000 0.0000 0.0000 0.0000 27.1799 0.0000
# 6 0.0000 0.0000 0.0000 0.0000 0.0000 34.0912
#
#
#
# Elastic Compliance Matrix: (Units=1/GPa)
#
#
# Indices 1 2 3 4 5 6 
#
# 1 0.009156 -0.002914 -0.006914 0.000000 0.000000 0.000000
# 2 -0.002914 0.014944 -0.010072 0.000000 0.000000 0.000000
# 3 -0.006914 -0.010072 0.037981 0.000000 0.000000 0.000000
# 4 0.000000 0.000000 0.000000 0.503725 0.000000 0.000000
# 5 0.000000 0.000000 0.000000 0.000000 0.036792 0.000000
# 6 0.000000 0.000000 0.000000 0.000000 0.000000 0.029333
#
#
# Mechanical properties :
#
#
# Convention : Reuss Voigt Hill
#
# Bulk Modulus (GPa) = 44.88141 68.63305 56.75723
# Shear Modulus (GPa) = 7.36206 23.72005 15.54105
#
# Velocity S-wave (km/s) = 2.05730 3.69281 2.98909
# Velocity P-wave (km/s) = 5.60767 7.59210 6.67405
#
# Compressibility (1/GPa) = 0.02228094
#
# Stress axis : x y z
#
# Youngs Moduli (GPa) = 109.22310 66.91448 26.32891
#
# Poissons Ratio (x) = 0.19499 0.18203
# Poissons Ratio (y) = 0.31827 0.26520
# Poissons Ratio (z) = 0.75513 0.67399
#
# Static dielectric constant tensor:
#      x y z
#    x 3.492190 0.000000 0.000000 
#    y 0.000000 3.118940 0.000000 
#    z 0.000000 0.000000 3.479830 
# 
# 
# High freq. dielectric constant tensor:
#      x y z
#    x 1.698200 0.000000 0.000000 
#    y 0.000000 1.654780 0.000000 
#    z 0.000000 0.000000 1.657180 
# 
# From -- ./inp_files/28072.got.cif
#   From: 2010.03.12/outbox.cif.g09.slc.cpg/sg42_15_cif.got.tgz:28072.got - 2010.04.14 02:04:31.
