data_PCOD8186707
_publ_section_title
;
Structure prediction by ZEFSAII (Michael W. Deem and Ramdas Pophale) SiO2 
 PCOD8186707
Probable space group: F M M 2
;
_chemical_formula_sum "Si O2"
_cell_formula_units_Z 92
_cell_length_a 7.630879
_cell_length_b 21.638287
_cell_length_c 27.907420
_cell_angle_alpha 90.000000
_cell_angle_beta 90.000000
_cell_angle_gamma 90.000000
_cell_volume 4608.049465
_symmetry_space_group_name_H-M "F M M 2"
_symmetry_group_IT_number 42
_symmetry_cell_setting 'orthorhombic'
loop_
_space_group_symop_operation_xyz
x,y,z
-x,-y,z
-x,y,z
x,-y,z
x,1/2+y,1/2+z
-x,1/2-y,1/2+z
-x,1/2+y,1/2+z
x,1/2-y,1/2+z
1/2+x,y,1/2+z
1/2-x,-y,1/2+z
1/2-x,y,1/2+z
1/2+x,-y,1/2+z
1/2+x,1/2+y,z
1/2-x,1/2-y,z
1/2-x,1/2+y,z
1/2+x,1/2-y,z
loop_
_atom_site_type_symbol
_atom_site_label
_atom_site_fract_x
_atom_site_fract_y
_atom_site_fract_z
Si Si1 0.799296 0.867723 0.020330
Si Si2 0.204825 0.319726 0.622532
Si Si3 0.000000 0.430152 0.282722
Si Si4 0.793177 0.929670 0.359460
Si Si5 0.193168 0.681077 0.923547
Si Si6 0.500000 0.000000 0.121840
Si Si7 0.700547 0.000000 0.545012
Si Si8 0.000000 0.622420 0.181380
O O1 0.735467 0.854978 0.074257
O O2 0.765158 0.940533 0.011470
O O3 0.000000 0.848493 0.014548
O O4 0.698863 0.827514 0.980939
O O5 0.250000 0.250000 0.611439
O O6 0.322670 0.341823 0.666747
O O7 0.000000 0.330531 0.634533
O O8 0.178344 0.418365 0.312174
O O9 0.000000 0.500000 0.263213
O O10 0.000000 0.382945 0.238514
O O11 0.717065 0.877882 0.397098
O O12 0.000000 0.921833 0.347599
O O13 0.758695 0.000000 0.378856
O O14 0.250000 0.750000 0.908747
O O15 0.000000 0.676755 0.904397
O O16 0.675302 0.000000 0.090678
O O17 0.500000 0.942749 0.156459
O O18 0.500000 0.000000 0.564541
#
# Coordination Sequence:
#
# PCOD8186707 Si02
#       8
#    16  16   8  16  16   4   8   8
#     4  10  22  37  57  88 125 167 208 252 302 365
#     4  11  23  40  62  88 130 171 210 256 306 368
#     4  10  22  42  70  94 119 158 205 258 319 372
#     4   9  21  43  66  93 122 156 204 263 314 370
#     4  11  24  38  61  90 125 164 209 249 310 372
#     4  12  22  38  66  86 128 164 202 260 312 364
#     4  10  22  38  54  87 127 169 211 256 306 354
#     4  12  24  40  66  97 123 161 213 256 315 378
#
# _framework density 19.965064000000002
#
# number of rings (size 3 to 8) (size 9 to 14) (size 15 to 20)
#    0.000    1.565    3.043    1.043    6.087    2.087 
#    0.000    0.870    0.000    0.000    0.000    0.000 
#    0.000    0.000    0.000    0.000    0.000    0.000 
#
# Total GULP energy -285056.299794 kJ/mol
# GULP energy per Si atom -12393.752165 kJ/mol
# Density = 1.991962 g / cm^3
# Si number density = 19.965064 Si / 1000 Ang^3
#
#
#
# Elastic Constant Matrix: (Units=GPa)
#
#
# Indices 1 2 3 4 5 6 
#
# 1 91.2254 36.7948 40.2265 0.0000 0.0000 0.0000
# 2 36.7948 142.6975 53.2670 0.0000 0.0000 0.0000
# 3 40.2265 53.2670 100.8730 0.0000 0.0000 0.0000
# 4 0.0000 0.0000 0.0000 21.5097 0.0000 0.0000
# 5 0.0000 0.0000 0.0000 0.0000 25.6496 0.0000
# 6 0.0000 0.0000 0.0000 0.0000 0.0000 28.1568
#
#
#
# Elastic Compliance Matrix: (Units=1/GPa)
#
#
# Indices 1 2 3 4 5 6 
#
# 1 0.013685 -0.001858 -0.004476 0.000000 0.000000 0.000000
# 2 -0.001858 0.008981 -0.004001 0.000000 0.000000 0.000000
# 3 -0.004476 -0.004001 0.013812 0.000000 0.000000 0.000000
# 4 0.000000 0.000000 0.000000 0.046491 0.000000 0.000000
# 5 0.000000 0.000000 0.000000 0.000000 0.038987 0.000000
# 6 0.000000 0.000000 0.000000 0.000000 0.000000 0.035515
#
#
# Mechanical properties :
#
#
# Convention : Reuss Voigt Hill
#
# Bulk Modulus (GPa) = 63.26690 66.15249 64.70969
# Shear Modulus (GPa) = 27.26132 28.69704 27.97918
#
# Velocity S-wave (km/s) = 3.69921 3.79537 3.74760
# Velocity P-wave (km/s) = 7.07129 7.23965 7.15596
#
# Compressibility (1/GPa) = 0.01580605
#
# Stress axis : x y z
#
# Youngs Moduli (GPa) = 73.07243 111.35197 72.40322
#
# Poissons Ratio (x) = 0.20686 0.32410
# Poissons Ratio (y) = 0.13575 0.28972
# Poissons Ratio (z) = 0.32710 0.44557
#
# Static dielectric constant tensor:
#      x y z
#    x 3.742380 0.000000 0.000000 
#    y 0.000000 4.619120 0.000000 
#    z 0.000000 0.000000 3.283850 
# 
# 
# High freq. dielectric constant tensor:
#      x y z
#    x 1.786550 0.000000 0.000000 
#    y 0.000000 1.797460 0.000000 
#    z 0.000000 0.000000 1.745790 
# 
# From -- ./inp_files/30228.got.cif
#   From: 2010.03.12/outbox.cif.g09.slc.cpg/sg42_16_cif.got.tgz:30228.got - 2010.04.14 02:04:31.
