data_PCOD8186438
_publ_section_title
;
Structure prediction by ZEFSAII (Michael W. Deem and Ramdas Pophale) SiO2 
 PCOD8186438
Probable space group: F M M 2
;
_chemical_formula_sum "Si O2"
_cell_formula_units_Z 88
_cell_length_a 16.175330
_cell_length_b 23.836697
_cell_length_c 10.758267
_cell_angle_alpha 90.000000
_cell_angle_beta 90.000000
_cell_angle_gamma 90.000000
_cell_volume 4148.026709
_symmetry_space_group_name_H-M "F M M 2"
_symmetry_group_IT_number 42
_symmetry_cell_setting 'orthorhombic'
loop_
_space_group_symop_operation_xyz
x,y,z
-x,-y,z
-x,y,z
x,-y,z
x,1/2+y,1/2+z
-x,1/2-y,1/2+z
-x,1/2+y,1/2+z
x,1/2-y,1/2+z
1/2+x,y,1/2+z
1/2-x,-y,1/2+z
1/2-x,y,1/2+z
1/2+x,-y,1/2+z
1/2+x,1/2+y,z
1/2-x,1/2-y,z
1/2-x,1/2+y,z
1/2+x,1/2-y,z
loop_
_atom_site_type_symbol
_atom_site_label
_atom_site_fract_x
_atom_site_fract_y
_atom_site_fract_z
Si Si1 0.402080 0.500000 0.783231
Si Si2 0.596687 0.228052 0.125672
Si Si3 0.907881 0.107548 0.655489
Si Si4 0.168744 0.283751 0.856563
Si Si5 0.904691 0.500000 0.718267
Si Si6 0.787280 0.000000 0.993917
Si Si7 0.342396 0.588781 0.402314
O O1 0.500000 0.500000 0.765498
O O2 0.360674 0.555434 0.720404
O O3 0.375310 0.500000 0.924119
O O4 0.500000 0.221709 0.100251
O O5 0.633578 0.168521 0.177822
O O6 0.611234 0.273671 0.234135
O O7 0.634933 0.240649 0.988755
O O8 0.910557 0.096318 0.508848
O O9 0.000000 0.108743 0.710387
O O10 0.250000 0.250000 0.823986
O O11 0.187223 0.350025 0.857983
O O12 0.823821 0.500000 0.630906
O O13 0.891883 0.556344 0.796437
O O14 0.000000 0.500000 0.665035
O O15 0.735820 0.944570 0.958992
#
# Coordination Sequence:
#
# PCOD8186438 Si02
#       7
#     8  16  16  16   8   8  16
#     4  10  20  36  59  85 117 157 198 247 309 374
#     4  10  22  41  65  93 125 165 220 272 319 377
#     4   9  19  37  63  88 116 158 210 256 306 379
#     4  11  24  42  64  94 130 174 216 268 324 389
#     4  11  24  43  66  96 129 164 210 267 325 382
#     4  11  25  37  60  91 130 159 200 256 321 378
#     4  10  24  40  63  90 126 166 209 257 318 382
#
# _framework density 21.214907
#
# number of rings (size 3 to 8) (size 9 to 14) (size 15 to 20)
#    0.000    1.818    0.000    3.000    7.636    5.818 
#    0.000    0.000    0.000    0.000    0.000    0.000 
#    0.000    0.000    0.000    0.000    0.000    0.000 
#
# Total GULP energy -272543.937772 kJ/mol
# GULP energy per Si atom -12388.360808 kJ/mol
# Density = 2.116662 g / cm^3
# Si number density = 21.214907 Si / 1000 Ang^3
#
#
#
# Elastic Constant Matrix: (Units=GPa)
#
#
# Indices 1 2 3 4 5 6 
#
# 1 65.9911 24.2045 12.1875 0.0000 0.0000 0.0000
# 2 24.2045 133.1143 39.4244 0.0000 0.0000 0.0000
# 3 12.1875 39.4244 90.5690 0.0000 0.0000 0.0000
# 4 0.0000 0.0000 0.0000 25.6705 0.0000 0.0000
# 5 0.0000 0.0000 0.0000 0.0000 38.4225 0.0000
# 6 0.0000 0.0000 0.0000 0.0000 0.0000 10.9664
#
#
#
# Elastic Compliance Matrix: (Units=1/GPa)
#
#
# Indices 1 2 3 4 5 6 
#
# 1 0.016321 -0.002660 -0.001038 0.000000 0.000000 0.000000
# 2 -0.002660 0.009058 -0.003585 0.000000 0.000000 0.000000
# 3 -0.001038 -0.003585 0.012741 0.000000 0.000000 0.000000
# 4 0.000000 0.000000 0.000000 0.038955 0.000000 0.000000
# 5 0.000000 0.000000 0.000000 0.000000 0.026026 0.000000
# 6 0.000000 0.000000 0.000000 0.000000 0.000000 0.091187
#
#
# Mechanical properties :
#
#
# Convention : Reuss Voigt Hill
#
# Bulk Modulus (GPa) = 42.45625 49.03414 45.74519
# Shear Modulus (GPa) = 23.07262 29.26910 26.17086
#
# Velocity S-wave (km/s) = 3.30140 3.71839 3.51608
# Velocity P-wave (km/s) = 5.88118 6.44969 6.17198
#
# Compressibility (1/GPa) = 0.02355366
#
# Stress axis : x y z
#
# Youngs Moduli (GPa) = 61.27064 110.40242 78.48375
#
# Poissons Ratio (x) = 0.29369 0.08149
# Poissons Ratio (y) = 0.16299 0.28135
# Poissons Ratio (z) = 0.06362 0.39578
#
# Static dielectric constant tensor:
#      x y z
#    x 3.558560 0.000000 0.000000 
#    y 0.000000 4.145940 0.000000 
#    z 0.000000 0.000000 3.746800 
# 
# 
# High freq. dielectric constant tensor:
#      x y z
#    x 1.822100 0.000000 0.000000 
#    y 0.000000 1.840290 0.000000 
#    z 0.000000 0.000000 1.829170 
# 
# From -- ./inp_files/7864.got.cif
#   From: 2010.03.12/outbox.cif.g09.slc.cpg/sg42_4_cif.got.tgz:7864.got - 2010.04.14 02:04:31.
