data_PCOD8186226
_publ_section_title
;
Structure prediction by ZEFSAII (Michael W. Deem and Ramdas Pophale) SiO2 
 PCOD8186226
Probable space group: F M M 2
;
_chemical_formula_sum "Si O2"
_cell_formula_units_Z 104
_cell_length_a 21.722733
_cell_length_b 28.234730
_cell_length_c 9.154528
_cell_angle_alpha 90.000000
_cell_angle_beta 90.000000
_cell_angle_gamma 90.000000
_cell_volume 5614.797018
_symmetry_space_group_name_H-M "F M M 2"
_symmetry_group_IT_number 42
_symmetry_cell_setting 'orthorhombic'
loop_
_space_group_symop_operation_xyz
x,y,z
-x,-y,z
-x,y,z
x,-y,z
x,1/2+y,1/2+z
-x,1/2-y,1/2+z
-x,1/2+y,1/2+z
x,1/2-y,1/2+z
1/2+x,y,1/2+z
1/2-x,-y,1/2+z
1/2-x,y,1/2+z
1/2+x,-y,1/2+z
1/2+x,1/2+y,z
1/2-x,1/2-y,z
1/2-x,1/2+y,z
1/2+x,1/2-y,z
loop_
_atom_site_type_symbol
_atom_site_label
_atom_site_fract_x
_atom_site_fract_y
_atom_site_fract_z
Si Si1 0.800328 0.614928 0.805530
Si Si2 0.193097 0.052201 0.814795
Si Si3 0.500000 0.054039 0.707942
Si Si4 0.128176 0.607419 0.091530
Si Si5 0.793711 0.688203 0.206794
Si Si6 0.000000 0.056800 0.553104
Si Si7 0.125234 0.053830 0.095595
Si Si8 0.750000 0.750000 0.948236
O O1 0.744370 0.586850 0.881278
O O2 0.772409 0.663400 0.741613
O O3 0.821736 0.584197 0.669114
O O4 0.854708 0.620646 0.924676
O O5 0.171628 0.065530 0.651444
O O6 0.221407 0.000000 0.809360
O O7 0.133927 0.055009 0.921543
O O8 0.560237 0.078032 0.637810
O O9 0.500000 0.000000 0.655793
O O10 0.500000 0.058517 0.880316
O O11 0.146746 0.653179 0.193579
O O12 0.058694 0.587580 0.107993
O O13 0.801128 0.724675 0.342389
O O14 0.787034 0.713339 0.049792
O O15 0.000000 0.000000 0.602200
O O16 0.128808 0.000000 0.156480
#
# Coordination Sequence:
#
# PCOD8186226 Si02
#       8
#    16  16   8  16  16   8  16   8
#     4  11  20  33  53  81 116 145 185 236 295 356
#     4  10  21  32  48  76 111 150 190 243 299 339
#     4   9  18  33  51  69  97 148 211 245 268 310
#     4  11  22  36  55  83 119 154 199 247 283 349
#     4  10  21  37  59  93 114 147 179 241 305 370
#     4  11  22  37  57  81 117 174 215 239 276 334
#     4  10  20  33  50  72 106 152 199 242 279 331
#     4  10  20  38  64  88 120 142 182 232 320 388
#
# _framework density 18.522485
#
# number of rings (size 3 to 8) (size 9 to 14) (size 15 to 20)
#    0.000    1.692    3.077    2.769    2.154    3.692 
#    0.000    1.538    0.000    0.923    0.000    0.000 
#    0.000    0.000    0.000    0.000    0.000    0.000 
#
# Total GULP energy -322111.303147 kJ/mol
# GULP energy per Si atom -12388.896275 kJ/mol
# Density = 1.848033 g / cm^3
# Si number density = 18.522485 Si / 1000 Ang^3
#
#
#
# Elastic Constant Matrix: (Units=GPa)
#
#
# Indices 1 2 3 4 5 6 
#
# 1 96.3794 40.5180 23.3079 0.0002 -0.0003 -0.0001
# 2 40.5180 92.8553 37.2533 0.0002 -0.0002 -0.0001
# 3 23.3079 37.2533 84.2654 0.0007 -0.0008 -0.0004
# 4 0.0002 0.0002 0.0007 28.2673 -0.0004 -0.0002
# 5 -0.0003 -0.0002 -0.0008 -0.0004 27.3095 0.0002
# 6 -0.0001 -0.0001 -0.0004 -0.0002 0.0002 21.0455
#
#
#
# Elastic Compliance Matrix: (Units=1/GPa)
#
#
# Indices 1 2 3 4 5 6 
#
# 1 0.012824 -0.005072 -0.001305 0.000000 0.000000 0.000000
# 2 -0.005072 0.015098 -0.005272 0.000000 0.000000 0.000000
# 3 -0.001305 -0.005272 0.014559 0.000000 0.000000 0.000000
# 4 0.000000 0.000000 0.000000 0.035377 0.000000 0.000000
# 5 0.000000 0.000000 0.000000 0.000000 0.036617 0.000000
# 6 0.000000 0.000000 0.000000 0.000000 0.000000 0.047516
#
#
# Mechanical properties :
#
#
# Convention : Reuss Voigt Hill
#
# Bulk Modulus (GPa) = 52.12947 52.85093 52.49020
# Shear Modulus (GPa) = 26.08500 26.81920 26.45210
#
# Velocity S-wave (km/s) = 3.75679 3.80929 3.78313
# Velocity P-wave (km/s) = 6.85733 6.92408 6.89079
#
# Compressibility (1/GPa) = 0.01918301
#
# Stress axis : x y z
#
# Youngs Moduli (GPa) = 77.98165 66.23522 68.68751
#
# Poissons Ratio (x) = 0.33596 0.08961
# Poissons Ratio (y) = 0.39554 0.36210
# Poissons Ratio (z) = 0.10173 0.34917
#
# Static dielectric constant tensor:
#      x y z
#    x 3.350510 0.000000 0.000000 
#    y 0.000000 3.500520 0.000000 
#    z 0.000000 0.000000 3.364240 
# 
# 
# High freq. dielectric constant tensor:
#      x y z
#    x 1.689740 0.000000 0.000000 
#    y 0.000000 1.705500 0.000000 
#    z 0.000000 0.000000 1.728780 
# 
# From -- ./inp_files/4377.got.cif
#   From: 2010.03.12/outbox.cif.g09.slc.cpg/sg42_3_cif.got.tgz:4377.got - 2010.04.14 02:04:31.
