data_PCOD8186629
_publ_section_title
;
Structure prediction by ZEFSAII (Michael W. Deem and Ramdas Pophale) SiO2 
 PCOD8186629
Probable space group: F M M 2
;
_chemical_formula_sum "Si O2"
_cell_formula_units_Z 96
_cell_length_a 8.864302
_cell_length_b 28.040756
_cell_length_c 20.085489
_cell_angle_alpha 90.000000
_cell_angle_beta 90.000000
_cell_angle_gamma 90.000000
_cell_volume 4992.483884
_symmetry_space_group_name_H-M "F M M 2"
_symmetry_group_IT_number 42
_symmetry_cell_setting 'orthorhombic'
loop_
_space_group_symop_operation_xyz
x,y,z
-x,-y,z
-x,y,z
x,-y,z
x,1/2+y,1/2+z
-x,1/2-y,1/2+z
-x,1/2+y,1/2+z
x,1/2-y,1/2+z
1/2+x,y,1/2+z
1/2-x,-y,1/2+z
1/2-x,y,1/2+z
1/2+x,-y,1/2+z
1/2+x,1/2+y,z
1/2-x,1/2-y,z
1/2-x,1/2+y,z
1/2+x,1/2-y,z
loop_
_atom_site_type_symbol
_atom_site_label
_atom_site_fract_x
_atom_site_fract_y
_atom_site_fract_z
Si Si1 0.172408 0.649793 0.064860
Si Si2 0.825406 0.052881 0.873717
Si Si3 0.822268 0.801034 0.184539
Si Si4 0.326048 0.799244 0.926636
Si Si5 0.822428 0.552360 0.013349
Si Si6 0.322626 0.852312 0.304681
O O1 0.281017 0.680729 0.111032
O O2 0.000000 0.656254 0.089664
O O3 0.189479 0.665935 0.988982
O O4 0.222774 0.593840 0.065857
O O5 0.739282 0.064945 0.940999
O O6 0.784018 0.092111 0.818217
O O7 0.000000 0.056050 0.892045
O O8 0.782797 0.000000 0.846608
O O9 0.750000 0.750000 0.199388
O O10 0.760970 0.839347 0.236784
O O11 0.000000 0.795878 0.190740
O O12 0.500000 0.791550 0.906534
O O13 0.250000 0.750000 0.947817
O O14 0.236854 0.819885 0.864194
O O15 0.764399 0.500000 0.037730
O O16 0.000000 0.552242 0.005422
O O17 0.500000 0.843543 0.296314
#
# Coordination Sequence:
#
# PCOD8186629 Si02
#       6
#    16  16  16  16  16  16
#     4  10  21  38  59  86 118 152 192 236 284 341
#     4   9  18  33  56  87 119 151 188 232 283 337
#     4  12  26  43  62  82 112 153 196 241 293 349
#     4  11  22  36  56  84 115 147 188 240 288 340
#     4   9  17  32  57  88 120 153 188 230 282 337
#     4  11  22  38  60  85 116 152 192 237 286 342
#
# _framework density 19.228905000000001
#
# number of rings (size 3 to 8) (size 9 to 14) (size 15 to 20)
#    0.000    1.667    1.667    3.500    0.000    4.000 
#    0.000    0.833    0.000    5.000    0.000    0.000 
#    0.000    0.000    0.000    0.000    0.000    0.000 
#
# Total GULP energy -297605.500559 kJ/mol
# GULP energy per Si atom -12400.229190 kJ/mol
# Density = 1.918514 g / cm^3
# Si number density = 19.228905 Si / 1000 Ang^3
#
#
#
# Elastic Constant Matrix: (Units=GPa)
#
#
# Indices 1 2 3 4 5 6 
#
# 1 87.8169 41.5990 24.6976 0.0000 0.0000 0.0000
# 2 41.5990 121.1005 23.5361 0.0000 0.0000 0.0000
# 3 24.6976 23.5361 58.7603 0.0000 0.0000 0.0000
# 4 0.0000 0.0000 0.0000 23.8931 0.0000 0.0000
# 5 0.0000 0.0000 0.0000 0.0000 13.7679 0.0000
# 6 0.0000 0.0000 0.0000 0.0000 0.0000 25.8656
#
#
#
# Elastic Compliance Matrix: (Units=1/GPa)
#
#
# Indices 1 2 3 4 5 6 
#
# 1 0.014613 -0.004149 -0.004480 0.000000 0.000000 0.000000
# 2 -0.004149 0.010133 -0.002315 0.000000 0.000000 0.000000
# 3 -0.004480 -0.002315 0.019828 0.000000 0.000000 0.000000
# 4 0.000000 0.000000 0.000000 0.041853 0.000000 0.000000
# 5 0.000000 0.000000 0.000000 0.000000 0.072633 0.000000
# 6 0.000000 0.000000 0.000000 0.000000 0.000000 0.038661
#
#
# Mechanical properties :
#
#
# Convention : Reuss Voigt Hill
#
# Bulk Modulus (GPa) = 44.07927 49.70481 46.89204
# Shear Modulus (GPa) = 22.00988 24.56163 23.28576
#
# Velocity S-wave (km/s) = 3.38690 3.57785 3.48368
# Velocity P-wave (km/s) = 6.18611 6.55539 6.37343
#
# Compressibility (1/GPa) = 0.02268640
#
# Stress axis : x y z
#
# Youngs Moduli (GPa) = 68.43402 98.69088 50.43255
#
# Poissons Ratio (x) = 0.40945 0.22594
# Poissons Ratio (y) = 0.28392 0.11674
# Poissons Ratio (z) = 0.30659 0.22845
#
# Static dielectric constant tensor:
#      x y z
#    x 3.569360 0.000000 0.000000 
#    y 0.000000 4.098180 0.000000 
#    z 0.000000 0.000000 3.273490 
# 
# 
# High freq. dielectric constant tensor:
#      x y z
#    x 1.750570 0.000000 0.000000 
#    y 0.000000 1.770120 0.000000 
#    z 0.000000 0.000000 1.724790 
# 
# From -- ./inp_files/23700.got.cif
#   From: 2010.03.12/outbox.cif.g09.slc.cpg/sg42_12_cif.got.tgz:23700.got - 2010.04.14 02:04:31.
