data_PCOD8186150
_publ_section_title
;
Structure prediction by ZEFSAII (Michael W. Deem and Ramdas Pophale) SiO2 
 PCOD8186150
Probable space group: F M M 2
;
_chemical_formula_sum "Si O2"
_cell_formula_units_Z 96
_cell_length_a 8.613345
_cell_length_b 25.534664
_cell_length_c 23.407797
_cell_angle_alpha 90.000000
_cell_angle_beta 90.000000
_cell_angle_gamma 90.000000
_cell_volume 5148.284433
_symmetry_space_group_name_H-M "F M M 2"
_symmetry_group_IT_number 42
_symmetry_cell_setting 'orthorhombic'
loop_
_space_group_symop_operation_xyz
x,y,z
-x,-y,z
-x,y,z
x,-y,z
x,1/2+y,1/2+z
-x,1/2-y,1/2+z
-x,1/2+y,1/2+z
x,1/2-y,1/2+z
1/2+x,y,1/2+z
1/2-x,-y,1/2+z
1/2-x,y,1/2+z
1/2+x,-y,1/2+z
1/2+x,1/2+y,z
1/2-x,1/2-y,z
1/2-x,1/2+y,z
1/2+x,1/2-y,z
loop_
_atom_site_type_symbol
_atom_site_label
_atom_site_fract_x
_atom_site_fract_y
_atom_site_fract_z
Si Si1 0.316256 0.000000 0.171850
Si Si2 0.317612 0.403956 0.240237
Si Si3 0.817184 0.304994 0.047743
Si Si4 0.182171 0.560742 0.356970
Si Si5 0.183871 0.000000 0.544728
Si Si6 0.815712 0.693975 0.177428
Si Si7 0.684539 0.098187 0.972354
O O1 0.262147 0.948338 0.203135
O O2 0.500000 0.000000 0.170838
O O3 0.245655 0.000000 0.108212
O O4 0.500000 0.407521 0.232122
O O5 0.274908 0.412381 0.305922
O O6 0.257366 0.347909 0.219979
O O7 0.750000 0.250000 0.026498
O O8 0.762444 0.318431 0.112271
O O9 0.000000 0.301047 0.046925
O O10 0.759734 0.349060 0.003739
O O11 0.232641 0.500000 0.363693
O O12 0.227966 0.593707 0.412558
O O13 0.000000 0.565232 0.345088
O O14 0.243266 0.949033 0.511914
O O15 0.000000 0.000000 0.548538
O O16 0.750000 0.750000 0.196462
O O17 0.000000 0.693234 0.183481
O O18 0.500000 0.096482 0.962622
#
# Coordination Sequence:
#
# PCOD8186150 Si02
#       7
#     8  16  16  16   8  16  16
#     4  11  21  36  57  84 117 152 188 235 290 345
#     4  12  24  38  58  85 115 152 196 240 289 346
#     4   9  19  35  58  86 116 153 191 230 282 340
#     4  11  23  39  58  81 112 152 193 238 294 347
#     4   9  18  32  55  82 111 144 180 227 284 345
#     4  10  20  38  62  88 120 155 193 237 287 344
#     4  10  19  35  58  83 111 147 191 232 279 343
#
# _framework density 18.646986999999999
#
# number of rings (size 3 to 8) (size 9 to 14) (size 15 to 20)
#    0.000    1.667    1.667    3.750    0.000    4.667 
#    0.000    4.167    0.000    2.000    0.000    0.000 
#    0.000    0.000    0.000    0.000    0.000    0.000 
#
# Total GULP energy -297685.143310 kJ/mol
# GULP energy per Si atom -12403.547638 kJ/mol
# Density = 1.860455 g / cm^3
# Si number density = 18.646987 Si / 1000 Ang^3
#
#
#
# Elastic Constant Matrix: (Units=GPa)
#
#
# Indices 1 2 3 4 5 6 
#
# 1 60.5461 30.2544 25.8572 0.0000 0.0000 0.0000
# 2 30.2544 141.8656 66.9231 0.0000 0.0000 0.0000
# 3 25.8572 66.9231 126.0482 0.0000 0.0000 0.0000
# 4 0.0000 0.0000 0.0000 304.8362 0.0000 0.0000
# 5 0.0000 0.0000 0.0000 0.0000 29.1656 0.0000
# 6 0.0000 0.0000 0.0000 0.0000 0.0000 19.8823
#
#
#
# Elastic Compliance Matrix: (Units=1/GPa)
#
#
# Indices 1 2 3 4 5 6 
#
# 1 0.018985 -0.002951 -0.002328 0.000000 0.000000 0.000000
# 2 -0.002951 0.009863 -0.004631 0.000000 0.000000 0.000000
# 3 -0.002328 -0.004631 0.010870 0.000000 0.000000 0.000000
# 4 0.000000 0.000000 0.000000 0.003280 0.000000 0.000000
# 5 0.000000 0.000000 0.000000 0.000000 0.034287 0.000000
# 6 0.000000 0.000000 0.000000 0.000000 0.000000 0.050296
#
#
# Mechanical properties :
#
#
# Convention : Reuss Voigt Hill
#
# Bulk Modulus (GPa) = 50.25592 63.83658 57.04625
# Shear Modulus (GPa) = 32.46049 84.47184 58.46617
#
# Velocity S-wave (km/s) = 4.17680 6.73787 5.60556
# Velocity P-wave (km/s) = 7.09018 9.73860 8.51795
#
# Compressibility (1/GPa) = 0.01989815
#
# Stress axis : x y z
#
# Youngs Moduli (GPa) = 52.67340 101.39008 91.99707
#
# Poissons Ratio (x) = 0.29916 0.21417
# Poissons Ratio (y) = 0.15542 0.42606
# Poissons Ratio (z) = 0.12262 0.46956
#
# Static dielectric constant tensor:
#      x y z
#    x 3.348190 0.000000 0.000000 
#    y 0.000000 1.782790 0.000000 
#    z 0.000000 0.000000 3.566640 
# 
# 
# High freq. dielectric constant tensor:
#      x y z
#    x 1.720660 0.000000 0.000000 
#    y 0.000000 1.728430 0.000000 
#    z 0.000000 0.000000 1.727640 
# 
# From -- ./inp_files/28090.got.cif
#   From: 2010.03.12/outbox.cif.g09.slc.cpg/sg42_15_cif.got.tgz:28090.got - 2010.04.14 02:04:31.
