data_PCOD8186534
_publ_section_title
;
Structure prediction by ZEFSAII (Michael W. Deem and Ramdas Pophale) SiO2 
 PCOD8186534
Probable space group: F M M 2
;
_chemical_formula_sum "Si O2"
_cell_formula_units_Z 96
_cell_length_a 17.929453
_cell_length_b 22.991808
_cell_length_c 11.172505
_cell_angle_alpha 90.000000
_cell_angle_beta 90.000000
_cell_angle_gamma 90.000000
_cell_volume 4605.647780
_symmetry_space_group_name_H-M "F M M 2"
_symmetry_group_IT_number 42
_symmetry_cell_setting 'orthorhombic'
loop_
_space_group_symop_operation_xyz
x,y,z
-x,-y,z
-x,y,z
x,-y,z
x,1/2+y,1/2+z
-x,1/2-y,1/2+z
-x,1/2+y,1/2+z
x,1/2-y,1/2+z
1/2+x,y,1/2+z
1/2-x,-y,1/2+z
1/2-x,y,1/2+z
1/2+x,-y,1/2+z
1/2+x,1/2+y,z
1/2-x,1/2-y,z
1/2-x,1/2+y,z
1/2+x,1/2-y,z
loop_
_atom_site_type_symbol
_atom_site_label
_atom_site_fract_x
_atom_site_fract_y
_atom_site_fract_z
Si Si1 0.381811 0.935012 0.128410
Si Si2 0.284225 0.436058 0.036363
Si Si3 0.670952 0.357219 0.826911
Si Si4 0.919671 0.846508 0.438598
Si Si5 0.177854 0.344425 0.714257
Si Si6 0.088023 0.780170 0.020048
O O1 0.298313 0.941312 0.084210
O O2 0.385858 0.896470 0.249351
O O3 0.415374 0.000000 0.149709
O O4 0.427345 0.901004 0.027434
O O5 0.319068 0.500000 0.016060
O O6 0.332046 0.402770 0.136333
O O7 0.284667 0.400677 0.913651
O O8 0.734906 0.327872 0.741118
O O9 0.623932 0.309815 0.901544
O O10 0.858721 0.858281 0.339955
O O11 0.899217 0.788513 0.511640
O O12 0.000000 0.837892 0.376013
O O13 0.133815 0.294870 0.640818
O O14 0.000000 0.796788 0.030389
#
# Coordination Sequence:
#
# PCOD8186534 Si02
#       6
#    16  16  16  16  16  16
#     4  10  21  37  58  88 124 159 203 253 306 368
#     4   9  18  36  62  90 122 157 198 252 313 366
#     4  10  20  39  64  95 120 159 209 258 303 361
#     4  11  24  41  60  86 124 167 204 251 318 374
#     4  10  21  40  61  94 120 159 211 258 304 365
#     4  10  24  43  63  87 127 171 204 253 318 379
#
# _framework density 20.843973999999999
#
# number of rings (size 3 to 8) (size 9 to 14) (size 15 to 20)
#    0.000    2.000    1.667    1.000    2.333    3.000 
#    3.000    0.000    0.000   16.000    0.000    0.000 
#    0.000    0.000    0.000    0.000    0.000    0.000 
#
# Total GULP energy -297485.922613 kJ/mol
# GULP energy per Si atom -12395.246776 kJ/mol
# Density = 2.079653 g / cm^3
# Si number density = 20.843974 Si / 1000 Ang^3
#
#
#
# Elastic Constant Matrix: (Units=GPa)
#
#
# Indices 1 2 3 4 5 6 
#
# 1 80.3106 35.6967 35.6254 0.0000 0.0000 0.0000
# 2 35.6967 105.1296 30.5460 0.0000 0.0000 0.0000
# 3 35.6254 30.5460 94.4533 0.0000 0.0000 0.0000
# 4 0.0000 0.0000 0.0000 21.6234 0.0000 0.0000
# 5 0.0000 0.0000 0.0000 0.0000 25.7169 0.0000
# 6 0.0000 0.0000 0.0000 0.0000 0.0000 12.3149
#
#
#
# Elastic Compliance Matrix: (Units=1/GPa)
#
#
# Indices 1 2 3 4 5 6 
#
# 1 0.016464 -0.004179 -0.004858 0.000000 0.000000 0.000000
# 2 -0.004179 0.011559 -0.002162 0.000000 0.000000 0.000000
# 3 -0.004858 -0.002162 0.013119 0.000000 0.000000 0.000000
# 4 0.000000 0.000000 0.000000 0.046246 0.000000 0.000000
# 5 0.000000 0.000000 0.000000 0.000000 0.038885 0.000000
# 6 0.000000 0.000000 0.000000 0.000000 0.000000 0.081203
#
#
# Mechanical properties :
#
#
# Convention : Reuss Voigt Hill
#
# Bulk Modulus (GPa) = 53.35129 53.73662 53.54396
# Shear Modulus (GPa) = 21.17545 23.79941 22.48743
#
# Velocity S-wave (km/s) = 3.19078 3.38270 3.28814
# Velocity P-wave (km/s) = 6.26306 6.41040 6.33716
#
# Compressibility (1/GPa) = 0.01874369
#
# Stress axis : x y z
#
# Youngs Moduli (GPa) = 60.73765 86.51140 76.22562
#
# Poissons Ratio (x) = 0.36151 0.37034
# Poissons Ratio (y) = 0.25381 0.16481
# Poissons Ratio (z) = 0.29509 0.18704
#
# Static dielectric constant tensor:
#      x y z
#    x 3.682000 0.000000 0.000000 
#    y 0.000000 4.051760 0.000000 
#    z 0.000000 0.000000 3.808620 
# 
# 
# High freq. dielectric constant tensor:
#      x y z
#    x 1.804930 0.000000 0.000000 
#    y 0.000000 1.817400 0.000000 
#    z 0.000000 0.000000 1.821460 
# 
# From -- ./inp_files/8808.got.cif
#   From: 2010.03.12/outbox.cif.g09.slc.cpg/sg42_5_cif.got.tgz:8808.got - 2010.04.14 02:04:31.
