data_PCOD8186877
_publ_section_title
;
Structure prediction by ZEFSAII (Michael W. Deem and Ramdas Pophale) SiO2 
 PCOD8186877
Probable space group: F M M 2
;
_chemical_formula_sum "Si O2"
_cell_formula_units_Z 104
_cell_length_a 27.759743
_cell_length_b 21.069684
_cell_length_c 8.906672
_cell_angle_alpha 90.000000
_cell_angle_beta 90.000000
_cell_angle_gamma 90.000000
_cell_volume 5209.414595
_symmetry_space_group_name_H-M "F M M 2"
_symmetry_group_IT_number 42
_symmetry_cell_setting 'orthorhombic'
loop_
_space_group_symop_operation_xyz
x,y,z
-x,-y,z
-x,y,z
x,-y,z
x,1/2+y,1/2+z
-x,1/2-y,1/2+z
-x,1/2+y,1/2+z
x,1/2-y,1/2+z
1/2+x,y,1/2+z
1/2-x,-y,1/2+z
1/2-x,y,1/2+z
1/2+x,-y,1/2+z
1/2+x,1/2+y,z
1/2-x,1/2-y,z
1/2-x,1/2+y,z
1/2+x,1/2-y,z
loop_
_atom_site_type_symbol
_atom_site_label
_atom_site_fract_x
_atom_site_fract_y
_atom_site_fract_z
Si Si1 0.445969 0.392096 0.079960
Si Si2 0.205911 0.570760 0.724252
Si Si3 0.202723 0.102485 0.555732
Si Si4 0.149258 0.174117 0.065379
Si Si5 0.696914 0.276948 0.759752
Si Si6 0.443602 0.000000 0.805715
Si Si7 0.948169 0.000000 0.840385
Si Si8 0.876125 0.000000 0.583039
O O1 0.500000 0.364089 0.105472
O O2 0.408658 0.333712 0.055469
O O3 0.429161 0.435537 0.219425
O O4 0.446056 0.436257 0.935663
O O5 0.185765 0.500000 0.762064
O O6 0.256347 0.562706 0.639542
O O7 0.169754 0.605367 0.611211
O O8 0.214241 0.609796 0.878406
O O9 0.199915 0.172027 0.626284
O O10 0.153377 0.064775 0.572231
O O11 0.161856 0.222533 0.198159
O O12 0.173176 0.194439 0.908823
O O13 0.750000 0.250000 0.795561
O O14 0.500000 0.000000 0.833562
O O15 0.417384 0.000000 0.961698
O O16 0.901237 0.000000 0.741760
O O17 0.000000 0.000000 0.754229
#
# Coordination Sequence:
#
# PCOD8186877 Si02
#       8
#    16  16  16  16  16   8   8   8
#     4   9  20  41  65  93 122 164 213 263 324 389
#     4  12  24  42  60  94 132 168 207 261 323 376
#     4  12  25  40  61  90 130 171 214 262 312 384
#     4  12  25  42  70  89 130 170 224 266 323 374
#     4  12  26  45  63  93 124 181 225 268 305 388
#     4   9  19  37  65  95 129 168 208 257 325 394
#     4   9  19  35  59  91 127 160 204 259 319 388
#     4  12  21  36  60  98 132 160 209 262 332 372
#
# _framework density 19.963854999999999
#
# number of rings (size 3 to 8) (size 9 to 14) (size 15 to 20)
#    0.000    0.923    3.077    5.308    2.154    0.000 
#    1.385    0.769    0.000    1.846    0.000    0.000 
#    0.000    0.000    0.000    0.000    0.000    0.000 
#
# Total GULP energy -322433.418255 kJ/mol
# GULP energy per Si atom -12401.285318 kJ/mol
# Density = 1.991842 g / cm^3
# Si number density = 19.963855 Si / 1000 Ang^3
#
#
#
# Elastic Constant Matrix: (Units=GPa)
#
#
# Indices 1 2 3 4 5 6 
#
# 1 87.5274 53.2368 36.3133 0.0001 0.0000 0.0001
# 2 53.2368 98.2538 33.6816 -0.0002 0.0000 0.0000
# 3 36.3133 33.6816 108.0251 -0.0007 0.0000 0.0000
# 4 0.0001 -0.0002 -0.0007 33.7400 0.0001 0.0002
# 5 0.0000 0.0000 0.0000 0.0001 29.8928 0.0000
# 6 0.0001 0.0000 0.0000 0.0002 0.0000 45.1254
#
#
#
# Elastic Compliance Matrix: (Units=1/GPa)
#
#
# Indices 1 2 3 4 5 6 
#
# 1 0.018083 -0.008637 -0.003386 0.000000 0.000000 0.000000
# 2 -0.008637 0.015521 -0.001936 0.000000 0.000000 0.000000
# 3 -0.003386 -0.001936 0.010999 0.000000 0.000000 0.000000
# 4 0.000000 0.000000 0.000000 0.029638 0.000000 0.000000
# 5 0.000000 0.000000 0.000000 0.000000 0.033453 0.000000
# 6 0.000000 0.000000 0.000000 0.000000 0.000000 0.022160
#
#
# Mechanical properties :
#
#
# Convention : Reuss Voigt Hill
#
# Bulk Modulus (GPa) = 59.93287 60.02995 59.98141
# Shear Modulus (GPa) = 30.61194 33.12328 31.86761
#
# Velocity S-wave (km/s) = 3.92007 4.07770 3.99966
# Velocity P-wave (km/s) = 7.11162 7.23220 7.17217
#
# Compressibility (1/GPa) = 0.01668534
#
# Stress axis : x y z
#
# Youngs Moduli (GPa) = 55.30008 64.42733 90.91863
#
# Poissons Ratio (x) = 0.55648 0.30782
# Poissons Ratio (y) = 0.47765 0.17602
# Poissons Ratio (z) = 0.18723 0.12473
#
# Static dielectric constant tensor:
#      x y z
#    x 3.786990 0.000000 0.000000 
#    y 0.000000 3.543370 0.000000 
#    z 0.000000 0.000000 3.677470 
# 
# 
# High freq. dielectric constant tensor:
#      x y z
#    x 1.783260 0.000000 0.000000 
#    y 0.000000 1.770260 0.000000 
#    z 0.000000 0.000000 1.787460 
# 
# From -- ./inp_files/4388.got.cif
#   From: 2010.03.12/outbox.cif.g09.slc.cpg/sg42_3_cif.got.tgz:4388.got - 2010.04.14 02:04:31.
