data_PCOD8186968
_publ_section_title
;
Structure prediction by ZEFSAII (Michael W. Deem and Ramdas Pophale) SiO2 
 PCOD8186968
Probable space group: F D D 2
;
_chemical_formula_sum "Si O2"
_cell_formula_units_Z 80
_cell_length_a 20.295294
_cell_length_b 16.861796
_cell_length_c 8.348401
_cell_angle_alpha 90.000000
_cell_angle_beta 90.000000
_cell_angle_gamma 90.000000
_cell_volume 2856.948943
_symmetry_space_group_name_H-M "F D D 2"
_symmetry_group_IT_number 43
_symmetry_cell_setting 'orthorhombic'
loop_
_space_group_symop_operation_xyz
x,y,z
-x,-y,z
1/4-x,1/4+y,1/4+z
1/4+x,1/4-y,1/4+z
x,1/2+y,1/2+z
-x,1/2-y,1/2+z
1/4-x,3/4+y,3/4+z
1/4+x,3/4-y,3/4+z
1/2+x,y,1/2+z
1/2-x,-y,1/2+z
3/4-x,1/4+y,3/4+z
3/4+x,1/4-y,3/4+z
1/2+x,1/2+y,z
1/2-x,1/2-y,z
3/4-x,3/4+y,1/4+z
3/4+x,3/4-y,1/4+z
loop_
_atom_site_type_symbol
_atom_site_label
_atom_site_fract_x
_atom_site_fract_y
_atom_site_fract_z
Si Si1 0.696039 0.692254 0.327500
Si Si2 0.607702 0.296893 0.990251
Si Si3 0.321350 0.519492 0.569896
Si Si4 0.513835 0.127059 0.872890
Si Si5 0.300369 0.686991 0.458769
O O1 0.750000 0.750000 0.257713
O O2 0.695733 0.616599 0.207223
O O3 0.627587 0.743294 0.338437
O O4 0.707712 0.665261 0.513244
O O5 0.583750 0.239911 0.130810
O O6 0.666796 0.355492 0.045650
O O7 0.253569 0.472411 0.622171
O O8 0.314319 0.615066 0.585926
O O9 0.381017 0.482629 0.673007
O O10 0.511470 0.093823 0.051847
O O11 0.250000 0.750000 0.539777
#
# Coordination Sequence:
#
# PCOD8186968 Si02
#       5
#    16  16  16  16  16
#     4   9  16  26  43  71  99 126 166 210 253 306
#     4   9  15  26  46  71  99 128 163 213 258 299
#     4  10  19  32  54  83 110 141 186 229 271 330
#     4   9  17  29  48  78 109 134 172 221 271 321
#     4  11  20  33  56  83 109 145 187 233 276 324
#
# _framework density 28.001901
#
# number of rings (size 3 to 8) (size 9 to 14) (size 15 to 20)
#    0.000    2.400    0.000    7.800    0.000    0.000 
#    0.000    0.000    0.000   26.400    0.000    5.600 
#    0.000    0.000    0.000    0.000    0.000    0.000 
#
# Total GULP energy -247773.464272 kJ/mol
# GULP energy per Si atom -12388.673214 kJ/mol
# Density = 2.793817 g / cm^3
# Si number density = 28.001901 Si / 1000 Ang^3
#
#
#
# Elastic Constant Matrix: (Units=GPa)
#
#
# Indices 1 2 3 4 5 6 
#
# 1 34.9631 39.6352 -6.9188 0.0001 0.0000 0.0000
# 2 39.6352 239.2837 31.7189 0.0001 -0.0001 0.0000
# 3 -6.9188 31.7189 62.7683 0.0005 -0.0004 0.0001
# 4 0.0001 0.0001 0.0005 15.8296 -0.0002 0.0000
# 5 0.0000 -0.0001 -0.0004 -0.0002 -21.9077 0.0000
# 6 0.0000 0.0000 0.0001 0.0000 0.0000 51.5414
#
#
#
# Elastic Compliance Matrix: (Units=1/GPa)
#
#
# Indices 1 2 3 4 5 6 
#
# 1 0.038658 -0.007469 0.008035 0.000000 0.000000 0.000000
# 2 -0.007469 0.005922 -0.003816 0.000000 0.000000 0.000000
# 3 0.008035 -0.003816 0.018746 -0.000001 0.000000 0.000000
# 4 0.000000 0.000000 -0.000001 0.063173 -0.000001 0.000000
# 5 0.000000 0.000000 0.000000 -0.000001 -0.045646 0.000000
# 6 0.000000 0.000000 0.000000 0.000000 0.000000 0.019402
#
#
# Mechanical properties :
#
#
# Convention : Reuss Voigt Hill
#
# Bulk Modulus (GPa) = 17.59705 51.76506 34.68106
# Shear Modulus (GPa) = 39.77889 27.26468 33.52179
#
# Velocity S-wave (km/s) = 3.77314 3.12376 3.46370
# Velocity P-wave (km/s) = 5.02793 5.61577 5.32996
#
# Compressibility (1/GPa) = 0.05682770
#
# Stress axis : x y z
#
# Youngs Moduli (GPa) = 25.86776 168.86048 53.34585
#
# Poissons Ratio (x) = 1.26114 -0.42865
# Poissons Ratio (y) = 0.19319 0.20356
# Poissons Ratio (z) = -0.20786 0.64435
#
# Static dielectric constant tensor:
#      x y z
#    x 5.461540 0.000000 0.000000 
#    y 0.000000 5.717450 0.000000 
#    z 0.000000 0.000000 4.405750 
# 
# 
# High freq. dielectric constant tensor:
#      x y z
#    x 2.140690 0.000000 0.000000 
#    y 0.000000 2.165680 0.000000 
#    z 0.000000 0.000000 2.100200 
# 
# From -- ./inp_files/10945.got.cif
#   From: 2010.06.25/outbox.cif.g09.slc.cpg/sg43_6_cif.got.tgz:10945.got - 2010.06.26 16:48:59.
