data_PCOD8186496
_publ_section_title
;
Structure prediction by ZEFSAII (Michael W. Deem and Ramdas Pophale) SiO2 
 PCOD8186496
Probable space group: F M M 2
;
_chemical_formula_sum "Si O2"
_cell_formula_units_Z 80
_cell_length_a 8.018312
_cell_length_b 20.484087
_cell_length_c 25.954214
_cell_angle_alpha 90.000000
_cell_angle_beta 90.000000
_cell_angle_gamma 90.000000
_cell_volume 4262.922566
_symmetry_space_group_name_H-M "F M M 2"
_symmetry_group_IT_number 42
_symmetry_cell_setting 'orthorhombic'
loop_
_space_group_symop_operation_xyz
x,y,z
-x,-y,z
-x,y,z
x,-y,z
x,1/2+y,1/2+z
-x,1/2-y,1/2+z
-x,1/2+y,1/2+z
x,1/2-y,1/2+z
1/2+x,y,1/2+z
1/2-x,-y,1/2+z
1/2-x,y,1/2+z
1/2+x,-y,1/2+z
1/2+x,1/2+y,z
1/2-x,1/2-y,z
1/2-x,1/2+y,z
1/2+x,1/2-y,z
loop_
_atom_site_type_symbol
_atom_site_label
_atom_site_fract_x
_atom_site_fract_y
_atom_site_fract_z
Si Si1 0.000000 0.924360 0.510600
Si Si2 0.000000 0.425204 0.812698
Si Si3 0.193546 0.817477 0.654816
Si Si4 0.750000 0.250000 0.465090
Si Si5 0.500000 0.157017 0.914087
Si Si6 0.177335 0.147892 0.047080
Si Si7 0.691000 0.925463 0.238117
O O1 0.000000 0.905961 0.450889
O O2 0.165950 0.898096 0.537413
O O3 0.000000 0.000000 0.518176
O O4 0.828634 0.412516 0.781881
O O5 0.000000 0.500000 0.833308
O O6 0.000000 0.371049 0.857028
O O7 0.250000 0.750000 0.682841
O O8 0.300351 0.820097 0.602814
O O9 0.236661 0.878688 0.690916
O O10 0.000000 0.817245 0.641026
O O11 0.654355 0.296513 0.425766
O O12 0.850599 0.296644 0.503744
O O13 0.000000 0.108935 0.047262
O O14 0.500000 0.911984 0.258159
O O15 0.705496 0.000000 0.218500
#
# Coordination Sequence:
#
# PCOD8186496 Si02
#       7
#     8   8  16   8   8  16  16
#     4  10  23  40  57  87 120 154 202 253 297 353
#     4  10  21  42  66  85 109 155 204 248 305 358
#     4  11  22  35  57  91 123 161 201 245 294 358
#     4  10  20  38  58  88 122 152 196 244 300 364
#     4  10  21  40  63  86 116 155 194 253 302 357
#     4  11  21  36  60  84 121 164 197 238 298 362
#     4   9  21  42  62  84 119 159 200 247 301 360
#
# _framework density 18.766466999999999
#
# number of rings (size 3 to 8) (size 9 to 14) (size 15 to 20)
#    0.000    1.800    3.000    0.900    2.800    1.200 
#    3.600    0.000    0.000    2.400    0.000    0.000 
#    0.000    0.000    0.000    0.000    0.000    0.000 
#
# Total GULP energy -247804.775717 kJ/mol
# GULP energy per Si atom -12390.238786 kJ/mol
# Density = 1.872375 g / cm^3
# Si number density = 18.766467 Si / 1000 Ang^3
#
#
#
# Elastic Constant Matrix: (Units=GPa)
#
#
# Indices 1 2 3 4 5 6 
#
# 1 150.9922 61.6369 59.1388 0.0000 0.0000 0.0000
# 2 61.6369 131.3826 70.7811 0.0000 0.0000 0.0000
# 3 59.1388 70.7811 114.5761 0.0000 0.0000 0.0000
# 4 0.0000 0.0000 0.0000 20.6169 0.0000 0.0000
# 5 0.0000 0.0000 0.0000 0.0000 35.2377 0.0000
# 6 0.0000 0.0000 0.0000 0.0000 0.0000 28.1308
#
#
#
# Elastic Compliance Matrix: (Units=1/GPa)
#
#
# Indices 1 2 3 4 5 6 
#
# 1 0.008828 -0.002528 -0.002995 0.000000 0.000000 0.000000
# 2 -0.002528 0.012132 -0.006190 0.000000 0.000000 0.000000
# 3 -0.002995 -0.006190 0.014097 0.000000 0.000000 0.000000
# 4 0.000000 0.000000 0.000000 0.048504 0.000000 0.000000
# 5 0.000000 0.000000 0.000000 0.000000 0.028379 0.000000
# 6 0.000000 0.000000 0.000000 0.000000 0.000000 0.035548
#
#
# Mechanical properties :
#
#
# Convention : Reuss Voigt Hill
#
# Bulk Modulus (GPa) = 85.97033 86.67386 86.32209
# Shear Modulus (GPa) = 28.60556 30.49001 29.54778
#
# Velocity S-wave (km/s) = 3.90845 4.03514 3.97230
# Velocity P-wave (km/s) = 8.14113 8.24594 8.19371
#
# Compressibility (1/GPa) = 0.01163192
#
# Stress axis : x y z
#
# Youngs Moduli (GPa) = 113.27855 82.42552 70.93463
#
# Poissons Ratio (x) = 0.20838 0.21243
# Poissons Ratio (y) = 0.28638 0.43908
# Poissons Ratio (z) = 0.33924 0.51021
#
# Static dielectric constant tensor:
#      x y z
#    x 3.530120 0.000000 0.000000 
#    y 0.000000 3.441700 0.000000 
#    z 0.000000 0.000000 3.168050 
# 
# 
# High freq. dielectric constant tensor:
#      x y z
#    x 1.749160 0.000000 0.000000 
#    y 0.000000 1.727900 0.000000 
#    z 0.000000 0.000000 1.705560 
# 
# From -- ./inp_files/30155.got.cif
#   From: 2010.03.12/outbox.cif.g09.slc.cpg/sg42_16_cif.got.tgz:30155.got - 2010.04.14 02:04:31.
