data_PCOD8186365
_publ_section_title
;
Structure prediction by ZEFSAII (Michael W. Deem and Ramdas Pophale) SiO2 
 PCOD8186365
Probable space group: F M M 2
;
_chemical_formula_sum "Si O2"
_cell_formula_units_Z 80
_cell_length_a 15.720192
_cell_length_b 8.933618
_cell_length_c 28.408615
_cell_angle_alpha 90.000000
_cell_angle_beta 90.000000
_cell_angle_gamma 90.000000
_cell_volume 3989.654477
_symmetry_space_group_name_H-M "F M M 2"
_symmetry_group_IT_number 42
_symmetry_cell_setting 'orthorhombic'
loop_
_space_group_symop_operation_xyz
x,y,z
-x,-y,z
-x,y,z
x,-y,z
x,1/2+y,1/2+z
-x,1/2-y,1/2+z
-x,1/2+y,1/2+z
x,1/2-y,1/2+z
1/2+x,y,1/2+z
1/2-x,-y,1/2+z
1/2-x,y,1/2+z
1/2+x,-y,1/2+z
1/2+x,1/2+y,z
1/2-x,1/2-y,z
1/2-x,1/2+y,z
1/2+x,1/2-y,z
loop_
_atom_site_type_symbol
_atom_site_label
_atom_site_fract_x
_atom_site_fract_y
_atom_site_fract_z
Si Si1 0.661538 0.823647 0.375000
Si Si2 0.404403 0.330446 0.460801
Si Si3 0.664874 0.323333 0.049294
Si Si4 0.161522 0.675795 0.267602
Si Si5 0.500000 0.175488 0.609023
Si Si6 0.000000 0.322208 0.209607
O O1 0.750000 0.750000 0.389506
O O2 0.593480 0.750141 0.409968
O O3 0.638143 0.782940 0.321342
O O4 0.664913 0.000000 0.382727
O O5 0.500000 0.328893 0.480421
O O6 0.370238 0.500000 0.456233
O O7 0.345484 0.239847 0.496734
O O8 0.675850 0.500000 0.046832
O O9 0.750000 0.250000 0.071607
O O10 0.584076 0.277008 0.080610
O O11 0.173475 0.500000 0.261412
O O12 0.250000 0.750000 0.251577
O O13 0.084615 0.738252 0.235742
O O14 0.500000 0.265910 0.656914
O O15 0.500000 0.000000 0.619885
O O16 0.000000 0.500000 0.210917
#
# Coordination Sequence:
#
# PCOD8186365 Si02
#       6
#    16  16  16  16   8   8
#     4  10  20  35  57  82 117 158 199 241 287 343
#     4  11  23  37  56  86 122 157 199 244 290 346
#     4  11  23  42  65  89 119 156 198 242 295 353
#     4   9  20  38  60  87 119 156 198 242 289 347
#     4  10  24  44  63  88 119 151 194 245 297 358
#     4  10  22  40  63  88 117 153 194 243 299 354
#
# _framework density 20.051862
#
# number of rings (size 3 to 8) (size 9 to 14) (size 15 to 20)
#    0.000    1.800    1.000    2.400    1.400    5.200 
#    0.000    4.000    0.000    0.000    0.000    0.000 
#    0.000    0.000    0.000    0.000    0.000    0.000 
#
# Total GULP energy -248052.743029 kJ/mol
# GULP energy per Si atom -12402.637151 kJ/mol
# Density = 2.000622 g / cm^3
# Si number density = 20.051862 Si / 1000 Ang^3
#
#
#
# Elastic Constant Matrix: (Units=GPa)
#
#
# Indices 1 2 3 4 5 6 
#
# 1 151.2558 54.3441 68.2331 0.0000 0.0000 0.0000
# 2 54.3441 86.1199 50.6695 0.0000 0.0000 0.0000
# 3 68.2331 50.6695 113.9244 0.0000 0.0000 0.0000
# 4 0.0000 0.0000 0.0000 35.6798 0.0000 0.0000
# 5 0.0000 0.0000 0.0000 0.0000 24.9875 0.0000
# 6 0.0000 0.0000 0.0000 0.0000 0.0000 33.6933
#
#
#
# Elastic Compliance Matrix: (Units=1/GPa)
#
#
# Indices 1 2 3 4 5 6 
#
# 1 0.009869 -0.003724 -0.004254 0.000000 0.000000 0.000000
# 2 -0.003724 0.017133 -0.005389 0.000000 0.000000 0.000000
# 3 -0.004254 -0.005389 0.013723 0.000000 0.000000 0.000000
# 4 0.000000 0.000000 0.000000 0.028027 0.000000 0.000000
# 5 0.000000 0.000000 0.000000 0.000000 0.040020 0.000000
# 6 0.000000 0.000000 0.000000 0.000000 0.000000 0.029679
#
#
# Mechanical properties :
#
#
# Convention : Reuss Voigt Hill
#
# Bulk Modulus (GPa) = 71.48865 77.53261 74.51063
# Shear Modulus (GPa) = 29.43789 30.74234 30.09012
#
# Velocity S-wave (km/s) = 3.83572 3.91978 3.87798
# Velocity P-wave (km/s) = 7.43951 7.69651 7.56910
#
# Compressibility (1/GPa) = 0.01398823
#
# Stress axis : x y z
#
# Youngs Moduli (GPa) = 101.33244 58.36752 72.87186
#
# Poissons Ratio (x) = 0.21738 0.31001
# Poissons Ratio (y) = 0.37740 0.39274
# Poissons Ratio (z) = 0.43108 0.31457
#
# Static dielectric constant tensor:
#      x y z
#    x 3.778270 0.000000 0.000000 
#    y 0.000000 3.586550 0.000000 
#    z 0.000000 0.000000 3.533630 
# 
# 
# High freq. dielectric constant tensor:
#      x y z
#    x 1.792050 0.000000 0.000000 
#    y 0.000000 1.783720 0.000000 
#    z 0.000000 0.000000 1.776150 
# 
# From -- ./inp_files/31281.got.cif
#   From: 2010.03.12/outbox.cif.g09.slc.cpg/sg42_16_cif.got.tgz:31281.got - 2010.04.14 02:04:31.
