data_PCOD8186594
_publ_section_title
;
Structure prediction by ZEFSAII (Michael W. Deem and Ramdas Pophale) SiO2 
 PCOD8186594
Probable space group: F M M 2
;
_chemical_formula_sum "Si O2"
_cell_formula_units_Z 112
_cell_length_a 17.261981
_cell_length_b 14.427822
_cell_length_c 22.875537
_cell_angle_alpha 90.000000
_cell_angle_beta 90.000000
_cell_angle_gamma 90.000000
_cell_volume 5697.216295
_symmetry_space_group_name_H-M "F M M 2"
_symmetry_group_IT_number 42
_symmetry_cell_setting 'orthorhombic'
loop_
_space_group_symop_operation_xyz
x,y,z
-x,-y,z
-x,y,z
x,-y,z
x,1/2+y,1/2+z
-x,1/2-y,1/2+z
-x,1/2+y,1/2+z
x,1/2-y,1/2+z
1/2+x,y,1/2+z
1/2-x,-y,1/2+z
1/2-x,y,1/2+z
1/2+x,-y,1/2+z
1/2+x,1/2+y,z
1/2-x,1/2-y,z
1/2-x,1/2+y,z
1/2+x,1/2-y,z
loop_
_atom_site_type_symbol
_atom_site_label
_atom_site_fract_x
_atom_site_fract_y
_atom_site_fract_z
Si Si1 0.338245 0.778589 0.105600
Si Si2 0.088409 0.106603 0.274966
Si Si3 0.591394 0.601701 0.146215
Si Si4 0.407757 0.289290 0.385312
Si Si5 0.091288 0.108591 0.500962
Si Si6 0.910669 0.107333 0.705984
Si Si7 0.908205 0.100457 0.838555
O O1 0.250000 0.750000 0.100635
O O2 0.384590 0.681388 0.101082
O O3 0.362810 0.847241 0.054378
O O4 0.355521 0.830076 0.166282
O O5 0.126342 0.124205 0.211096
O O6 0.129119 0.163591 0.327271
O O7 0.000000 0.139895 0.271353
O O8 0.094368 0.000000 0.292726
O O9 0.500000 0.596393 0.151238
O O10 0.622127 0.500000 0.125575
O O11 0.500000 0.299646 0.384391
O O12 0.376751 0.339764 0.443128
O O13 0.381450 0.181051 0.383366
O O14 0.000000 0.124427 0.510398
O O15 0.110689 0.000000 0.496233
O O16 0.882706 0.124041 0.772361
O O17 0.000000 0.138325 0.696872
O O18 0.901432 0.000000 0.688394
O O19 0.000000 0.093253 0.838069
O O20 0.873762 0.000000 0.858082
#
# Coordination Sequence:
#
# PCOD8186594 Si02
#       7
#    16  16  16  16  16  16  16
#     4  12  24  35  50  72 102 142 178 217 264 309
#     4   8  13  23  44  75 103 122 147 196 262 316
#     4   9  18  33  53  76 102 131 164 204 252 313
#     4   9  15  25  46  76 106 131 160 207 261 309
#     4  10  21  37  57  79 101 130 176 229 270 306
#     4   9  17  32  57  85 110 138 173 213 257 306
#     4   8  14  25  46  80 114 137 161 201 256 314
#
# _framework density 19.658722999999998
#
# number of rings (size 3 to 8) (size 9 to 14) (size 15 to 20)
#    0.000    2.714    0.000    4.714    0.000    6.286 
#    0.000    0.714    0.000    6.000    0.000    4.000 
#    0.000    0.000    0.000    0.000    0.000    0.000 
#
# Total GULP energy -346986.804462 kJ/mol
# GULP energy per Si atom -12392.385874 kJ/mol
# Density = 1.961398 g / cm^3
# Si number density = 19.658723 Si / 1000 Ang^3
#
#
#
# Elastic Constant Matrix: (Units=GPa)
#
#
# Indices 1 2 3 4 5 6 
#
# 1 36.6094 31.6312 24.3299 0.0000 0.0000 0.0000
# 2 31.6312 154.2766 78.7995 0.0000 0.0000 0.0000
# 3 24.3299 78.7995 79.7611 0.0000 0.0000 0.0000
# 4 0.0000 0.0000 0.0000 48.8596 0.0000 0.0000
# 5 0.0000 0.0000 0.0000 0.0000 6.4142 0.0000
# 6 0.0000 0.0000 0.0000 0.0000 0.0000 12.7124
#
#
#
# Elastic Compliance Matrix: (Units=1/GPa)
#
#
# Indices 1 2 3 4 5 6 
#
# 1 0.035170 -0.003495 -0.007275 0.000000 0.000000 0.000000
# 2 -0.003495 0.013432 -0.012204 0.000000 0.000000 0.000000
# 3 -0.007275 -0.012204 0.026813 0.000000 0.000000 0.000000
# 4 0.000000 0.000000 0.000000 0.020467 0.000000 0.000000
# 5 0.000000 0.000000 0.000000 0.000000 0.155904 0.000000
# 6 0.000000 0.000000 0.000000 0.000000 0.000000 0.078663
#
#
# Mechanical properties :
#
#
# Convention : Reuss Voigt Hill
#
# Bulk Modulus (GPa) = 33.93608 60.01872 46.97740
# Shear Modulus (GPa) = 12.94600 22.65633 17.80117
#
# Velocity S-wave (km/s) = 2.56898 3.39851 3.01243
# Velocity P-wave (km/s) = 5.10878 6.78206 6.00400
#
# Compressibility (1/GPa) = 0.02946716
#
# Stress axis : x y z
#
# Youngs Moduli (GPa) = 28.43322 74.45091 37.29502
#
# Poissons Ratio (x) = 0.26020 0.27134
# Poissons Ratio (y) = 0.09937 0.45514
# Poissons Ratio (z) = 0.20686 0.90858
#
# Static dielectric constant tensor:
#      x y z
#    x 2.919260 0.000000 0.000000 
#    y 0.000000 2.999970 0.000000 
#    z 0.000000 0.000000 3.583690 
# 
# 
# High freq. dielectric constant tensor:
#      x y z
#    x 1.695800 0.000000 0.000000 
#    y 0.000000 1.792210 0.000000 
#    z 0.000000 0.000000 1.750770 
# 
# From -- ./inp_files/29484.got.cif
#   From: 2010.03.12/outbox.cif.g09.slc.cpg/sg42_15_cif.got.tgz:29484.got - 2010.04.14 02:04:31.
