data_PCOD8186052
_publ_section_title
;
Structure prediction by ZEFSAII (Michael W. Deem and Ramdas Pophale) SiO2 
 PCOD8186052
Probable space group: F M M 2
;
_chemical_formula_sum "Si O2"
_cell_formula_units_Z 80
_cell_length_a 9.072956
_cell_length_b 29.774044
_cell_length_c 15.100712
_cell_angle_alpha 90.000000
_cell_angle_beta 90.000000
_cell_angle_gamma 90.000000
_cell_volume 4079.285065
_symmetry_space_group_name_H-M "F M M 2"
_symmetry_group_IT_number 42
_symmetry_cell_setting 'orthorhombic'
loop_
_space_group_symop_operation_xyz
x,y,z
-x,-y,z
-x,y,z
x,-y,z
x,1/2+y,1/2+z
-x,1/2-y,1/2+z
-x,1/2+y,1/2+z
x,1/2-y,1/2+z
1/2+x,y,1/2+z
1/2-x,-y,1/2+z
1/2-x,y,1/2+z
1/2+x,-y,1/2+z
1/2+x,1/2+y,z
1/2-x,1/2-y,z
1/2-x,1/2+y,z
1/2+x,1/2-y,z
loop_
_atom_site_type_symbol
_atom_site_label
_atom_site_fract_x
_atom_site_fract_y
_atom_site_fract_z
Si Si1 0.660888 0.208601 0.937150
Si Si2 0.324405 0.384284 0.737823
Si Si3 0.676175 0.610496 0.422239
Si Si4 0.165281 0.707094 0.727369
Si Si5 0.674542 0.449924 0.583098
O O1 0.500000 0.212357 0.979626
O O2 0.750000 0.250000 0.979583
O O3 0.727434 0.159443 0.959454
O O4 0.654355 0.213212 0.832011
O O5 0.500000 0.379294 0.744751
O O6 0.258392 0.400261 0.831082
O O7 0.257568 0.337352 0.704139
O O8 0.273842 0.422019 0.668166
O O9 0.500000 0.611045 0.405492
O O10 0.728427 0.573620 0.492763
O O11 0.250000 0.750000 0.685868
O O12 0.000000 0.703699 0.687528
O O13 0.500000 0.452197 0.581513
O O14 0.742595 0.500000 0.587688
#
# Coordination Sequence:
#
# PCOD8186052 Si02
#       5
#    16  16  16  16  16
#     4   8  14  24  42  68  96 127 162 199 239 290
#     4  10  19  32  53  80 108 138 174 218 267 316
#     4   9  18  34  54  75 102 137 176 216 260 314
#     4   9  16  28  48  75 107 142 177 211 253 308
#     4   9  19  36  56  76 101 137 180 224 271 322
#
# _framework density 19.611280000000001
#
# number of rings (size 3 to 8) (size 9 to 14) (size 15 to 20)
#    0.000    3.000    0.000    2.400    0.000    5.600 
#    0.000    3.000    0.000    6.600    0.000    0.000 
#    0.000    0.000    0.000    0.000    0.000    0.000 
#
# Total GULP energy -247901.757260 kJ/mol
# GULP energy per Si atom -12395.087863 kJ/mol
# Density = 1.956664 g / cm^3
# Si number density = 19.611280 Si / 1000 Ang^3
#
#
#
# Elastic Constant Matrix: (Units=GPa)
#
#
# Indices 1 2 3 4 5 6 
#
# 1 81.0066 56.2390 40.3276 0.0000 0.0000 0.0000
# 2 56.2390 197.8242 82.3876 0.0000 0.0000 0.0000
# 3 40.3276 82.3876 87.3116 0.0000 0.0000 0.0000
# 4 0.0000 0.0000 0.0000 -22.1680 0.0000 0.0000
# 5 0.0000 0.0000 0.0000 0.0000 13.1188 0.0000
# 6 0.0000 0.0000 0.0000 0.0000 0.0000 23.9709
#
#
#
# Elastic Compliance Matrix: (Units=1/GPa)
#
#
# Indices 1 2 3 4 5 6 
#
# 1 0.016771 -0.002540 -0.005350 0.000000 0.000000 0.000000
# 2 -0.002540 0.008712 -0.007048 0.000000 0.000000 0.000000
# 3 -0.005350 -0.007048 0.020574 0.000000 0.000000 0.000000
# 4 0.000000 0.000000 0.000000 -0.045110 0.000000 0.000000
# 5 0.000000 0.000000 0.000000 0.000000 0.076227 0.000000
# 6 0.000000 0.000000 0.000000 0.000000 0.000000 0.041717
#
#
# Mechanical properties :
#
#
# Convention : Reuss Voigt Hill
#
# Bulk Modulus (GPa) = 61.79226 80.45010 71.12118
# Shear Modulus (GPa) = 32.43367 15.46354 23.94861
#
# Velocity S-wave (km/s) = 4.07114 2.81108 3.49831
# Velocity P-wave (km/s) = 7.32638 7.18663 7.25684
#
# Compressibility (1/GPa) = 0.01618326
#
# Stress axis : x y z
#
# Youngs Moduli (GPa) = 59.62592 114.78111 48.60390
#
# Poissons Ratio (x) = 0.29153 0.26002
# Poissons Ratio (y) = 0.15144 0.34255
# Poissons Ratio (z) = 0.31898 0.80895
#
# Static dielectric constant tensor:
#      x y z
#    x 3.516760 0.000000 0.000000 
#    y 0.000000 3.924330 0.000000 
#    z 0.000000 0.000000 3.263220 
# 
# 
# High freq. dielectric constant tensor:
#      x y z
#    x 1.743900 0.000000 0.000000 
#    y 0.000000 1.771250 0.000000 
#    z 0.000000 0.000000 1.741790 
# 
# From -- ./inp_files/18188.got.cif
#   From: 2010.03.12/outbox.cif.g09.slc.cpg/sg42_10_cif.got.tgz:18188.got - 2010.04.14 02:04:31.
