data_PCOD8186942
_publ_section_title
;
Structure prediction by ZEFSAII (Michael W. Deem and Ramdas Pophale) SiO2 
 PCOD8186942
Probable space group: F D D 2
;
_chemical_formula_sum "Si O2"
_cell_formula_units_Z 96
_cell_length_a 12.215314
_cell_length_b 24.615714
_cell_length_c 14.842639
_cell_angle_alpha 90.000000
_cell_angle_beta 90.000000
_cell_angle_gamma 90.000000
_cell_volume 4463.013467
_symmetry_space_group_name_H-M "F D D 2"
_symmetry_group_IT_number 43
_symmetry_cell_setting 'orthorhombic'
loop_
_space_group_symop_operation_xyz
x,y,z
-x,-y,z
1/4-x,1/4+y,1/4+z
1/4+x,1/4-y,1/4+z
x,1/2+y,1/2+z
-x,1/2-y,1/2+z
1/4-x,3/4+y,3/4+z
1/4+x,3/4-y,3/4+z
1/2+x,y,1/2+z
1/2-x,-y,1/2+z
3/4-x,1/4+y,3/4+z
3/4+x,1/4-y,3/4+z
1/2+x,1/2+y,z
1/2-x,1/2-y,z
3/4-x,3/4+y,1/4+z
3/4+x,3/4-y,1/4+z
loop_
_atom_site_type_symbol
_atom_site_label
_atom_site_fract_x
_atom_site_fract_y
_atom_site_fract_z
Si Si1 0.149370 0.279421 0.494030
Si Si2 0.562699 0.826452 0.735754
Si Si3 0.616640 0.119097 0.614412
Si Si4 0.787197 0.532157 0.890042
Si Si5 0.049561 0.558327 0.435006
Si Si6 0.485714 0.103209 0.890846
O O1 0.250000 0.250000 0.441831
O O2 0.089285 0.318307 0.423351
O O3 0.061666 0.239064 0.538896
O O4 0.206766 0.309473 0.577056
O O5 0.489258 0.854954 0.660012
O O6 0.556940 0.762136 0.719476
O O7 0.521180 0.839357 0.837230
O O8 0.683931 0.854453 0.727442
O O9 0.577021 0.098385 0.517735
O O10 0.714974 0.163073 0.615211
O O11 0.662185 0.549992 0.882518
O O12 0.864946 0.582498 0.917772
O O13 0.000000 0.500000 0.466536
#
# Coordination Sequence:
#
# PCOD8186942 Si02
#       6
#    16  16  16  16  16  16
#     4   8  16  35  61  89 113 151 204 269 312 366
#     4  10  18  36  60  85 116 150 205 256 310 361
#     4  11  22  38  62  92 126 160 219 269 320 388
#     4  10  20  37  56  88 123 159 205 254 321 377
#     4  12  25  39  63  92 130 174 213 268 329 395
#     4   9  19  32  59  84 111 154 191 257 306 362
#
# _framework density 21.51013
#
# number of rings (size 3 to 8) (size 9 to 14) (size 15 to 20)
#    0.000    2.000    1.667    5.000    0.000    1.333 
#    0.000    0.000    0.000    0.000    0.000    0.000 
#    0.000    0.000    0.000    0.000    0.000    0.000 
#
# Total GULP energy -297441.258782 kJ/mol
# GULP energy per Si atom -12393.385783 kJ/mol
# Density = 2.146117 g / cm^3
# Si number density = 21.510130 Si / 1000 Ang^3
#
#
#
# Elastic Constant Matrix: (Units=GPa)
#
#
# Indices 1 2 3 4 5 6 
#
# 1 149.5794 40.2342 18.9873 0.0000 0.0000 0.0000
# 2 40.2342 77.6195 18.5722 0.0000 0.0000 0.0000
# 3 18.9873 18.5722 34.0505 0.0000 0.0000 0.0000
# 4 0.0000 0.0000 0.0000 21.1199 0.0000 0.0000
# 5 0.0000 0.0000 0.0000 0.0000 25.4351 0.0000
# 6 0.0000 0.0000 0.0000 0.0000 0.0000 36.6651
#
#
#
# Elastic Compliance Matrix: (Units=1/GPa)
#
#
# Indices 1 2 3 4 5 6 
#
# 1 0.007951 -0.003520 -0.002514 0.000000 0.000000 0.000000
# 2 -0.003520 0.016375 -0.006969 0.000000 0.000000 0.000000
# 3 -0.002514 -0.006969 0.034571 0.000000 0.000000 0.000000
# 4 0.000000 0.000000 0.000000 0.047349 0.000000 0.000000
# 5 0.000000 0.000000 0.000000 0.000000 0.039316 0.000000
# 6 0.000000 0.000000 0.000000 0.000000 0.000000 0.027274
#
#
# Mechanical properties :
#
#
# Convention : Reuss Voigt Hill
#
# Bulk Modulus (GPa) = 30.40232 46.31520 38.35876
# Shear Modulus (GPa) = 23.83158 28.87441 26.35300
#
# Velocity S-wave (km/s) = 3.33216 3.66780 3.50400
# Velocity P-wave (km/s) = 5.38229 6.28614 5.85169
#
# Compressibility (1/GPa) = 0.03289222
#
# Stress axis : x y z
#
# Youngs Moduli (GPa) = 125.76460 61.06700 28.92601
#
# Poissons Ratio (x) = 0.21496 0.07272
# Poissons Ratio (y) = 0.44270 0.20158
# Poissons Ratio (z) = 0.31616 0.42556
#
# Static dielectric constant tensor:
#      x y z
#    x 4.283130 0.000000 0.000000 
#    y 0.000000 4.128180 0.000000 
#    z 0.000000 0.000000 3.451490 
# 
# 
# High freq. dielectric constant tensor:
#      x y z
#    x 1.850790 0.000000 0.000000 
#    y 0.000000 1.844210 0.000000 
#    z 0.000000 0.000000 1.798650 
# 
# From -- ./inp_files/13376.got.cif
#   From: 2010.06.25/outbox.cif.g09.slc.cpg/sg43_7_cif.got.tgz:13376.got - 2010.06.26 16:48:59.
