data_PCOD8186600
_publ_section_title
;
Structure prediction by ZEFSAII (Michael W. Deem and Ramdas Pophale) SiO2 
 PCOD8186600
Probable space group: F M M 2
;
_chemical_formula_sum "Si O2"
_cell_formula_units_Z 112
_cell_length_a 17.444603
_cell_length_b 24.403512
_cell_length_c 12.885043
_cell_angle_alpha 90.000000
_cell_angle_beta 90.000000
_cell_angle_gamma 90.000000
_cell_volume 5485.286226
_symmetry_space_group_name_H-M "F M M 2"
_symmetry_group_IT_number 42
_symmetry_cell_setting 'orthorhombic'
loop_
_space_group_symop_operation_xyz
x,y,z
-x,-y,z
-x,y,z
x,-y,z
x,1/2+y,1/2+z
-x,1/2-y,1/2+z
-x,1/2+y,1/2+z
x,1/2-y,1/2+z
1/2+x,y,1/2+z
1/2-x,-y,1/2+z
1/2-x,y,1/2+z
1/2+x,-y,1/2+z
1/2+x,1/2+y,z
1/2-x,1/2-y,z
1/2-x,1/2+y,z
1/2+x,1/2-y,z
loop_
_atom_site_type_symbol
_atom_site_label
_atom_site_fract_x
_atom_site_fract_y
_atom_site_fract_z
Si Si1 0.662739 0.738665 0.979470
Si Si2 0.156003 0.062145 0.096274
Si Si3 0.911991 0.564012 0.372940
Si Si4 0.913415 0.667786 0.648015
Si Si5 0.586285 0.231686 0.277671
Si Si6 0.911810 0.662824 0.074522
Si Si7 0.666641 0.062642 0.156216
O O1 0.750000 0.750000 0.997971
O O2 0.645404 0.714162 0.866295
O O3 0.640407 0.692045 0.059657
O O4 0.617738 0.796493 0.985442
O O5 0.108926 0.104434 0.168873
O O6 0.243333 0.067819 0.133428
O O7 0.127470 0.000000 0.116220
O O8 0.137078 0.079367 0.976400
O O9 0.922922 0.500000 0.369630
O O10 0.861572 0.581565 0.271775
O O11 0.000000 0.589548 0.371944
O O12 0.902991 0.703886 0.751286
O O13 0.000000 0.672380 0.607652
O O14 0.500000 0.220181 0.315603
O O15 0.606944 0.194320 0.180509
O O16 0.872106 0.603373 0.073241
O O17 0.000000 0.651992 0.055724
O O18 0.640308 0.000000 0.135344
#
# Coordination Sequence:
#
# PCOD8186600 Si02
#       7
#    16  16  16  16  16  16  16
#     4  11  22  36  58  85 115 149 187 239 295 350
#     4  10  21  37  57  87 124 156 191 245 302 352
#     4   9  18  34  58  86 113 148 198 246 290 346
#     4  10  21  38  59  83 114 151 195 239 285 350
#     4   9  20  38  58  81 110 148 190 237 288 344
#     4  10  21  38  59  83 114 150 193 238 285 350
#     4  10  21  37  57  87 124 155 191 245 302 351
#
# _framework density 20.418258999999999
#
# number of rings (size 3 to 8) (size 9 to 14) (size 15 to 20)
#    0.000    2.143    0.000    3.857    2.000    5.143 
#    2.571    0.000    0.000    0.000    0.000    2.000 
#    0.000    0.000    0.000    0.000    0.000    0.000 
#
# Total GULP energy -346993.215071 kJ/mol
# GULP energy per Si atom -12392.614824 kJ/mol
# Density = 2.037179 g / cm^3
# Si number density = 20.418259 Si / 1000 Ang^3
#
#
#
# Elastic Constant Matrix: (Units=GPa)
#
#
# Indices 1 2 3 4 5 6 
#
# 1 105.7902 18.5629 37.4672 0.0000 0.0000 0.0000
# 2 18.5629 79.6801 -1.7969 0.0000 0.0000 0.0000
# 3 37.4672 -1.7969 52.8300 0.0000 0.0000 0.0000
# 4 0.0000 0.0000 0.0000 9.6298 0.0000 0.0000
# 5 0.0000 0.0000 0.0000 0.0000 22.1068 0.0000
# 6 0.0000 0.0000 0.0000 0.0000 0.0000 17.0932
#
#
#
# Elastic Compliance Matrix: (Units=1/GPa)
#
#
# Indices 1 2 3 4 5 6 
#
# 1 0.013463 -0.003354 -0.009662 0.000000 0.000000 0.000000
# 2 -0.003354 0.013396 0.002835 0.000000 0.000000 0.000000
# 3 -0.009662 0.002835 0.025878 0.000000 0.000000 0.000000
# 4 0.000000 0.000000 0.000000 0.103844 0.000000 0.000000
# 5 0.000000 0.000000 0.000000 0.000000 0.045235 0.000000
# 6 0.000000 0.000000 0.000000 0.000000 0.000000 0.058503
#
#
# Mechanical properties :
#
#
# Convention : Reuss Voigt Hill
#
# Bulk Modulus (GPa) = 30.89070 38.52962 34.71016
# Shear Modulus (GPa) = 17.15421 22.03711 19.59566
#
# Velocity S-wave (km/s) = 2.90166 3.28881 3.10128
# Velocity P-wave (km/s) = 5.13692 5.77346 5.46447
#
# Compressibility (1/GPa) = 0.03237221
#
# Stress axis : x y z
#
# Youngs Moduli (GPa) = 74.27585 74.65146 38.64346
#
# Poissons Ratio (x) = 0.25041 0.37339
# Poissons Ratio (y) = 0.24915 -0.10954
# Poissons Ratio (z) = 0.71768 -0.21161
#
# Static dielectric constant tensor:
#      x y z
#    x 3.697870 0.000000 0.000000 
#    y 0.000000 5.723720 0.000000 
#    z 0.000000 0.000000 3.618490 
# 
# 
# High freq. dielectric constant tensor:
#      x y z
#    x 1.798150 0.000000 0.000000 
#    y 0.000000 1.809680 0.000000 
#    z 0.000000 0.000000 1.772830 
# 
# From -- ./inp_files/14289.got.cif
#   From: 2010.03.12/outbox.cif.g09.slc.cpg/sg42_8_cif.got.tgz:14289.got - 2010.04.14 02:04:31.
