data_PCOD8186370
_publ_section_title
;
Structure prediction by ZEFSAII (Michael W. Deem and Ramdas Pophale) SiO2 
 PCOD8186370
Probable space group: F M M 2
;
_chemical_formula_sum "Si O2"
_cell_formula_units_Z 80
_cell_length_a 8.829094
_cell_length_b 18.308510
_cell_length_c 25.367540
_cell_angle_alpha 90.000000
_cell_angle_beta 90.000000
_cell_angle_gamma 90.000000
_cell_volume 4100.600837
_symmetry_space_group_name_H-M "F M M 2"
_symmetry_group_IT_number 42
_symmetry_cell_setting 'orthorhombic'
loop_
_space_group_symop_operation_xyz
x,y,z
-x,-y,z
-x,y,z
x,-y,z
x,1/2+y,1/2+z
-x,1/2-y,1/2+z
-x,1/2+y,1/2+z
x,1/2-y,1/2+z
1/2+x,y,1/2+z
1/2-x,-y,1/2+z
1/2-x,y,1/2+z
1/2+x,-y,1/2+z
1/2+x,1/2+y,z
1/2-x,1/2-y,z
1/2-x,1/2+y,z
1/2+x,1/2-y,z
loop_
_atom_site_type_symbol
_atom_site_label
_atom_site_fract_x
_atom_site_fract_y
_atom_site_fract_z
Si Si1 0.322499 0.170969 0.736330
Si Si2 0.324507 0.084366 0.143098
Si Si3 0.322765 0.326532 0.540667
Si Si4 0.322765 0.826532 0.431993
Si Si5 0.175493 0.584366 0.329562
O O1 0.500000 0.181689 0.736330
O O2 0.250000 0.250000 0.736330
O O3 0.275850 0.127307 0.684560
O O4 0.275850 0.127306 0.788100
O O5 0.500000 0.095973 0.157664
O O6 0.288492 0.113438 0.084833
O O7 0.278717 0.000000 0.145082
O O8 0.500000 0.314342 0.532088
O O9 0.250000 0.250000 0.558405
O O10 0.250000 0.354984 0.486330
O O11 0.500000 0.814343 0.440572
O O12 0.250000 0.750000 0.414255
O O13 0.288492 0.886562 0.387827
O O14 0.221283 0.500000 0.327578
O O15 0.000000 0.595973 0.314996
#
# Coordination Sequence:
#
# PCOD8186370 Si02
#       5
#    16  16  16  16  16
#     4  12  25  40  61  87 113 147 191 236 283 336
#     4  10  22  40  60  84 117 153 187 230 286 341
#     4  10  20  35  57  83 112 149 191 234 280 331
#     4  10  20  35  57  83 112 149 191 234 280 331
#     4  10  22  40  60  84 117 153 187 230 286 341
#
# _framework density 19.509336000000001
#
# number of rings (size 3 to 8) (size 9 to 14) (size 15 to 20)
#    0.000    1.600    0.000    6.000    0.000   10.400 
#    0.000    0.000    0.000    0.000    0.000    0.000 
#    0.000    0.000    0.000    0.000    0.000    0.000 
#
# Total GULP energy -248098.528767 kJ/mol
# GULP energy per Si atom -12404.926438 kJ/mol
# Density = 1.946493 g / cm^3
# Si number density = 19.509336 Si / 1000 Ang^3
#
#
#
# Elastic Constant Matrix: (Units=GPa)
#
#
# Indices 1 2 3 4 5 6 
#
# 1 140.4248 79.5424 79.0282 0.0000 0.0000 0.0000
# 2 79.5424 158.3517 87.9811 0.0000 0.0000 0.0000
# 3 79.0282 87.9811 133.2107 0.0000 0.0000 0.0000
# 4 0.0000 0.0000 0.0000 -2.0361 0.0000 0.0000
# 5 0.0000 0.0000 0.0000 0.0000 37.1827 0.0000
# 6 0.0000 0.0000 0.0000 0.0000 0.0000 27.0310
#
#
#
# Elastic Compliance Matrix: (Units=1/GPa)
#
#
# Indices 1 2 3 4 5 6 
#
# 1 0.011617 -0.003169 -0.004799 0.000000 0.000000 0.000000
# 2 -0.003169 0.010840 -0.005280 0.000000 0.000000 0.000000
# 3 -0.004799 -0.005280 0.013841 0.000000 0.000000 0.000000
# 4 0.000000 0.000000 0.000000 -0.491140 0.000000 0.000000
# 5 0.000000 0.000000 0.000000 0.000000 0.026894 0.000000
# 6 0.000000 0.000000 0.000000 0.000000 0.000000 0.036995
#
#
# Mechanical properties :
#
#
# Convention : Reuss Voigt Hill
#
# Bulk Modulus (GPa) = 102.00772 102.78788 102.39780
# Shear Modulus (GPa) = -13.84311 24.79790 5.47739
#
# Velocity S-wave (km/s) = -2.66665 3.56909 1.67740
# Velocity P-wave (km/s) = 6.55124 8.35377 7.50680
#
# Compressibility (1/GPa) = 0.00980318
#
# Stress axis : x y z
#
# Youngs Moduli (GPa) = 86.08032 92.24819 72.25050
#
# Poissons Ratio (x) = 0.29235 0.34671
# Poissons Ratio (y) = 0.27281 0.38145
# Poissons Ratio (z) = 0.41308 0.48703
#
# Static dielectric constant tensor:
#      x y z
#    x 3.636520 0.000000 0.000000 
#    y 0.000000 3.631790 0.000000 
#    z 0.000000 0.000000 3.715700 
# 
# 
# High freq. dielectric constant tensor:
#      x y z
#    x 1.765630 0.000000 0.000000 
#    y 0.000000 1.764470 0.000000 
#    z 0.000000 0.000000 1.775330 
# 
# From -- ./inp_files/31260.got.cif
#   From: 2010.03.12/outbox.cif.g09.slc.cpg/sg42_16_cif.got.tgz:31260.got - 2010.04.14 02:04:31.
