data_PCOD8186723
_publ_section_title
;
Structure prediction by ZEFSAII (Michael W. Deem and Ramdas Pophale) SiO2 
 PCOD8186723
Probable space group: F M M 2
;
_chemical_formula_sum "Si O2"
_cell_formula_units_Z 72
_cell_length_a 13.383612
_cell_length_b 10.185314
_cell_length_c 23.511603
_cell_angle_alpha 90.000000
_cell_angle_beta 90.000000
_cell_angle_gamma 90.000000
_cell_volume 3205.014509
_symmetry_space_group_name_H-M "F M M 2"
_symmetry_group_IT_number 42
_symmetry_cell_setting 'orthorhombic'
loop_
_space_group_symop_operation_xyz
x,y,z
-x,-y,z
-x,y,z
x,-y,z
x,1/2+y,1/2+z
-x,1/2-y,1/2+z
-x,1/2+y,1/2+z
x,1/2-y,1/2+z
1/2+x,y,1/2+z
1/2-x,-y,1/2+z
1/2-x,y,1/2+z
1/2+x,-y,1/2+z
1/2+x,1/2+y,z
1/2-x,1/2-y,z
1/2-x,1/2+y,z
1/2+x,1/2-y,z
loop_
_atom_site_type_symbol
_atom_site_label
_atom_site_fract_x
_atom_site_fract_y
_atom_site_fract_z
Si Si1 0.750000 0.250000 0.732861
Si Si2 0.618501 0.853804 0.919573
Si Si3 0.881499 0.853804 0.546148
Si Si4 0.385327 0.147591 0.327801
Si Si5 0.885327 0.647591 0.637920
O O1 0.679488 0.342146 0.770815
O O2 0.820512 0.342146 0.694906
O O3 0.500000 0.846648 0.921269
O O4 0.659439 0.745758 0.875518
O O5 0.652499 0.000000 0.899777
O O6 0.660178 0.823869 0.982861
O O7 0.840561 0.745758 0.590203
O O8 0.000000 0.846647 0.544452
O O9 0.847501 0.000000 0.565944
O O10 0.500000 0.183355 0.313110
O O11 0.377608 0.000000 0.351838
O O12 0.877608 0.500000 0.613883
O O13 0.000000 0.683355 0.652611
#
# Coordination Sequence:
#
# PCOD8186723 Si02
#       5
#     8  16  16  16  16
#     4  12  24  40  58  80 114 160 198 236 286 346
#     4   8  15  31  57  87 117 149 184 226 284 349
#     4   8  15  31  57  87 117 149 184 226 284 349
#     4  10  22  39  60  87 116 149 193 242 287 334
#     4  10  22  39  60  87 116 149 193 242 287 334
#
# _framework density 22.464796
#
# number of rings (size 3 to 8) (size 9 to 14) (size 15 to 20)
#    0.000    2.667    0.000    2.667    0.000    4.444 
#    0.000   10.000    0.000    0.000    0.000    0.000 
#    0.000    0.000    0.000    0.000    0.000    0.000 
#
# Total GULP energy -223165.905896 kJ/mol
# GULP energy per Si atom -12398.105883 kJ/mol
# Density = 2.241367 g / cm^3
# Si number density = 22.464796 Si / 1000 Ang^3
#
#
#
# Elastic Constant Matrix: (Units=GPa)
#
#
# Indices 1 2 3 4 5 6 
#
# 1 76.2934 35.5029 42.4191 0.0000 0.0000 0.0000
# 2 35.5029 179.5573 98.2648 0.0000 0.0000 0.0000
# 3 42.4191 98.2648 158.7698 0.0000 0.0000 0.0000
# 4 0.0000 0.0000 0.0000 16.2231 0.0000 0.0000
# 5 0.0000 0.0000 0.0000 0.0000 7.5524 0.0000
# 6 0.0000 0.0000 0.0000 0.0000 0.0000 2.8275
#
#
#
# Elastic Compliance Matrix: (Units=1/GPa)
#
#
# Indices 1 2 3 4 5 6 
#
# 1 0.015567 -0.001213 -0.003409 0.000000 0.000000 0.000000
# 2 -0.001213 0.008516 -0.004947 0.000000 0.000000 0.000000
# 3 -0.003409 -0.004947 0.010271 0.000000 0.000000 0.000000
# 4 0.000000 0.000000 0.000000 0.061641 0.000000 0.000000
# 5 0.000000 0.000000 0.000000 0.000000 0.132408 0.000000
# 6 0.000000 0.000000 0.000000 0.000000 0.000000 0.353663
#
#
# Mechanical properties :
#
#
# Convention : Reuss Voigt Hill
#
# Bulk Modulus (GPa) = 65.71248 85.22155 75.46702
# Shear Modulus (GPa) = 8.24709 21.21619 14.73164
#
# Velocity S-wave (km/s) = 1.91810 3.07647 2.56357
# Velocity P-wave (km/s) = 5.84981 7.11601 6.51375
#
# Compressibility (1/GPa) = 0.01521781
#
# Stress axis : x y z
#
# Youngs Moduli (GPa) = 64.23971 117.42294 97.36372
#
# Poissons Ratio (x) = 0.14238 0.33187
# Poissons Ratio (y) = 0.07789 0.48164
# Poissons Ratio (z) = 0.21896 0.58087
#
# Static dielectric constant tensor:
#      x y z
#    x 3.899510 0.000000 0.000000 
#    y 0.000000 4.086460 0.000000 
#    z 0.000000 0.000000 4.131680 
# 
# 
# High freq. dielectric constant tensor:
#      x y z
#    x 1.893710 0.000000 0.000000 
#    y 0.000000 1.882210 0.000000 
#    z 0.000000 0.000000 1.873080 
# 
# From -- ./inp_files/2820.got.cif
#   From: 2010.03.12/outbox.cif.g09.slc.cpg/sg42_2_cif.got.tgz:2820.got - 2010.04.14 02:04:31.
