data_PCOD8186306
_publ_section_title
;
Structure prediction by ZEFSAII (Michael W. Deem and Ramdas Pophale) SiO2 
 PCOD8186306
Probable space group: F M M 2
;
_chemical_formula_sum "Si O2"
_cell_formula_units_Z 96
_cell_length_a 18.154083
_cell_length_b 8.874100
_cell_length_c 31.040472
_cell_angle_alpha 90.000000
_cell_angle_beta 90.000000
_cell_angle_gamma 90.000000
_cell_volume 5000.655672
_symmetry_space_group_name_H-M "F M M 2"
_symmetry_group_IT_number 42
_symmetry_cell_setting 'orthorhombic'
loop_
_space_group_symop_operation_xyz
x,y,z
-x,-y,z
-x,y,z
x,-y,z
x,1/2+y,1/2+z
-x,1/2-y,1/2+z
-x,1/2+y,1/2+z
x,1/2-y,1/2+z
1/2+x,y,1/2+z
1/2-x,-y,1/2+z
1/2-x,y,1/2+z
1/2+x,-y,1/2+z
1/2+x,1/2+y,z
1/2-x,1/2-y,z
1/2-x,1/2+y,z
1/2+x,1/2-y,z
loop_
_atom_site_type_symbol
_atom_site_label
_atom_site_fract_x
_atom_site_fract_y
_atom_site_fract_z
Si Si1 0.171101 0.324612 0.672570
Si Si2 0.915417 0.176965 0.502075
Si Si3 0.830490 0.677964 0.256391
Si Si4 0.170877 0.822534 0.418443
Si Si5 0.329377 0.175059 0.577350
Si Si6 0.586291 0.326233 0.332891
O O1 0.177509 0.500000 0.683878
O O2 0.250000 0.250000 0.669925
O O3 0.130416 0.241230 0.712409
O O4 0.135756 0.299451 0.625304
O O5 0.869181 0.237332 0.461381
O O6 0.888477 0.258196 0.544954
O O7 0.000000 0.219121 0.493951
O O8 0.904784 0.000000 0.508330
O O9 0.822301 0.500000 0.253544
O O10 0.750000 0.750000 0.263066
O O11 0.882656 0.720648 0.295665
O O12 0.250000 0.750000 0.414102
O O13 0.122378 0.774759 0.377624
O O14 0.180312 0.000000 0.420750
O O15 0.250000 0.250000 0.571151
O O16 0.317720 0.000000 0.568014
O O17 0.500000 0.299524 0.337208
O O18 0.604876 0.500000 0.322393
#
# Coordination Sequence:
#
# PCOD8186306 Si02
#       6
#    16  16  16  16  16  16
#     4   9  17  31  52  78 107 140 180 225 271 317
#     4  10  21  37  56  79 110 146 182 222 269 320
#     4  11  21  34  55  82 111 142 181 226 270 320
#     4  10  21  37  58  83 108 139 180 222 266 318
#     4  10  20  34  55  82 110 142 182 226 270 320
#     4  10  21  38  58  79 108 145 181 220 269 322
#
# _framework density 19.197482999999998
#
# number of rings (size 3 to 8) (size 9 to 14) (size 15 to 20)
#    0.000    2.000    0.000    5.000    0.000    8.667 
#    0.000    0.833    0.000    4.000    0.000    0.000 
#    0.000    0.000    0.000    0.000    0.000    0.000 
#
# Total GULP energy -297562.853295 kJ/mol
# GULP energy per Si atom -12398.452221 kJ/mol
# Density = 1.915379 g / cm^3
# Si number density = 19.197483 Si / 1000 Ang^3
#
#
#
# Elastic Constant Matrix: (Units=GPa)
#
#
# Indices 1 2 3 4 5 6 
#
# 1 94.6561 47.0589 62.9076 0.0000 0.0000 0.0000
# 2 47.0589 99.7095 68.2599 0.0000 0.0000 0.0000
# 3 62.9076 68.2599 168.5900 0.0000 0.0000 0.0000
# 4 0.0000 0.0000 0.0000 30.1227 0.0000 0.0000
# 5 0.0000 0.0000 0.0000 0.0000 18.5935 0.0000
# 6 0.0000 0.0000 0.0000 0.0000 0.0000 27.7522
#
#
#
# Elastic Compliance Matrix: (Units=1/GPa)
#
#
# Indices 1 2 3 4 5 6 
#
# 1 0.015452 -0.004629 -0.003892 0.000000 0.000000 0.000000
# 2 -0.004629 0.015261 -0.004452 0.000000 0.000000 0.000000
# 3 -0.003892 -0.004452 0.009186 0.000000 0.000000 0.000000
# 4 0.000000 0.000000 0.000000 0.033198 0.000000 0.000000
# 5 0.000000 0.000000 0.000000 0.000000 0.053782 0.000000
# 6 0.000000 0.000000 0.000000 0.000000 0.000000 0.036033
#
#
# Mechanical properties :
#
#
# Convention : Reuss Voigt Hill
#
# Bulk Modulus (GPa) = 71.65822 79.93426 75.79624
# Shear Modulus (GPa) = 25.83856 27.60897 26.72377
#
# Velocity S-wave (km/s) = 3.67268 3.79642 3.73506
# Velocity P-wave (km/s) = 7.44263 7.80675 7.62686
#
# Compressibility (1/GPa) = 0.01395513
#
# Stress axis : x y z
#
# Youngs Moduli (GPa) = 64.71620 65.52458 108.85764
#
# Poissons Ratio (x) = 0.30328 0.42365
# Poissons Ratio (y) = 0.29954 0.48464
# Poissons Ratio (z) = 0.25186 0.29172
#
# Static dielectric constant tensor:
#      x y z
#    x 3.231000 0.000000 0.000000 
#    y 0.000000 3.566030 0.000000 
#    z 0.000000 0.000000 4.229960 
# 
# 
# High freq. dielectric constant tensor:
#      x y z
#    x 1.722240 0.000000 0.000000 
#    y 0.000000 1.748000 0.000000 
#    z 0.000000 0.000000 1.772090 
# 
# From -- ./inp_files/31447.got.cif
#   From: 2010.03.12/outbox.cif.g09.slc.cpg/sg42_16_cif.got.tgz:31447.got - 2010.04.14 02:04:31.
