data_PCOD8186794
_publ_section_title
;
Structure prediction by ZEFSAII (Michael W. Deem and Ramdas Pophale) SiO2 
 PCOD8186794
Probable space group: F M M 2
;
_chemical_formula_sum "Si O2"
_cell_formula_units_Z 68
_cell_length_a 15.049495
_cell_length_b 10.696875
_cell_length_c 21.068547
_cell_angle_alpha 90.000000
_cell_angle_beta 90.000000
_cell_angle_gamma 90.000000
_cell_volume 3391.668775
_symmetry_space_group_name_H-M "F M M 2"
_symmetry_group_IT_number 42
_symmetry_cell_setting 'orthorhombic'
loop_
_space_group_symop_operation_xyz
x,y,z
-x,-y,z
-x,y,z
x,-y,z
x,1/2+y,1/2+z
-x,1/2-y,1/2+z
-x,1/2+y,1/2+z
x,1/2-y,1/2+z
1/2+x,y,1/2+z
1/2-x,-y,1/2+z
1/2-x,y,1/2+z
1/2+x,-y,1/2+z
1/2+x,1/2+y,z
1/2-x,1/2-y,z
1/2-x,1/2+y,z
1/2+x,1/2-y,z
loop_
_atom_site_type_symbol
_atom_site_label
_atom_site_fract_x
_atom_site_fract_y
_atom_site_fract_z
Si Si1 0.674977 0.000000 0.567380
Si Si2 0.000000 0.500000 0.486651
Si Si3 0.250000 0.750000 0.082826
Si Si4 0.000000 0.359138 0.365585
Si Si5 0.648678 0.252193 0.286159
Si Si6 0.898798 0.860007 0.662613
Si Si7 0.603280 0.500000 0.208428
O O1 0.731578 0.877861 0.544313
O O2 0.663556 0.000000 0.644389
O O3 0.583369 0.000000 0.531758
O O4 0.000000 0.375492 0.442192
O O5 0.161176 0.736623 0.124473
O O6 0.913513 0.278444 0.346234
O O7 0.000000 0.500000 0.334982
O O8 0.750000 0.250000 0.310032
O O9 0.630713 0.141797 0.235810
O O10 0.624646 0.381568 0.252148
O O11 0.000000 0.814132 0.655240
O O12 0.886245 0.000000 0.636394
O O13 0.500000 0.500000 0.188844
#
# Coordination Sequence:
#
# PCOD8186794 Si02
#       7
#     8   4   8   8  16  16   8
#     4  12  24  46  64  99 137 176 223 276 325 401
#     4  10  28  48  76  84 124 180 244 278 322 382
#     4  12  24  38  66  98 142 170 220 268 338 410
#     4  10  24  48  64  88 120 181 224 272 327 383
#     4  12  23  36  63  97 137 169 213 269 335 408
#     4  11  21  34  55  95 143 178 199 256 338 415
#     4  12  22  35  61 102 138 168 197 269 347 394
#
# _framework density 20.049126999999999
#
# number of rings (size 3 to 8) (size 9 to 14) (size 15 to 20)
#    0.353    0.235    7.647    0.706    4.941    0.000 
#    2.118    0.000    0.000    1.412    0.000    0.000 
#    0.000    0.000    0.000    0.000    0.000    0.000 
#
# Total GULP energy -210729.392634 kJ/mol
# GULP energy per Si atom -12395.846626 kJ/mol
# Density = 2.000349 g / cm^3
# Si number density = 20.049127 Si / 1000 Ang^3
#
#
#
# Elastic Constant Matrix: (Units=GPa)
#
#
# Indices 1 2 3 4 5 6 
#
# 1 159.4053 48.7009 27.2058 0.0000 0.0000 0.0000
# 2 48.7009 129.3785 35.1683 0.0000 0.0000 0.0000
# 3 27.2058 35.1683 64.4025 0.0000 0.0000 0.0000
# 4 0.0000 0.0000 0.0000 12.1631 0.0000 0.0000
# 5 0.0000 0.0000 0.0000 0.0000 -6.0619 0.0000
# 6 0.0000 0.0000 0.0000 0.0000 0.0000 33.4925
#
#
#
# Elastic Compliance Matrix: (Units=1/GPa)
#
#
# Indices 1 2 3 4 5 6 
#
# 1 0.007272 -0.002234 -0.001852 0.000000 0.000000 0.000000
# 2 -0.002234 0.009763 -0.004387 0.000000 0.000000 0.000000
# 3 -0.001852 -0.004387 0.018706 0.000000 0.000000 0.000000
# 4 0.000000 0.000000 0.000000 0.082216 0.000000 0.000000
# 5 0.000000 0.000000 0.000000 0.000000 -0.164964 0.000000
# 6 0.000000 0.000000 0.000000 0.000000 0.000000 0.029857
#
#
# Mechanical properties :
#
#
# Convention : Reuss Voigt Hill
#
# Bulk Modulus (GPa) = 53.21007 63.92626 58.56816
# Shear Modulus (GPa) = 824.94450 24.05949 424.50200
#
# Velocity S-wave (km/s) = 20.30652 3.46790 14.56676
# Velocity P-wave (km/s) = 24.00841 6.92742 17.66908
#
# Compressibility (1/GPa) = 0.01879344
#
# Stress axis : x y z
#
# Youngs Moduli (GPa) = 137.51581 102.42994 53.45995
#
# Poissons Ratio (x) = 0.22882 0.09901
# Poissons Ratio (y) = 0.30719 0.23456
# Poissons Ratio (z) = 0.25469 0.44941
#
# Static dielectric constant tensor:
#      x y z
#    x 3.929110 0.000000 0.000000 
#    y 0.000000 3.852750 0.000000 
#    z 0.000000 0.000000 3.103710 
# 
# 
# High freq. dielectric constant tensor:
#      x y z
#    x 1.802280 0.000000 0.000000 
#    y 0.000000 1.801740 0.000000 
#    z 0.000000 0.000000 1.717700 
# 
# From -- ./inp_files/29247.got.cif
#   From: 2010.03.12/outbox.cif.g09.slc.cpg/sg42_15_cif.got.tgz:29247.got - 2010.04.14 02:04:31.
