data_PCOD8186273
_publ_section_title
;
Structure prediction by ZEFSAII (Michael W. Deem and Ramdas Pophale) SiO2 
 PCOD8186273
Probable space group: F M M 2
;
_chemical_formula_sum "Si O2"
_cell_formula_units_Z 80
_cell_length_a 10.090587
_cell_length_b 21.561033
_cell_length_c 20.549433
_cell_angle_alpha 90.000000
_cell_angle_beta 90.000000
_cell_angle_gamma 90.000000
_cell_volume 4470.806141
_symmetry_space_group_name_H-M "F M M 2"
_symmetry_group_IT_number 42
_symmetry_cell_setting 'orthorhombic'
loop_
_space_group_symop_operation_xyz
x,y,z
-x,-y,z
-x,y,z
x,-y,z
x,1/2+y,1/2+z
-x,1/2-y,1/2+z
-x,1/2+y,1/2+z
x,1/2-y,1/2+z
1/2+x,y,1/2+z
1/2-x,-y,1/2+z
1/2-x,y,1/2+z
1/2+x,-y,1/2+z
1/2+x,1/2+y,z
1/2-x,1/2-y,z
1/2-x,1/2+y,z
1/2+x,1/2-y,z
loop_
_atom_site_type_symbol
_atom_site_label
_atom_site_fract_x
_atom_site_fract_y
_atom_site_fract_z
Si Si1 0.500000 0.841249 0.258780
Si Si2 0.655154 0.863977 0.049003
Si Si3 0.350052 0.000000 0.051352
Si Si4 0.250000 0.250000 0.966110
Si Si5 0.354370 0.000000 0.665393
Si Si6 0.739051 0.625727 0.194888
Si Si7 0.000000 0.262161 0.375588
Si Si8 0.000000 0.705781 0.743185
O O1 0.632119 0.878043 0.240370
O O2 0.500000 0.827389 0.336282
O O3 0.500000 0.776728 0.218118
O O4 0.500000 0.846709 0.053142
O O5 0.719684 0.864665 0.120222
O O6 0.673369 0.933260 0.015058
O O7 0.732685 0.811915 0.008858
O O8 0.500000 0.000000 0.078192
O O9 0.257509 0.000000 0.112463
O O10 0.125853 0.240904 0.920652
O O11 0.336853 0.938651 0.708449
O O12 0.500000 0.000000 0.633082
O O13 0.636040 0.678189 0.216031
O O14 0.000000 0.205545 0.322707
#
# Coordination Sequence:
#
# PCOD8186273 Si02
#       8
#     8  16   8   8   8  16   8   8
#     4  10  22  36  59  80 111 158 188 232 276 362
#     4  10  21  35  59  89 120 144 188 236 286 350
#     4   8  18  38  58  79 112 162 184 217 291 356
#     4  12  22  38  60  86 114 154 192 254 272 334
#     4  10  20  34  52  85 124 148 178 229 283 358
#     4  11  20  36  59  88 120 148 185 231 298 341
#     4  10  24  40  56  80 114 156 200 228 294 324
#     4  10  22  36  59  82 115 154 180 246 278 354
#
# _framework density 17.893865000000002
#
# number of rings (size 3 to 8) (size 9 to 14) (size 15 to 20)
#    0.600    1.200    3.000    1.800    4.200    0.800 
#    1.800    0.000    0.000    7.200    0.000    0.000 
#    0.000    0.000    0.000    0.000    0.000    0.000 
#
# Total GULP energy -247773.900045 kJ/mol
# GULP energy per Si atom -12388.695002 kJ/mol
# Density = 1.785314 g / cm^3
# Si number density = 17.893865 Si / 1000 Ang^3
#
#
#
# Elastic Constant Matrix: (Units=GPa)
#
#
# Indices 1 2 3 4 5 6 
#
# 1 120.4765 41.1325 39.9025 0.0000 0.0000 0.0000
# 2 41.1325 119.2825 41.3777 0.0000 0.0000 0.0000
# 3 39.9025 41.3777 83.4488 0.0000 0.0000 0.0000
# 4 0.0000 0.0000 0.0000 3.2967 0.0000 0.0000
# 5 0.0000 0.0000 0.0000 0.0000 32.4672 0.0000
# 6 0.0000 0.0000 0.0000 0.0000 0.0000 31.9627
#
#
#
# Elastic Compliance Matrix: (Units=1/GPa)
#
#
# Indices 1 2 3 4 5 6 
#
# 1 0.010332 -0.002233 -0.003833 0.000000 0.000000 0.000000
# 2 -0.002233 0.010608 -0.004192 0.000000 0.000000 0.000000
# 3 -0.003833 -0.004192 0.015895 0.000000 0.000000 0.000000
# 4 0.000000 0.000000 0.000000 0.303337 0.000000 0.000000
# 5 0.000000 0.000000 0.000000 0.000000 0.030800 0.000000
# 6 0.000000 0.000000 0.000000 0.000000 0.000000 0.031286
#
#
# Mechanical properties :
#
#
# Convention : Reuss Voigt Hill
#
# Bulk Modulus (GPa) = 61.28154 63.11481 62.19818
# Shear Modulus (GPa) = 11.67637 26.93164 19.30401
#
# Velocity S-wave (km/s) = 2.55725 3.88374 3.28808
# Velocity P-wave (km/s) = 6.56056 7.44712 7.01785
#
# Compressibility (1/GPa) = 0.01631813
#
# Stress axis : x y z
#
# Youngs Moduli (GPa) = 96.78252 94.27134 62.91329
#
# Poissons Ratio (x) = 0.21053 0.24117
# Poissons Ratio (y) = 0.21614 0.26373
# Poissons Ratio (z) = 0.37100 0.39518
#
# Static dielectric constant tensor:
#      x y z
#    x 3.425850 0.000000 0.000000 
#    y 0.000000 3.949100 0.000000 
#    z 0.000000 0.000000 3.051770 
# 
# 
# High freq. dielectric constant tensor:
#      x y z
#    x 1.714610 0.000000 0.000000 
#    y 0.000000 1.701860 0.000000 
#    z 0.000000 0.000000 1.653620 
# 
# From -- ./inp_files/27876.got.cif
#   From: 2010.03.12/outbox.cif.g09.slc.cpg/sg42_14_cif.got.tgz:27876.got - 2010.04.14 02:04:31.
