data_PCOD8186131
_publ_section_title
;
Structure prediction by ZEFSAII (Michael W. Deem and Ramdas Pophale) SiO2 
 PCOD8186131
Probable space group: F M M 2
;
_chemical_formula_sum "Si O2"
_cell_formula_units_Z 80
_cell_length_a 8.981623
_cell_length_b 29.349449
_cell_length_c 15.442658
_cell_angle_alpha 90.000000
_cell_angle_beta 90.000000
_cell_angle_gamma 90.000000
_cell_volume 4070.772458
_symmetry_space_group_name_H-M "F M M 2"
_symmetry_group_IT_number 42
_symmetry_cell_setting 'orthorhombic'
loop_
_space_group_symop_operation_xyz
x,y,z
-x,-y,z
-x,y,z
x,-y,z
x,1/2+y,1/2+z
-x,1/2-y,1/2+z
-x,1/2+y,1/2+z
x,1/2-y,1/2+z
1/2+x,y,1/2+z
1/2-x,-y,1/2+z
1/2-x,y,1/2+z
1/2+x,-y,1/2+z
1/2+x,1/2+y,z
1/2-x,1/2-y,z
1/2-x,1/2+y,z
1/2+x,1/2-y,z
loop_
_atom_site_type_symbol
_atom_site_label
_atom_site_fract_x
_atom_site_fract_y
_atom_site_fract_z
Si Si1 0.669570 0.705153 0.312330
Si Si2 0.674075 0.390353 0.255180
Si Si3 0.176750 0.552092 0.915183
Si Si4 0.328248 0.295917 0.517050
Si Si5 0.674597 0.111715 0.561596
O O1 0.500000 0.710501 0.283912
O O2 0.750000 0.750000 0.276433
O O3 0.743677 0.660036 0.270078
O O4 0.687746 0.700077 0.414577
O O5 0.500000 0.385289 0.273486
O O6 0.737464 0.426131 0.325416
O O7 0.705141 0.407900 0.158168
O O8 0.229265 0.500000 0.916562
O O9 0.000000 0.556484 0.923351
O O10 0.248639 0.577475 0.995930
O O11 0.500000 0.295992 0.545863
O O12 0.250000 0.250000 0.551206
O O13 0.243863 0.338252 0.558940
O O14 0.500000 0.114948 0.541214
#
# Coordination Sequence:
#
# PCOD8186131 Si02
#       5
#    16  16  16  16  16
#     4   9  17  32  54  78 109 147 189 227 268 326
#     4   9  19  37  58  83 113 150 191 232 281 343
#     4  10  21  41  65  83 108 150 194 237 291 350
#     4  10  19  34  57  83 117 157 197 234 278 336
#     4  11  22  36  59  89 120 149 187 238 290 341
#
# _framework density 19.652291000000002
#
# number of rings (size 3 to 8) (size 9 to 14) (size 15 to 20)
#    0.000    2.200    2.000    1.200    0.000    2.800 
#    0.000    8.000    0.000    0.000    0.000    0.000 
#    0.000    0.000    0.000    0.000    0.000    0.000 
#
# Total GULP energy -247987.191675 kJ/mol
# GULP energy per Si atom -12399.359584 kJ/mol
# Density = 1.960756 g / cm^3
# Si number density = 19.652291 Si / 1000 Ang^3
#
#
#
# Elastic Constant Matrix: (Units=GPa)
#
#
# Indices 1 2 3 4 5 6 
#
# 1 50.1492 43.3009 27.8594 0.0000 0.0000 0.0000
# 2 43.3009 169.8491 76.9700 0.0000 0.0000 0.0000
# 3 27.8594 76.9700 103.7430 0.0000 0.0000 0.0000
# 4 0.0000 0.0000 0.0000 9.1296 0.0000 0.0000
# 5 0.0000 0.0000 0.0000 0.0000 23.5841 0.0000
# 6 0.0000 0.0000 0.0000 0.0000 0.0000 29.6574
#
#
#
# Elastic Compliance Matrix: (Units=1/GPa)
#
#
# Indices 1 2 3 4 5 6 
#
# 1 0.026230 -0.005265 -0.003137 0.000000 0.000000 0.000000
# 2 -0.005265 0.009927 -0.005951 0.000000 0.000000 0.000000
# 3 -0.003137 -0.005951 0.014897 0.000000 0.000000 0.000000
# 4 0.000000 0.000000 0.000000 0.109534 0.000000 0.000000
# 5 0.000000 0.000000 0.000000 0.000000 0.042401 0.000000
# 6 0.000000 0.000000 0.000000 0.000000 0.000000 0.033718
#
#
# Mechanical properties :
#
#
# Convention : Reuss Voigt Hill
#
# Bulk Modulus (GPa) = 44.75049 68.88910 56.81980
# Shear Modulus (GPa) = 18.32426 24.18163 21.25294
#
# Velocity S-wave (km/s) = 3.05687 3.51162 3.29211
# Velocity P-wave (km/s) = 5.93969 7.18137 6.58984
#
# Compressibility (1/GPa) = 0.02234612
#
# Stress axis : x y z
#
# Youngs Moduli (GPa) = 38.12499 100.73918 67.12806
#
# Poissons Ratio (x) = 0.53040 0.21061
# Poissons Ratio (y) = 0.20073 0.39948
# Poissons Ratio (z) = 0.11961 0.59949
#
# Static dielectric constant tensor:
#      x y z
#    x 3.421860 0.000000 0.000000 
#    y 0.000000 3.769390 0.000000 
#    z 0.000000 0.000000 3.563550 
# 
# 
# High freq. dielectric constant tensor:
#      x y z
#    x 1.743720 0.000000 0.000000 
#    y 0.000000 1.770710 0.000000 
#    z 0.000000 0.000000 1.767740 
# 
# From -- ./inp_files/17232.got.cif
#   From: 2010.03.12/outbox.cif.g09.slc.cpg/sg42_9_cif.got.tgz:17232.got - 2010.04.14 02:04:31.
