data_PCOD8186735
_publ_section_title
;
Structure prediction by ZEFSAII (Michael W. Deem and Ramdas Pophale) SiO2 
 PCOD8186735
Probable space group: F M M 2
;
_chemical_formula_sum "Si O2"
_cell_formula_units_Z 80
_cell_length_a 17.358618
_cell_length_b 23.099026
_cell_length_c 10.224417
_cell_angle_alpha 90.000000
_cell_angle_beta 90.000000
_cell_angle_gamma 90.000000
_cell_volume 4099.655534
_symmetry_space_group_name_H-M "F M M 2"
_symmetry_group_IT_number 42
_symmetry_cell_setting 'orthorhombic'
loop_
_space_group_symop_operation_xyz
x,y,z
-x,-y,z
-x,y,z
x,-y,z
x,1/2+y,1/2+z
-x,1/2-y,1/2+z
-x,1/2+y,1/2+z
x,1/2-y,1/2+z
1/2+x,y,1/2+z
1/2-x,-y,1/2+z
1/2-x,y,1/2+z
1/2+x,-y,1/2+z
1/2+x,1/2+y,z
1/2-x,1/2-y,z
1/2-x,1/2+y,z
1/2+x,1/2-y,z
loop_
_atom_site_type_symbol
_atom_site_label
_atom_site_fract_x
_atom_site_fract_y
_atom_site_fract_z
Si Si1 0.413816 0.861187 0.097660
Si Si2 0.338325 0.130324 0.351948
Si Si3 0.158673 0.139732 0.321637
Si Si4 0.412566 0.240205 0.270939
Si Si5 0.911796 0.431638 0.592452
O O1 0.500000 0.884945 0.114099
O O2 0.361920 0.893742 0.207399
O O3 0.410743 0.791549 0.128212
O O4 0.387352 0.874282 0.952623
O O5 0.247250 0.135563 0.358844
O O6 0.377211 0.193791 0.374597
O O7 0.369360 0.086872 0.460324
O O8 0.139771 0.203071 0.265254
O O9 0.134718 0.092893 0.215244
O O10 0.500000 0.256605 0.311691
O O11 0.909273 0.500000 0.602550
O O12 0.000000 0.408911 0.593181
#
# Coordination Sequence:
#
# PCOD8186735 Si02
#       5
#    16  16  16  16  16
#     4   9  20  37  58  85 120 164 201 237 299 375
#     4  10  22  40  61  90 124 163 208 257 311 378
#     4  12  22  38  63  96 127 159 206 267 315 365
#     4   9  20  36  60  90 126 165 198 241 308 383
#     4  11  25  44  65  89 123 170 218 264 316 376
#
# _framework density 19.513836000000001
#
# number of rings (size 3 to 8) (size 9 to 14) (size 15 to 20)
#    1.200    0.600    0.000    4.800    2.800    0.800 
#    3.600    1.000    0.000    3.600    0.000    0.000 
#    0.000    0.000    0.000    0.000    0.000    0.000 
#
# Total GULP energy -247894.101677 kJ/mol
# GULP energy per Si atom -12394.705084 kJ/mol
# Density = 1.946942 g / cm^3
# Si number density = 19.513836 Si / 1000 Ang^3
#
#
#
# Elastic Constant Matrix: (Units=GPa)
#
#
# Indices 1 2 3 4 5 6 
#
# 1 99.7814 25.3003 7.4364 0.0000 0.0000 0.0000
# 2 25.3003 67.9795 26.3444 0.0000 0.0000 0.0000
# 3 7.4364 26.3444 106.4650 0.0000 0.0000 0.0000
# 4 0.0000 0.0000 0.0000 26.6205 0.0000 0.0000
# 5 0.0000 0.0000 0.0000 0.0000 78.8534 0.0000
# 6 0.0000 0.0000 0.0000 0.0000 0.0000 5.5194
#
#
#
# Elastic Compliance Matrix: (Units=1/GPa)
#
#
# Indices 1 2 3 4 5 6 
#
# 1 0.011073 -0.004227 0.000272 0.000000 0.000000 0.000000
# 2 -0.004227 0.017884 -0.004130 0.000000 0.000000 0.000000
# 3 0.000272 -0.004130 0.010396 0.000000 0.000000 0.000000
# 4 0.000000 0.000000 0.000000 0.037565 0.000000 0.000000
# 5 0.000000 0.000000 0.000000 0.000000 0.012682 0.000000
# 6 0.000000 0.000000 0.000000 0.000000 0.000000 0.181179
#
#
# Mechanical properties :
#
#
# Convention : Reuss Voigt Hill
#
# Bulk Modulus (GPa) = 43.13297 43.59870 43.36584
# Shear Modulus (GPa) = 16.96780 36.54166 26.75473
#
# Velocity S-wave (km/s) = 2.95197 4.33205 3.70681
# Velocity P-wave (km/s) = 5.81125 6.88572 6.37118
#
# Compressibility (1/GPa) = 0.02318412
#
# Stress axis : x y z
#
# Youngs Moduli (GPa) = 90.30704 55.91598 96.19357
#
# Poissons Ratio (x) = 0.23635 -0.02621
# Poissons Ratio (y) = 0.38171 0.39729
# Poissons Ratio (z) = -0.02460 0.23094
#
# Static dielectric constant tensor:
#      x y z
#    x 3.573550 0.000000 0.000000 
#    y 0.000000 3.233120 0.000000 
#    z 0.000000 0.000000 3.455530 
# 
# 
# High freq. dielectric constant tensor:
#      x y z
#    x 1.777520 0.000000 0.000000 
#    y 0.000000 1.727570 0.000000 
#    z 0.000000 0.000000 1.760620 
# 
# From -- ./inp_files/3479.got.cif
#   From: 2010.03.12/outbox.cif.g09.slc.cpg/sg42_2_cif.got.tgz:3479.got - 2010.04.14 02:04:31.
