data_PCOD8186810
_publ_section_title
;
Structure prediction by ZEFSAII (Michael W. Deem and Ramdas Pophale) SiO2 
 PCOD8186810
Probable space group: F M M 2
;
_chemical_formula_sum "Si O2"
_cell_formula_units_Z 96
_cell_length_a 24.475852
_cell_length_b 21.642300
_cell_length_c 7.424669
_cell_angle_alpha 90.000000
_cell_angle_beta 90.000000
_cell_angle_gamma 90.000000
_cell_volume 3932.949123
_symmetry_space_group_name_H-M "F M M 2"
_symmetry_group_IT_number 42
_symmetry_cell_setting 'orthorhombic'
loop_
_space_group_symop_operation_xyz
x,y,z
-x,-y,z
-x,y,z
x,-y,z
x,1/2+y,1/2+z
-x,1/2-y,1/2+z
-x,1/2+y,1/2+z
x,1/2-y,1/2+z
1/2+x,y,1/2+z
1/2-x,-y,1/2+z
1/2-x,y,1/2+z
1/2+x,-y,1/2+z
1/2+x,1/2+y,z
1/2-x,1/2-y,z
1/2-x,1/2+y,z
1/2+x,1/2-y,z
loop_
_atom_site_type_symbol
_atom_site_label
_atom_site_fract_x
_atom_site_fract_y
_atom_site_fract_z
Si Si1 0.187753 0.761165 0.258480
Si Si2 0.158938 0.647228 0.454196
Si Si3 0.561425 0.929494 0.955791
Si Si4 0.671467 0.369061 0.507633
Si Si5 0.735567 0.927427 0.684295
Si Si6 0.060449 0.069504 0.030708
O O1 0.250000 0.750000 0.203968
O O2 0.162870 0.691644 0.275919
O O3 0.183223 0.797018 0.454271
O O4 0.156064 0.804646 0.120528
O O5 0.207957 0.598668 0.497379
O O6 0.101846 0.613598 0.428095
O O7 0.500000 0.908354 0.013788
O O8 0.607614 0.884753 0.039706
O O9 0.567346 0.925111 0.742682
O O10 0.571071 0.000000 0.019376
O O11 0.695033 0.412310 0.346720
O O12 0.705162 0.392192 0.687536
O O13 0.743739 0.000000 0.662846
O O14 0.000000 0.089553 0.970574
O O15 0.072388 0.000000 0.967674
#
# Coordination Sequence:
#
# PCOD8186810 Si02
#       6
#    16  16  16  16  16  16
#     4  11  22  36  52  76 111 155 186 221 269 337
#     4  11  22  35  55  80 111 148 189 224 279 334
#     4   9  16  30  54  82 109 138 181 236 283 325
#     4  11  22  35  54  84 115 149 190 230 288 345
#     4  11  21  34  54  80 114 143 183 242 288 339
#     4   9  17  33  58  85 109 137 184 244 290 327
#
# _framework density 24.409162999999999
#
# number of rings (size 3 to 8) (size 9 to 14) (size 15 to 20)
#    0.000    1.667    5.000    3.500    2.333    0.000 
#    0.000    1.667    0.000    0.000    0.000    2.333 
#    0.000   21.333    0.000    0.000    0.000    0.000 
#
# Total GULP energy -297602.157226 kJ/mol
# GULP energy per Si atom -12400.089884 kJ/mol
# Density = 2.435361 g / cm^3
# Si number density = 24.409163 Si / 1000 Ang^3
#
#
#
# Elastic Constant Matrix: (Units=GPa)
#
#
# Indices 1 2 3 4 5 6 
#
# 1 196.6790 81.5815 5.5463 -0.0040 -0.0005 -0.0002
# 2 81.5815 171.9112 -4.8835 -0.0005 -0.0007 -0.0016
# 3 5.5463 -4.8835 42.2912 0.0016 -0.0052 -0.0053
# 4 -0.0040 -0.0005 0.0016 26.5902 -0.0041 -0.0037
# 5 -0.0005 -0.0007 -0.0052 -0.0041 22.2318 0.0033
# 6 -0.0002 -0.0016 -0.0053 -0.0037 0.0033 46.6059
#
#
#
# Elastic Compliance Matrix: (Units=1/GPa)
#
#
# Indices 1 2 3 4 5 6 
#
# 1 0.006390 -0.003066 -0.001192 0.000001 0.000000 0.000000
# 2 -0.003066 0.007307 0.001246 0.000000 0.000000 0.000000
# 3 -0.001192 0.001246 0.023946 -0.000002 0.000006 0.000003
# 4 0.000001 0.000000 -0.000002 0.037608 0.000007 0.000003
# 5 0.000000 0.000000 0.000006 0.000007 0.044981 -0.000003
# 6 0.000000 0.000000 0.000003 0.000003 -0.000003 0.021457
#
#
# Mechanical properties :
#
#
# Convention : Reuss Voigt Hill
#
# Bulk Modulus (GPa) = 31.62715 63.93000 47.77857
# Shear Modulus (GPa) = 31.59510 40.99471 36.29491
#
# Velocity S-wave (km/s) = 3.60167 4.10259 3.86027
# Velocity P-wave (km/s) = 5.50284 6.97779 6.28374
#
# Compressibility (1/GPa) = 0.03161841
#
# Stress axis : x y z
#
# Youngs Moduli (GPa) = 156.49700 136.84668 41.76100
#
# Poissons Ratio (x) = 0.41960 0.04978
# Poissons Ratio (y) = 0.47986 -0.05203
# Poissons Ratio (z) = 0.18656 -0.17050
#
# Static dielectric constant tensor:
#      x y z
#    x 4.491510 0.000020 0.000010 
#    y 0.000020 4.658860 -0.000010 
#    z 0.000010 -0.000010 4.802720 
# 
# 
# High freq. dielectric constant tensor:
#      x y z
#    x 1.949240 0.000000 0.000000 
#    y 0.000000 1.979750 0.000000 
#    z 0.000000 0.000000 2.004860 
# 
# From -- ./inp_files/4736.got.cif
#   From: 2010.03.12/outbox.cif.g09.slc.cpg/sg42_3_cif.got.tgz:4736.got - 2010.04.14 02:04:31.
