data_PCOD8186938
_publ_section_title
;
Structure prediction by ZEFSAII (Michael W. Deem and Ramdas Pophale) SiO2 
 PCOD8186938
Probable space group: F D D 2
;
_chemical_formula_sum "Si O2"
_cell_formula_units_Z 104
_cell_length_a 13.980293
_cell_length_b 17.274348
_cell_length_c 20.322326
_cell_angle_alpha 90.000000
_cell_angle_beta 90.000000
_cell_angle_gamma 90.000000
_cell_volume 4907.850801
_symmetry_space_group_name_H-M "F D D 2"
_symmetry_group_IT_number 43
_symmetry_cell_setting 'orthorhombic'
loop_
_space_group_symop_operation_xyz
x,y,z
-x,-y,z
1/4-x,1/4+y,1/4+z
1/4+x,1/4-y,1/4+z
x,1/2+y,1/2+z
-x,1/2-y,1/2+z
1/4-x,3/4+y,3/4+z
1/4+x,3/4-y,3/4+z
1/2+x,y,1/2+z
1/2-x,-y,1/2+z
3/4-x,1/4+y,3/4+z
3/4+x,1/4-y,3/4+z
1/2+x,1/2+y,z
1/2-x,1/2-y,z
3/4-x,3/4+y,1/4+z
3/4+x,3/4-y,1/4+z
loop_
_atom_site_type_symbol
_atom_site_label
_atom_site_fract_x
_atom_site_fract_y
_atom_site_fract_z
Si Si1 0.944366 0.268536 0.452160
Si Si2 0.421764 0.441749 0.980463
Si Si3 0.824549 0.691192 0.633866
Si Si4 0.216958 0.473700 0.961272
Si Si5 0.788933 0.862933 0.759520
Si Si6 0.250000 0.250000 0.874480
Si Si7 0.812374 0.028154 0.080495
O O1 0.956882 0.353505 0.483188
O O2 0.966457 0.206570 0.510106
O O3 0.842212 0.247572 0.420799
O O4 0.024981 0.261121 0.396500
O O5 0.500000 0.500000 0.947343
O O6 0.321407 0.440660 0.939597
O O7 0.400748 0.475817 0.053850
O O8 0.750000 0.750000 0.597865
O O9 0.925300 0.732936 0.647599
O O10 0.782033 0.670774 0.705087
O O11 0.845052 0.616504 0.590023
O O12 0.147437 0.406618 0.987949
O O13 0.230371 0.531017 0.024104
O O14 0.756766 0.827368 0.829351
#
# Coordination Sequence:
#
# PCOD8186938 Si02
#       7
#    16  16  16  16  16   8  16
#     4  11  22  37  64  92 119 163 199 246 313 360
#     4  10  23  45  55  82 132 158 206 250 284 375
#     4   9  16  33  63  91 116 154 195 250 310 348
#     4   9  17  37  58  84 124 149 194 255 289 349
#     4  10  18  35  62  94 126 140 202 259 291 362
#     4  12  18  36  64  98 124 156 192 254 314 348
#     4   9  20  38  60  83 123 158 194 251 301 356
#
# _framework density 21.190536999999999
#
# number of rings (size 3 to 8) (size 9 to 14) (size 15 to 20)
#    0.923    1.231    3.846    0.923    0.000    0.000 
#    5.538    7.692    0.000    0.000    0.000    0.000 
#    0.000    0.000    0.000    0.000    0.000    0.000 
#
# Total GULP energy -322133.268170 kJ/mol
# GULP energy per Si atom -12389.741083 kJ/mol
# Density = 2.114231 g / cm^3
# Si number density = 21.190537 Si / 1000 Ang^3
#
#
#
# Elastic Constant Matrix: (Units=GPa)
#
#
# Indices 1 2 3 4 5 6 
#
# 1 78.2122 31.1764 2.3370 0.0000 0.0000 0.0000
# 2 31.1764 190.6718 41.8624 0.0000 0.0000 0.0000
# 3 2.3370 41.8624 47.1351 0.0000 0.0000 0.0000
# 4 0.0000 0.0000 0.0000 34.9248 0.0000 0.0000
# 5 0.0000 0.0000 0.0000 0.0000 14.3077 0.0000
# 6 0.0000 0.0000 0.0000 0.0000 0.0000 23.5351
#
#
#
# Elastic Compliance Matrix: (Units=1/GPa)
#
#
# Indices 1 2 3 4 5 6 
#
# 1 0.013778 -0.002612 0.001637 0.000000 0.000000 0.000000
# 2 -0.002612 0.007010 -0.006097 0.000000 0.000000 0.000000
# 3 0.001637 -0.006097 0.026549 0.000000 0.000000 0.000000
# 4 0.000000 0.000000 0.000000 0.028633 0.000000 0.000000
# 5 0.000000 0.000000 0.000000 0.000000 0.069893 0.000000
# 6 0.000000 0.000000 0.000000 0.000000 0.000000 0.042490
#
#
# Mechanical properties :
#
#
# Convention : Reuss Voigt Hill
#
# Bulk Modulus (GPa) = 30.12632 51.86342 40.99487
# Shear Modulus (GPa) = 23.41252 30.59639 27.00445
#
# Velocity S-wave (km/s) = 3.32755 3.80395 3.57370
# Velocity P-wave (km/s) = 5.38620 6.61977 6.03459
#
# Compressibility (1/GPa) = 0.03319357
#
# Stress axis : x y z
#
# Youngs Moduli (GPa) = 72.57908 142.64843 37.66617
#
# Poissons Ratio (x) = 0.37263 -0.06165
# Poissons Ratio (y) = 0.18959 0.22963
# Poissons Ratio (z) = -0.11880 0.86966
#
# Static dielectric constant tensor:
#      x y z
#    x 3.810390 0.000000 0.000000 
#    y 0.000000 3.952820 0.000000 
#    z 0.000000 0.000000 3.382690 
# 
# 
# High freq. dielectric constant tensor:
#      x y z
#    x 1.828440 0.000000 0.000000 
#    y 0.000000 1.834740 0.000000 
#    z 0.000000 0.000000 1.793420 
# 
# From -- ./inp_files/21806.got.cif
#   From: 2010.06.25/outbox.cif.g09.slc.cpg/sg43_11_cif.got.tgz:21806.got - 2010.06.26 16:48:59.
