data_PCOD8186827
_publ_section_title
;
Structure prediction by ZEFSAII (Michael W. Deem and Ramdas Pophale) SiO2 
 PCOD8186827
Probable space group: F M M 2
;
_chemical_formula_sum "Si O2"
_cell_formula_units_Z 80
_cell_length_a 25.894059
_cell_length_b 8.725693
_cell_length_c 19.092303
_cell_angle_alpha 90.000000
_cell_angle_beta 90.000000
_cell_angle_gamma 90.000000
_cell_volume 4313.783851
_symmetry_space_group_name_H-M "F M M 2"
_symmetry_group_IT_number 42
_symmetry_cell_setting 'orthorhombic'
loop_
_space_group_symop_operation_xyz
x,y,z
-x,-y,z
-x,y,z
x,-y,z
x,1/2+y,1/2+z
-x,1/2-y,1/2+z
-x,1/2+y,1/2+z
x,1/2-y,1/2+z
1/2+x,y,1/2+z
1/2-x,-y,1/2+z
1/2-x,y,1/2+z
1/2+x,-y,1/2+z
1/2+x,1/2+y,z
1/2-x,1/2-y,z
1/2-x,1/2+y,z
1/2+x,1/2-y,z
loop_
_atom_site_type_symbol
_atom_site_label
_atom_site_fract_x
_atom_site_fract_y
_atom_site_fract_z
Si Si1 0.000000 0.318961 0.347510
Si Si2 0.195677 0.179654 0.094890
Si Si3 0.388448 0.824408 0.354567
Si Si4 0.888448 0.175592 0.687729
Si Si5 0.195677 0.179654 0.447406
Si Si6 0.000000 0.318962 0.194786
O O1 0.945578 0.274435 0.384614
O O2 0.000000 0.240487 0.271148
O O3 0.000000 0.500000 0.337111
O O4 0.250000 0.250000 0.119489
O O5 0.153319 0.213865 0.153553
O O6 0.202618 0.000000 0.085910
O O7 0.177634 0.250000 0.021148
O O8 0.386988 0.803999 0.271148
O O9 0.346681 0.713865 0.388743
O O10 0.376193 0.000000 0.375090
O O11 0.945578 0.225564 0.657682
O O12 0.876193 0.000000 0.667206
O O13 0.250000 0.250000 0.422806
O O14 0.202618 0.000000 0.456386
O O15 0.000000 0.500000 0.205186
#
# Coordination Sequence:
#
# PCOD8186827 Si02
#       6
#     8  16  16  16  16   8
#     4   7  12  26  50  77 104 135 167 201 246 297
#     4  11  22  37  55  74 100 134 172 212 258 307
#     4   9  17  32  55  81 107 135 169 208 250 298
#     4   9  17  32  55  81 107 135 169 208 250 298
#     4  11  22  37  55  74 100 134 172 212 258 307
#     4   7  12  26  50  77 104 135 167 201 246 297
#
# _framework density 18.545203000000001
#
# number of rings (size 3 to 8) (size 9 to 14) (size 15 to 20)
#    0.000    2.600    0.000    7.200    0.000    1.600 
#    0.000    2.000    0.000    3.600    0.000    0.000 
#    0.000    0.000    0.000    0.000    0.000    0.000 
#
# Total GULP energy -247816.725371 kJ/mol
# GULP energy per Si atom -12390.836269 kJ/mol
# Density = 1.850299 g / cm^3
# Si number density = 18.545203 Si / 1000 Ang^3
#
#
#
# Elastic Constant Matrix: (Units=GPa)
#
#
# Indices 1 2 3 4 5 6 
#
# 1 148.8828 52.1868 52.9995 0.0000 0.0000 0.0000
# 2 52.1868 112.6442 29.2556 0.0000 0.0000 0.0000
# 3 52.9995 29.2556 45.5235 0.0000 0.0000 0.0000
# 4 0.0000 0.0000 0.0000 22.7870 0.0000 0.0000
# 5 0.0000 0.0000 0.0000 0.0000 0.8172 0.0000
# 6 0.0000 0.0000 0.0000 0.0000 0.0000 25.3046
#
#
#
# Elastic Compliance Matrix: (Units=1/GPa)
#
#
# Indices 1 2 3 4 5 6 
#
# 1 0.011951 -0.002308 -0.012430 0.000000 0.000000 0.000000
# 2 -0.002308 0.011102 -0.004447 0.000000 0.000000 0.000000
# 3 -0.012430 -0.004447 0.039295 0.000000 0.000000 0.000000
# 4 0.000000 0.000000 0.000000 0.043885 0.000000 0.000000
# 5 0.000000 0.000000 0.000000 0.000000 1.223694 0.000000
# 6 0.000000 0.000000 0.000000 0.000000 0.000000 0.039519
#
#
# Mechanical properties :
#
#
# Convention : Reuss Voigt Hill
#
# Bulk Modulus (GPa) = 41.70558 63.99270 52.84914
# Shear Modulus (GPa) = 3.53155 21.28899 12.41027
#
# Velocity S-wave (km/s) = 1.38146 3.39182 2.58968
# Velocity P-wave (km/s) = 5.00819 7.06544 6.12383
#
# Compressibility (1/GPa) = 0.02397761
#
# Stress axis : x y z
#
# Youngs Moduli (GPa) = 83.67819 90.07414 25.44821
#
# Poissons Ratio (x) = 0.20792 0.31631
# Poissons Ratio (y) = 0.19316 0.11317
# Poissons Ratio (z) = 1.04009 0.40058
#
# Static dielectric constant tensor:
#      x y z
#    x 3.812920 0.000000 0.000000 
#    y 0.000000 3.205750 0.000000 
#    z 0.000000 0.000000 3.042300 
# 
# 
# High freq. dielectric constant tensor:
#      x y z
#    x 1.742000 0.000000 0.000000 
#    y 0.000000 1.701880 0.000000 
#    z 0.000000 0.000000 1.684330 
# 
# From -- ./inp_files/22443.got.cif
#   From: 2010.03.12/outbox.cif.g09.slc.cpg/sg42_12_cif.got.tgz:22443.got - 2010.04.14 02:04:31.
