data_PCOD8186345
_publ_section_title
;
Structure prediction by ZEFSAII (Michael W. Deem and Ramdas Pophale) SiO2 
 PCOD8186345
Probable space group: F M M 2
;
_chemical_formula_sum "Si O2"
_cell_formula_units_Z 96
_cell_length_a 26.841818
_cell_length_b 26.841388
_cell_length_c 7.525617
_cell_angle_alpha 90.000000
_cell_angle_beta 90.000000
_cell_angle_gamma 90.000000
_cell_volume 5421.993709
_symmetry_space_group_name_H-M "F M M 2"
_symmetry_group_IT_number 42
_symmetry_cell_setting 'orthorhombic'
loop_
_space_group_symop_operation_xyz
x,y,z
-x,-y,z
-x,y,z
x,-y,z
x,1/2+y,1/2+z
-x,1/2-y,1/2+z
-x,1/2+y,1/2+z
x,1/2-y,1/2+z
1/2+x,y,1/2+z
1/2-x,-y,1/2+z
1/2-x,y,1/2+z
1/2+x,-y,1/2+z
1/2+x,1/2+y,z
1/2-x,1/2-y,z
1/2-x,1/2+y,z
1/2+x,1/2-y,z
loop_
_atom_site_type_symbol
_atom_site_label
_atom_site_fract_x
_atom_site_fract_y
_atom_site_fract_z
Si Si1 0.693522 0.612640 0.323890
Si Si2 0.942623 0.360664 0.526481
Si Si3 0.887399 0.806484 0.323913
Si Si4 0.139375 0.557382 0.526456
Si Si5 0.693522 0.112641 0.229021
Si Si6 0.887398 0.306483 0.229041
O O1 0.663295 0.663318 0.287934
O O2 0.672203 0.568836 0.200673
O O3 0.688199 0.594528 0.526457
O O4 0.750000 0.624866 0.276456
O O5 0.931190 0.327831 0.700703
O O6 0.911577 0.411599 0.526472
O O7 0.931186 0.327829 0.352267
O O8 0.000000 0.375776 0.526471
O O9 0.875204 0.750001 0.276474
O O10 0.905508 0.811816 0.526478
O O11 0.124290 0.500000 0.526454
O O12 0.172200 0.568837 0.352235
O O13 0.663298 0.163319 0.264994
#
# Coordination Sequence:
#
# PCOD8186345 Si02
#       6
#    16  16  16  16  16  16
#     4  10  20  35  54  80 113 145 179 218 261 315
#     4  10  22  39  57  79 107 139 180 226 270 318
#     4  10  20  35  54  80 113 145 179 218 261 315
#     4  10  22  39  57  79 107 139 180 226 270 318
#     4  10  20  35  54  80 113 145 179 218 261 315
#     4  10  20  35  54  80 113 145 179 218 261 315
#
# _framework density 17.705663000000001
#
# number of rings (size 3 to 8) (size 9 to 14) (size 15 to 20)
#    0.000    2.000    3.333    0.000    0.000    3.667 
#    0.000    3.333    0.000    0.000    0.000    9.333 
#    0.000    0.000    0.000    0.000    0.000    0.000 
#
# Total GULP energy -297684.873783 kJ/mol
# GULP energy per Si atom -12403.536408 kJ/mol
# Density = 1.766536 g / cm^3
# Si number density = 17.705663 Si / 1000 Ang^3
#
#
#
# Elastic Constant Matrix: (Units=GPa)
#
#
# Indices 1 2 3 4 5 6 
#
# 1 124.5287 41.3914 51.5096 -0.0948 0.5037 0.2954
# 2 41.3914 124.6225 51.5840 -0.0818 0.3725 0.2060
# 3 51.5096 51.5840 148.7710 -0.1198 0.3596 0.2664
# 4 -0.0948 -0.0818 -0.1198 20.3699 0.1420 0.0678
# 5 0.5037 0.3725 0.3596 0.1420 19.8824 -0.4134
# 6 0.2954 0.2060 0.2664 0.0678 -0.4134 10.9117
#
#
#
# Elastic Compliance Matrix: (Units=1/GPa)
#
#
# Indices 1 2 3 4 5 6 
#
# 1 0.009852 -0.002172 -0.002658 0.000023 -0.000165 -0.000167
# 2 -0.002172 0.009848 -0.002662 0.000015 -0.000083 -0.000065
# 3 -0.002658 -0.002662 0.008565 0.000028 -0.000040 -0.000089
# 4 0.000023 0.000015 0.000028 0.049096 -0.000359 -0.000320
# 5 -0.000165 -0.000083 -0.000040 -0.000359 0.050345 0.001916
# 6 -0.000167 -0.000065 -0.000089 -0.000320 0.001916 0.091727
#
#
# Mechanical properties :
#
#
# Convention : Reuss Voigt Hill
#
# Bulk Modulus (GPa) = 75.28664 76.32137 75.80400
# Shear Modulus (GPa) = 20.93421 27.12862 24.03142
#
# Velocity S-wave (km/s) = 3.44226 3.91858 3.68812
# Velocity P-wave (km/s) = 7.64280 7.97953 7.81298
#
# Compressibility (1/GPa) = 0.01328257
#
# Stress axis : x y z
#
# Youngs Moduli (GPa) = 101.49804 101.54489 116.74991
#
# Poissons Ratio (x) = 0.22050 0.31027
# Poissons Ratio (y) = 0.22040 0.31084
# Poissons Ratio (z) = 0.26974 0.27035
#
# Static dielectric constant tensor:
#      x y z
#    x 3.091830 0.000040 0.000080 
#    y 0.000040 3.091270 -0.000180 
#    z 0.000080 -0.000180 3.812720 
# 
# 
# High freq. dielectric constant tensor:
#      x y z
#    x 1.673420 0.000000 0.000000 
#    y 0.000000 1.673380 -0.000010 
#    z 0.000000 -0.000010 1.708850 
# 
# From -- ./inp_files/4721.got.cif
#   From: 2010.03.12/outbox.cif.g09.slc.cpg/sg42_3_cif.got.tgz:4721.got - 2010.04.14 02:04:31.
