data_PCOD8187250
_publ_section_title
;
Structure prediction by ZEFSAII (Michael W. Deem and Ramdas Pophale) SiO2 
 PCOD8187250
Probable space group: F D D 2
;
_chemical_formula_sum "Si O2"
_cell_formula_units_Z 112
_cell_length_a 19.251049
_cell_length_b 22.216382
_cell_length_c 11.484717
_cell_angle_alpha 90.000000
_cell_angle_beta 90.000000
_cell_angle_gamma 90.000000
_cell_volume 4911.883207
_symmetry_space_group_name_H-M "F D D 2"
_symmetry_group_IT_number 43
_symmetry_cell_setting 'orthorhombic'
loop_
_space_group_symop_operation_xyz
x,y,z
-x,-y,z
1/4-x,1/4+y,1/4+z
1/4+x,1/4-y,1/4+z
x,1/2+y,1/2+z
-x,1/2-y,1/2+z
1/4-x,3/4+y,3/4+z
1/4+x,3/4-y,3/4+z
1/2+x,y,1/2+z
1/2-x,-y,1/2+z
3/4-x,1/4+y,3/4+z
3/4+x,1/4-y,3/4+z
1/2+x,1/2+y,z
1/2-x,1/2-y,z
3/4-x,3/4+y,1/4+z
3/4+x,3/4-y,1/4+z
loop_
_atom_site_type_symbol
_atom_site_label
_atom_site_fract_x
_atom_site_fract_y
_atom_site_fract_z
Si Si1 0.817474 0.786497 0.741680
Si Si2 0.838327 0.464827 0.413899
Si Si3 0.500097 0.675698 0.199073
Si Si4 0.267640 0.112378 0.832987
Si Si5 0.404502 0.751069 0.033906
Si Si6 0.307221 0.198857 0.350312
Si Si7 0.106327 0.300856 0.890929
O O1 0.750000 0.750000 0.773983
O O2 0.795281 0.855979 0.759803
O O3 0.839910 0.775471 0.609878
O O4 0.877227 0.763521 0.829222
O O5 0.817981 0.531450 0.459752
O O6 0.772581 0.420075 0.441282
O O7 0.909973 0.440665 0.470935
O O8 0.843264 0.465534 0.273935
O O9 0.447811 0.700774 0.101810
O O10 0.525224 0.610394 0.157034
O O11 0.459781 0.670695 0.322359
O O12 0.299780 0.059719 0.751089
O O13 0.327584 0.154607 0.881772
O O14 0.374994 0.720012 0.920303
O O15 0.250000 0.250000 0.345747
#
# Coordination Sequence:
#
# PCOD8187250 Si02
#       7
#    16  16  16  16  16  16  16
#     4   9  19  37  67  98 128 176 231 294 345 415
#     4  11  27  43  69 105 141 189 234 296 369 432
#     4  10  26  46  73 101 142 189 239 304 356 439
#     4  10  21  40  69 101 131 175 235 296 348 429
#     4  10  22  43  66 100 134 183 235 287 364 428
#     4  12  28  46  70 104 148 192 236 299 376 439
#     4  10  22  43  71 102 138 183 237 291 361 433
#
# _framework density 22.801845
#
# number of rings (size 3 to 8) (size 9 to 14) (size 15 to 20)
#    0.000    1.714    0.000    2.143    8.000    6.286 
#    0.000    0.000    0.000    0.000    0.000    0.000 
#    0.000    0.000    0.000    0.000    0.000    0.000 
#
# Total GULP energy -347024.234554 kJ/mol
# GULP energy per Si atom -12393.722663 kJ/mol
# Density = 2.274995 g / cm^3
# Si number density = 22.801845 Si / 1000 Ang^3
#
#
#
# Elastic Constant Matrix: (Units=GPa)
#
#
# Indices 1 2 3 4 5 6 
#
# 1 113.8791 62.1954 49.9683 0.0000 0.0000 0.0000
# 2 62.1954 148.3942 40.8721 0.0000 0.0000 0.0000
# 3 49.9683 40.8721 112.8680 0.0000 0.0000 0.0000
# 4 0.0000 0.0000 0.0000 21.8554 0.0000 0.0000
# 5 0.0000 0.0000 0.0000 0.0000 38.9648 0.0000
# 6 0.0000 0.0000 0.0000 0.0000 0.0000 40.4416
#
#
#
# Elastic Compliance Matrix: (Units=1/GPa)
#
#
# Indices 1 2 3 4 5 6 
#
# 1 0.012953 -0.004276 -0.004186 0.000000 0.000000 0.000000
# 2 -0.004276 0.008897 -0.001329 0.000000 0.000000 0.000000
# 3 -0.004186 -0.001329 0.011194 0.000000 0.000000 0.000000
# 4 0.000000 0.000000 0.000000 0.045755 0.000000 0.000000
# 5 0.000000 0.000000 0.000000 0.000000 0.025664 0.000000
# 6 0.000000 0.000000 0.000000 0.000000 0.000000 0.024727
#
#
# Mechanical properties :
#
#
# Convention : Reuss Voigt Hill
#
# Bulk Modulus (GPa) = 74.27891 75.69033 74.98462
# Shear Modulus (GPa) = 32.62408 35.05938 33.84173
#
# Velocity S-wave (km/s) = 3.78665 3.92544 3.85667
# Velocity P-wave (km/s) = 7.19478 7.33569 7.26557
#
# Compressibility (1/GPa) = 0.01346277
#
# Stress axis : x y z
#
# Youngs Moduli (GPa) = 77.19929 112.39757 89.33068
#
# Poissons Ratio (x) = 0.48062 0.37396
# Poissons Ratio (y) = 0.33011 0.11870
# Poissons Ratio (z) = 0.32317 0.14934
#
# Static dielectric constant tensor:
#      x y z
#    x 4.465760 0.000000 0.000000 
#    y 0.000000 4.737500 0.000000 
#    z 0.000000 0.000000 3.854090 
# 
# 
# High freq. dielectric constant tensor:
#      x y z
#    x 1.915870 0.000000 0.000000 
#    y 0.000000 1.911970 0.000000 
#    z 0.000000 0.000000 1.882900 
# 
# From -- ./inp_files/7159.got.cif
#   From: 2010.06.25/outbox.cif.g09.slc.cpg/sg43_4_cif.got.tgz:7159.got - 2010.06.26 16:48:59.
