data_PCOD8187399
_publ_section_title
;
Structure prediction by ZEFSAII (Michael W. Deem and Ramdas Pophale) SiO2 
 PCOD8187399
Probable space group: F D D 2
;
_chemical_formula_sum "Si O2"
_cell_formula_units_Z 88
_cell_length_a 14.899700
_cell_length_b 20.226637
_cell_length_c 13.743177
_cell_angle_alpha 90.000000
_cell_angle_beta 90.000000
_cell_angle_gamma 90.000000
_cell_volume 4141.792567
_symmetry_space_group_name_H-M "F D D 2"
_symmetry_group_IT_number 43
_symmetry_cell_setting 'orthorhombic'
loop_
_space_group_symop_operation_xyz
x,y,z
-x,-y,z
1/4-x,1/4+y,1/4+z
1/4+x,1/4-y,1/4+z
x,1/2+y,1/2+z
-x,1/2-y,1/2+z
1/4-x,3/4+y,3/4+z
1/4+x,3/4-y,3/4+z
1/2+x,y,1/2+z
1/2-x,-y,1/2+z
3/4-x,1/4+y,3/4+z
3/4+x,1/4-y,3/4+z
1/2+x,1/2+y,z
1/2-x,1/2-y,z
3/4-x,3/4+y,1/4+z
3/4+x,3/4-y,1/4+z
loop_
_atom_site_type_symbol
_atom_site_label
_atom_site_fract_x
_atom_site_fract_y
_atom_site_fract_z
Si Si1 0.795069 0.124066 0.452190
Si Si2 0.250000 0.750000 0.576450
Si Si3 0.896932 0.363295 0.830249
Si Si4 0.216195 0.321954 0.397655
Si Si5 0.491257 0.578402 0.498470
Si Si6 0.644778 0.022211 0.483553
O O1 0.751186 0.184455 0.510958
O O2 0.799904 0.145380 0.339283
O O3 0.888508 0.103333 0.502230
O O4 0.734711 0.058611 0.452983
O O5 0.159716 0.745576 0.640458
O O6 0.800849 0.371146 0.883378
O O7 0.897742 0.403494 0.729483
O O8 0.919058 0.287265 0.806380
O O9 0.972816 0.391189 0.899365
O O10 0.250000 0.250000 0.429246
O O11 0.168352 0.322373 0.292993
O O12 0.500000 0.500000 0.494484
#
# Coordination Sequence:
#
# PCOD8187399 Si02
#       6
#    16   8  16  16  16  16
#     4  12  27  46  75 104 148 197 243 315 372 448
#     4  12  22  50  70 104 146 184 258 304 366 462
#     4  11  23  43  69  98 142 179 233 295 361 429
#     4  10  22  42  67  99 131 173 233 288 347 423
#     4  12  28  48  71 110 152 194 251 302 385 458
#     4  11  24  45  71 105 133 186 244 300 365 434
#
# _framework density 21.246839000000001
#
# number of rings (size 3 to 8) (size 9 to 14) (size 15 to 20)
#    0.000    0.727    5.455    2.727    5.091    1.455 
#    0.000    0.000    0.000    0.000    0.000    0.000 
#    0.000    0.000    0.000    0.000    0.000    0.000 
#
# Total GULP energy -272857.300844 kJ/mol
# GULP energy per Si atom -12402.604584 kJ/mol
# Density = 2.119848 g / cm^3
# Si number density = 21.246839 Si / 1000 Ang^3
#
#
#
# Elastic Constant Matrix: (Units=GPa)
#
#
# Indices 1 2 3 4 5 6 
#
# 1 70.8940 25.3842 19.1756 0.0000 0.0000 0.0000
# 2 25.3842 88.9495 33.7677 0.0000 0.0000 0.0000
# 3 19.1756 33.7677 106.3818 0.0000 0.0000 0.0000
# 4 0.0000 0.0000 0.0000 38.6350 0.0000 0.0000
# 5 0.0000 0.0000 0.0000 0.0000 10.5490 0.0000
# 6 0.0000 0.0000 0.0000 0.0000 0.0000 22.4510
#
#
#
# Elastic Compliance Matrix: (Units=1/GPa)
#
#
# Indices 1 2 3 4 5 6 
#
# 1 0.015955 -0.003936 -0.001627 0.000000 0.000000 0.000000
# 2 -0.003936 0.013753 -0.003656 0.000000 0.000000 0.000000
# 3 -0.001627 -0.003656 0.010854 0.000000 0.000000 0.000000
# 4 0.000000 0.000000 0.000000 0.025883 0.000000 0.000000
# 5 0.000000 0.000000 0.000000 0.000000 0.094796 0.000000
# 6 0.000000 0.000000 0.000000 0.000000 0.000000 0.044541
#
#
# Mechanical properties :
#
#
# Convention : Reuss Voigt Hill
#
# Bulk Modulus (GPa) = 45.19749 46.98671 46.09210
# Shear Modulus (GPa) = 21.58945 26.85352 24.22149
#
# Velocity S-wave (km/s) = 3.19113 3.55897 3.38006
# Velocity P-wave (km/s) = 5.90733 6.24908 6.08061
#
# Compressibility (1/GPa) = 0.02212512
#
# Stress axis : x y z
#
# Youngs Moduli (GPa) = 62.67743 72.70892 92.13302
#
# Poissons Ratio (x) = 0.28615 0.14987
# Poissons Ratio (y) = 0.24667 0.33686
# Poissons Ratio (z) = 0.10195 0.26584
#
# Static dielectric constant tensor:
#      x y z
#    x 3.861810 0.000000 0.000000 
#    y 0.000000 3.891030 0.000000 
#    z 0.000000 0.000000 3.891470 
# 
# 
# High freq. dielectric constant tensor:
#      x y z
#    x 1.830370 0.000000 0.000000 
#    y 0.000000 1.838560 0.000000 
#    z 0.000000 0.000000 1.845420 
# 
# From -- ./inp_files/6141.got.cif
#   From: 2010.06.25/outbox.cif.g09.slc.cpg/sg43_4_cif.got.tgz:6141.got - 2010.06.26 16:48:59.
