data_PCOD8187480
_publ_section_title
;
Structure prediction by ZEFSAII (Michael W. Deem and Ramdas Pophale) SiO2 
 PCOD8187480
Probable space group: F D D 2
;
_chemical_formula_sum "Si O2"
_cell_formula_units_Z 112
_cell_length_a 27.513301
_cell_length_b 16.870166
_cell_length_c 10.466002
_cell_angle_alpha 90.000000
_cell_angle_beta 90.000000
_cell_angle_gamma 90.000000
_cell_volume 4857.836222
_symmetry_space_group_name_H-M "F D D 2"
_symmetry_group_IT_number 43
_symmetry_cell_setting 'orthorhombic'
loop_
_space_group_symop_operation_xyz
x,y,z
-x,-y,z
1/4-x,1/4+y,1/4+z
1/4+x,1/4-y,1/4+z
x,1/2+y,1/2+z
-x,1/2-y,1/2+z
1/4-x,3/4+y,3/4+z
1/4+x,3/4-y,3/4+z
1/2+x,y,1/2+z
1/2-x,-y,1/2+z
3/4-x,1/4+y,3/4+z
3/4+x,1/4-y,3/4+z
1/2+x,1/2+y,z
1/2-x,1/2-y,z
3/4-x,3/4+y,1/4+z
3/4+x,3/4-y,1/4+z
loop_
_atom_site_type_symbol
_atom_site_label
_atom_site_fract_x
_atom_site_fract_y
_atom_site_fract_z
Si Si1 0.994936 0.914728 0.439260
Si Si2 0.440827 0.867076 0.154887
Si Si3 0.724788 0.053471 0.856641
Si Si4 0.929812 0.813076 0.265038
Si Si5 0.663069 0.644845 0.553924
Si Si6 0.725738 0.830532 0.172359
Si Si7 0.602897 0.042628 0.634500
O O1 0.048235 0.878069 0.417678
O O2 0.979929 0.925687 0.587761
O O3 0.951166 0.864823 0.379531
O O4 0.000000 0.000000 0.371349
O O5 0.453016 0.783105 0.086424
O O6 0.386195 0.889632 0.114228
O O7 0.447045 0.874398 0.307675
O O8 0.736019 0.104363 0.728363
O O9 0.775590 0.038095 0.927284
O O10 0.681953 0.096751 0.932403
O O11 0.902418 0.734920 0.315333
O O12 0.890495 0.868738 0.191328
O O13 0.659002 0.734861 0.503578
O O14 0.750000 0.750000 0.118589
O O15 0.691024 0.798696 0.284376
#
# Coordination Sequence:
#
# PCOD8187480 Si02
#       7
#    16  16  16  16  16  16  16
#     4  11  23  42  67 101 141 184 235 295 368 427
#     4  12  28  44  71 110 146 188 238 312 377 432
#     4  10  26  47  71 101 144 193 247 290 368 446
#     4  10  23  41  73 103 135 187 246 297 351 433
#     4  11  24  42  72  97 139 185 248 290 350 441
#     4  11  25  49  74 106 145 193 239 307 368 434
#     4  11  22  43  72 105 134 191 252 291 354 441
#
# _framework density 23.055531999999999
#
# number of rings (size 3 to 8) (size 9 to 14) (size 15 to 20)
#    0.000    1.143    4.286    0.429    8.000    2.286 
#    2.571    0.000    0.000    0.000    0.000    0.000 
#    0.000    0.000    0.000    0.000    0.000    0.000 
#
# Total GULP energy -346905.422158 kJ/mol
# GULP energy per Si atom -12389.479363 kJ/mol
# Density = 2.300306 g / cm^3
# Si number density = 23.055532 Si / 1000 Ang^3
#
#
#
# Elastic Constant Matrix: (Units=GPa)
#
#
# Indices 1 2 3 4 5 6 
#
# 1 128.7502 50.7176 65.2123 0.0000 0.0000 0.0000
# 2 50.7176 65.9754 14.3667 0.0000 0.0000 0.0000
# 3 65.2123 14.3667 109.6171 0.0000 0.0000 0.0000
# 4 0.0000 0.0000 0.0000 21.5715 0.0000 0.0000
# 5 0.0000 0.0000 0.0000 0.0000 28.5854 0.0000
# 6 0.0000 0.0000 0.0000 0.0000 0.0000 36.1692
#
#
#
# Elastic Compliance Matrix: (Units=1/GPa)
#
#
# Indices 1 2 3 4 5 6 
#
# 1 0.016075 -0.010577 -0.008177 0.000000 0.000000 0.000000
# 2 -0.010577 0.022562 0.003335 0.000000 0.000000 0.000000
# 3 -0.008177 0.003335 0.013550 0.000000 0.000000 0.000000
# 4 0.000000 0.000000 0.000000 0.046357 0.000000 0.000000
# 5 0.000000 0.000000 0.000000 0.000000 0.034983 0.000000
# 6 0.000000 0.000000 0.000000 0.000000 0.000000 0.027648
#
#
# Mechanical properties :
#
#
# Convention : Reuss Voigt Hill
#
# Bulk Modulus (GPa) = 46.83904 62.77066 54.80485
# Shear Modulus (GPa) = 25.10937 28.86830 26.98884
#
# Velocity S-wave (km/s) = 3.30371 3.54237 3.42512
# Velocity P-wave (km/s) = 5.90868 6.63447 6.28206
#
# Compressibility (1/GPa) = 0.02134971
#
# Stress axis : x y z
#
# Youngs Moduli (GPa) = 62.20799 44.32298 73.80013
#
# Poissons Ratio (x) = 0.46880 0.60346
# Poissons Ratio (y) = 0.65797 -0.24614
# Poissons Ratio (z) = 0.50868 -0.14783
#
# Static dielectric constant tensor:
#      x y z
#    x 4.234210 0.000000 0.000000 
#    y 0.000000 4.228470 0.000000 
#    z 0.000000 0.000000 4.067820 
# 
# 
# High freq. dielectric constant tensor:
#      x y z
#    x 1.918860 0.000000 0.000000 
#    y 0.000000 1.904070 0.000000 
#    z 0.000000 0.000000 1.907290 
# 
# From -- ./inp_files/8289.got.cif
#   From: 2010.06.25/outbox.cif.g09.slc.cpg/sg43_5_cif.got.tgz:8289.got - 2010.06.26 16:48:59.
