data_PCOD8187421
_publ_section_title
;
Structure prediction by ZEFSAII (Michael W. Deem and Ramdas Pophale) SiO2 
 PCOD8187421
Probable space group: F D D 2
;
_chemical_formula_sum "Si O2"
_cell_formula_units_Z 104
_cell_length_a 32.863103
_cell_length_b 7.293320
_cell_length_c 19.163655
_cell_angle_alpha 90.000000
_cell_angle_beta 90.000000
_cell_angle_gamma 90.000000
_cell_volume 4593.166416
_symmetry_space_group_name_H-M "F D D 2"
_symmetry_group_IT_number 43
_symmetry_cell_setting 'orthorhombic'
loop_
_space_group_symop_operation_xyz
x,y,z
-x,-y,z
1/4-x,1/4+y,1/4+z
1/4+x,1/4-y,1/4+z
x,1/2+y,1/2+z
-x,1/2-y,1/2+z
1/4-x,3/4+y,3/4+z
1/4+x,3/4-y,3/4+z
1/2+x,y,1/2+z
1/2-x,-y,1/2+z
3/4-x,1/4+y,3/4+z
3/4+x,1/4-y,3/4+z
1/2+x,1/2+y,z
1/2-x,1/2-y,z
3/4-x,3/4+y,1/4+z
3/4+x,3/4-y,1/4+z
loop_
_atom_site_type_symbol
_atom_site_label
_atom_site_fract_x
_atom_site_fract_y
_atom_site_fract_z
Si Si1 0.921672 0.717700 0.555020
Si Si2 0.453952 0.985685 0.168127
Si Si3 0.166400 0.791152 0.021345
Si Si4 0.500000 0.500000 0.343862
Si Si5 0.722419 0.097042 0.676624
Si Si6 0.831909 0.790038 0.060106
Si Si7 0.335441 0.595190 0.870123
O O1 0.874646 0.790922 0.557438
O O2 0.940571 0.750579 0.478585
O O3 0.927021 0.497288 0.563523
O O4 0.947447 0.826745 0.612212
O O5 0.427397 0.934160 0.237345
O O6 0.446631 0.184649 0.133463
O O7 0.500000 0.000000 0.193844
O O8 0.209515 0.706412 0.046732
O O9 0.166960 0.999546 0.041756
O O10 0.159124 0.778233 0.938740
O O11 0.503831 0.678813 0.391483
O O12 0.750000 0.250000 0.716272
O O13 0.702319 0.230992 0.618592
O O14 0.874771 0.733387 0.094159
#
# Coordination Sequence:
#
# PCOD8187421 Si02
#       7
#    16  16  16   8  16  16  16
#     4  11  25  41  65  98 135 179 223 281 345 404
#     4  11  26  42  65  98 137 175 227 282 339 413
#     4   9  20  44  69  99 129 177 227 280 338 406
#     4  10  24  44  72 100 138 170 230 286 336 418
#     4  11  24  41  69  99 135 179 225 278 343 406
#     4   9  20  45  67  94 131 178 226 280 331 416
#     4  10  22  43  68  90 132 176 225 279 340 399
#
# _framework density 22.642334000000002
#
# number of rings (size 3 to 8) (size 9 to 14) (size 15 to 20)
#    0.000    1.846    1.538    0.462    3.231    7.385 
#    0.000    0.000    0.000    0.000    0.000    0.000 
#    0.000    0.000    0.000    0.000    0.000    0.000 
#
# Total GULP energy -322188.155877 kJ/mol
# GULP energy per Si atom -12391.852149 kJ/mol
# Density = 2.259080 g / cm^3
# Si number density = 22.642334 Si / 1000 Ang^3
#
#
#
# Elastic Constant Matrix: (Units=GPa)
#
#
# Indices 1 2 3 4 5 6 
#
# 1 144.0693 30.5437 66.4450 0.0000 -0.0005 0.0000
# 2 30.5437 65.3289 27.7167 -0.0005 -0.0005 0.0004
# 3 66.4450 27.7167 117.9020 -0.0001 -0.0001 0.0002
# 4 0.0000 -0.0005 -0.0001 30.1142 -0.0004 0.0002
# 5 -0.0005 -0.0005 -0.0001 -0.0004 16.3782 0.0008
# 6 0.0000 0.0004 0.0002 0.0002 0.0008 29.2601
#
#
#
# Elastic Compliance Matrix: (Units=1/GPa)
#
#
# Indices 1 2 3 4 5 6 
#
# 1 0.009724 -0.002467 -0.004900 0.000000 0.000000 0.000000
# 2 -0.002467 0.017629 -0.002754 0.000000 0.000000 0.000000
# 3 -0.004900 -0.002754 0.011890 0.000000 0.000000 0.000000
# 4 0.000000 0.000000 0.000000 0.033207 0.000001 0.000000
# 5 0.000000 0.000000 0.000000 0.000001 0.061057 -0.000002
# 6 0.000000 0.000000 0.000000 0.000000 -0.000002 0.034176
#
#
# Mechanical properties :
#
#
# Convention : Reuss Voigt Hill
#
# Bulk Modulus (GPa) = 52.62842 64.07901 58.35371
# Shear Modulus (GPa) = 25.73873 28.65683 27.19778
#
# Velocity S-wave (km/s) = 3.37523 3.56143 3.46958
# Velocity P-wave (km/s) = 6.20350 6.72857 6.47136
#
# Compressibility (1/GPa) = 0.01900114
#
# Stress axis : x y z
#
# Youngs Moduli (GPa) = 102.83667 56.72442 84.10091
#
# Poissons Ratio (x) = 0.13997 0.41210
# Poissons Ratio (y) = 0.25375 0.23159
# Poissons Ratio (z) = 0.50391 0.15620
#
# Static dielectric constant tensor:
#      x y z
#    x 4.572580 0.000000 0.000000 
#    y 0.000000 3.725540 0.000000 
#    z 0.000000 0.000000 5.255120 
# 
# 
# High freq. dielectric constant tensor:
#      x y z
#    x 1.897500 0.000000 0.000000 
#    y 0.000000 1.878700 0.000000 
#    z 0.000000 0.000000 1.898120 
# 
# From -- ./inp_files/18984.got.cif
#   From: 2010.06.25/outbox.cif.g09.slc.cpg/sg43_10_cif.got.tgz:18984.got - 2010.06.26 16:48:59.
