data_PCOD8187307
_publ_section_title
;
Structure prediction by ZEFSAII (Michael W. Deem and Ramdas Pophale) SiO2 
 PCOD8187307
Probable space group: F D D 2
;
_chemical_formula_sum "Si O2"
_cell_formula_units_Z 112
_cell_length_a 28.592660
_cell_length_b 15.466936
_cell_length_c 10.844156
_cell_angle_alpha 90.000000
_cell_angle_beta 90.000000
_cell_angle_gamma 90.000000
_cell_volume 4795.728683
_symmetry_space_group_name_H-M "F D D 2"
_symmetry_group_IT_number 43
_symmetry_cell_setting 'orthorhombic'
loop_
_space_group_symop_operation_xyz
x,y,z
-x,-y,z
1/4-x,1/4+y,1/4+z
1/4+x,1/4-y,1/4+z
x,1/2+y,1/2+z
-x,1/2-y,1/2+z
1/4-x,3/4+y,3/4+z
1/4+x,3/4-y,3/4+z
1/2+x,y,1/2+z
1/2-x,-y,1/2+z
3/4-x,1/4+y,3/4+z
3/4+x,1/4-y,3/4+z
1/2+x,1/2+y,z
1/2-x,1/2-y,z
3/4-x,3/4+y,1/4+z
3/4+x,3/4-y,1/4+z
loop_
_atom_site_type_symbol
_atom_site_label
_atom_site_fract_x
_atom_site_fract_y
_atom_site_fract_z
Si Si1 0.598673 0.897318 0.123800
Si Si2 0.904387 0.982257 0.030800
Si Si3 0.527068 0.085301 0.721290
Si Si4 0.825344 0.561865 0.668324
Si Si5 0.600016 0.096886 0.146503
Si Si6 0.280856 0.391010 0.244721
Si Si7 0.250226 0.352118 0.987390
O O1 0.641003 0.842053 0.183678
O O2 0.546466 0.864735 0.161667
O O3 0.604485 0.995142 0.167662
O O4 0.608729 0.890798 0.977309
O O5 0.924065 0.940204 0.156516
O O6 0.857249 0.032880 0.056173
O O7 0.940247 0.051868 0.974103
O O8 0.533265 0.138450 0.848318
O O9 0.497723 0.139815 0.621301
O O10 0.500000 0.000000 0.762801
O O11 0.856366 0.625640 0.754076
O O12 0.810517 0.478538 0.748006
O O13 0.547550 0.133075 0.173375
O O14 0.248266 0.393425 0.123892
O O15 0.250000 0.250000 0.992874
#
# Coordination Sequence:
#
# PCOD8187307 Si02
#       7
#    16  16  16  16  16  16  16
#     4  11  24  46  76 102 141 197 238 303 380 434
#     4  11  23  45  74 102 139 185 244 292 366 453
#     4  10  25  47  70  99 140 197 236 297 376 438
#     4  12  27  43  71 102 149 183 240 301 368 439
#     4  11  28  46  67 108 147 191 244 308 369 451
#     4  11  23  44  75 105 139 184 245 307 365 445
#     4  10  21  45  72 102 140 184 244 307 360 436
#
# _framework density 23.354115
#
# number of rings (size 3 to 8) (size 9 to 14) (size 15 to 20)
#    0.000    1.143    1.429    4.714    8.000    1.714 
#    5.143    0.000    0.000    0.000    0.000    0.000 
#    0.000    0.000    0.000    0.000    0.000    0.000 
#
# Total GULP energy -347184.974682 kJ/mol
# GULP energy per Si atom -12399.463382 kJ/mol
# Density = 2.330096 g / cm^3
# Si number density = 23.354115 Si / 1000 Ang^3
#
#
#
# Elastic Constant Matrix: (Units=GPa)
#
#
# Indices 1 2 3 4 5 6 
#
# 1 83.6686 37.5848 38.9398 0.0000 0.0000 0.0000
# 2 37.5848 88.2423 43.1627 0.0000 0.0000 0.0000
# 3 38.9398 43.1627 119.6225 0.0000 0.0000 0.0000
# 4 0.0000 0.0000 0.0000 33.3725 0.0000 0.0000
# 5 0.0000 0.0000 0.0000 0.0000 30.8957 0.0000
# 6 0.0000 0.0000 0.0000 0.0000 0.0000 18.0267
#
#
#
# Elastic Compliance Matrix: (Units=1/GPa)
#
#
# Indices 1 2 3 4 5 6 
#
# 1 0.015780 -0.005111 -0.003293 0.000000 0.000000 0.000000
# 2 -0.005111 0.015416 -0.003899 0.000000 0.000000 0.000000
# 3 -0.003293 -0.003899 0.010838 0.000000 0.000000 0.000000
# 4 0.000000 0.000000 0.000000 0.029965 0.000000 0.000000
# 5 0.000000 0.000000 0.000000 0.000000 0.032367 0.000000
# 6 0.000000 0.000000 0.000000 0.000000 0.000000 0.055473
#
#
# Mechanical properties :
#
#
# Convention : Reuss Voigt Hill
#
# Bulk Modulus (GPa) = 57.37185 58.98979 58.18082
# Shear Modulus (GPa) = 26.28057 27.91537 27.09797
#
# Velocity S-wave (km/s) = 3.35820 3.46107 3.41003
# Velocity P-wave (km/s) = 6.29731 6.42540 6.36167
#
# Compressibility (1/GPa) = 0.01743015
#
# Stress axis : x y z
#
# Youngs Moduli (GPa) = 63.37095 64.86637 92.26504
#
# Poissons Ratio (x) = 0.33150 0.30381
# Poissons Ratio (y) = 0.32386 0.35974
# Poissons Ratio (z) = 0.20867 0.25291
#
# Static dielectric constant tensor:
#      x y z
#    x 4.312430 0.000000 0.000000 
#    y 0.000000 4.140360 0.000000 
#    z 0.000000 0.000000 4.010280 
# 
# 
# High freq. dielectric constant tensor:
#      x y z
#    x 1.918410 0.000000 0.000000 
#    y 0.000000 1.925640 0.000000 
#    z 0.000000 0.000000 1.922010 
# 
# From -- ./inp_files/8294.got.cif
#   From: 2010.06.25/outbox.cif.g09.slc.cpg/sg43_5_cif.got.tgz:8294.got - 2010.06.26 16:48:59.
