data_PCOD8187806
_publ_section_title
;
Structure prediction by ZEFSAII (Michael W. Deem and Ramdas Pophale) SiO2 
 PCOD8187806
Probable space group: F D D 2
;
_chemical_formula_sum "Si O2"
_cell_formula_units_Z 72
_cell_length_a 21.851953
_cell_length_b 7.695060
_cell_length_c 19.734052
_cell_angle_alpha 90.000000
_cell_angle_beta 90.000000
_cell_angle_gamma 90.000000
_cell_volume 3318.322077
_symmetry_space_group_name_H-M "F D D 2"
_symmetry_group_IT_number 43
_symmetry_cell_setting 'orthorhombic'
loop_
_space_group_symop_operation_xyz
x,y,z
-x,-y,z
1/4-x,1/4+y,1/4+z
1/4+x,1/4-y,1/4+z
x,1/2+y,1/2+z
-x,1/2-y,1/2+z
1/4-x,3/4+y,3/4+z
1/4+x,3/4-y,3/4+z
1/2+x,y,1/2+z
1/2-x,-y,1/2+z
3/4-x,1/4+y,3/4+z
3/4+x,1/4-y,3/4+z
1/2+x,1/2+y,z
1/2-x,1/2-y,z
3/4-x,3/4+y,1/4+z
3/4+x,3/4-y,1/4+z
loop_
_atom_site_type_symbol
_atom_site_label
_atom_site_fract_x
_atom_site_fract_y
_atom_site_fract_z
Si Si1 0.638768 0.547474 0.333490
Si Si2 0.463324 0.170183 0.800899
Si Si3 0.750000 0.250000 0.626754
Si Si4 0.500228 0.704447 0.660336
Si Si5 0.627451 0.122139 0.677844
O O1 0.602385 0.362266 0.337671
O O2 0.710563 0.502881 0.343036
O O3 0.620600 0.606286 0.258080
O O4 0.615734 0.691260 0.387305
O O5 0.498353 0.333791 0.829501
O O6 0.461747 0.197285 0.719645
O O7 0.500000 0.000000 0.820641
O O8 0.688252 0.238660 0.670300
O O9 0.500000 0.500000 0.673818
O O10 0.431938 0.775777 0.650125
#
# Coordination Sequence:
#
# PCOD8187806 Si02
#       5
#    16  16   8  16  16
#     4  12  25  48  76 108 148 201 255 317 385 464
#     4  12  22  47  73 101 147 194 244 307 382 444
#     4  12  26  44  74 108 142 192 252 308 376 462
#     4  12  25  48  75 107 154 204 251 316 393 466
#     4  12  26  46  75 109 152 198 254 321 386 460
#
# _framework density 21.697711999999999
#
# number of rings (size 3 to 8) (size 9 to 14) (size 15 to 20)
#    0.000    0.000    7.778    2.000    3.111    0.000 
#    4.000    0.000    0.000    0.000    0.000    0.000 
#    0.000    0.000    0.000    0.000    0.000    0.000 
#
# Total GULP energy -223119.107375 kJ/mol
# GULP energy per Si atom -12395.505965 kJ/mol
# Density = 2.164833 g / cm^3
# Si number density = 21.697712 Si / 1000 Ang^3
#
#
#
# Elastic Constant Matrix: (Units=GPa)
#
#
# Indices 1 2 3 4 5 6 
#
# 1 171.3129 45.0893 31.3916 0.0000 0.0000 0.0000
# 2 45.0893 126.2224 26.8092 0.0000 0.0000 0.0000
# 3 31.3916 26.8092 76.1351 0.0000 0.0000 0.0000
# 4 0.0000 0.0000 0.0000 27.2319 0.0000 0.0000
# 5 0.0000 0.0000 0.0000 0.0000 37.6264 0.0000
# 6 0.0000 0.0000 0.0000 0.0000 0.0000 41.9531
#
#
#
# Elastic Compliance Matrix: (Units=1/GPa)
#
#
# Indices 1 2 3 4 5 6 
#
# 1 0.006736 -0.001963 -0.002086 0.000000 0.000000 0.000000
# 2 -0.001963 0.009135 -0.002407 0.000000 0.000000 0.000000
# 3 -0.002086 -0.002407 0.014842 0.000000 0.000000 0.000000
# 4 0.000000 0.000000 0.000000 0.036722 0.000000 0.000000
# 5 0.000000 0.000000 0.000000 0.000000 0.026577 0.000000
# 6 0.000000 0.000000 0.000000 0.000000 0.000000 0.023836
#
#
# Mechanical properties :
#
#
# Convention : Reuss Voigt Hill
#
# Bulk Modulus (GPa) = 56.17829 64.47228 60.32528
# Shear Modulus (GPa) = 36.57768 39.38764 37.98266
#
# Velocity S-wave (km/s) = 4.11029 4.26524 4.18848
# Velocity P-wave (km/s) = 6.96229 7.35083 7.15920
#
# Compressibility (1/GPa) = 0.01780047
#
# Stress axis : x y z
#
# Youngs Moduli (GPa) = 148.45030 109.46756 67.37475
#
# Poissons Ratio (x) = 0.21491 0.14055
# Poissons Ratio (y) = 0.29144 0.16219
# Poissons Ratio (z) = 0.30969 0.26352
#
# Static dielectric constant tensor:
#      x y z
#    x 4.350280 0.000000 0.000000 
#    y 0.000000 4.700970 0.000000 
#    z 0.000000 0.000000 3.792620 
# 
# 
# High freq. dielectric constant tensor:
#      x y z
#    x 1.871150 0.000000 0.000000 
#    y 0.000000 1.862060 0.000000 
#    z 0.000000 0.000000 1.837210 
# 
# From -- ./inp_files/12550.got.cif
#   From: 2010.06.25/outbox.cif.g09.slc.cpg/sg43_7_cif.got.tgz:12550.got - 2010.06.26 16:48:59.
