data_PCOD8187605
_publ_section_title
;
Structure prediction by ZEFSAII (Michael W. Deem and Ramdas Pophale) SiO2 
 PCOD8187605
Probable space group: F D D 2
;
_chemical_formula_sum "Si O2"
_cell_formula_units_Z 72
_cell_length_a 22.125738
_cell_length_b 7.560513
_cell_length_c 18.142742
_cell_angle_alpha 90.000000
_cell_angle_beta 90.000000
_cell_angle_gamma 90.000000
_cell_volume 3034.952893
_symmetry_space_group_name_H-M "F D D 2"
_symmetry_group_IT_number 43
_symmetry_cell_setting 'orthorhombic'
loop_
_space_group_symop_operation_xyz
x,y,z
-x,-y,z
1/4-x,1/4+y,1/4+z
1/4+x,1/4-y,1/4+z
x,1/2+y,1/2+z
-x,1/2-y,1/2+z
1/4-x,3/4+y,3/4+z
1/4+x,3/4-y,3/4+z
1/2+x,y,1/2+z
1/2-x,-y,1/2+z
3/4-x,1/4+y,3/4+z
3/4+x,1/4-y,3/4+z
1/2+x,1/2+y,z
1/2-x,1/2-y,z
3/4-x,3/4+y,1/4+z
3/4+x,3/4-y,1/4+z
loop_
_atom_site_type_symbol
_atom_site_label
_atom_site_fract_x
_atom_site_fract_y
_atom_site_fract_z
Si Si1 0.784810 0.409346 0.333450
Si Si2 0.750000 0.750000 0.258437
Si Si3 0.679961 0.741358 0.558576
Si Si4 0.617542 0.795754 0.211961
Si Si5 0.627419 0.690157 0.717656
O O1 0.750000 0.250000 0.376859
O O2 0.743027 0.574464 0.309062
O O3 0.838206 0.495603 0.382537
O O4 0.810191 0.302285 0.262853
O O5 0.690235 0.766951 0.207540
O O6 0.750000 0.750000 0.579715
O O7 0.661179 0.927658 0.525063
O O8 0.639991 0.713056 0.631215
O O9 0.668711 0.587548 0.498113
O O10 0.600291 0.996260 0.232223
#
# Coordination Sequence:
#
# PCOD8187605 Si02
#       5
#    16   8  16  16  16
#     4  11  24  47  79 107 151 202 246 313 384 448
#     4  10  26  48  72 110 156 194 250 314 376 452
#     4  12  29  47  78 113 153 199 257 311 377 458
#     4  11  27  47  77 112 148 203 250 311 377 448
#     4  11  26  52  69 112 156 197 251 312 389 442
#
# _framework density 23.723597999999999
#
# number of rings (size 3 to 8) (size 9 to 14) (size 15 to 20)
#    0.000    0.889    2.222    2.000   10.889    1.778 
#    0.000    0.000    0.000    0.000    0.000    0.000 
#    0.000    0.000    0.000    0.000    0.000    0.000 
#
# Total GULP energy -223168.244344 kJ/mol
# GULP energy per Si atom -12398.235797 kJ/mol
# Density = 2.366960 g / cm^3
# Si number density = 23.723598 Si / 1000 Ang^3
#
#
#
# Elastic Constant Matrix: (Units=GPa)
#
#
# Indices 1 2 3 4 5 6 
#
# 1 94.7627 48.7173 40.1251 0.0000 0.0000 0.0000
# 2 48.7173 189.2676 63.8532 0.0000 0.0000 0.0000
# 3 40.1251 63.8532 126.2321 0.0000 0.0000 0.0000
# 4 0.0000 0.0000 0.0000 35.0830 0.0000 0.0000
# 5 0.0000 0.0000 0.0000 0.0000 15.1538 0.0000
# 6 0.0000 0.0000 0.0000 0.0000 0.0000 37.5160
#
#
#
# Elastic Compliance Matrix: (Units=1/GPa)
#
#
# Indices 1 2 3 4 5 6 
#
# 1 0.013010 -0.002356 -0.002944 0.000000 0.000000 0.000000
# 2 -0.002356 0.006797 -0.002690 0.000000 0.000000 0.000000
# 3 -0.002944 -0.002690 0.010218 0.000000 0.000000 0.000000
# 4 0.000000 0.000000 0.000000 0.028504 0.000000 0.000000
# 5 0.000000 0.000000 0.000000 0.000000 0.065990 0.000000
# 6 0.000000 0.000000 0.000000 0.000000 0.000000 0.026655
#
#
# Mechanical properties :
#
#
# Convention : Reuss Voigt Hill
#
# Bulk Modulus (GPa) = 71.18752 79.51708 75.35230
# Shear Modulus (GPa) = 29.09755 34.72167 31.90961
#
# Velocity S-wave (km/s) = 3.50598 3.82984 3.67148
# Velocity P-wave (km/s) = 6.81626 7.29026 7.05724
#
# Compressibility (1/GPa) = 0.01404741
#
# Stress axis : x y z
#
# Youngs Moduli (GPa) = 76.86251 147.11882 97.86476
#
# Poissons Ratio (x) = 0.34655 0.28811
# Poissons Ratio (y) = 0.18106 0.26321
# Poissons Ratio (z) = 0.22628 0.39568
#
# Static dielectric constant tensor:
#      x y z
#    x 4.313690 0.000000 0.000000 
#    y 0.000000 4.546160 0.000000 
#    z 0.000000 0.000000 4.286200 
# 
# 
# High freq. dielectric constant tensor:
#      x y z
#    x 1.938040 0.000000 0.000000 
#    y 0.000000 1.962180 0.000000 
#    z 0.000000 0.000000 1.933430 
# 
# From -- ./inp_files/14478.got.cif
#   From: 2010.06.25/outbox.cif.g09.slc.cpg/sg43_8_cif.got.tgz:14478.got - 2010.06.26 16:48:59.
