data_PCOD8187625
_publ_section_title
;
Structure prediction by ZEFSAII (Michael W. Deem and Ramdas Pophale) SiO2 
 PCOD8187625
Probable space group: F D D 2
;
_chemical_formula_sum "Si O2"
_cell_formula_units_Z 96
_cell_length_a 9.332585
_cell_length_b 27.911354
_cell_length_c 18.710677
_cell_angle_alpha 90.000000
_cell_angle_beta 90.000000
_cell_angle_gamma 90.000000
_cell_volume 4873.852264
_symmetry_space_group_name_H-M "F D D 2"
_symmetry_group_IT_number 43
_symmetry_cell_setting 'orthorhombic'
loop_
_space_group_symop_operation_xyz
x,y,z
-x,-y,z
1/4-x,1/4+y,1/4+z
1/4+x,1/4-y,1/4+z
x,1/2+y,1/2+z
-x,1/2-y,1/2+z
1/4-x,3/4+y,3/4+z
1/4+x,3/4-y,3/4+z
1/2+x,y,1/2+z
1/2-x,-y,1/2+z
3/4-x,1/4+y,3/4+z
3/4+x,1/4-y,3/4+z
1/2+x,1/2+y,z
1/2-x,1/2-y,z
3/4-x,3/4+y,1/4+z
3/4+x,3/4-y,1/4+z
loop_
_atom_site_type_symbol
_atom_site_label
_atom_site_fract_x
_atom_site_fract_y
_atom_site_fract_z
Si Si1 0.347764 0.021076 0.183360
Si Si2 0.610614 0.773189 0.173731
Si Si3 0.221115 0.876989 0.679854
Si Si4 0.514140 0.373269 0.092226
Si Si5 0.151229 0.021889 0.321894
Si Si6 0.388753 0.773906 0.831330
O O1 0.354819 0.074914 0.149711
O O2 0.246653 0.020564 0.251648
O O3 0.500000 0.000000 0.205305
O O4 0.284122 0.987094 0.122303
O O5 0.750000 0.750000 0.135828
O O6 0.630485 0.829867 0.163579
O O7 0.466238 0.761760 0.132729
O O8 0.600647 0.749664 0.252571
O O9 0.385926 0.875547 0.651095
O O10 0.199876 0.882054 0.764208
O O11 0.609146 0.325518 0.105526
O O12 0.617972 0.419123 0.087894
O O13 0.000000 0.000000 0.300792
O O14 0.250000 0.750000 0.869213
#
# Coordination Sequence:
#
# PCOD8187625 Si02
#       6
#    16  16  16  16  16  16
#     4  11  25  40  61  93 127 163 207 264 316 373
#     4  11  20  40  65  91 118 165 211 256 307 377
#     4  11  21  37  66  92 122 167 208 255 320 382
#     4  11  21  37  66  92 122 167 208 255 320 382
#     4  11  25  40  61  93 127 163 207 264 316 373
#     4  11  20  40  65  91 118 165 211 256 307 377
#
# _framework density 19.696943999999998
#
# number of rings (size 3 to 8) (size 9 to 14) (size 15 to 20)
#    0.000    1.000    6.667    1.000    4.667    2.000 
#    0.000    0.000    0.000    0.000    0.000    0.000 
#    0.000    0.000    0.000    0.000    0.000    0.000 
#
# Total GULP energy -297349.290082 kJ/mol
# GULP energy per Si atom -12389.553753 kJ/mol
# Density = 1.965211 g / cm^3
# Si number density = 19.696944 Si / 1000 Ang^3
#
#
#
# Elastic Constant Matrix: (Units=GPa)
#
#
# Indices 1 2 3 4 5 6 
#
# 1 110.9964 73.2394 38.3214 0.0000 0.0000 0.0000
# 2 73.2394 203.4005 32.9918 0.0000 0.0000 0.0000
# 3 38.3214 32.9918 65.8429 0.0000 0.0000 0.0000
# 4 0.0000 0.0000 0.0000 22.4601 0.0000 0.0000
# 5 0.0000 0.0000 0.0000 0.0000 31.9112 0.0000
# 6 0.0000 0.0000 0.0000 0.0000 0.0000 26.1992
#
#
#
# Elastic Compliance Matrix: (Units=1/GPa)
#
#
# Indices 1 2 3 4 5 6 
#
# 1 0.013686 -0.003958 -0.005982 0.000000 0.000000 0.000000
# 2 -0.003958 0.006496 -0.000951 0.000000 0.000000 0.000000
# 3 -0.005982 -0.000951 0.019146 0.000000 0.000000 0.000000
# 4 0.000000 0.000000 0.000000 0.044523 0.000000 0.000000
# 5 0.000000 0.000000 0.000000 0.000000 0.031337 0.000000
# 6 0.000000 0.000000 0.000000 0.000000 0.000000 0.038169
#
#
# Mechanical properties :
#
#
# Convention : Reuss Voigt Hill
#
# Bulk Modulus (GPa) = 56.99594 74.37169 65.68381
# Shear Modulus (GPa) = 27.62596 31.82657 29.72626
#
# Velocity S-wave (km/s) = 3.74913 4.02408 3.88903
# Velocity P-wave (km/s) = 6.90945 7.70914 7.32023
#
# Compressibility (1/GPa) = 0.01754511
#
# Stress axis : x y z
#
# Youngs Moduli (GPa) = 73.06657 153.94586 52.22955
#
# Poissons Ratio (x) = 0.60927 0.31246
# Poissons Ratio (y) = 0.28917 0.04969
# Poissons Ratio (z) = 0.43712 0.14647
#
# Static dielectric constant tensor:
#      x y z
#    x 3.533830 0.000000 0.000000 
#    y 0.000000 4.385840 0.000000 
#    z 0.000000 0.000000 3.569630 
# 
# 
# High freq. dielectric constant tensor:
#      x y z
#    x 1.738610 0.000000 0.000000 
#    y 0.000000 1.795250 0.000000 
#    z 0.000000 0.000000 1.761470 
# 
# From -- ./inp_files/3281.got.cif
#   From: 2010.06.25/outbox.cif.g09.slc.cpg/sg43_2_cif.got.tgz:3281.got - 2010.06.26 16:48:59.
