data_PCOD8187137
_publ_section_title
;
Structure prediction by ZEFSAII (Michael W. Deem and Ramdas Pophale) SiO2 
 PCOD8187137
Probable space group: F D D 2
;
_chemical_formula_sum "Si O2"
_cell_formula_units_Z 88
_cell_length_a 25.146003
_cell_length_b 15.096282
_cell_length_c 9.267580
_cell_angle_alpha 90.000000
_cell_angle_beta 90.000000
_cell_angle_gamma 90.000000
_cell_volume 3518.076724
_symmetry_space_group_name_H-M "F D D 2"
_symmetry_group_IT_number 43
_symmetry_cell_setting 'orthorhombic'
loop_
_space_group_symop_operation_xyz
x,y,z
-x,-y,z
1/4-x,1/4+y,1/4+z
1/4+x,1/4-y,1/4+z
x,1/2+y,1/2+z
-x,1/2-y,1/2+z
1/4-x,3/4+y,3/4+z
1/4+x,3/4-y,3/4+z
1/2+x,y,1/2+z
1/2-x,-y,1/2+z
3/4-x,1/4+y,3/4+z
3/4+x,1/4-y,3/4+z
1/2+x,1/2+y,z
1/2-x,1/2-y,z
3/4-x,3/4+y,1/4+z
3/4+x,3/4-y,1/4+z
loop_
_atom_site_type_symbol
_atom_site_label
_atom_site_fract_x
_atom_site_fract_y
_atom_site_fract_z
Si Si1 0.899724 0.045853 0.383700
Si Si2 0.250000 0.250000 0.809451
Si Si3 0.554973 0.381705 0.761161
Si Si4 0.106596 0.562043 0.347528
Si Si5 0.023332 0.184568 0.968749
Si Si6 0.196153 0.059237 0.461424
O O1 0.868594 0.122943 0.466854
O O2 0.928709 0.088633 0.243433
O O3 0.945826 0.993078 0.469454
O O4 0.851365 0.977744 0.358830
O O5 0.245530 0.162370 0.911669
O O6 0.593377 0.466380 0.783526
O O7 0.588040 0.303249 0.684707
O O8 0.533956 0.345832 0.909999
O O9 0.062269 0.600140 0.457660
O O10 0.047302 0.265195 0.872925
O O11 0.004068 0.203942 0.133816
#
# Coordination Sequence:
#
# PCOD8187137 Si02
#       6
#    16   8  16  16  16  16
#     4  10  23  44  70 102 139 186 237 287 351 425
#     4  10  20  40  72  96 136 188 224 284 346 424
#     4  11  22  39  68  98 132 183 228 286 343 417
#     4  10  21  40  68  98 132 176 233 280 351 415
#     4  11  25  43  68  98 142 176 239 287 356 418
#     4  11  27  45  70 105 138 189 238 293 350 426
#
# _framework density 25.013666000000001
#
# number of rings (size 3 to 8) (size 9 to 14) (size 15 to 20)
#    0.000    1.455    1.818    3.273   10.182    1.455 
#    6.545    0.000    0.000    0.000    0.000    0.000 
#    0.000    0.000    0.000    0.000    0.000    0.000 
#
# Total GULP energy -272557.997954 kJ/mol
# GULP energy per Si atom -12388.999907 kJ/mol
# Density = 2.495673 g / cm^3
# Si number density = 25.013666 Si / 1000 Ang^3
#
#
#
# Elastic Constant Matrix: (Units=GPa)
#
#
# Indices 1 2 3 4 5 6 
#
# 1 110.7547 37.2744 27.5918 0.0000 0.0000 0.0000
# 2 37.2744 56.8979 12.9685 0.0000 0.0000 0.0000
# 3 27.5918 12.9685 59.4752 0.0000 0.0000 0.0000
# 4 0.0000 0.0000 0.0000 10.9239 0.0000 0.0000
# 5 0.0000 0.0000 0.0000 0.0000 41.2568 0.0000
# 6 0.0000 0.0000 0.0000 0.0000 0.0000 43.3248
#
#
#
# Elastic Compliance Matrix: (Units=1/GPa)
#
#
# Indices 1 2 3 4 5 6 
#
# 1 0.012518 -0.007237 -0.004229 0.000000 0.000000 0.000000
# 2 -0.007237 0.022678 -0.001588 0.000000 0.000000 0.000000
# 3 -0.004229 -0.001588 0.019122 0.000000 0.000000 0.000000
# 4 0.000000 0.000000 0.000000 0.091543 0.000000 0.000000
# 5 0.000000 0.000000 0.000000 0.000000 0.024238 0.000000
# 6 0.000000 0.000000 0.000000 0.000000 0.000000 0.023081
#
#
# Mechanical properties :
#
#
# Convention : Reuss Voigt Hill
#
# Bulk Modulus (GPa) = 35.44774 42.53302 38.99038
# Shear Modulus (GPa) = 21.86346 29.05396 25.45871
#
# Velocity S-wave (km/s) = 2.95966 3.41181 3.19375
# Velocity P-wave (km/s) = 5.08739 5.70626 5.40569
#
# Compressibility (1/GPa) = 0.02821055
#
# Stress axis : x y z
#
# Youngs Moduli (GPa) = 79.88397 44.09543 52.29562
#
# Poissons Ratio (x) = 0.31911 0.22118
# Poissons Ratio (y) = 0.57810 0.08303
# Poissons Ratio (z) = 0.33787 0.07001
#
# Static dielectric constant tensor:
#      x y z
#    x 4.757740 0.000000 0.000000 
#    y 0.000000 4.344450 0.000000 
#    z 0.000000 0.000000 4.219560 
# 
# 
# High freq. dielectric constant tensor:
#      x y z
#    x 2.025460 0.000000 0.000000 
#    y 0.000000 1.973670 0.000000 
#    z 0.000000 0.000000 1.967590 
# 
# From -- ./inp_files/7483.got.cif
#   From: 2010.06.25/outbox.cif.g09.slc.cpg/sg43_4_cif.got.tgz:7483.got - 2010.06.26 16:48:59.
