data_PCOD8187799
_publ_section_title
;
Structure prediction by ZEFSAII (Michael W. Deem and Ramdas Pophale) SiO2 
 PCOD8187799
Probable space group: F D D 2
;
_chemical_formula_sum "Si O2"
_cell_formula_units_Z 80
_cell_length_a 21.415389
_cell_length_b 4.885487
_cell_length_c 33.494121
_cell_angle_alpha 90.000000
_cell_angle_beta 90.000000
_cell_angle_gamma 90.000000
_cell_volume 3504.309165
_symmetry_space_group_name_H-M "F D D 2"
_symmetry_group_IT_number 43
_symmetry_cell_setting 'orthorhombic'
loop_
_space_group_symop_operation_xyz
x,y,z
-x,-y,z
1/4-x,1/4+y,1/4+z
1/4+x,1/4-y,1/4+z
x,1/2+y,1/2+z
-x,1/2-y,1/2+z
1/4-x,3/4+y,3/4+z
1/4+x,3/4-y,3/4+z
1/2+x,y,1/2+z
1/2-x,-y,1/2+z
3/4-x,1/4+y,3/4+z
3/4+x,1/4-y,3/4+z
1/2+x,1/2+y,z
1/2-x,1/2-y,z
3/4-x,3/4+y,1/4+z
3/4+x,3/4-y,1/4+z
loop_
_atom_site_type_symbol
_atom_site_label
_atom_site_fract_x
_atom_site_fract_y
_atom_site_fract_z
Si Si1 0.250000 0.750000 0.081661
Si Si2 0.890076 0.568929 0.776699
Si Si3 0.500000 0.500000 0.880927
Si Si4 0.880840 0.056969 0.642626
Si Si5 0.571568 0.938652 0.229360
Si Si6 0.677307 0.197807 0.846170
O O1 0.305595 0.890399 0.057772
O O2 0.280353 0.499272 0.105933
O O3 0.914129 0.361013 0.744104
O O4 0.832843 0.431292 0.801536
O O5 0.879940 0.848787 0.751249
O O6 0.442167 0.360505 0.904948
O O7 0.921613 0.087188 0.682028
O O8 0.898154 0.253619 0.605215
O O9 0.895153 0.750977 0.628333
O O10 0.500000 0.000000 0.240260
O O11 0.750000 0.250000 0.852806
#
# Coordination Sequence:
#
# PCOD8187799 Si02
#       6
#     8  16   8  16  16  16
#     4  12  20  40  70  98 126 161 232 293 320 406
#     4  12  23  40  68  96 127 173 222 281 335 406
#     4  12  22  42  70  98 128 169 230 281 336 404
#     4  12  25  43  69  99 135 177 224 284 344 413
#     4  12  24  40  64  98 135 170 219 278 346 408
#     4  12  25  44  69  97 134 178 228 280 342 414
#
# _framework density 22.829035999999999
#
# number of rings (size 3 to 8) (size 9 to 14) (size 15 to 20)
#    0.000    0.000    6.000    5.400    0.000    0.000 
#    1.800    0.000    0.000    0.000    0.000    0.000 
#    0.000    0.000    0.000    0.000    0.000    0.000 
#
# Total GULP energy -247806.786313 kJ/mol
# GULP energy per Si atom -12390.339316 kJ/mol
# Density = 2.277708 g / cm^3
# Si number density = 22.829036 Si / 1000 Ang^3
#
#
#
# Elastic Constant Matrix: (Units=GPa)
#
#
# Indices 1 2 3 4 5 6 
#
# 1 97.5482 19.0563 9.0716 -0.0018 0.0003 0.0011
# 2 19.0563 103.1240 17.3781 -0.0026 -0.0046 0.0020
# 3 9.0716 17.3781 78.1784 -0.0026 0.0007 0.0004
# 4 -0.0018 -0.0026 -0.0026 30.3639 0.0004 -0.0001
# 5 0.0003 -0.0046 0.0007 0.0004 12.5874 -0.0007
# 6 0.0011 0.0020 0.0004 -0.0001 -0.0007 31.6829
#
#
#
# Elastic Compliance Matrix: (Units=1/GPa)
#
#
# Indices 1 2 3 4 5 6 
#
# 1 0.010687 -0.001835 -0.000832 0.000000 -0.000001 0.000000
# 2 -0.001835 0.010389 -0.002097 0.000001 0.000004 -0.000001
# 3 -0.000832 -0.002097 0.013354 0.000001 -0.000001 0.000000
# 4 0.000000 0.000001 0.000001 0.032934 -0.000001 0.000000
# 5 -0.000001 0.000004 -0.000001 -0.000001 0.079445 0.000002
# 6 0.000000 -0.000001 0.000000 0.000000 0.000002 0.031563
#
#
# Mechanical properties :
#
#
# Convention : Reuss Voigt Hill
#
# Bulk Modulus (GPa) = 40.15505 41.09585 40.62545
# Shear Modulus (GPa) = 25.48423 30.48313 27.98368
#
# Velocity S-wave (km/s) = 3.34474 3.65811 3.50493
# Velocity P-wave (km/s) = 5.70474 5.99024 5.84923
#
# Compressibility (1/GPa) = 0.02490347
#
# Stress axis : x y z
#
# Youngs Moduli (GPa) = 93.57035 96.25206 74.88460
#
# Poissons Ratio (x) = 0.17659 0.06233
# Poissons Ratio (y) = 0.17167 0.15700
# Poissons Ratio (z) = 0.07788 0.20180
#
# Static dielectric constant tensor:
#      x y z
#    x 4.103520 0.000000 0.000000 
#    y 0.000000 4.273100 0.000000 
#    z 0.000000 0.000000 4.092990 
# 
# 
# High freq. dielectric constant tensor:
#      x y z
#    x 1.889100 0.000000 0.000000 
#    y 0.000000 1.927740 0.000000 
#    z 0.000000 0.000000 1.882410 
# 
# From -- ./inp_files/29778.got.cif
#   From: 2010.06.25/outbox.cif.g09.slc.cpg/sg43_15_cif.got.tgz:29778.got - 2010.06.26 16:48:59.
