data_PCOD8187705
_publ_section_title
;
Structure prediction by ZEFSAII (Michael W. Deem and Ramdas Pophale) SiO2 
 PCOD8187705
Probable space group: F D D 2
;
_chemical_formula_sum "Si O2"
_cell_formula_units_Z 96
_cell_length_a 10.400454
_cell_length_b 20.783946
_cell_length_c 19.496075
_cell_angle_alpha 90.000000
_cell_angle_beta 90.000000
_cell_angle_gamma 90.000000
_cell_volume 4214.319811
_symmetry_space_group_name_H-M "F D D 2"
_symmetry_group_IT_number 43
_symmetry_cell_setting 'orthorhombic'
loop_
_space_group_symop_operation_xyz
x,y,z
-x,-y,z
1/4-x,1/4+y,1/4+z
1/4+x,1/4-y,1/4+z
x,1/2+y,1/2+z
-x,1/2-y,1/2+z
1/4-x,3/4+y,3/4+z
1/4+x,3/4-y,3/4+z
1/2+x,y,1/2+z
1/2-x,-y,1/2+z
3/4-x,1/4+y,3/4+z
3/4+x,1/4-y,3/4+z
1/2+x,1/2+y,z
1/2-x,1/2-y,z
3/4-x,3/4+y,1/4+z
3/4+x,3/4-y,1/4+z
loop_
_atom_site_type_symbol
_atom_site_label
_atom_site_fract_x
_atom_site_fract_y
_atom_site_fract_z
Si Si1 0.501475 0.073861 0.457070
Si Si2 0.849345 0.498874 0.070585
Si Si3 0.257439 0.049069 0.711495
Si Si4 0.710438 0.092364 0.945737
Si Si5 0.552811 0.104186 0.315960
Si Si6 0.723034 0.931928 0.302272
O O1 0.361906 0.105711 0.443875
O O2 0.600751 0.089635 0.394245
O O3 0.546718 0.109579 0.524868
O O4 0.500000 0.000000 0.476397
O O5 0.785476 0.460339 0.133312
O O6 0.785320 0.568765 0.060989
O O7 0.000000 0.500000 0.086561
O O8 0.826395 0.461698 0.000023
O O9 0.385779 0.091791 0.711725
O O10 0.150349 0.084922 0.756679
O O11 0.283672 0.980448 0.746860
O O12 0.682910 0.066001 0.868516
O O13 0.428576 0.055569 0.315895
#
# Coordination Sequence:
#
# PCOD8187705 Si02
#       6
#    16  16  16  16  16  16
#     4  11  23  46  72 103 142 190 249 305 373 453
#     4  12  24  46  71 109 149 198 248 311 383 452
#     4  12  25  45  73 108 149 191 249 317 379 455
#     4  11  26  44  68 107 149 188 245 311 379 440
#     4  11  23  43  73 104 140 188 252 302 369 451
#     4  11  24  45  70 104 139 198 245 303 369 452
#
# _framework density 22.779478000000001
#
# number of rings (size 3 to 8) (size 9 to 14) (size 15 to 20)
#    0.000    0.667    3.333    5.500    0.000    2.000 
#    3.000    0.000    0.000    0.000    0.000    0.000 
#    0.000    0.000    0.000    0.000    0.000    0.000 
#
# Total GULP energy -297427.798564 kJ/mol
# GULP energy per Si atom -12392.824940 kJ/mol
# Density = 2.272763 g / cm^3
# Si number density = 22.779478 Si / 1000 Ang^3
#
#
#
# Elastic Constant Matrix: (Units=GPa)
#
#
# Indices 1 2 3 4 5 6 
#
# 1 74.3219 31.4032 21.5452 0.0000 0.0000 0.0000
# 2 31.4032 148.5031 74.1484 0.0000 0.0000 0.0000
# 3 21.5452 74.1484 168.0964 0.0000 0.0000 0.0000
# 4 0.0000 0.0000 0.0000 47.2481 0.0000 0.0000
# 5 0.0000 0.0000 0.0000 0.0000 28.5006 0.0000
# 6 0.0000 0.0000 0.0000 0.0000 0.0000 42.3250
#
#
#
# Elastic Compliance Matrix: (Units=1/GPa)
#
#
# Indices 1 2 3 4 5 6 
#
# 1 0.014833 -0.002805 -0.000664 0.000000 0.000000 0.000000
# 2 -0.002805 0.009166 -0.003684 0.000000 0.000000 0.000000
# 3 -0.000664 -0.003684 0.007659 0.000000 0.000000 0.000000
# 4 0.000000 0.000000 0.000000 0.021165 0.000000 0.000000
# 5 0.000000 0.000000 0.000000 0.000000 0.035087 0.000000
# 6 0.000000 0.000000 0.000000 0.000000 0.000000 0.023627
#
#
# Mechanical properties :
#
#
# Convention : Reuss Voigt Hill
#
# Bulk Modulus (GPa) = 57.62829 71.67946 64.65388
# Shear Modulus (GPa) = 37.98631 41.20303 39.59467
#
# Velocity S-wave (km/s) = 4.08802 4.25759 4.17366
# Velocity P-wave (km/s) = 6.90187 7.46354 7.18819
#
# Compressibility (1/GPa) = 0.01735259
#
# Stress axis : x y z
#
# Youngs Moduli (GPa) = 67.41877 109.09391 130.56542
#
# Poissons Ratio (x) = 0.30603 0.08666
# Poissons Ratio (y) = 0.18912 0.48098
# Poissons Ratio (z) = 0.04475 0.40188
#
# Static dielectric constant tensor:
#      x y z
#    x 4.061930 0.000000 0.000000 
#    y 0.000000 4.099850 0.000000 
#    z 0.000000 0.000000 4.642300 
# 
# 
# High freq. dielectric constant tensor:
#      x y z
#    x 1.879980 0.000000 0.000000 
#    y 0.000000 1.910240 0.000000 
#    z 0.000000 0.000000 1.922390 
# 
# From -- ./inp_files/13300.got.cif
#   From: 2010.06.25/outbox.cif.g09.slc.cpg/sg43_7_cif.got.tgz:13300.got - 2010.06.26 16:48:59.
