data_PCOD8187841
_publ_section_title
;
Structure prediction by ZEFSAII (Michael W. Deem and Ramdas Pophale) SiO2 
 PCOD8187841
Probable space group: F D D 2
;
_chemical_formula_sum "Si O2"
_cell_formula_units_Z 64
_cell_length_a 12.289647
_cell_length_b 24.537567
_cell_length_c 8.446133
_cell_angle_alpha 90.000000
_cell_angle_beta 90.000000
_cell_angle_gamma 90.000000
_cell_volume 2546.999285
_symmetry_space_group_name_H-M "F D D 2"
_symmetry_group_IT_number 43
_symmetry_cell_setting 'orthorhombic'
loop_
_space_group_symop_operation_xyz
x,y,z
-x,-y,z
1/4-x,1/4+y,1/4+z
1/4+x,1/4-y,1/4+z
x,1/2+y,1/2+z
-x,1/2-y,1/2+z
1/4-x,3/4+y,3/4+z
1/4+x,3/4-y,3/4+z
1/2+x,y,1/2+z
1/2-x,-y,1/2+z
3/4-x,1/4+y,3/4+z
3/4+x,1/4-y,3/4+z
1/2+x,1/2+y,z
1/2-x,1/2-y,z
3/4-x,3/4+y,1/4+z
3/4+x,3/4-y,1/4+z
loop_
_atom_site_type_symbol
_atom_site_label
_atom_site_fract_x
_atom_site_fract_y
_atom_site_fract_z
Si Si1 0.764787 0.686644 0.064460
Si Si2 0.878961 0.240477 0.059335
Si Si3 0.664013 0.860222 0.378055
Si Si4 0.784454 0.939121 0.605027
O O1 0.750000 0.750000 0.031194
O O2 0.656656 0.652590 0.021856
O O3 0.771277 0.676624 0.252826
O O4 0.867213 0.666334 0.962862
O O5 0.750000 0.250000 0.060987
O O6 0.924486 0.237494 0.238602
O O7 0.909436 0.182461 0.977800
O O8 0.938735 0.288902 0.967182
O O9 0.743424 0.888171 0.504146
#
# Coordination Sequence:
#
# PCOD8187841 Si02
#       4
#    16  16  16  16
#     4  12  28  50  78 116 160 207 268 334 402 483
#     4  12  27  48  79 112 156 205 264 325 393 476
#     4  12  25  48  78 112 155 210 263 328 400 479
#     4  12  28  50  78 115 159 209 263 331 403 478
#
# _framework density 25.127607000000001
#
# number of rings (size 3 to 8) (size 9 to 14) (size 15 to 20)
#    0.000    0.000    2.500    7.500    3.500    2.000 
#    0.000    0.000    0.000    0.000    0.000    0.000 
#    0.000    0.000    0.000    0.000    0.000    0.000 
#
# Total GULP energy -198451.056640 kJ/mol
# GULP energy per Si atom -12403.191040 kJ/mol
# Density = 2.507042 g / cm^3
# Si number density = 25.127607 Si / 1000 Ang^3
#
#
#
# Elastic Constant Matrix: (Units=GPa)
#
#
# Indices 1 2 3 4 5 6 
#
# 1 127.7426 18.6075 39.4045 0.0000 0.0000 0.0000
# 2 18.6075 71.7915 10.7560 0.0000 0.0000 0.0000
# 3 39.4045 10.7560 125.5414 0.0000 0.0000 0.0000
# 4 0.0000 0.0000 0.0000 41.0426 0.0000 0.0000
# 5 0.0000 0.0000 0.0000 0.0000 52.3416 0.0000
# 6 0.0000 0.0000 0.0000 0.0000 0.0000 30.1521
#
#
#
# Elastic Compliance Matrix: (Units=1/GPa)
#
#
# Indices 1 2 3 4 5 6 
#
# 1 0.008921 -0.001917 -0.002636 0.000000 0.000000 0.000000
# 2 -0.001917 0.014522 -0.000642 0.000000 0.000000 0.000000
# 3 -0.002636 -0.000642 0.008848 0.000000 0.000000 0.000000
# 4 0.000000 0.000000 0.000000 0.024365 0.000000 0.000000
# 5 0.000000 0.000000 0.000000 0.000000 0.019105 0.000000
# 6 0.000000 0.000000 0.000000 0.000000 0.000000 0.033165
#
#
# Mechanical properties :
#
#
# Convention : Reuss Voigt Hill
#
# Bulk Modulus (GPa) = 45.66205 51.40130 48.53167
# Shear Modulus (GPa) = 39.48923 41.79445 40.64184
#
# Velocity S-wave (km/s) = 3.96858 4.08277 4.02608
# Velocity P-wave (km/s) = 6.26187 6.53650 6.40066
#
# Compressibility (1/GPa) = 0.02190002
#
# Stress axis : x y z
#
# Youngs Moduli (GPa) = 112.10093 68.85919 113.02209
#
# Poissons Ratio (x) = 0.13202 0.29789
# Poissons Ratio (y) = 0.21492 0.07261
# Poissons Ratio (z) = 0.29546 0.04424
#
# Static dielectric constant tensor:
#      x y z
#    x 4.550600 0.000000 0.000000 
#    y 0.000000 4.470330 0.000000 
#    z 0.000000 0.000000 4.609740 
# 
# 
# High freq. dielectric constant tensor:
#      x y z
#    x 2.010870 0.000000 0.000000 
#    y 0.000000 1.998930 0.000000 
#    z 0.000000 0.000000 2.014350 
# 
# From -- ./inp_files/2258.got.cif
#   From: 2010.06.25/outbox.cif.g09.slc.cpg/sg43_2_cif.got.tgz:2258.got - 2010.06.26 16:48:59.
