data_PCOD8187531
_publ_section_title
;
Structure prediction by ZEFSAII (Michael W. Deem and Ramdas Pophale) SiO2 
 PCOD8187531
Probable space group: F D D 2
;
_chemical_formula_sum "Si O2"
_cell_formula_units_Z 64
_cell_length_a 28.118357
_cell_length_b 13.923390
_cell_length_c 7.260603
_cell_angle_alpha 90.000000
_cell_angle_beta 90.000000
_cell_angle_gamma 90.000000
_cell_volume 2842.546772
_symmetry_space_group_name_H-M "F D D 2"
_symmetry_group_IT_number 43
_symmetry_cell_setting 'orthorhombic'
loop_
_space_group_symop_operation_xyz
x,y,z
-x,-y,z
1/4-x,1/4+y,1/4+z
1/4+x,1/4-y,1/4+z
x,1/2+y,1/2+z
-x,1/2-y,1/2+z
1/4-x,3/4+y,3/4+z
1/4+x,3/4-y,3/4+z
1/2+x,y,1/2+z
1/2-x,-y,1/2+z
3/4-x,1/4+y,3/4+z
3/4+x,1/4-y,3/4+z
1/2+x,1/2+y,z
1/2-x,1/2-y,z
3/4-x,3/4+y,1/4+z
3/4+x,3/4-y,1/4+z
loop_
_atom_site_type_symbol
_atom_site_label
_atom_site_fract_x
_atom_site_fract_y
_atom_site_fract_z
Si Si1 0.401669 0.877463 0.979410
Si Si2 0.439130 0.670494 0.046838
Si Si3 0.946462 0.005376 0.775583
Si Si4 0.717705 0.838444 0.392241
O O1 0.345260 0.866398 0.944003
O O2 0.426852 0.889857 0.784120
O O3 0.420735 0.778229 0.056233
O O4 0.411210 0.967226 0.117101
O O5 0.493854 0.674484 0.116275
O O6 0.435230 0.614219 0.848810
O O7 0.941948 0.934346 0.949851
O O8 0.000000 0.000000 0.695405
O O9 0.750000 0.750000 0.457901
#
# Coordination Sequence:
#
# PCOD8187531 Si02
#       4
#    16  16  16  16
#     4  12  23  41  67  92 128 179 209 271 340 379
#     4  10  24  40  63  98 129 166 226 266 321 406
#     4   9  22  44  63  92 130 167 216 277 320 384
#     4   9  21  43  61  89 129 159 221 276 311 396
#
# _framework density 22.515021999999998
#
# number of rings (size 3 to 8) (size 9 to 14) (size 15 to 20)
#    0.000    2.500    0.000    3.750    7.000    4.000 
#    0.000    2.500    0.000    0.000    0.000    0.000 
#    0.000    0.000    0.000    0.000    0.000    0.000 
#
# Total GULP energy -198250.194081 kJ/mol
# GULP energy per Si atom -12390.637130 kJ/mol
# Density = 2.246378 g / cm^3
# Si number density = 22.515022 Si / 1000 Ang^3
#
#
#
# Elastic Constant Matrix: (Units=GPa)
#
#
# Indices 1 2 3 4 5 6 
#
# 1 55.4340 -16.0994 33.1649 0.0000 0.0000 0.0000
# 2 -16.0994 50.5724 7.1788 0.0000 0.0000 0.0000
# 3 33.1649 7.1788 75.1078 0.0000 0.0000 0.0000
# 4 0.0000 0.0000 0.0000 29.8606 0.0000 0.0000
# 5 0.0000 0.0000 0.0000 0.0000 31.8635 0.0000
# 6 0.0000 0.0000 0.0000 0.0000 0.0000 27.0914
#
#
#
# Elastic Compliance Matrix: (Units=1/GPa)
#
#
# Indices 1 2 3 4 5 6 
#
# 1 0.029988 0.011583 -0.014349 0.000000 0.000000 0.000000
# 2 0.011583 0.024520 -0.007458 0.000000 0.000000 0.000000
# 3 -0.014349 -0.007458 0.020363 0.000000 0.000000 0.000000
# 4 0.000000 0.000000 0.000000 0.033489 0.000000 0.000000
# 5 0.000000 0.000000 0.000000 0.000000 0.031384 0.000000
# 6 0.000000 0.000000 0.000000 0.000000 0.000000 0.036912
#
#
# Mechanical properties :
#
#
# Convention : Reuss Voigt Hill
#
# Bulk Modulus (GPa) = 18.37449 25.51140 21.94295
# Shear Modulus (GPa) = 23.22940 28.22110 25.72525
#
# Velocity S-wave (km/s) = 3.21554 3.54423 3.38388
# Velocity P-wave (km/s) = 4.68668 5.30134 5.00346
#
# Compressibility (1/GPa) = 0.05442328
#
# Stress axis : x y z
#
# Youngs Moduli (GPa) = 33.34657 40.78331 49.10882
#
# Poissons Ratio (x) = -0.47241 0.70465
# Poissons Ratio (y) = -0.38626 0.36627
# Poissons Ratio (z) = 0.47848 0.30418
#
# Static dielectric constant tensor:
#      x y z
#    x 4.474630 0.000000 0.000000 
#    y 0.000000 4.054550 0.000000 
#    z 0.000000 0.000000 3.875120 
# 
# 
# High freq. dielectric constant tensor:
#      x y z
#    x 1.894250 0.000000 0.000000 
#    y 0.000000 1.879530 0.000000 
#    z 0.000000 0.000000 1.869340 
# 
# From -- ./inp_files/1954.got.cif
#   From: 2010.06.25/outbox.cif.g09.slc.cpg/sg43_1_cif.got.tgz:1954.got - 2010.06.26 16:48:59.
