data_PCOD8187712
_publ_section_title
;
Structure prediction by ZEFSAII (Michael W. Deem and Ramdas Pophale) SiO2 
 PCOD8187712
Probable space group: F D D 2
;
_chemical_formula_sum "Si O2"
_cell_formula_units_Z 64
_cell_length_a 10.126918
_cell_length_b 25.318988
_cell_length_c 8.496986
_cell_angle_alpha 90.000000
_cell_angle_beta 90.000000
_cell_angle_gamma 90.000000
_cell_volume 2178.655381
_symmetry_space_group_name_H-M "F D D 2"
_symmetry_group_IT_number 43
_symmetry_cell_setting 'orthorhombic'
loop_
_space_group_symop_operation_xyz
x,y,z
-x,-y,z
1/4-x,1/4+y,1/4+z
1/4+x,1/4-y,1/4+z
x,1/2+y,1/2+z
-x,1/2-y,1/2+z
1/4-x,3/4+y,3/4+z
1/4+x,3/4-y,3/4+z
1/2+x,y,1/2+z
1/2-x,-y,1/2+z
3/4-x,1/4+y,3/4+z
3/4+x,1/4-y,3/4+z
1/2+x,1/2+y,z
1/2-x,1/2-y,z
3/4-x,3/4+y,1/4+z
3/4+x,3/4-y,1/4+z
loop_
_atom_site_type_symbol
_atom_site_label
_atom_site_fract_x
_atom_site_fract_y
_atom_site_fract_z
Si Si1 0.075177 0.688240 0.981490
Si Si2 0.913452 0.424047 0.531561
Si Si3 0.007729 0.588098 0.196031
Si Si4 0.920218 0.258084 0.284127
O O1 0.198958 0.684210 0.865775
O O2 0.943684 0.698702 0.862646
O O3 0.069083 0.635983 0.090263
O O4 0.089147 0.739799 0.095204
O O5 0.905853 0.434810 0.341451
O O6 0.865070 0.363326 0.547757
O O7 0.803272 0.463857 0.599706
O O8 0.961359 0.539533 0.088661
#
# Coordination Sequence:
#
# PCOD8187712 Si02
#       4
#    16  16  16  16
#     4  11  25  45  76 108 148 203 255 315 391 461
#     4  11  23  44  72 104 149 195 250 320 381 459
#     4  11  24  45  74 107 149 194 255 323 385 459
#     4  11  25  48  70 109 150 195 255 320 383 464
#
# _framework density 29.375917999999999
#
# number of rings (size 3 to 8) (size 9 to 14) (size 15 to 20)
#    0.000    1.000    5.000    2.250    3.500    2.000 
#    0.000   12.500    0.000    0.000    0.000    0.000 
#    0.000    0.000    0.000    0.000    0.000    0.000 
#
# Total GULP energy -198246.975986 kJ/mol
# GULP energy per Si atom -12390.435999 kJ/mol
# Density = 2.930906 g / cm^3
# Si number density = 29.375918 Si / 1000 Ang^3
#
#
#
# Elastic Constant Matrix: (Units=GPa)
#
#
# Indices 1 2 3 4 5 6 
#
# 1 115.3611 17.5391 52.1627 0.0000 0.0000 0.0000
# 2 17.5391 118.3212 80.8012 0.0000 0.0000 0.0000
# 3 52.1627 80.8012 180.8620 0.0000 0.0000 0.0000
# 4 0.0000 0.0000 0.0000 56.9590 0.0000 0.0000
# 5 0.0000 0.0000 0.0000 0.0000 58.6214 0.0000
# 6 0.0000 0.0000 0.0000 0.0000 0.0000 46.8971
#
#
#
# Elastic Compliance Matrix: (Units=1/GPa)
#
#
# Indices 1 2 3 4 5 6 
#
# 1 0.010009 0.000702 -0.003200 0.000000 0.000000 0.000000
# 2 0.000702 0.012211 -0.005658 0.000000 0.000000 0.000000
# 3 -0.003200 -0.005658 0.008980 0.000000 0.000000 0.000000
# 4 0.000000 0.000000 0.000000 0.017556 0.000000 0.000000
# 5 0.000000 0.000000 0.000000 0.000000 0.017059 0.000000
# 6 0.000000 0.000000 0.000000 0.000000 0.000000 0.021323
#
#
# Mechanical properties :
#
#
# Convention : Reuss Voigt Hill
#
# Bulk Modulus (GPa) = 67.17164 79.50559 73.33862
# Shear Modulus (GPa) = 46.11988 50.09824 48.10906
#
# Velocity S-wave (km/s) = 3.96661 4.13415 4.05125
# Velocity P-wave (km/s) = 6.62529 7.06484 6.84859
#
# Compressibility (1/GPa) = 0.01488724
#
# Stress axis : x y z
#
# Youngs Moduli (GPa) = 99.91250 81.89145 111.36197
#
# Poissons Ratio (x) = -0.05747 0.35638
# Poissons Ratio (y) = -0.07011 0.63007
# Poissons Ratio (z) = 0.31974 0.46333
#
# Static dielectric constant tensor:
#      x y z
#    x 6.156300 0.000000 0.000000 
#    y 0.000000 5.700870 0.000000 
#    z 0.000000 0.000000 5.511460 
# 
# 
# High freq. dielectric constant tensor:
#      x y z
#    x 2.252710 0.000000 0.000000 
#    y 0.000000 2.198190 0.000000 
#    z 0.000000 0.000000 2.211180 
# 
# From -- ./inp_files/1960.got.cif
#   From: 2010.06.25/outbox.cif.g09.slc.cpg/sg43_1_cif.got.tgz:1960.got - 2010.06.26 16:48:59.
