data_PCOD8187221
_publ_section_title
;
Structure prediction by ZEFSAII (Michael W. Deem and Ramdas Pophale) SiO2 
 PCOD8187221
Probable space group: F D D 2
;
_chemical_formula_sum "Si O2"
_cell_formula_units_Z 72
_cell_length_a 26.798600
_cell_length_b 19.152642
_cell_length_c 6.809890
_cell_angle_alpha 90.000000
_cell_angle_beta 90.000000
_cell_angle_gamma 90.000000
_cell_volume 3495.271326
_symmetry_space_group_name_H-M "F D D 2"
_symmetry_group_IT_number 43
_symmetry_cell_setting 'orthorhombic'
loop_
_space_group_symop_operation_xyz
x,y,z
-x,-y,z
1/4-x,1/4+y,1/4+z
1/4+x,1/4-y,1/4+z
x,1/2+y,1/2+z
-x,1/2-y,1/2+z
1/4-x,3/4+y,3/4+z
1/4+x,3/4-y,3/4+z
1/2+x,y,1/2+z
1/2-x,-y,1/2+z
3/4-x,1/4+y,3/4+z
3/4+x,1/4-y,3/4+z
1/2+x,1/2+y,z
1/2-x,1/2-y,z
3/4-x,3/4+y,1/4+z
3/4+x,3/4-y,1/4+z
loop_
_atom_site_type_symbol
_atom_site_label
_atom_site_fract_x
_atom_site_fract_y
_atom_site_fract_z
Si Si1 0.593505 0.666170 0.431200
Si Si2 0.643584 0.763150 0.717489
Si Si3 0.562396 0.734358 0.038444
Si Si4 0.750000 0.750000 0.896490
Si Si5 0.252781 0.595368 0.476109
O O1 0.632642 0.720669 0.519990
O O2 0.621183 0.592337 0.420927
O O3 0.577327 0.684109 0.213449
O O4 0.546205 0.662228 0.570322
O O5 0.701900 0.754379 0.758758
O O6 0.610884 0.740104 0.903338
O O7 0.545848 0.809693 0.126056
O O8 0.516594 0.696991 0.923683
O O9 0.755289 0.821842 0.024428
#
# Coordination Sequence:
#
# PCOD8187221 Si02
#       5
#    16  16  16   8  16
#     4  10  22  40  62  94 122 165 205 255 310 371
#     4  10  23  40  62  92 128 160 208 256 309 371
#     4  11  21  41  66  90 123 167 210 251 313 378
#     4  10  22  42  60  92 132 158 206 264 302 364
#     4  10  21  39  65  92 125 165 206 256 308 372
#
# _framework density 20.599259
#
# number of rings (size 3 to 8) (size 9 to 14) (size 15 to 20)
#    0.000    1.778    2.222    1.333    0.000    7.111 
#    0.000    5.556    0.000    0.000    0.000    0.000 
#    0.000    0.000    0.000    0.000    0.000    0.000 
#
# Total GULP energy -223182.007452 kJ/mol
# GULP energy per Si atom -12399.000414 kJ/mol
# Density = 2.055237 g / cm^3
# Si number density = 20.599259 Si / 1000 Ang^3
#
#
#
# Elastic Constant Matrix: (Units=GPa)
#
#
# Indices 1 2 3 4 5 6 
#
# 1 75.2983 25.8903 26.4049 -0.0008 0.0004 0.0002
# 2 25.8903 151.4662 65.0309 -0.0023 0.0015 0.0006
# 3 26.4049 65.0309 100.9999 -0.0003 0.0011 0.0000
# 4 -0.0008 -0.0023 -0.0003 12.8526 0.0014 0.0003
# 5 0.0004 0.0015 0.0011 0.0014 16.8734 -0.0002
# 6 0.0002 0.0006 0.0000 0.0003 -0.0002 31.6367
#
#
#
# Elastic Compliance Matrix: (Units=1/GPa)
#
#
# Indices 1 2 3 4 5 6 
#
# 1 0.014777 -0.001198 -0.003091 0.000001 0.000000 0.000000
# 2 -0.001198 0.009222 -0.005624 0.000001 0.000000 0.000000
# 3 -0.003091 -0.005624 0.014331 -0.000001 0.000000 0.000000
# 4 0.000001 0.000001 -0.000001 0.077805 -0.000006 -0.000001
# 5 0.000000 0.000000 0.000000 -0.000006 0.059265 0.000000
# 6 0.000000 0.000000 0.000000 -0.000001 0.000000 0.031609
#
#
# Mechanical properties :
#
#
# Convention : Reuss Voigt Hill
#
# Bulk Modulus (GPa) = 54.05268 62.49073 58.27171
# Shear Modulus (GPa) = 21.45892 26.30176 23.88034
#
# Velocity S-wave (km/s) = 3.23109 3.57715 3.40852
# Velocity P-wave (km/s) = 6.34169 6.88938 6.62120
#
# Compressibility (1/GPa) = 0.01850047
#
# Stress axis : x y z
#
# Youngs Moduli (GPa) = 67.67420 108.43941 69.78109
#
# Poissons Ratio (x) = 0.12996 0.21573
# Poissons Ratio (y) = 0.08111 0.39247
# Poissons Ratio (z) = 0.20921 0.60989
#
# Static dielectric constant tensor:
#      x y z
#    x 3.684840 0.000000 0.000000 
#    y 0.000000 4.339430 0.000000 
#    z 0.000000 0.000000 3.584450 
# 
# 
# High freq. dielectric constant tensor:
#      x y z
#    x 1.803250 0.000000 0.000000 
#    y 0.000000 1.824550 0.000000 
#    z 0.000000 0.000000 1.793420 
# 
# From -- ./inp_files/719.got.cif
#   From: 2010.06.25/outbox.cif.g09.slc.cpg/sg43_1_cif.got.tgz:719.got - 2010.06.26 16:48:59.
