data_PCOD8187902
_publ_section_title
;
Structure prediction by ZEFSAII (Michael W. Deem and Ramdas Pophale) SiO2 
 PCOD8187902
Probable space group: I M M 2
;
_chemical_formula_sum "Si O2"
_cell_formula_units_Z 56
_cell_length_a 8.852613
_cell_length_b 22.089170
_cell_length_c 17.912358
_cell_angle_alpha 90.000000
_cell_angle_beta 90.000000
_cell_angle_gamma 90.000000
_cell_volume 3502.705604
_symmetry_space_group_name_H-M "I M M 2"
_symmetry_group_IT_number 44
_symmetry_cell_setting 'orthorhombic'
loop_
_space_group_symop_operation_xyz
x,y,z
-x,-y,z
-x,y,z
x,-y,z
1/2+x,1/2+y,1/2+z
1/2-x,1/2-y,1/2+z
1/2-x,1/2+y,1/2+z
1/2+x,1/2-y,1/2+z
loop_
_atom_site_type_symbol
_atom_site_label
_atom_site_fract_x
_atom_site_fract_y
_atom_site_fract_z
Si Si1 0.665872 0.677562 0.150660
Si Si2 0.174621 0.428867 0.432228
Si Si3 0.819558 0.852736 0.807008
Si Si4 0.833091 0.317576 0.691148
Si Si5 0.322397 0.217576 0.349406
Si Si6 0.180315 0.218774 0.499426
Si Si7 0.822230 0.156443 0.045868
O O1 0.500000 0.649118 0.142125
O O2 0.743666 0.642934 0.220691
O O3 0.652853 0.747297 0.173177
O O4 0.743801 0.676443 0.068308
O O5 0.199040 0.500000 0.432540
O O6 0.238362 0.404374 0.353943
O O7 0.266892 0.402607 0.502082
O O8 0.000000 0.410723 0.439910
O O9 0.775330 0.787598 0.840511
O O10 0.000000 0.861213 0.808768
O O11 0.773680 0.322013 0.776784
O O12 0.720920 0.350507 0.633366
O O13 0.000000 0.347124 0.683887
O O14 0.500000 0.211744 0.362323
O O15 0.235502 0.190622 0.421291
O O16 0.244685 0.286092 0.507623
O O17 0.000000 0.222145 0.503201
O O18 0.000000 0.163334 0.037622
#
# Coordination Sequence:
#
# PCOD8187902 Si02
#       7
#     8   8   8   8   8   8   8
#     4   7  13  25  40  59  82 112 142 170 209 255
#     4  11  23  35  46  62  84 112 148 188 229 267
#     4   9  16  29  46  60  81 112 146 182 216 253
#     4   8  15  28  43  59  84 115 143 172 214 260
#     4   9  16  26  42  65  90 117 145 176 212 255
#     4  10  17  26  42  63  89 119 146 173 212 258
#     4  11  20  30  44  61  83 112 148 185 220 256
#
# _framework density 15.987641
#
# number of rings (size 3 to 8) (size 9 to 14) (size 15 to 20)
#    0.000    2.714    1.429    4.714    0.000    1.714 
#    0.000    6.429    0.000    0.000    0.000    0.000 
#    0.000    1.143    0.000    7.429    0.000    5.571 
#
# Total GULP energy -346880.331494 kJ/mol
# GULP energy per Si atom -12388.583268 kJ/mol
# Density = 1.595125 g / cm^3
# Si number density = 15.987641 Si / 1000 Ang^3
#
#
#
# Elastic Constant Matrix: (Units=GPa)
#
#
# Indices 1 2 3 4 5 6 
#
# 1 63.7450 20.8445 49.9719 0.0000 0.0000 0.0000
# 2 20.8445 33.0428 33.9527 0.0000 0.0000 0.0000
# 3 49.9719 33.9527 174.8501 0.0000 0.0000 0.0000
# 4 0.0000 0.0000 0.0000 16.8901 0.0000 0.0000
# 5 0.0000 0.0000 0.0000 0.0000 28.4537 0.0000
# 6 0.0000 0.0000 0.0000 0.0000 0.0000 13.3591
#
#
#
# Elastic Compliance Matrix: (Units=1/GPa)
#
#
# Indices 1 2 3 4 5 6 
#
# 1 0.022336 -0.009408 -0.004557 0.000000 0.000000 0.000000
# 2 -0.009408 0.041770 -0.005422 0.000000 0.000000 0.000000
# 3 -0.004557 -0.005422 0.008074 0.000000 0.000000 0.000000
# 4 0.000000 0.000000 0.000000 0.059206 0.000000 0.000000
# 5 0.000000 0.000000 0.000000 0.000000 0.035145 0.000000
# 6 0.000000 0.000000 0.000000 0.000000 0.000000 0.074855
#
#
# Mechanical properties :
#
#
# Convention : Reuss Voigt Hill
#
# Bulk Modulus (GPa) = 29.93421 53.46401 41.69911
# Shear Modulus (GPa) = 17.16465 22.86519 20.01492
#
# Velocity S-wave (km/s) = 3.28017 3.78587 3.54206
# Velocity P-wave (km/s) = 5.75413 7.25423 6.54729
#
# Compressibility (1/GPa) = 0.03340660
#
# Stress axis : x y z
#
# Youngs Moduli (GPa) = 44.77052 23.94055 123.84839
#
# Poissons Ratio (x) = 0.22523 0.56435
# Poissons Ratio (y) = 0.42121 0.67153
# Poissons Ratio (z) = 0.20401 0.12981
#
# Static dielectric constant tensor:
#      x y z
#    x 2.940190 0.000000 0.000000 
#    y 0.000000 2.476960 0.000000 
#    z 0.000000 0.000000 3.682870 
# 
# 
# High freq. dielectric constant tensor:
#      x y z
#    x 1.604340 0.000000 0.000000 
#    y 0.000000 1.536560 0.000000 
#    z 0.000000 0.000000 1.641630 
# 
# From -- ./inp_files/20637.got.cif
#   From: 2010.03.12/outbox.cif.g09.slc.cpg/sg44_11_cif.got.tgz:20637.got - 2010.04.14 02:36:11.
