data_PCOD8187794
_publ_section_title
;
Structure prediction by ZEFSAII (Michael W. Deem and Ramdas Pophale) SiO2 
 PCOD8187794
Probable space group: F D D 2
;
_chemical_formula_sum "Si O2"
_cell_formula_units_Z 48
_cell_length_a 14.841770
_cell_length_b 16.009010
_cell_length_c 7.438745
_cell_angle_alpha 90.000000
_cell_angle_beta 90.000000
_cell_angle_gamma 90.000000
_cell_volume 1767.461019
_symmetry_space_group_name_H-M "F D D 2"
_symmetry_group_IT_number 43
_symmetry_cell_setting 'orthorhombic'
loop_
_space_group_symop_operation_xyz
x,y,z
-x,-y,z
1/4-x,1/4+y,1/4+z
1/4+x,1/4-y,1/4+z
x,1/2+y,1/2+z
-x,1/2-y,1/2+z
1/4-x,3/4+y,3/4+z
1/4+x,3/4-y,3/4+z
1/2+x,y,1/2+z
1/2-x,-y,1/2+z
3/4-x,1/4+y,3/4+z
3/4+x,1/4-y,3/4+z
1/2+x,1/2+y,z
1/2-x,1/2-y,z
3/4-x,3/4+y,1/4+z
3/4+x,3/4-y,1/4+z
loop_
_atom_site_type_symbol
_atom_site_label
_atom_site_fract_x
_atom_site_fract_y
_atom_site_fract_z
Si Si1 0.571375 0.430296 0.754580
Si Si2 0.274948 0.951329 0.796359
Si Si3 0.821251 0.820353 0.589507
O O1 0.500000 0.500000 0.814381
O O2 0.668861 0.467815 0.801217
O O3 0.560998 0.406335 0.547118
O O4 0.552178 0.347416 0.866754
O O5 0.327658 0.039050 0.796279
O O6 0.306520 0.903821 0.976303
O O7 0.750000 0.750000 0.529178
#
# Coordination Sequence:
#
# PCOD8187794 Si02
#       3
#    16  16  16
#     4  11  29  47  79 114 154 207 265 325 401 475
#     4  12  27  51  80 114 161 206 263 330 403 477
#     4  11  27  49  77 119 158 205 264 328 399 487
#
# _framework density 27.157601
#
# number of rings (size 3 to 8) (size 9 to 14) (size 15 to 20)
#    0.000    0.667    3.333    1.000   14.000    0.000 
#    0.000    0.000    0.000    0.000    0.000    0.000 
#    0.000    0.000    0.000    0.000    0.000    0.000 
#
# Total GULP energy -148952.325869 kJ/mol
# GULP energy per Si atom -12412.693822 kJ/mol
# Density = 2.709579 g / cm^3
# Si number density = 27.157601 Si / 1000 Ang^3
#
#
#
# Elastic Constant Matrix: (Units=GPa)
#
#
# Indices 1 2 3 4 5 6 
#
# 1 235.8605 28.1114 29.2155 0.0000 0.0000 0.0000
# 2 28.1114 26.7322 31.0897 0.0000 0.0000 0.0000
# 3 29.2155 31.0897 158.5841 0.0000 0.0000 0.0000
# 4 0.0000 0.0000 0.0000 25.0364 0.0000 0.0000
# 5 0.0000 0.0000 0.0000 0.0000 37.9725 0.0000
# 6 0.0000 0.0000 0.0000 0.0000 0.0000 50.5089
#
#
#
# Elastic Compliance Matrix: (Units=1/GPa)
#
#
# Indices 1 2 3 4 5 6 
#
# 1 0.004850 -0.005260 0.000138 0.000000 0.000000 0.000000
# 2 -0.005260 0.054161 -0.009649 0.000000 0.000000 0.000000
# 3 0.000138 -0.009649 0.008172 0.000000 0.000000 0.000000
# 4 0.000000 0.000000 0.000000 0.039942 0.000000 0.000000
# 5 0.000000 0.000000 0.000000 0.000000 0.026335 0.000000
# 6 0.000000 0.000000 0.000000 0.000000 0.000000 0.019798
#
#
# Mechanical properties :
#
#
# Convention : Reuss Voigt Hill
#
# Bulk Modulus (GPa) = 26.56715 66.44554 46.50635
# Shear Modulus (GPa) = 25.59536 44.88759 35.24147
#
# Velocity S-wave (km/s) = 3.07331 4.06994 3.60622
# Velocity P-wave (km/s) = 4.73259 6.82684 5.87380
#
# Compressibility (1/GPa) = 0.03764047
#
# Stress axis : x y z
#
# Youngs Moduli (GPa) = 206.19996 18.46330 122.36808
#
# Poissons Ratio (x) = 0.09712 -0.01686
# Poissons Ratio (y) = 1.08463 1.18073
# Poissons Ratio (z) = -0.02841 0.17815
#
# Static dielectric constant tensor:
#      x y z
#    x 5.545190 0.000000 0.000000 
#    y 0.000000 4.657030 0.000000 
#    z 0.000000 0.000000 5.134900 
# 
# 
# High freq. dielectric constant tensor:
#      x y z
#    x 2.116670 0.000000 0.000000 
#    y 0.000000 2.087970 0.000000 
#    z 0.000000 0.000000 2.113020 
# 
# From -- ./inp_files/2081.got.cif
#   From: 2010.06.25/outbox.cif.g09.slc.cpg/sg43_2_cif.got.tgz:2081.got - 2010.06.26 16:48:59.
