data_PCOD8187437
_publ_section_title
;
Structure prediction by ZEFSAII (Michael W. Deem and Ramdas Pophale) SiO2 
 PCOD8187437
Probable space group: F D D 2
;
_chemical_formula_sum "Si O2"
_cell_formula_units_Z 56
_cell_length_a 26.468992
_cell_length_b 11.822319
_cell_length_c 7.387503
_cell_angle_alpha 90.000000
_cell_angle_beta 90.000000
_cell_angle_gamma 90.000000
_cell_volume 2311.733394
_symmetry_space_group_name_H-M "F D D 2"
_symmetry_group_IT_number 43
_symmetry_cell_setting 'orthorhombic'
loop_
_space_group_symop_operation_xyz
x,y,z
-x,-y,z
1/4-x,1/4+y,1/4+z
1/4+x,1/4-y,1/4+z
x,1/2+y,1/2+z
-x,1/2-y,1/2+z
1/4-x,3/4+y,3/4+z
1/4+x,3/4-y,3/4+z
1/2+x,y,1/2+z
1/2-x,-y,1/2+z
3/4-x,1/4+y,3/4+z
3/4+x,1/4-y,3/4+z
1/2+x,1/2+y,z
1/2-x,1/2-y,z
3/4-x,3/4+y,1/4+z
3/4+x,3/4-y,1/4+z
loop_
_atom_site_type_symbol
_atom_site_label
_atom_site_fract_x
_atom_site_fract_y
_atom_site_fract_z
Si Si1 0.936998 0.837099 0.563770
Si Si2 0.750000 0.250000 0.913863
Si Si3 0.172162 0.675779 0.198386
Si Si4 0.286629 0.024176 0.408121
O O1 0.884558 0.791156 0.642151
O O2 0.940780 0.797459 0.355456
O O3 0.983345 0.789891 0.679681
O O4 0.939350 0.973030 0.580557
O O5 0.789479 0.325044 0.030227
O O6 0.721032 0.351622 0.807261
O O7 0.174510 0.553569 0.295918
#
# Coordination Sequence:
#
# PCOD8187437 Si02
#       4
#    16   8  16  16
#     4  11  25  44  75 104 149 196 248 316 373 441
#     4  10  22  44  68 106 150 184 244 320 356 446
#     4  11  22  44  70 108 149 187 252 316 363 450
#     4  11  22  47  72 105 148 195 243 313 378 434
#
# _framework density 24.224246000000001
#
# number of rings (size 3 to 8) (size 9 to 14) (size 15 to 20)
#    0.000    1.143    5.714    1.714    0.000    4.571 
#    5.143    0.000    0.000    0.000    0.000    0.000 
#    0.000    0.000    0.000    0.000    0.000    0.000 
#
# Total GULP energy -173505.348174 kJ/mol
# GULP energy per Si atom -12393.239155 kJ/mol
# Density = 2.416911 g / cm^3
# Si number density = 24.224246 Si / 1000 Ang^3
#
#
#
# Elastic Constant Matrix: (Units=GPa)
#
#
# Indices 1 2 3 4 5 6 
#
# 1 146.5648 31.8278 31.4700 0.0000 0.0000 0.0000
# 2 31.8278 197.4202 47.1615 0.0000 0.0000 0.0000
# 3 31.4700 47.1615 41.0846 0.0000 0.0000 0.0000
# 4 0.0000 0.0000 0.0000 28.7281 0.0000 0.0000
# 5 0.0000 0.0000 0.0000 0.0000 38.3540 0.0000
# 6 0.0000 0.0000 0.0000 0.0000 0.0000 39.7442
#
#
#
# Elastic Compliance Matrix: (Units=1/GPa)
#
#
# Indices 1 2 3 4 5 6 
#
# 1 0.008175 0.000245 -0.006543 0.000000 0.000000 0.000000
# 2 0.000245 0.006987 -0.008208 0.000000 0.000000 0.000000
# 3 -0.006543 -0.008208 0.038774 0.000000 0.000000 0.000000
# 4 0.000000 0.000000 0.000000 0.034809 0.000000 0.000000
# 5 0.000000 0.000000 0.000000 0.000000 0.026073 0.000000
# 6 0.000000 0.000000 0.000000 0.000000 0.000000 0.025161
#
#
# Mechanical properties :
#
#
# Convention : Reuss Voigt Hill
#
# Bulk Modulus (GPa) = 40.12263 67.33203 53.72733
# Shear Modulus (GPa) = 28.20134 39.67262 33.93698
#
# Velocity S-wave (km/s) = 3.41571 4.05127 3.74699
# Velocity P-wave (km/s) = 5.67054 7.05261 6.39900
#
# Compressibility (1/GPa) = 0.02492359
#
# Stress axis : x y z
#
# Youngs Moduli (GPa) = 122.33049 143.13223 25.79076
#
# Poissons Ratio (x) = -0.03509 0.16875
# Poissons Ratio (y) = -0.02999 0.21168
# Poissons Ratio (z) = 0.80041 1.17479
#
# Static dielectric constant tensor:
#      x y z
#    x 4.586210 0.000000 0.000000 
#    y 0.000000 4.825220 0.000000 
#    z 0.000000 0.000000 3.828700 
# 
# 
# High freq. dielectric constant tensor:
#      x y z
#    x 1.968290 0.000000 0.000000 
#    y 0.000000 1.994680 0.000000 
#    z 0.000000 0.000000 1.914460 
# 
# From -- ./inp_files/1851.got.cif
#   From: 2010.06.25/outbox.cif.g09.slc.cpg/sg43_1_cif.got.tgz:1851.got - 2010.06.26 16:48:59.
