data_PCOD8187058
_publ_section_title
;
Structure prediction by ZEFSAII (Michael W. Deem and Ramdas Pophale) SiO2 
 PCOD8187058
Probable space group: F D D 2
;
_chemical_formula_sum "Si O2"
_cell_formula_units_Z 80
_cell_length_a 13.307127
_cell_length_b 29.153133
_cell_length_c 10.223442
_cell_angle_alpha 90.000000
_cell_angle_beta 90.000000
_cell_angle_gamma 90.000000
_cell_volume 3966.127515
_symmetry_space_group_name_H-M "F D D 2"
_symmetry_group_IT_number 43
_symmetry_cell_setting 'orthorhombic'
loop_
_space_group_symop_operation_xyz
x,y,z
-x,-y,z
1/4-x,1/4+y,1/4+z
1/4+x,1/4-y,1/4+z
x,1/2+y,1/2+z
-x,1/2-y,1/2+z
1/4-x,3/4+y,3/4+z
1/4+x,3/4-y,3/4+z
1/2+x,y,1/2+z
1/2-x,-y,1/2+z
3/4-x,1/4+y,3/4+z
3/4+x,1/4-y,3/4+z
1/2+x,1/2+y,z
1/2-x,1/2-y,z
3/4-x,3/4+y,1/4+z
3/4+x,3/4-y,1/4+z
loop_
_atom_site_type_symbol
_atom_site_label
_atom_site_fract_x
_atom_site_fract_y
_atom_site_fract_z
Si Si1 0.664651 0.927202 0.556530
Si Si2 0.189641 0.202960 0.774514
Si Si3 0.315203 0.510867 0.299240
Si Si4 0.103057 0.473651 0.301689
Si Si5 0.631431 0.583093 0.420671
O O1 0.647735 0.967595 0.662499
O O2 0.611095 0.939154 0.421428
O O3 0.607409 0.881131 0.597583
O O4 0.783884 0.921034 0.532550
O O5 0.250000 0.250000 0.780081
O O6 0.101811 0.205994 0.666629
O O7 0.271468 0.164463 0.738013
O O8 0.141730 0.194017 0.917166
O O9 0.194564 0.509915 0.303493
O O10 0.360108 0.459387 0.317892
O O11 0.000000 0.500000 0.315127
#
# Coordination Sequence:
#
# PCOD8187058 Si02
#       5
#    16  16  16  16  16
#     4  11  22  38  61  87 120 155 200 259 305 363
#     4   9  18  37  60  80 112 152 190 237 291 358
#     4  10  20  38  62  84 116 160 197 241 304 367
#     4  10  20  36  58  87 117 151 199 251 304 359
#     4  10  22  39  59  88 120 158 207 246 304 373
#
# _framework density 20.170808999999998
#
# number of rings (size 3 to 8) (size 9 to 14) (size 15 to 20)
#    0.000    2.000    0.000    6.000    0.000    4.000 
#    0.000   16.000    0.000    0.000    0.000    0.000 
#    0.000    0.000    0.000    0.000    0.000    0.000 
#
# Total GULP energy -247969.055900 kJ/mol
# GULP energy per Si atom -12398.452795 kJ/mol
# Density = 2.012490 g / cm^3
# Si number density = 20.170809 Si / 1000 Ang^3
#
#
#
# Elastic Constant Matrix: (Units=GPa)
#
#
# Indices 1 2 3 4 5 6 
#
# 1 115.8709 16.6854 52.2676 0.0000 0.0000 0.0000
# 2 16.6854 81.2343 49.9976 0.0000 0.0000 0.0000
# 3 52.2676 49.9976 169.7009 0.0000 0.0000 0.0000
# 4 0.0000 0.0000 0.0000 24.9960 0.0000 0.0000
# 5 0.0000 0.0000 0.0000 0.0000 30.1453 0.0000
# 6 0.0000 0.0000 0.0000 0.0000 0.0000 20.4862
#
#
#
# Elastic Compliance Matrix: (Units=1/GPa)
#
#
# Indices 1 2 3 4 5 6 
#
# 1 0.010025 -0.000194 -0.003031 0.000000 0.000000 0.000000
# 2 -0.000194 0.015040 -0.004372 0.000000 0.000000 0.000000
# 3 -0.003031 -0.004372 0.008114 0.000000 0.000000 0.000000
# 4 0.000000 0.000000 0.000000 0.040006 0.000000 0.000000
# 5 0.000000 0.000000 0.000000 0.000000 0.033173 0.000000
# 6 0.000000 0.000000 0.000000 0.000000 0.000000 0.048813
#
#
# Mechanical properties :
#
#
# Convention : Reuss Voigt Hill
#
# Bulk Modulus (GPa) = 55.59352 67.18971 61.39161
# Shear Modulus (GPa) = 28.35106 31.64920 30.00013
#
# Velocity S-wave (km/s) = 3.75313 3.96543 3.86074
# Velocity P-wave (km/s) = 6.81194 7.37217 7.09759
#
# Compressibility (1/GPa) = 0.01798771
#
# Stress axis : x y z
#
# Youngs Moduli (GPa) = 99.74771 66.48734 123.24221
#
# Poissons Ratio (x) = 0.01289 0.37350
# Poissons Ratio (y) = 0.01934 0.53876
# Poissons Ratio (z) = 0.30230 0.29065
#
# Static dielectric constant tensor:
#      x y z
#    x 3.866770 0.000000 0.000000 
#    y 0.000000 3.488950 0.000000 
#    z 0.000000 0.000000 4.015540 
# 
# 
# High freq. dielectric constant tensor:
#      x y z
#    x 1.793130 0.000000 0.000000 
#    y 0.000000 1.759350 0.000000 
#    z 0.000000 0.000000 1.797230 
# 
# From -- ./inp_files/6181.got.cif
#   From: 2010.06.25/outbox.cif.g09.slc.cpg/sg43_4_cif.got.tgz:6181.got - 2010.06.26 16:48:59.
