data_PCOD8187317
_publ_section_title
;
Structure prediction by ZEFSAII (Michael W. Deem and Ramdas Pophale) SiO2 
 PCOD8187317
Probable space group: F D D 2
;
_chemical_formula_sum "Si O2"
_cell_formula_units_Z 88
_cell_length_a 22.686783
_cell_length_b 24.658946
_cell_length_c 7.715791
_cell_angle_alpha 90.000000
_cell_angle_beta 90.000000
_cell_angle_gamma 90.000000
_cell_volume 4316.461601
_symmetry_space_group_name_H-M "F D D 2"
_symmetry_group_IT_number 43
_symmetry_cell_setting 'orthorhombic'
loop_
_space_group_symop_operation_xyz
x,y,z
-x,-y,z
1/4-x,1/4+y,1/4+z
1/4+x,1/4-y,1/4+z
x,1/2+y,1/2+z
-x,1/2-y,1/2+z
1/4-x,3/4+y,3/4+z
1/4+x,3/4-y,3/4+z
1/2+x,y,1/2+z
1/2-x,-y,1/2+z
3/4-x,1/4+y,3/4+z
3/4+x,1/4-y,3/4+z
1/2+x,1/2+y,z
1/2-x,1/2-y,z
3/4-x,3/4+y,1/4+z
3/4+x,3/4-y,1/4+z
loop_
_atom_site_type_symbol
_atom_site_label
_atom_site_fract_x
_atom_site_fract_y
_atom_site_fract_z
Si Si1 0.442222 0.663368 0.653030
Si Si2 0.000000 0.000000 0.274343
Si Si3 0.071438 0.179241 0.601336
Si Si4 0.874830 0.973545 0.198097
Si Si5 0.569172 0.451446 0.565678
Si Si6 0.137823 0.313281 0.830108
O O1 0.504789 0.693562 0.657081
O O2 0.401017 0.684453 0.804927
O O3 0.450813 0.598346 0.687180
O O4 0.414056 0.674502 0.465001
O O5 0.945613 0.976821 0.161261
O O6 0.027351 0.952402 0.395561
O O7 0.093446 0.217195 0.440938
O O8 0.113046 0.188813 0.766297
O O9 0.072497 0.116140 0.547690
O O10 0.861269 0.951948 0.392148
O O11 0.570699 0.512640 0.648375
#
# Coordination Sequence:
#
# PCOD8187317 Si02
#       6
#    16   8  16  16  16  16
#     4  11  21  36  60  88 118 151 195 247 291 355
#     4   8  16  40  62  76 120 162 196 246 284 356
#     4   9  20  36  57  87 117 152 191 240 301 344
#     4  10  22  36  60  88 117 153 200 239 290 356
#     4   9  19  37  60  83 112 155 198 236 289 346
#     4   9  20  40  57  80 118 158 192 238 296 338
#
# _framework density 20.387070000000001
#
# number of rings (size 3 to 8) (size 9 to 14) (size 15 to 20)
#    0.000    2.909    0.000    2.182    5.091    1.455 
#    0.000   21.818    0.000    0.000    0.000    0.000 
#    0.000    0.000    0.000    0.000    0.000    0.000 
#
# Total GULP energy -272545.827661 kJ/mol
# GULP energy per Si atom -12388.446712 kJ/mol
# Density = 2.034067 g / cm^3
# Si number density = 20.387070 Si / 1000 Ang^3
#
#
#
# Elastic Constant Matrix: (Units=GPa)
#
#
# Indices 1 2 3 4 5 6 
#
# 1 138.1047 38.4186 42.5898 -0.0185 0.0126 0.0071
# 2 38.4186 143.9479 33.9199 -0.0105 0.0055 0.0045
# 3 42.5898 33.9199 69.9038 -0.0586 0.0609 0.0221
# 4 -0.0185 -0.0105 -0.0586 28.7907 0.0324 0.0121
# 5 0.0126 0.0055 0.0609 0.0324 17.6807 -0.0126
# 6 0.0071 0.0045 0.0221 0.0121 -0.0126 24.0080
#
#
#
# Elastic Compliance Matrix: (Units=1/GPa)
#
#
# Indices 1 2 3 4 5 6 
#
# 1 0.009117 -0.001270 -0.004939 -0.000005 0.000011 0.000002
# 2 -0.001270 0.008021 -0.003118 -0.000004 0.000009 0.000002
# 3 -0.004939 -0.003118 0.018828 0.000034 -0.000060 -0.000015
# 4 -0.000005 -0.000004 0.000034 0.034734 -0.000064 -0.000018
# 5 0.000011 0.000009 -0.000060 -0.000064 0.056559 0.000030
# 6 0.000002 0.000002 -0.000015 -0.000018 0.000030 0.041653
#
#
# Mechanical properties :
#
#
# Convention : Reuss Voigt Hill
#
# Bulk Modulus (GPa) = 57.76344 64.64589 61.20467
# Shear Modulus (GPa) = 25.86189 29.89777 27.87983
#
# Velocity S-wave (km/s) = 3.56553 3.83365 3.70202
# Velocity P-wave (km/s) = 6.73391 7.16756 6.95412
#
# Compressibility (1/GPa) = 0.01731199
#
# Stress axis : x y z
#
# Youngs Moduli (GPa) = 109.68427 124.67872 53.11348
#
# Poissons Ratio (x) = 0.15828 0.26231
# Poissons Ratio (y) = 0.13925 0.16563
# Poissons Ratio (z) = 0.54170 0.38880
#
# Static dielectric constant tensor:
#      x y z
#    x 3.810630 0.000010 0.000000 
#    y 0.000010 4.222770 -0.000020 
#    z 0.000000 -0.000020 3.131140 
# 
# 
# High freq. dielectric constant tensor:
#      x y z
#    x 1.809510 0.000000 0.000000 
#    y 0.000000 1.812680 0.000000 
#    z 0.000000 0.000000 1.738310 
# 
# From -- ./inp_files/3212.got.cif
#   From: 2010.06.25/outbox.cif.g09.slc.cpg/sg43_2_cif.got.tgz:3212.got - 2010.06.26 16:48:59.
