data_PCOD8187425
_publ_section_title
;
Structure prediction by ZEFSAII (Michael W. Deem and Ramdas Pophale) SiO2 
 PCOD8187425
Probable space group: F D D 2
;
_chemical_formula_sum "Si O2"
_cell_formula_units_Z 96
_cell_length_a 21.826855
_cell_length_b 9.779197
_cell_length_c 17.718912
_cell_angle_alpha 90.000000
_cell_angle_beta 90.000000
_cell_angle_gamma 90.000000
_cell_volume 3782.086084
_symmetry_space_group_name_H-M "F D D 2"
_symmetry_group_IT_number 43
_symmetry_cell_setting 'orthorhombic'
loop_
_space_group_symop_operation_xyz
x,y,z
-x,-y,z
1/4-x,1/4+y,1/4+z
1/4+x,1/4-y,1/4+z
x,1/2+y,1/2+z
-x,1/2-y,1/2+z
1/4-x,3/4+y,3/4+z
1/4+x,3/4-y,3/4+z
1/2+x,y,1/2+z
1/2-x,-y,1/2+z
3/4-x,1/4+y,3/4+z
3/4+x,1/4-y,3/4+z
1/2+x,1/2+y,z
1/2-x,1/2-y,z
3/4-x,3/4+y,1/4+z
3/4+x,3/4-y,1/4+z
loop_
_atom_site_type_symbol
_atom_site_label
_atom_site_fract_x
_atom_site_fract_y
_atom_site_fract_z
Si Si1 0.175482 0.505560 0.811510
Si Si2 0.820692 0.225174 0.734367
Si Si3 0.763122 0.545149 0.081083
Si Si4 0.143422 0.032789 0.479765
Si Si5 0.282478 0.388942 0.733998
Si Si6 0.099943 0.958698 0.827264
O O1 0.170620 0.667184 0.800884
O O2 0.140029 0.426882 0.744133
O O3 0.148376 0.482460 0.893992
O O4 0.245422 0.451882 0.805221
O O5 0.750000 0.250000 0.704032
O O6 0.840052 0.077546 0.773840
O O7 0.866445 0.258498 0.664759
O O8 0.782949 0.503095 0.166445
O O9 0.690694 0.567436 0.073801
O O10 0.803547 0.673917 0.051105
O O11 0.790596 0.439319 0.019838
O O12 0.099787 0.909703 0.514904
O O13 0.250000 0.250000 0.701878
#
# Coordination Sequence:
#
# PCOD8187425 Si02
#       6
#    16  16  16  16  16  16
#     4  11  23  43  71 105 139 190 246 307 382 452
#     4  12  25  47  74 101 144 192 245 308 384 447
#     4  11  23  46  68 104 145 194 243 309 380 453
#     4  11  24  42  71 107 144 190 251 309 383 457
#     4  10  22  43  72 101 147 196 248 320 378 459
#     4  11  26  44  70 102 141 194 244 306 371 453
#
# _framework density 25.382815999999998
#
# number of rings (size 3 to 8) (size 9 to 14) (size 15 to 20)
#    0.000    1.000    5.000    1.000    7.000    1.333 
#    9.000    0.833    0.000    0.000    0.000    0.000 
#    0.000    0.000    0.000    0.000    0.000    0.000 
#
# Total GULP energy -297320.221821 kJ/mol
# GULP energy per Si atom -12388.342576 kJ/mol
# Density = 2.532504 g / cm^3
# Si number density = 25.382816 Si / 1000 Ang^3
#
#
#
# Elastic Constant Matrix: (Units=GPa)
#
#
# Indices 1 2 3 4 5 6 
#
# 1 104.2842 15.5626 52.5762 0.0000 0.0000 0.0000
# 2 15.5626 82.8940 12.4370 0.0000 0.0000 0.0000
# 3 52.5762 12.4370 129.6977 0.0000 0.0000 0.0000
# 4 0.0000 0.0000 0.0000 31.8012 0.0000 0.0000
# 5 0.0000 0.0000 0.0000 0.0000 43.0727 0.0000
# 6 0.0000 0.0000 0.0000 0.0000 0.0000 32.2770
#
#
#
# Elastic Compliance Matrix: (Units=1/GPa)
#
#
# Indices 1 2 3 4 5 6 
#
# 1 0.012252 -0.001578 -0.004816 0.000000 0.000000 0.000000
# 2 -0.001578 0.012443 -0.000554 0.000000 0.000000 0.000000
# 3 -0.004816 -0.000554 0.009715 0.000000 0.000000 0.000000
# 4 0.000000 0.000000 0.000000 0.031445 0.000000 0.000000
# 5 0.000000 0.000000 0.000000 0.000000 0.023217 0.000000
# 6 0.000000 0.000000 0.000000 0.000000 0.000000 0.030982
#
#
# Mechanical properties :
#
#
# Convention : Reuss Voigt Hill
#
# Bulk Modulus (GPa) = 48.74023 53.11416 50.92720
# Shear Modulus (GPa) = 35.51457 37.18351 36.34904
#
# Velocity S-wave (km/s) = 3.74459 3.83157 3.78833
# Velocity P-wave (km/s) = 6.15952 6.36751 6.26438
#
# Compressibility (1/GPa) = 0.02051693
#
# Stress axis : x y z
#
# Youngs Moduli (GPa) = 81.61636 80.36732 102.92923
#
# Poissons Ratio (x) = 0.12680 0.49566
# Poissons Ratio (y) = 0.12877 0.05698
# Poissons Ratio (z) = 0.39303 0.04449
#
# Static dielectric constant tensor:
#      x y z
#    x 4.946060 0.000000 0.000000 
#    y 0.000000 4.920780 0.000000 
#    z 0.000000 0.000000 4.109150 
# 
# 
# High freq. dielectric constant tensor:
#      x y z
#    x 2.019550 0.000000 0.000000 
#    y 0.000000 2.042120 0.000000 
#    z 0.000000 0.000000 1.988790 
# 
# From -- ./inp_files/14822.got.cif
#   From: 2010.06.25/outbox.cif.g09.slc.cpg/sg43_8_cif.got.tgz:14822.got - 2010.06.26 16:48:59.
