data_PCOD8187736
_publ_section_title
;
Structure prediction by ZEFSAII (Michael W. Deem and Ramdas Pophale) SiO2 
 PCOD8187736
Probable space group: F D D 2
;
_chemical_formula_sum "Si O2"
_cell_formula_units_Z 112
_cell_length_a 13.842618
_cell_length_b 22.514714
_cell_length_c 15.152056
_cell_angle_alpha 90.000000
_cell_angle_beta 90.000000
_cell_angle_gamma 90.000000
_cell_volume 4722.328945
_symmetry_space_group_name_H-M "F D D 2"
_symmetry_group_IT_number 43
_symmetry_cell_setting 'orthorhombic'
loop_
_space_group_symop_operation_xyz
x,y,z
-x,-y,z
1/4-x,1/4+y,1/4+z
1/4+x,1/4-y,1/4+z
x,1/2+y,1/2+z
-x,1/2-y,1/2+z
1/4-x,3/4+y,3/4+z
1/4+x,3/4-y,3/4+z
1/2+x,y,1/2+z
1/2-x,-y,1/2+z
3/4-x,1/4+y,3/4+z
3/4+x,1/4-y,3/4+z
1/2+x,1/2+y,z
1/2-x,1/2-y,z
3/4-x,3/4+y,1/4+z
3/4+x,3/4-y,1/4+z
loop_
_atom_site_type_symbol
_atom_site_label
_atom_site_fract_x
_atom_site_fract_y
_atom_site_fract_z
Si Si1 0.198286 0.079275 0.329500
Si Si2 0.318141 0.009477 0.563777
Si Si3 0.146839 0.724670 0.001170
Si Si4 0.857284 0.909035 0.519781
Si Si5 0.104267 0.918026 0.925900
Si Si6 0.796654 0.111431 0.569752
Si Si7 0.495418 0.066830 0.155143
O O1 0.131702 0.082543 0.415581
O O2 0.150886 0.119712 0.254268
O O3 0.308095 0.096272 0.356968
O O4 0.191933 0.011914 0.293252
O O5 0.387062 0.024478 0.645426
O O6 0.235974 0.059430 0.560094
O O7 0.380119 0.017950 0.472926
O O8 0.276357 0.943771 0.568092
O O9 0.250000 0.750000 0.028235
O O10 0.142536 0.660076 0.043313
O O11 0.949489 0.939155 0.563215
O O12 0.005091 0.915300 0.872162
O O13 0.804635 0.138139 0.470586
O O14 0.890683 0.092186 0.625482
O O15 0.500000 0.000000 0.196420
#
# Coordination Sequence:
#
# PCOD8187736 Si02
#       7
#    16  16  16  16  16  16  16
#     4  11  24  45  75 109 149 201 248 327 385 466
#     4  11  25  47  75 112 150 197 254 329 385 474
#     4  12  26  43  77 113 148 198 255 325 400 467
#     4  11  27  46  75 107 154 199 260 316 389 460
#     4  11  24  46  75 111 154 196 258 316 389 466
#     4  12  28  50  81 111 157 214 255 329 398 475
#     4  12  30  52  78 112 160 211 267 323 394 481
#
# _framework density 23.717110999999999
#
# number of rings (size 3 to 8) (size 9 to 14) (size 15 to 20)
#    0.000    0.571    4.286    2.571    6.000    2.857 
#    0.000    0.000    0.000    0.000    0.000    0.000 
#    0.000    0.000    0.000    0.000    0.000    0.000 
#
# Total GULP energy -347031.000782 kJ/mol
# GULP energy per Si atom -12393.964314 kJ/mol
# Density = 2.366313 g / cm^3
# Si number density = 23.717111 Si / 1000 Ang^3
#
#
#
# Elastic Constant Matrix: (Units=GPa)
#
#
# Indices 1 2 3 4 5 6 
#
# 1 95.6375 17.9701 47.2133 0.0000 0.0000 0.0000
# 2 17.9701 81.0655 22.7613 0.0000 0.0000 0.0000
# 3 47.2133 22.7613 100.1981 0.0000 0.0000 0.0000
# 4 0.0000 0.0000 0.0000 38.7511 0.0000 0.0000
# 5 0.0000 0.0000 0.0000 0.0000 30.6200 0.0000
# 6 0.0000 0.0000 0.0000 0.0000 0.0000 23.9984
#
#
#
# Elastic Compliance Matrix: (Units=1/GPa)
#
#
# Indices 1 2 3 4 5 6 
#
# 1 0.013755 -0.001313 -0.006183 0.000000 0.000000 0.000000
# 2 -0.001313 0.013301 -0.002403 0.000000 0.000000 0.000000
# 3 -0.006183 -0.002403 0.013440 0.000000 0.000000 0.000000
# 4 0.000000 0.000000 0.000000 0.025806 0.000000 0.000000
# 5 0.000000 0.000000 0.000000 0.000000 0.032658 0.000000
# 6 0.000000 0.000000 0.000000 0.000000 0.000000 0.041669
#
#
# Mechanical properties :
#
#
# Convention : Reuss Voigt Hill
#
# Bulk Modulus (GPa) = 48.31378 50.31005 49.31191
# Shear Modulus (GPa) = 29.88150 31.27101 30.57625
#
# Velocity S-wave (km/s) = 3.55338 3.63505 3.59445
# Velocity P-wave (km/s) = 6.10331 6.23512 6.16957
#
# Compressibility (1/GPa) = 0.02069803
#
# Stress axis : x y z
#
# Youngs Moduli (GPa) = 72.69901 75.17983 74.40689
#
# Poissons Ratio (x) = 0.09872 0.46008
# Poissons Ratio (y) = 0.09546 0.17879
# Poissons Ratio (z) = 0.44952 0.18065
#
# Static dielectric constant tensor:
#      x y z
#    x 4.348770 0.000000 0.000000 
#    y 0.000000 4.456300 0.000000 
#    z 0.000000 0.000000 4.639260 
# 
# 
# High freq. dielectric constant tensor:
#      x y z
#    x 1.933320 0.000000 0.000000 
#    y 0.000000 1.945440 0.000000 
#    z 0.000000 0.000000 1.951160 
# 
# From -- ./inp_files/10204.got.cif
#   From: 2010.06.25/outbox.cif.g09.slc.cpg/sg43_6_cif.got.tgz:10204.got - 2010.06.26 16:48:59.
