data_PCOD8187529
_publ_section_title
;
Structure prediction by ZEFSAII (Michael W. Deem and Ramdas Pophale) SiO2 
 PCOD8187529
Probable space group: F D D 2
;
_chemical_formula_sum "Si O2"
_cell_formula_units_Z 96
_cell_length_a 22.200502
_cell_length_b 16.627266
_cell_length_c 10.120423
_cell_angle_alpha 90.000000
_cell_angle_beta 90.000000
_cell_angle_gamma 90.000000
_cell_volume 3735.788703
_symmetry_space_group_name_H-M "F D D 2"
_symmetry_group_IT_number 43
_symmetry_cell_setting 'orthorhombic'
loop_
_space_group_symop_operation_xyz
x,y,z
-x,-y,z
1/4-x,1/4+y,1/4+z
1/4+x,1/4-y,1/4+z
x,1/2+y,1/2+z
-x,1/2-y,1/2+z
1/4-x,3/4+y,3/4+z
1/4+x,3/4-y,3/4+z
1/2+x,y,1/2+z
1/2-x,-y,1/2+z
3/4-x,1/4+y,3/4+z
3/4+x,1/4-y,3/4+z
1/2+x,1/2+y,z
1/2-x,1/2-y,z
3/4-x,3/4+y,1/4+z
3/4+x,3/4-y,1/4+z
loop_
_atom_site_type_symbol
_atom_site_label
_atom_site_fract_x
_atom_site_fract_y
_atom_site_fract_z
Si Si1 0.865402 0.184583 0.832130
Si Si2 0.487588 0.629583 0.871956
Si Si3 0.447578 0.265971 0.673832
Si Si4 0.884639 0.916792 0.583742
Si Si5 0.250000 0.250000 0.336874
Si Si6 0.250000 0.250000 0.907351
Si Si7 0.418740 0.755791 0.574616
O O1 0.926704 0.177292 0.916991
O O2 0.813268 0.236269 0.914828
O O3 0.880203 0.238359 0.704884
O O4 0.845066 0.096529 0.783465
O O5 0.537382 0.692663 0.817864
O O6 0.473063 0.571765 0.747400
O O7 0.508012 0.578867 0.996461
O O8 0.410058 0.185024 0.710423
O O9 0.404273 0.323607 0.586990
O O10 0.508813 0.247277 0.595358
O O11 0.851328 0.939296 0.719593
O O12 0.945628 0.969377 0.566192
#
# Coordination Sequence:
#
# PCOD8187529 Si02
#       7
#    16  16  16  16   8   8  16
#     4  11  19  33  58  89 130 161 216 270 329 386
#     4   9  17  30  49  89 118 147 203 262 319 362
#     4  10  24  35  65  95 130 170 220 272 338 384
#     4  11  20  37  60  97 131 164 219 278 324 403
#     4  11  18  30  56  86 117 166 186 265 336 370
#     4   9  16  28  56  88 117 156 202 273 332 346
#     4  11  21  38  64 100 131 170 221 287 331 387
#
# _framework density 25.697385000000001
#
# number of rings (size 3 to 8) (size 9 to 14) (size 15 to 20)
#    0.000    1.667    3.333    4.000    4.667    0.000 
#    0.000    0.000   11.000    0.000    0.000    0.000 
#    0.000    0.000    0.000    0.000    0.000    0.000 
#
# Total GULP energy -297369.611971 kJ/mol
# GULP energy per Si atom -12390.400499 kJ/mol
# Density = 2.563890 g / cm^3
# Si number density = 25.697385 Si / 1000 Ang^3
#
#
#
# Elastic Constant Matrix: (Units=GPa)
#
#
# Indices 1 2 3 4 5 6 
#
# 1 180.1094 50.1915 24.9599 0.0000 0.0000 0.0000
# 2 50.1915 79.4404 -6.5993 0.0000 0.0000 0.0000
# 3 24.9599 -6.5993 10.1483 0.0000 0.0000 0.0000
# 4 0.0000 0.0000 0.0000 5.8924 0.0000 0.0000
# 5 0.0000 0.0000 0.0000 0.0000 36.2168 0.0000
# 6 0.0000 0.0000 0.0000 0.0000 0.0000 58.9130
#
#
#
# Elastic Compliance Matrix: (Units=1/GPa)
#
#
# Indices 1 2 3 4 5 6 
#
# 1 0.016664 -0.014729 -0.050563 0.000000 0.000000 0.000000
# 2 -0.014729 0.026325 0.053345 0.000000 0.000000 0.000000
# 3 -0.050563 0.053345 0.257587 -0.000001 0.000000 0.000000
# 4 0.000000 0.000000 -0.000001 0.169709 0.000000 0.000000
# 5 0.000000 0.000000 0.000000 0.000000 0.027612 0.000000
# 6 0.000000 0.000000 0.000000 0.000000 0.000000 0.016974
#
#
# Mechanical properties :
#
#
# Convention : Reuss Voigt Hill
#
# Bulk Modulus (GPa) = 3.61425 45.20026 24.40725
# Shear Modulus (GPa) = 7.92403 33.61418 20.76911
#
# Velocity S-wave (km/s) = 1.75792 3.62066 2.84600
# Velocity P-wave (km/s) = 2.35158 5.92508 4.50757
#
# Compressibility (1/GPa) = 0.27668261
#
# Stress axis : x y z
#
# Youngs Moduli (GPa) = 60.01060 37.98620 3.88218
#
# Poissons Ratio (x) = 0.55949 0.19629
# Poissons Ratio (y) = 0.88388 -0.20709
# Poissons Ratio (z) = 3.03429 -2.02636
#
# Static dielectric constant tensor:
#      x y z
#    x 5.293190 0.000000 0.000000 
#    y 0.000000 4.769320 0.000000 
#    z 0.000000 0.000000 3.891360 
# 
# 
# High freq. dielectric constant tensor:
#      x y z
#    x 2.065820 0.000000 0.000000 
#    y 0.000000 2.031550 0.000000 
#    z 0.000000 0.000000 1.970000 
# 
# From -- ./inp_files/6710.got.cif
#   From: 2010.06.25/outbox.cif.g09.slc.cpg/sg43_4_cif.got.tgz:6710.got - 2010.06.26 16:48:59.
