data_PCOD8187308
_publ_section_title
;
Structure prediction by ZEFSAII (Michael W. Deem and Ramdas Pophale) SiO2 
 PCOD8187308
Probable space group: F D D 2
;
_chemical_formula_sum "Si O2"
_cell_formula_units_Z 88
_cell_length_a 29.526827
_cell_length_b 12.116020
_cell_length_c 10.237867
_cell_angle_alpha 90.000000
_cell_angle_beta 90.000000
_cell_angle_gamma 90.000000
_cell_volume 3662.572619
_symmetry_space_group_name_H-M "F D D 2"
_symmetry_group_IT_number 43
_symmetry_cell_setting 'orthorhombic'
loop_
_space_group_symop_operation_xyz
x,y,z
-x,-y,z
1/4-x,1/4+y,1/4+z
1/4+x,1/4-y,1/4+z
x,1/2+y,1/2+z
-x,1/2-y,1/2+z
1/4-x,3/4+y,3/4+z
1/4+x,3/4-y,3/4+z
1/2+x,y,1/2+z
1/2-x,-y,1/2+z
3/4-x,1/4+y,3/4+z
3/4+x,1/4-y,3/4+z
1/2+x,1/2+y,z
1/2-x,1/2-y,z
3/4-x,3/4+y,1/4+z
3/4+x,3/4-y,1/4+z
loop_
_atom_site_type_symbol
_atom_site_label
_atom_site_fract_x
_atom_site_fract_y
_atom_site_fract_z
Si Si1 0.250000 0.250000 0.670750
Si Si2 0.417094 0.631176 0.809551
Si Si3 0.019200 0.172644 0.219711
Si Si4 0.572556 0.212654 0.233223
Si Si5 0.428718 0.936650 0.490271
Si Si6 0.416588 0.484028 0.568130
O O1 0.223024 0.341424 0.589984
O O2 0.290958 0.300953 0.756494
O O3 0.453575 0.715743 0.751067
O O4 0.435189 0.563892 0.937469
O O5 0.367976 0.688313 0.824996
O O6 0.404150 0.540146 0.703426
O O7 0.965606 0.195006 0.216526
O O8 0.032636 0.107083 0.088347
O O9 0.567679 0.144365 0.366772
O O10 0.567621 0.139630 0.102324
O O11 0.622196 0.268305 0.227282
#
# Coordination Sequence:
#
# PCOD8187308 Si02
#       6
#     8  16  16  16  16  16
#     4  12  28  46  64 104 142 192 242 296 364 446
#     4  10  21  45  80 102 143 195 241 318 367 440
#     4  12  26  43  70 108 153 194 241 310 367 443
#     4  10  23  42  77 103 140 192 232 312 363 442
#     4  10  22  44  73 113 139 192 261 293 382 447
#     4  10  22  46  73 105 135 185 251 289 377 445
#
# _framework density 24.026827999999998
#
# number of rings (size 3 to 8) (size 9 to 14) (size 15 to 20)
#    0.000    1.455    1.818    2.182    7.636    3.636 
#    6.545    0.000    0.000    0.000    0.000    0.000 
#    0.000    0.000    0.000    0.000    0.000    0.000 
#
# Total GULP energy -272650.844400 kJ/mol
# GULP energy per Si atom -12393.220200 kJ/mol
# Density = 2.397214 g / cm^3
# Si number density = 24.026828 Si / 1000 Ang^3
#
#
#
# Elastic Constant Matrix: (Units=GPa)
#
#
# Indices 1 2 3 4 5 6 
#
# 1 166.9696 27.0237 49.8592 0.0000 0.0000 0.0000
# 2 27.0237 82.5148 39.4180 0.0000 0.0000 0.0000
# 3 49.8592 39.4180 103.9601 0.0000 0.0000 0.0000
# 4 0.0000 0.0000 0.0000 30.1843 0.0000 0.0000
# 5 0.0000 0.0000 0.0000 0.0000 42.4573 0.0000
# 6 0.0000 0.0000 0.0000 0.0000 0.0000 19.5453
#
#
#
# Elastic Compliance Matrix: (Units=1/GPa)
#
#
# Indices 1 2 3 4 5 6 
#
# 1 0.007038 -0.000846 -0.003055 0.000000 0.000000 0.000000
# 2 -0.000846 0.014901 -0.005244 0.000000 0.000000 0.000000
# 3 -0.003055 -0.005244 0.013073 0.000000 0.000000 0.000000
# 4 0.000000 0.000000 0.000000 0.033130 0.000000 0.000000
# 5 0.000000 0.000000 0.000000 0.000000 0.023553 0.000000
# 6 0.000000 0.000000 0.000000 0.000000 0.000000 0.051163
#
#
# Mechanical properties :
#
#
# Convention : Reuss Voigt Hill
#
# Bulk Modulus (GPa) = 59.80074 65.11624 62.45849
# Shear Modulus (GPa) = 29.98999 34.24697 32.11848
#
# Velocity S-wave (km/s) = 3.53680 3.77949 3.66016
# Velocity P-wave (km/s) = 6.45150 6.79753 6.62677
#
# Compressibility (1/GPa) = 0.01672220
#
# Stress axis : x y z
#
# Youngs Moduli (GPa) = 142.08162 67.10816 76.49532
#
# Poissons Ratio (x) = 0.05675 0.23368
# Poissons Ratio (y) = 0.12016 0.40118
# Poissons Ratio (z) = 0.43404 0.35195
#
# Static dielectric constant tensor:
#      x y z
#    x 4.307140 0.000000 0.000000 
#    y 0.000000 4.242180 0.000000 
#    z 0.000000 0.000000 4.317550 
# 
# 
# High freq. dielectric constant tensor:
#      x y z
#    x 1.963090 0.000000 0.000000 
#    y 0.000000 1.943270 0.000000 
#    z 0.000000 0.000000 1.948610 
# 
# From -- ./inp_files/8216.got.cif
#   From: 2010.06.25/outbox.cif.g09.slc.cpg/sg43_5_cif.got.tgz:8216.got - 2010.06.26 16:48:59.
