data_PCOD8187876
_publ_section_title
;
Structure prediction by ZEFSAII (Michael W. Deem and Ramdas Pophale) SiO2 
 PCOD8187876
Probable space group: I M M 2
;
_chemical_formula_sum "Si O2"
_cell_formula_units_Z 48
_cell_length_a 28.640377
_cell_length_b 23.119580
_cell_length_c 5.221699
_cell_angle_alpha 90.000000
_cell_angle_beta 90.000000
_cell_angle_gamma 90.000000
_cell_volume 3457.566202
_symmetry_space_group_name_H-M "I M M 2"
_symmetry_group_IT_number 44
_symmetry_cell_setting 'orthorhombic'
loop_
_space_group_symop_operation_xyz
x,y,z
-x,-y,z
-x,y,z
x,-y,z
1/2+x,1/2+y,1/2+z
1/2-x,1/2-y,1/2+z
1/2-x,1/2+y,1/2+z
1/2+x,1/2-y,1/2+z
loop_
_atom_site_type_symbol
_atom_site_label
_atom_site_fract_x
_atom_site_fract_y
_atom_site_fract_z
Si Si1 0.286716 0.431901 0.389120
Si Si2 0.704615 0.629301 0.881310
Si Si3 0.296138 0.872815 0.108344
Si Si4 0.552383 0.931296 0.686835
Si Si5 0.719624 0.248051 0.921575
Si Si6 0.893106 0.431309 0.686749
O O1 0.292266 0.500000 0.405569
O O2 0.315173 0.402131 0.625369
O O3 0.231911 0.413642 0.405083
O O4 0.308750 0.409266 0.125164
O O5 0.761277 0.635725 0.850763
O O6 0.685554 0.695244 0.913535
O O7 0.308834 0.810685 0.982062
O O8 0.342339 0.903697 0.203661
O O9 0.500000 0.905707 0.693296
O O10 0.580475 0.908993 0.933865
O O11 0.550046 0.000000 0.689216
O O12 0.577931 0.909327 0.431395
O O13 0.742786 0.241093 0.644653
O O14 0.887563 0.500000 0.687136
#
# Coordination Sequence:
#
# PCOD8187876 Si02
#       6
#     8   8   8   8   8   8
#     4  10  18  26  37  51  72  92 115 147 187 220
#     4   9  18  28  38  51  69  98 120 141 180 231
#     4   9  20  26  40  55  75  89 118 152 191 222
#     4   9  18  31  42  51  68  94 119 141 177 234
#     4  10  16  29  40  51  68  97 124 143 173 229
#     4  10  19  27  40  58  73  89 114 152 195 226
#
# _framework density 13.882599000000001
#
# number of rings (size 3 to 8) (size 9 to 14) (size 15 to 20)
#    1.000    1.500    1.667    1.500    2.333    2.000 
#    0.000    0.000    0.000    0.000    0.000    0.000 
#    0.000    0.000    0.000    0.000    0.000    0.000 
#
# Total GULP energy -297328.782918 kJ/mol
# GULP energy per Si atom -12388.699288 kJ/mol
# Density = 1.385100 g / cm^3
# Si number density = 13.882599 Si / 1000 Ang^3
#
#
#
# Elastic Constant Matrix: (Units=GPa)
#
#
# Indices 1 2 3 4 5 6 
#
# 1 18.8638 -14.9287 -2.7710 0.0000 0.0000 0.0000
# 2 -14.9287 77.7567 17.3821 0.0000 0.0000 0.0000
# 3 -2.7710 17.3821 88.1532 0.0000 0.0000 0.0000
# 4 0.0000 0.0000 0.0000 19.3372 0.0000 0.0000
# 5 0.0000 0.0000 0.0000 0.0000 10.6233 0.0000
# 6 0.0000 0.0000 0.0000 0.0000 0.0000 7.5302
#
#
#
# Elastic Compliance Matrix: (Units=1/GPa)
#
#
# Indices 1 2 3 4 5 6 
#
# 1 0.062524 0.012098 -0.000420 0.000000 0.000000 0.000000
# 2 0.012098 0.015795 -0.002734 0.000000 0.000000 0.000000
# 3 -0.000420 -0.002734 0.011870 0.000000 0.000000 0.000000
# 4 0.000000 0.000000 0.000000 0.051714 0.000000 0.000000
# 5 0.000000 0.000000 0.000000 0.000000 0.094132 0.000000
# 6 0.000000 0.000000 0.000000 0.000000 0.000000 0.132799
#
#
# Mechanical properties :
#
#
# Convention : Reuss Voigt Hill
#
# Bulk Modulus (GPa) = 9.25273 20.45984 14.85628
# Shear Modulus (GPa) = 12.92087 19.83756 16.37921
#
# Velocity S-wave (km/s) = 3.05409 3.78425 3.43860
# Velocity P-wave (km/s) = 4.37219 5.81926 5.14684
#
# Compressibility (1/GPa) = 0.10807625
#
# Stress axis : x y z
#
# Youngs Moduli (GPa) = 15.99381 63.31288 84.24743
#
# Poissons Ratio (x) = -0.76597 0.03540
# Poissons Ratio (y) = -0.19349 0.23034
# Poissons Ratio (z) = 0.00672 0.17310
#
# Static dielectric constant tensor:
#      x y z
#    x 2.232150 0.000000 0.000000 
#    y 0.000000 2.731590 0.000000 
#    z 0.000000 0.000000 2.895190 
# 
# 
# High freq. dielectric constant tensor:
#      x y z
#    x 1.452840 0.000000 0.000000 
#    y 0.000000 1.521160 0.000000 
#    z 0.000000 0.000000 1.551640 
# 
# From -- ./inp_files/2782.got.cif
#   From: 2010.03.12/outbox.cif.g09.slc.cpg/sg44_2_cif.got.tgz:2782.got - 2010.04.14 02:36:11.
