data_PCOD8187280
_publ_section_title
;
Structure prediction by ZEFSAII (Michael W. Deem and Ramdas Pophale) SiO2 
 PCOD8187280
Probable space group: F D D 2
;
_chemical_formula_sum "Si O2"
_cell_formula_units_Z 64
_cell_length_a 33.580974
_cell_length_b 7.876222
_cell_length_c 12.887219
_cell_angle_alpha 90.000000
_cell_angle_beta 90.000000
_cell_angle_gamma 90.000000
_cell_volume 3408.556098
_symmetry_space_group_name_H-M "F D D 2"
_symmetry_group_IT_number 43
_symmetry_cell_setting 'orthorhombic'
loop_
_space_group_symop_operation_xyz
x,y,z
-x,-y,z
1/4-x,1/4+y,1/4+z
1/4+x,1/4-y,1/4+z
x,1/2+y,1/2+z
-x,1/2-y,1/2+z
1/4-x,3/4+y,3/4+z
1/4+x,3/4-y,3/4+z
1/2+x,y,1/2+z
1/2-x,-y,1/2+z
3/4-x,1/4+y,3/4+z
3/4+x,1/4-y,3/4+z
1/2+x,1/2+y,z
1/2-x,1/2-y,z
3/4-x,3/4+y,1/4+z
3/4+x,3/4-y,1/4+z
loop_
_atom_site_type_symbol
_atom_site_label
_atom_site_fract_x
_atom_site_fract_y
_atom_site_fract_z
Si Si1 0.545378 0.827059 0.795670
Si Si2 0.322260 0.437949 0.768803
Si Si3 0.543936 0.186044 0.720943
Si Si4 0.410434 0.994095 0.209446
O O1 0.501938 0.793045 0.750664
O O2 0.574571 0.684410 0.752026
O O3 0.562130 0.010265 0.761935
O O4 0.543614 0.835837 0.920525
O O5 0.363703 0.515424 0.728729
O O6 0.330455 0.263911 0.835190
O O7 0.299532 0.568132 0.845823
O O8 0.567791 0.347970 0.768439
#
# Coordination Sequence:
#
# PCOD8187280 Si02
#       4
#    16  16  16  16
#     4  11  20  43  60  87 126 157 200 252 300 358
#     4  10  22  42  61  90 122 156 207 247 297 367
#     4   9  24  38  60  95 115 158 211 233 307 368
#     4  10  21  43  60  89 122 159 203 249 301 358
#
# _framework density 18.776278000000001
#
# number of rings (size 3 to 8) (size 9 to 14) (size 15 to 20)
#    1.500    0.500    2.500    0.750    0.000    6.000 
#   13.500    0.000    0.000    0.000    0.000    0.000 
#    0.000    0.000    0.000    0.000    0.000    0.000 
#
# Total GULP energy -198225.696352 kJ/mol
# GULP energy per Si atom -12389.106022 kJ/mol
# Density = 1.873354 g / cm^3
# Si number density = 18.776278 Si / 1000 Ang^3
#
#
#
# Elastic Constant Matrix: (Units=GPa)
#
#
# Indices 1 2 3 4 5 6 
#
# 1 99.6409 39.9231 47.8579 0.0000 0.0000 0.0000
# 2 39.9231 111.5436 39.3704 0.0000 0.0000 0.0000
# 3 47.8579 39.3704 149.8802 0.0000 0.0000 0.0000
# 4 0.0000 0.0000 0.0000 31.6727 0.0000 0.0000
# 5 0.0000 0.0000 0.0000 0.0000 35.8249 0.0000
# 6 0.0000 0.0000 0.0000 0.0000 0.0000 12.1010
#
#
#
# Elastic Compliance Matrix: (Units=1/GPa)
#
#
# Indices 1 2 3 4 5 6 
#
# 1 0.012993 -0.003512 -0.003226 0.000000 0.000000 0.000000
# 2 -0.003512 0.010830 -0.001724 0.000000 0.000000 0.000000
# 3 -0.003226 -0.001724 0.008155 0.000000 0.000000 0.000000
# 4 0.000000 0.000000 0.000000 0.031573 0.000000 0.000000
# 5 0.000000 0.000000 0.000000 0.000000 0.027914 0.000000
# 6 0.000000 0.000000 0.000000 0.000000 0.000000 0.082638
#
#
# Mechanical properties :
#
#
# Convention : Reuss Voigt Hill
#
# Bulk Modulus (GPa) = 66.42294 68.37415 67.39855
# Shear Modulus (GPa) = 25.50455 31.51393 28.50924
#
# Velocity S-wave (km/s) = 3.68956 4.10126 3.90085
# Velocity P-wave (km/s) = 7.32143 7.67603 7.50082
#
# Compressibility (1/GPa) = 0.01505504
#
# Stress axis : x y z
#
# Youngs Moduli (GPa) = 76.96712 92.33356 122.62541
#
# Poissons Ratio (x) = 0.32423 0.39562
# Poissons Ratio (y) = 0.27027 0.21136
# Poissons Ratio (z) = 0.24831 0.15915
#
# Static dielectric constant tensor:
#      x y z
#    x 3.302480 0.000000 0.000000 
#    y 0.000000 3.413250 0.000000 
#    z 0.000000 0.000000 3.464870 
# 
# 
# High freq. dielectric constant tensor:
#      x y z
#    x 1.730840 0.000000 0.000000 
#    y 0.000000 1.721140 0.000000 
#    z 0.000000 0.000000 1.726250 
# 
# From -- ./inp_files/8137.got.cif
#   From: 2010.06.25/outbox.cif.g09.slc.cpg/sg43_5_cif.got.tgz:8137.got - 2010.06.26 16:48:59.
