data_PCOD8187821
_publ_section_title
;
Structure prediction by ZEFSAII (Michael W. Deem and Ramdas Pophale) SiO2 
 PCOD8187821
Probable space group: F D D 2
;
_chemical_formula_sum "Si O2"
_cell_formula_units_Z 120
_cell_length_a 23.639874
_cell_length_b 25.760521
_cell_length_c 8.286062
_cell_angle_alpha 90.000000
_cell_angle_beta 90.000000
_cell_angle_gamma 90.000000
_cell_volume 5046.008506
_symmetry_space_group_name_H-M "F D D 2"
_symmetry_group_IT_number 43
_symmetry_cell_setting 'orthorhombic'
loop_
_space_group_symop_operation_xyz
x,y,z
-x,-y,z
1/4-x,1/4+y,1/4+z
1/4+x,1/4-y,1/4+z
x,1/2+y,1/2+z
-x,1/2-y,1/2+z
1/4-x,3/4+y,3/4+z
1/4+x,3/4-y,3/4+z
1/2+x,y,1/2+z
1/2-x,-y,1/2+z
3/4-x,1/4+y,3/4+z
3/4+x,1/4-y,3/4+z
1/2+x,1/2+y,z
1/2-x,1/2-y,z
3/4-x,3/4+y,1/4+z
3/4+x,3/4-y,1/4+z
loop_
_atom_site_type_symbol
_atom_site_label
_atom_site_fract_x
_atom_site_fract_y
_atom_site_fract_z
Si Si1 0.980405 0.103272 0.567270
Si Si2 0.453301 0.917495 0.379561
Si Si3 0.402272 0.549582 0.333905
Si Si4 0.917939 0.707837 0.121706
Si Si5 0.914750 0.872825 0.363227
Si Si6 0.500000 0.000000 0.624206
Si Si7 0.084063 0.792171 0.997938
Si Si8 0.290458 0.565594 0.817783
O O1 0.928934 0.067218 0.504423
O O2 0.962298 0.162997 0.579598
O O3 0.999598 0.081906 0.740125
O O4 0.032222 0.098386 0.443709
O O5 0.394753 0.941554 0.316391
O O6 0.440444 0.858710 0.437746
O O7 0.478781 0.951365 0.522016
O O8 0.377437 0.600599 0.248133
O O9 0.448765 0.520933 0.227874
O O10 0.351308 0.508355 0.354019
O O11 0.922680 0.721656 0.310409
O O12 0.934850 0.759144 0.019884
O O13 0.882182 0.914412 0.255544
O O14 0.936419 0.828064 0.245301
O O15 0.027194 0.814297 0.075293
#
# Coordination Sequence:
#
# PCOD8187821 Si02
#       8
#    16  16  16  16  16   8  16  16
#     4  12  28  46  73 113 157 193 257 334 395 470
#     4  12  26  48  74 115 153 204 259 330 397 468
#     4  12  25  48  72 108 150 202 253 319 392 471
#     4  12  26  47  75 114 152 202 260 320 397 475
#     4  12  24  47  75 109 144 203 251 313 388 468
#     4  12  24  46  78 106 144 206 268 302 396 476
#     4  12  24  47  79 108 148 200 258 312 394 471
#     4  12  25  47  79 109 154 204 260 322 389 480
#
# _framework density 23.781172000000002
#
# number of rings (size 3 to 8) (size 9 to 14) (size 15 to 20)
#    0.000    0.000    5.333    4.800    0.000    2.667 
#    0.000    1.333    0.000    0.000    0.000    0.000 
#    0.000    0.000    0.000    0.000    0.000    0.000 
#
# Total GULP energy -372225.878409 kJ/mol
# GULP energy per Si atom -12407.529280 kJ/mol
# Density = 2.372705 g / cm^3
# Si number density = 23.781172 Si / 1000 Ang^3
#
#
#
# Elastic Constant Matrix: (Units=GPa)
#
#
# Indices 1 2 3 4 5 6 
#
# 1 96.6974 49.5804 36.6128 0.0197 -0.0215 -0.0125
# 2 49.5804 139.7930 33.9289 0.0159 -0.0034 -0.0053
# 3 36.6128 33.9289 87.3633 0.0552 -0.0812 -0.0274
# 4 0.0197 0.0159 0.0552 28.9398 -0.0455 -0.0175
# 5 -0.0215 -0.0034 -0.0812 -0.0455 36.8602 0.0318
# 6 -0.0125 -0.0053 -0.0274 -0.0175 0.0318 51.5592
#
#
#
# Elastic Compliance Matrix: (Units=1/GPa)
#
#
# Indices 1 2 3 4 5 6 
#
# 1 0.013990 -0.003907 -0.004346 0.000001 -0.000002 0.000001
# 2 -0.003907 0.008989 -0.001854 0.000001 -0.000006 -0.000001
# 3 -0.004346 -0.001854 0.013988 -0.000023 0.000028 0.000006
# 4 0.000001 0.000001 -0.000023 0.034555 0.000043 0.000012
# 5 -0.000002 -0.000006 0.000028 0.000043 0.027130 -0.000017
# 6 0.000001 -0.000001 0.000006 0.000012 -0.000017 0.019395
#
#
# Mechanical properties :
#
#
# Convention : Reuss Voigt Hill
#
# Bulk Modulus (GPa) = 59.68745 62.67755 61.18250
# Shear Modulus (GPa) = 34.75981 37.05395 35.90688
#
# Velocity S-wave (km/s) = 3.82730 3.95159 3.88994
# Velocity P-wave (km/s) = 6.68462 6.87264 6.77928
#
# Compressibility (1/GPa) = 0.01675394
#
# Stress axis : x y z
#
# Youngs Moduli (GPa) = 71.47775 111.24601 71.49184
#
# Poissons Ratio (x) = 0.43466 0.31069
# Poissons Ratio (y) = 0.27928 0.13252
# Poissons Ratio (z) = 0.31062 0.20620
#
# Static dielectric constant tensor:
#      x y z
#    x 4.570310 0.000040 0.000090 
#    y 0.000040 4.437430 -0.000020 
#    z 0.000090 -0.000020 4.106270 
# 
# 
# High freq. dielectric constant tensor:
#      x y z
#    x 1.958700 0.000000 0.000000 
#    y 0.000000 1.957480 0.000000 
#    z 0.000000 0.000000 1.929670 
# 
# From -- ./inp_files/3891.got.cif
#   From: 2010.06.25/outbox.cif.g09.slc.cpg/sg43_2_cif.got.tgz:3891.got - 2010.06.26 16:48:59.
