data_PCOD8187331
_publ_section_title
;
Structure prediction by ZEFSAII (Michael W. Deem and Ramdas Pophale) SiO2 
 PCOD8187331
Probable space group: F D D 2
;
_chemical_formula_sum "Si O2"
_cell_formula_units_Z 80
_cell_length_a 4.991866
_cell_length_b 29.058197
_cell_length_c 25.535155
_cell_angle_alpha 90.000000
_cell_angle_beta 90.000000
_cell_angle_gamma 90.000000
_cell_volume 3703.992349
_symmetry_space_group_name_H-M "F D D 2"
_symmetry_group_IT_number 43
_symmetry_cell_setting 'orthorhombic'
loop_
_space_group_symop_operation_xyz
x,y,z
-x,-y,z
1/4-x,1/4+y,1/4+z
1/4+x,1/4-y,1/4+z
x,1/2+y,1/2+z
-x,1/2-y,1/2+z
1/4-x,3/4+y,3/4+z
1/4+x,3/4-y,3/4+z
1/2+x,y,1/2+z
1/2-x,-y,1/2+z
3/4-x,1/4+y,3/4+z
3/4+x,1/4-y,3/4+z
1/2+x,1/2+y,z
1/2-x,1/2-y,z
3/4-x,3/4+y,1/4+z
3/4+x,3/4-y,1/4+z
loop_
_atom_site_type_symbol
_atom_site_label
_atom_site_fract_x
_atom_site_fract_y
_atom_site_fract_z
Si Si1 0.239754 0.469197 0.659950
Si Si2 0.058074 0.396377 0.733264
Si Si3 0.512766 0.104926 0.086065
Si Si4 0.511896 0.780862 0.268406
Si Si5 0.940057 0.648341 0.188938
O O1 0.500000 0.500000 0.668673
O O2 0.290068 0.429152 0.617565
O O3 0.000000 0.500000 0.637347
O O4 0.149022 0.447595 0.715907
O O5 0.749813 0.388844 0.717601
O O6 0.077948 0.386819 0.795146
O O7 0.249001 0.360608 0.702698
O O8 0.384906 0.141669 0.127026
O O9 0.287366 0.073992 0.057348
O O10 0.750000 0.750000 0.291732
O O11 0.612947 0.800443 0.211740
O O12 0.250000 0.750000 0.262622
#
# Coordination Sequence:
#
# PCOD8187331 Si02
#       5
#    16  16  16  16  16
#     4  11  23  39  60  91 120 150 198 258 302 348
#     4  10  22  39  58  86 121 157 196 243 300 365
#     4  10  23  40  64  86 118 164 204 240 302 376
#     4  11  23  39  60  91 120 150 198 258 302 348
#     4  10  22  39  58  86 121 157 196 243 300 365
#
# _framework density 21.598319
#
# number of rings (size 3 to 8) (size 9 to 14) (size 15 to 20)
#    0.000    1.600    0.000    5.400    0.000   19.200 
#    0.000    2.000    0.000    0.000    0.000    0.000 
#    0.000    0.000    0.000    0.000    0.000    0.000 
#
# Total GULP energy -247874.385336 kJ/mol
# GULP energy per Si atom -12393.719267 kJ/mol
# Density = 2.154916 g / cm^3
# Si number density = 21.598319 Si / 1000 Ang^3
#
#
#
# Elastic Constant Matrix: (Units=GPa)
#
#
# Indices 1 2 3 4 5 6 
#
# 1 99.6626 26.1447 31.1601 0.0000 0.0000 0.0000
# 2 26.1447 70.8575 67.8805 0.0000 0.0000 0.0000
# 3 31.1601 67.8805 170.5381 0.0000 0.0000 0.0000
# 4 0.0000 0.0000 0.0000 16.7666 0.0000 0.0000
# 5 0.0000 0.0000 0.0000 0.0000 22.7926 0.0000
# 6 0.0000 0.0000 0.0000 0.0000 0.0000 30.8672
#
#
#
# Elastic Compliance Matrix: (Units=1/GPa)
#
#
# Indices 1 2 3 4 5 6 
#
# 1 0.011153 -0.003496 -0.000646 0.000000 0.000000 0.000000
# 2 -0.003496 0.023907 -0.008877 0.000000 0.000000 0.000000
# 3 -0.000646 -0.008877 0.009515 0.000000 0.000000 0.000000
# 4 0.000000 0.000000 0.000000 0.059643 0.000000 0.000000
# 5 0.000000 0.000000 0.000000 0.000000 0.043874 0.000000
# 6 0.000000 0.000000 0.000000 0.000000 0.000000 0.032397
#
#
# Mechanical properties :
#
#
# Convention : Reuss Voigt Hill
#
# Bulk Modulus (GPa) = 53.94785 65.71430 59.83107
# Shear Modulus (GPa) = 23.50663 28.47681 25.99172
#
# Velocity S-wave (km/s) = 3.30260 3.63502 3.47279
# Velocity P-wave (km/s) = 6.29086 6.93610 6.62135
#
# Compressibility (1/GPa) = 0.01853642
#
# Stress axis : x y z
#
# Youngs Moduli (GPa) = 89.66159 41.82895 105.09423
#
# Poissons Ratio (x) = 0.14624 0.06792
# Poissons Ratio (y) = 0.31346 0.93293
# Poissons Ratio (z) = 0.05795 0.37132
#
# Static dielectric constant tensor:
#      x y z
#    x 4.343150 0.000000 0.000000 
#    y 0.000000 4.120750 0.000000 
#    z 0.000000 0.000000 4.269360 
# 
# 
# High freq. dielectric constant tensor:
#      x y z
#    x 1.855950 0.000000 0.000000 
#    y 0.000000 1.829660 0.000000 
#    z 0.000000 0.000000 1.842810 
# 
# From -- ./inp_files/27302.got.cif
#   From: 2010.06.25/outbox.cif.g09.slc.cpg/sg43_14_cif.got.tgz:27302.got - 2010.06.26 16:48:59.
