data_PCOD8187581
_publ_section_title
;
Structure prediction by ZEFSAII (Michael W. Deem and Ramdas Pophale) SiO2 
 PCOD8187581
Probable space group: F D D 2
;
_chemical_formula_sum "Si O2"
_cell_formula_units_Z 88
_cell_length_a 10.518428
_cell_length_b 22.957028
_cell_length_c 15.710133
_cell_angle_alpha 90.000000
_cell_angle_beta 90.000000
_cell_angle_gamma 90.000000
_cell_volume 3793.554818
_symmetry_space_group_name_H-M "F D D 2"
_symmetry_group_IT_number 43
_symmetry_cell_setting 'orthorhombic'
loop_
_space_group_symop_operation_xyz
x,y,z
-x,-y,z
1/4-x,1/4+y,1/4+z
1/4+x,1/4-y,1/4+z
x,1/2+y,1/2+z
-x,1/2-y,1/2+z
1/4-x,3/4+y,3/4+z
1/4+x,3/4-y,3/4+z
1/2+x,y,1/2+z
1/2-x,-y,1/2+z
3/4-x,1/4+y,3/4+z
3/4+x,1/4-y,3/4+z
1/2+x,1/2+y,z
1/2-x,1/2-y,z
3/4-x,3/4+y,1/4+z
3/4+x,3/4-y,1/4+z
loop_
_atom_site_type_symbol
_atom_site_label
_atom_site_fract_x
_atom_site_fract_y
_atom_site_fract_z
Si Si1 0.378250 0.314034 0.783900
Si Si2 0.852057 0.937799 0.810131
Si Si3 0.000000 0.500000 0.173651
Si Si4 0.063748 0.909913 0.349407
Si Si5 0.250000 0.750000 0.702759
Si Si6 0.000000 0.500000 0.723700
Si Si7 0.184418 0.963637 0.081292
O O1 0.435849 0.379163 0.794641
O O2 0.281259 0.304397 0.862478
O O3 0.303352 0.312833 0.693838
O O4 0.483838 0.264611 0.788273
O O5 0.956058 0.831416 0.563518
O O6 0.879313 0.982002 0.731752
O O7 0.895138 0.966858 0.897464
O O8 0.970636 0.945034 0.285715
O O9 0.019027 0.843006 0.348970
O O10 0.178551 0.702474 0.762916
O O11 0.125157 0.487086 0.668881
#
# Coordination Sequence:
#
# PCOD8187581 Si02
#       7
#    16  16   8  16   8   8  16
#     4  12  22  41  73 103 145 189 234 303 362 433
#     4  11  24  45  73 106 144 191 251 291 367 444
#     4  11  25  41  69 106 142 188 241 297 355 435
#     4  12  25  46  73 106 146 191 242 306 369 437
#     4  10  24  50  70 108 146 198 244 304 362 450
#     4  11  27  47  71 108 146 192 251 299 369 449
#     4  11  26  47  72 109 149 192 248 302 374 437
#
# _framework density 23.197239
#
# number of rings (size 3 to 8) (size 9 to 14) (size 15 to 20)
#    0.000    0.727    1.818    6.000    2.545    1.455 
#    0.000    0.000    0.000    0.000    0.000    0.000 
#    0.000    0.000    0.000    0.000    0.000    0.000 
#
# Total GULP energy -272714.954178 kJ/mol
# GULP energy per Si atom -12396.134281 kJ/mol
# Density = 2.314444 g / cm^3
# Si number density = 23.197239 Si / 1000 Ang^3
#
#
#
# Elastic Constant Matrix: (Units=GPa)
#
#
# Indices 1 2 3 4 5 6 
#
# 1 114.2286 53.0878 68.2283 0.0000 0.0000 0.0000
# 2 53.0878 139.5909 76.7577 0.0000 0.0000 0.0000
# 3 68.2283 76.7577 199.2691 0.0000 0.0000 0.0000
# 4 0.0000 0.0000 0.0000 39.5732 0.0000 0.0000
# 5 0.0000 0.0000 0.0000 0.0000 25.5042 0.0000
# 6 0.0000 0.0000 0.0000 0.0000 0.0000 38.7231
#
#
#
# Elastic Compliance Matrix: (Units=1/GPa)
#
#
# Indices 1 2 3 4 5 6 
#
# 1 0.011857 -0.002889 -0.002947 0.000000 0.000000 0.000000
# 2 -0.002889 0.009793 -0.002783 0.000000 0.000000 0.000000
# 3 -0.002947 -0.002783 0.007099 0.000000 0.000000 0.000000
# 4 0.000000 0.000000 0.000000 0.025270 0.000000 0.000000
# 5 0.000000 0.000000 0.000000 0.000000 0.039209 0.000000
# 6 0.000000 0.000000 0.000000 0.000000 0.000000 0.025824
#
#
# Mechanical properties :
#
#
# Convention : Reuss Voigt Hill
#
# Bulk Modulus (GPa) = 86.86960 94.35956 90.61458
# Shear Modulus (GPa) = 35.68175 37.76110 36.72143
#
# Velocity S-wave (km/s) = 3.92623 4.03901 3.98302
# Velocity P-wave (km/s) = 7.62124 7.90676 7.76531
#
# Compressibility (1/GPa) = 0.01151151
#
# Stress axis : x y z
#
# Youngs Moduli (GPa) = 84.33654 102.11605 140.85739
#
# Poissons Ratio (x) = 0.29501 0.41511
# Poissons Ratio (y) = 0.24364 0.39200
# Poissons Ratio (z) = 0.24854 0.28419
#
# Static dielectric constant tensor:
#      x y z
#    x 4.089060 0.000000 0.000000 
#    y 0.000000 4.266000 0.000000 
#    z 0.000000 0.000000 4.587740 
# 
# 
# High freq. dielectric constant tensor:
#      x y z
#    x 1.904270 0.000000 0.000000 
#    y 0.000000 1.913310 0.000000 
#    z 0.000000 0.000000 1.951240 
# 
# From -- ./inp_files/10056.got.cif
#   From: 2010.06.25/outbox.cif.g09.slc.cpg/sg43_6_cif.got.tgz:10056.got - 2010.06.26 16:48:59.
