data_PCOD8187147
_publ_section_title
;
Structure prediction by ZEFSAII (Michael W. Deem and Ramdas Pophale) SiO2 
 PCOD8187147
Probable space group: F D D 2
;
_chemical_formula_sum "Si O2"
_cell_formula_units_Z 112
_cell_length_a 28.396452
_cell_length_b 14.026814
_cell_length_c 14.143823
_cell_angle_alpha 90.000000
_cell_angle_beta 90.000000
_cell_angle_gamma 90.000000
_cell_volume 5633.650897
_symmetry_space_group_name_H-M "F D D 2"
_symmetry_group_IT_number 43
_symmetry_cell_setting 'orthorhombic'
loop_
_space_group_symop_operation_xyz
x,y,z
-x,-y,z
1/4-x,1/4+y,1/4+z
1/4+x,1/4-y,1/4+z
x,1/2+y,1/2+z
-x,1/2-y,1/2+z
1/4-x,3/4+y,3/4+z
1/4+x,3/4-y,3/4+z
1/2+x,y,1/2+z
1/2-x,-y,1/2+z
3/4-x,1/4+y,3/4+z
3/4+x,1/4-y,3/4+z
1/2+x,1/2+y,z
1/2-x,1/2-y,z
3/4-x,3/4+y,1/4+z
3/4+x,3/4-y,1/4+z
loop_
_atom_site_type_symbol
_atom_site_label
_atom_site_fract_x
_atom_site_fract_y
_atom_site_fract_z
Si Si1 0.750000 0.250000 0.866681
Si Si2 0.651284 0.974315 0.090311
Si Si3 0.575614 0.605981 0.668089
Si Si4 0.151284 0.525685 0.800234
Si Si5 0.075614 0.894019 0.222456
Si Si6 0.084391 0.410122 0.389068
Si Si7 0.165609 0.839878 0.751477
Si Si8 0.750000 0.750000 0.023864
O O1 0.725144 0.172460 0.933106
O O2 0.786827 0.191370 0.803639
O O3 0.678547 0.922578 0.176071
O O4 0.600807 0.012092 0.126780
O O5 0.643233 0.900373 0.003898
O O6 0.681691 0.065069 0.054385
O O7 0.568309 0.684931 0.586160
O O8 0.524856 0.577540 0.707439
O O9 0.100807 0.487908 0.763765
O O10 0.143233 0.599627 0.886647
O O11 0.178547 0.577422 0.714474
O O12 0.125000 0.375000 0.320272
O O13 0.105721 0.500000 0.445272
O O14 0.036827 0.441370 0.336906
#
# Coordination Sequence:
#
# PCOD8187147 Si02
#       8
#     8  16  16  16  16  16  16   8
#     4  12  23  40  60  97 124 168 216 273 320 392
#     4  10  20  42  61  92 121 176 203 261 328 377
#     4  10  22  39  67  87 128 167 216 261 320 397
#     4  10  20  42  61  92 121 176 203 261 328 377
#     4  10  22  39  67  87 128 167 216 261 320 397
#     4  12  23  41  64  95 129 169 214 273 329 390
#     4  12  23  41  64  95 129 169 214 273 329 390
#     4  12  23  40  60  97 124 168 216 273 320 392
#
# _framework density 19.880537
#
# number of rings (size 3 to 8) (size 9 to 14) (size 15 to 20)
#    0.000    1.143    5.714    0.429    0.000    0.000 
#    5.143    2.857    0.000   12.000    0.000    0.000 
#    0.000    0.000    0.000    0.000    0.000    0.000 
#
# Total GULP energy -347125.796918 kJ/mol
# GULP energy per Si atom -12397.349890 kJ/mol
# Density = 1.983529 g / cm^3
# Si number density = 19.880537 Si / 1000 Ang^3
#
#
#
# Elastic Constant Matrix: (Units=GPa)
#
#
# Indices 1 2 3 4 5 6 
#
# 1 117.3751 68.2568 74.1264 0.0000 0.0000 0.0000
# 2 68.2568 124.1900 78.8988 0.0000 0.0000 0.0000
# 3 74.1264 78.8988 134.0729 0.0000 0.0000 0.0000
# 4 0.0000 0.0000 0.0000 64.8332 0.0000 0.0000
# 5 0.0000 0.0000 0.0000 0.0000 36.8331 0.0000
# 6 0.0000 0.0000 0.0000 0.0000 0.0000 29.5638
#
#
#
# Elastic Compliance Matrix: (Units=1/GPa)
#
#
# Indices 1 2 3 4 5 6 
#
# 1 0.014580 -0.004619 -0.005343 0.000000 0.000000 0.000000
# 2 -0.004619 0.014323 -0.005875 0.000000 0.000000 0.000000
# 3 -0.005343 -0.005875 0.013870 0.000000 0.000000 0.000000
# 4 0.000000 0.000000 0.000000 0.015424 0.000000 0.000000
# 5 0.000000 0.000000 0.000000 0.000000 0.027149 0.000000
# 6 0.000000 0.000000 0.000000 0.000000 0.000000 0.033825
#
#
# Mechanical properties :
#
#
# Convention : Reuss Voigt Hill
#
# Bulk Modulus (GPa) = 90.09607 90.91133 90.50370
# Shear Modulus (GPa) = 32.35278 36.53641 34.44460
#
# Velocity S-wave (km/s) = 4.03843 4.29161 4.16694
# Velocity P-wave (km/s) = 8.19526 8.38959 8.29300
#
# Compressibility (1/GPa) = 0.01109926
#
# Stress axis : x y z
#
# Youngs Moduli (GPa) = 68.58729 69.81547 72.09810
#
# Poissons Ratio (x) = 0.32248 0.38520
# Poissons Ratio (y) = 0.31681 0.42359
# Poissons Ratio (z) = 0.36645 0.41018
#
# Static dielectric constant tensor:
#      x y z
#    x 3.368140 0.000000 0.000000 
#    y 0.000000 4.266920 0.000000 
#    z 0.000000 0.000000 4.062510 
# 
# 
# High freq. dielectric constant tensor:
#      x y z
#    x 1.732280 0.000000 0.000000 
#    y 0.000000 1.794110 0.000000 
#    z 0.000000 0.000000 1.799190 
# 
# From -- ./inp_files/10211.got.cif
#   From: 2010.06.25/outbox.cif.g09.slc.cpg/sg43_6_cif.got.tgz:10211.got - 2010.06.26 16:48:59.
