data_PCOD8187851
_publ_section_title
;
Structure prediction by ZEFSAII (Michael W. Deem and Ramdas Pophale) SiO2 
 PCOD8187851
Probable space group: F D D 2
;
_chemical_formula_sum "Si O2"
_cell_formula_units_Z 64
_cell_length_a 17.585125
_cell_length_b 23.261251
_cell_length_c 5.992729
_cell_angle_alpha 90.000000
_cell_angle_beta 90.000000
_cell_angle_gamma 90.000000
_cell_volume 2451.337822
_symmetry_space_group_name_H-M "F D D 2"
_symmetry_group_IT_number 43
_symmetry_cell_setting 'orthorhombic'
loop_
_space_group_symop_operation_xyz
x,y,z
-x,-y,z
1/4-x,1/4+y,1/4+z
1/4+x,1/4-y,1/4+z
x,1/2+y,1/2+z
-x,1/2-y,1/2+z
1/4-x,3/4+y,3/4+z
1/4+x,3/4-y,3/4+z
1/2+x,y,1/2+z
1/2-x,-y,1/2+z
3/4-x,1/4+y,3/4+z
3/4+x,1/4-y,3/4+z
1/2+x,1/2+y,z
1/2-x,1/2-y,z
3/4-x,3/4+y,1/4+z
3/4+x,3/4-y,1/4+z
loop_
_atom_site_type_symbol
_atom_site_label
_atom_site_fract_x
_atom_site_fract_y
_atom_site_fract_z
Si Si1 0.058847 0.906326 0.455380
Si Si2 0.625017 0.244278 0.877992
Si Si3 0.758421 0.935687 0.401134
Si Si4 0.047318 0.594128 0.350046
O O1 0.066613 0.951074 0.250290
O O2 0.031768 0.842259 0.386053
O O3 0.140471 0.893425 0.557899
O O4 0.995598 0.930386 0.630039
O O5 0.574398 0.214076 0.685907
O O6 0.673996 0.292228 0.752625
O O7 0.570331 0.268341 0.072194
O O8 0.763603 0.882317 0.231661
#
# Coordination Sequence:
#
# PCOD8187851 Si02
#       4
#    16  16  16  16
#     4  12  27  54  79 116 168 212 277 347 410 506
#     4  12  26  49  88 120 157 228 274 338 442 481
#     4  12  26  55  74 118 166 203 280 348 404 510
#     4  12  27  54  79 116 168 212 277 347 410 506
#
# _framework density 26.108191000000001
#
# number of rings (size 3 to 8) (size 9 to 14) (size 15 to 20)
#    0.000    0.000    5.000    4.500    0.000    1.000 
#    9.000    0.000    0.000    0.000    0.000    0.000 
#    0.000    0.000    0.000    0.000    0.000    0.000 
#
# Total GULP energy -198382.879619 kJ/mol
# GULP energy per Si atom -12398.929976 kJ/mol
# Density = 2.604877 g / cm^3
# Si number density = 26.108191 Si / 1000 Ang^3
#
#
#
# Elastic Constant Matrix: (Units=GPa)
#
#
# Indices 1 2 3 4 5 6 
#
# 1 99.5792 38.8103 40.7615 0.0052 -0.0125 -0.0038
# 2 38.8103 126.9914 46.7342 0.0007 0.0009 -0.0009
# 3 40.7615 46.7342 100.0735 0.0127 -0.0296 -0.0057
# 4 0.0052 0.0007 0.0127 63.7264 -0.0061 0.0009
# 5 -0.0125 0.0009 -0.0296 -0.0061 70.3437 0.0037
# 6 -0.0038 -0.0009 -0.0057 0.0009 0.0037 50.8158
#
#
#
# Elastic Compliance Matrix: (Units=1/GPa)
#
#
# Indices 1 2 3 4 5 6 
#
# 1 0.012617 -0.002372 -0.004031 0.000000 0.000001 0.000000
# 2 -0.002372 0.009955 -0.003683 0.000001 -0.000002 0.000000
# 3 -0.004031 -0.003683 0.013354 -0.000002 0.000005 0.000001
# 4 0.000000 0.000001 -0.000002 0.015692 0.000001 0.000000
# 5 0.000001 -0.000002 0.000005 0.000001 0.014216 -0.000001
# 6 0.000000 0.000000 0.000001 0.000000 -0.000001 0.019679
#
#
# Mechanical properties :
#
#
# Convention : Reuss Voigt Hill
#
# Bulk Modulus (GPa) = 63.47650 64.36180 63.91915
# Shear Modulus (GPa) = 45.07070 50.33303 47.70186
#
# Velocity S-wave (km/s) = 4.15939 4.39551 4.27908
# Velocity P-wave (km/s) = 6.88716 7.10395 6.99640
#
# Compressibility (1/GPa) = 0.01575386
#
# Stress axis : x y z
#
# Youngs Moduli (GPa) = 79.25802 100.45385 74.88173
#
# Poissons Ratio (x) = 0.23832 0.30186
# Poissons Ratio (y) = 0.18803 0.27576
# Poissons Ratio (z) = 0.31951 0.36993
#
# Static dielectric constant tensor:
#      x y z
#    x 4.666130 0.000020 0.000010 
#    y 0.000020 4.665120 -0.000020 
#    z 0.000010 -0.000020 4.672670 
# 
# 
# High freq. dielectric constant tensor:
#      x y z
#    x 2.053570 0.000000 0.000000 
#    y 0.000000 2.056910 0.000000 
#    z 0.000000 0.000000 2.051690 
# 
# From -- ./inp_files/653.got.cif
#   From: 2010.06.25/outbox.cif.g09.slc.cpg/sg43_1_cif.got.tgz:653.got - 2010.06.26 16:48:59.
