data_PCOD8187218
_publ_section_title
;
Structure prediction by ZEFSAII (Michael W. Deem and Ramdas Pophale) SiO2 
 PCOD8187218
Probable space group: F D D 2
;
_chemical_formula_sum "Si O2"
_cell_formula_units_Z 120
_cell_length_a 28.451997
_cell_length_b 24.616680
_cell_length_c 8.347343
_cell_angle_alpha 90.000000
_cell_angle_beta 90.000000
_cell_angle_gamma 90.000000
_cell_volume 5846.426495
_symmetry_space_group_name_H-M "F D D 2"
_symmetry_group_IT_number 43
_symmetry_cell_setting 'orthorhombic'
loop_
_space_group_symop_operation_xyz
x,y,z
-x,-y,z
1/4-x,1/4+y,1/4+z
1/4+x,1/4-y,1/4+z
x,1/2+y,1/2+z
-x,1/2-y,1/2+z
1/4-x,3/4+y,3/4+z
1/4+x,3/4-y,3/4+z
1/2+x,y,1/2+z
1/2-x,-y,1/2+z
3/4-x,1/4+y,3/4+z
3/4+x,1/4-y,3/4+z
1/2+x,1/2+y,z
1/2-x,1/2-y,z
3/4-x,3/4+y,1/4+z
3/4+x,3/4-y,1/4+z
loop_
_atom_site_type_symbol
_atom_site_label
_atom_site_fract_x
_atom_site_fract_y
_atom_site_fract_z
Si Si1 0.492301 0.766184 0.885240
Si Si2 0.673266 0.083230 0.124206
Si Si3 0.856919 0.249374 0.535405
Si Si4 0.500000 0.500000 0.286842
Si Si5 0.170466 0.702426 0.224042
Si Si6 0.152816 0.030853 0.305620
Si Si7 0.051308 0.190302 0.066760
Si Si8 0.822984 0.685331 0.330715
O O1 0.525814 0.815775 0.949065
O O2 0.481594 0.783220 0.703438
O O3 0.444454 0.755666 0.980754
O O4 0.527488 0.713309 0.901247
O O5 0.630827 0.047664 0.186238
O O6 0.657166 0.141118 0.186463
O O7 0.673597 0.075578 0.929829
O O8 0.825570 0.285523 0.413811
O O9 0.896425 0.289198 0.606485
O O10 0.825155 0.221643 0.670872
O O11 0.471304 0.540032 0.399182
O O12 0.466893 0.462026 0.185334
O O13 0.130918 0.739035 0.143544
O O14 0.123854 0.063335 0.168485
O O15 0.054634 0.125594 0.051678
#
# Coordination Sequence:
#
# PCOD8187218 Si02
#       8
#    16  16  16   8  16  16  16  16
#     4  11  21  40  61  98 132 167 225 284 319 398
#     4  10  21  39  63  91 127 173 220 267 341 396
#     4  10  22  41  62  93 130 163 222 281 325 411
#     4  10  24  40  60  90 126 166 224 268 326 414
#     4  10  22  43  62  87 127 173 217 272 336 400
#     4  10  22  38  64  91 126 170 223 278 322 404
#     4  11  23  40  64  96 135 171 218 277 337 393
#     4  11  23  42  64  95 129 174 223 275 347 392
#
# _framework density 20.525358000000001
#
# number of rings (size 3 to 8) (size 9 to 14) (size 15 to 20)
#    0.000    1.600    2.667    1.600    1.867    0.533 
#    2.400    1.333    0.000    0.000    0.000    0.000 
#    0.000    0.000    0.000    0.000    0.000    0.000 
#
# Total GULP energy -371721.928962 kJ/mol
# GULP energy per Si atom -12390.730965 kJ/mol
# Density = 2.047864 g / cm^3
# Si number density = 20.525358 Si / 1000 Ang^3
#
#
#
# Elastic Constant Matrix: (Units=GPa)
#
#
# Indices 1 2 3 4 5 6 
#
# 1 100.7042 31.1406 46.9797 0.0029 -0.0111 -0.0007
# 2 31.1406 123.8537 54.4677 0.0556 -0.1902 -0.0005
# 3 46.9797 54.4677 106.4250 0.0331 -0.1562 0.0176
# 4 0.0029 0.0556 0.0331 96.1733 -1.0431 -0.0142
# 5 -0.0111 -0.1902 -0.1562 -1.0431 176.0595 0.0244
# 6 -0.0007 -0.0005 0.0176 -0.0142 0.0244 14.5396
#
#
#
# Elastic Compliance Matrix: (Units=1/GPa)
#
#
# Indices 1 2 3 4 5 6 
#
# 1 0.012588 -0.000931 -0.005080 0.000002 -0.000005 0.000007
# 2 -0.000931 0.010488 -0.004957 -0.000004 0.000007 0.000006
# 3 -0.005080 -0.004957 0.014176 -0.000002 0.000007 -0.000018
# 4 0.000002 -0.000004 -0.000002 0.010399 0.000062 0.000010
# 5 -0.000005 0.000007 0.000007 0.000062 0.005680 -0.000009
# 6 0.000007 0.000006 -0.000018 0.000010 -0.000009 0.068778
#
#
# Mechanical properties :
#
#
# Convention : Reuss Voigt Hill
#
# Bulk Modulus (GPa) = 65.29202 66.23986 65.76594
# Shear Modulus (GPa) = 33.52340 70.58080 52.05210
#
# Velocity S-wave (km/s) = 4.04575 5.87041 5.04132
# Velocity P-wave (km/s) = 7.32828 8.84824 8.12388
#
# Compressibility (1/GPa) = 0.01531581
#
# Stress axis : x y z
#
# Youngs Moduli (GPa) = 79.44096 95.34753 70.54261
#
# Poissons Ratio (x) = 0.08875 0.35839
# Poissons Ratio (y) = 0.07394 0.34966
# Poissons Ratio (z) = 0.40359 0.47262
#
# Static dielectric constant tensor:
#      x y z
#    x 3.861280 0.000090 0.000000 
#    y 0.000090 3.697450 -0.000060 
#    z 0.000000 -0.000060 4.054000 
# 
# 
# High freq. dielectric constant tensor:
#      x y z
#    x 1.812470 0.000000 0.000000 
#    y 0.000000 1.794630 0.000000 
#    z 0.000000 0.000000 1.800690 
# 
# From -- ./inp_files/3887.got.cif
#   From: 2010.06.25/outbox.cif.g09.slc.cpg/sg43_2_cif.got.tgz:3887.got - 2010.06.26 16:48:59.
