data_PCOD8188663
_publ_section_title
;
Structure prediction by ZEFSAII (Michael W. Deem and Ramdas Pophale) SiO2 
 PCOD8188663
Probable space group: I M M 2
;
_chemical_formula_sum "Si O2"
_cell_formula_units_Z 56
_cell_length_a 22.550162
_cell_length_b 9.010419
_cell_length_c 14.442917
_cell_angle_alpha 90.000000
_cell_angle_beta 90.000000
_cell_angle_gamma 90.000000
_cell_volume 2934.604428
_symmetry_space_group_name_H-M "I M M 2"
_symmetry_group_IT_number 44
_symmetry_cell_setting 'orthorhombic'
loop_
_space_group_symop_operation_xyz
x,y,z
-x,-y,z
-x,y,z
x,-y,z
1/2+x,1/2+y,1/2+z
1/2-x,1/2-y,1/2+z
1/2-x,1/2+y,1/2+z
1/2+x,1/2-y,1/2+z
loop_
_atom_site_type_symbol
_atom_site_label
_atom_site_fract_x
_atom_site_fract_y
_atom_site_fract_z
Si Si1 0.214438 0.326558 0.414300
Si Si2 0.653482 0.325598 0.425096
Si Si3 0.104835 0.170972 0.111943
Si Si4 0.000000 0.324011 0.218548
Si Si5 0.343611 0.324815 0.218813
Si Si6 0.109607 0.672822 0.548887
Si Si7 0.500000 0.823703 0.928223
Si Si8 0.719571 0.670836 0.731260
O O1 0.214919 0.500000 0.387942
O O2 0.279621 0.265931 0.440056
O O3 0.171981 0.294555 0.500077
O O4 0.191391 0.237983 0.324778
O O5 0.656311 0.500000 0.438371
O O6 0.609278 0.267339 0.505613
O O7 0.632095 0.282609 0.321649
O O8 0.058502 0.269884 0.166766
O O9 0.170632 0.188594 0.152265
O O10 0.083594 0.000000 0.116363
O O11 0.000000 0.500000 0.219068
O O12 0.000000 0.260461 0.323630
O O13 0.338717 0.500000 0.206806
O O14 0.390743 0.259517 0.146039
O O15 0.278720 0.257250 0.201464
O O16 0.100252 0.500000 0.569747
O O17 0.057590 0.734398 0.483102
O O18 0.500000 0.000000 0.923192
O O19 0.736813 0.500000 0.746294
#
# Coordination Sequence:
#
# PCOD8188663 Si02
#       8
#     8   8   8   4   8   8   4   8
#     4   9  17  31  52  77 108 144 177 214 265 320
#     4   8  16  32  52  73 100 136 174 210 255 313
#     4  10  20  36  56  76 103 142 181 213 255 313
#     4  11  23  39  58  81 106 132 171 219 264 311
#     4  10  20  34  53  79 109 140 177 221 266 311
#     4  10  19  34  55  76 103 143 184 218 262 317
#     4   9  20  37  56  77 104 140 175 211 262 321
#     4  10  19  31  52  82 111 140 176 217 263 316
#
# _framework density 19.082639
#
# number of rings (size 3 to 8) (size 9 to 14) (size 15 to 20)
#    0.000    2.429    0.000    3.643    0.000    5.143 
#    0.000    6.071    0.000    2.571    0.000    0.000 
#    0.000    0.000    0.000    0.000    0.000    0.000 
#
# Total GULP energy -347135.701430 kJ/mol
# GULP energy per Si atom -12397.703622 kJ/mol
# Density = 1.903921 g / cm^3
# Si number density = 19.082639 Si / 1000 Ang^3
#
#
#
# Elastic Constant Matrix: (Units=GPa)
#
#
# Indices 1 2 3 4 5 6 
#
# 1 74.6729 32.8946 68.3801 0.0000 0.0000 0.0000
# 2 32.8946 65.0959 54.6243 0.0000 0.0000 0.0000
# 3 68.3801 54.6243 168.5024 0.0000 0.0000 0.0000
# 4 0.0000 0.0000 0.0000 31.1650 0.0000 0.0000
# 5 0.0000 0.0000 0.0000 0.0000 30.7017 0.0000
# 6 0.0000 0.0000 0.0000 0.0000 0.0000 25.4366
#
#
#
# Elastic Compliance Matrix: (Units=1/GPa)
#
#
# Indices 1 2 3 4 5 6 
#
# 1 0.022474 -0.005088 -0.007471 0.000000 0.000000 0.000000
# 2 -0.005088 0.022254 -0.005150 0.000000 0.000000 0.000000
# 3 -0.007471 -0.005150 0.010636 0.000000 0.000000 0.000000
# 4 0.000000 0.000000 0.000000 0.032087 0.000000 0.000000
# 5 0.000000 0.000000 0.000000 0.000000 0.032572 0.000000
# 6 0.000000 0.000000 0.000000 0.000000 0.000000 0.039313
#
#
# Mechanical properties :
#
#
# Convention : Reuss Voigt Hill
#
# Bulk Modulus (GPa) = 50.13111 68.89659 59.51385
# Shear Modulus (GPa) = 24.82593 27.61880 26.22237
#
# Velocity S-wave (km/s) = 3.61081 3.80850 3.71097
# Velocity P-wave (km/s) = 6.61147 7.45133 7.04393
#
# Compressibility (1/GPa) = 0.01994769
#
# Stress axis : x y z
#
# Youngs Moduli (GPa) = 44.49511 44.93562 94.02163
#
# Poissons Ratio (x) = 0.22862 0.70244
# Poissons Ratio (y) = 0.22637 0.48417
# Poissons Ratio (z) = 0.33243 0.23140
#
# Static dielectric constant tensor:
#      x y z
#    x 3.371060 0.000000 0.000000 
#    y 0.000000 3.313710 0.000000 
#    z 0.000000 0.000000 3.837060 
# 
# 
# High freq. dielectric constant tensor:
#      x y z
#    x 1.722770 0.000000 0.000000 
#    y 0.000000 1.718510 0.000000 
#    z 0.000000 0.000000 1.758580 
# 
# From -- ./inp_files/19225.got.cif
#   From: 2010.03.12/outbox.cif.g09.slc.cpg/sg44_10_cif.got.tgz:19225.got - 2010.04.14 02:36:11.
