data_PCOD8188448
_publ_section_title
;
Structure prediction by ZEFSAII (Michael W. Deem and Ramdas Pophale) SiO2 
 PCOD8188448
Probable space group: I M M 2
;
_chemical_formula_sum "Si O2"
_cell_formula_units_Z 64
_cell_length_a 9.224160
_cell_length_b 21.883618
_cell_length_c 20.905451
_cell_angle_alpha 90.000000
_cell_angle_beta 90.000000
_cell_angle_gamma 90.000000
_cell_volume 4219.932399
_symmetry_space_group_name_H-M "I M M 2"
_symmetry_group_IT_number 44
_symmetry_cell_setting 'orthorhombic'
loop_
_space_group_symop_operation_xyz
x,y,z
-x,-y,z
-x,y,z
x,-y,z
1/2+x,1/2+y,1/2+z
1/2-x,1/2-y,1/2+z
1/2-x,1/2+y,1/2+z
1/2+x,1/2-y,1/2+z
loop_
_atom_site_type_symbol
_atom_site_label
_atom_site_fract_x
_atom_site_fract_y
_atom_site_fract_z
Si Si1 0.335802 0.656472 0.641500
Si Si2 0.833426 0.665259 0.834942
Si Si3 0.330005 0.570610 0.072443
Si Si4 0.661703 0.754101 0.754546
Si Si5 0.169995 0.661017 0.982512
Si Si6 0.340151 0.337991 0.175404
Si Si7 0.830916 0.570134 0.728266
Si Si8 0.663576 0.243239 0.060110
O O1 0.500000 0.640771 0.620886
O O2 0.334704 0.707250 0.696230
O O3 0.258420 0.595659 0.667885
O O4 0.247805 0.681323 0.579950
O O5 0.744851 0.725285 0.814599
O O6 0.800900 0.649611 0.908017
O O7 0.788520 0.606407 0.792853
O O8 0.000000 0.681805 0.823305
O O9 0.500000 0.582099 0.057985
O O10 0.288900 0.500000 0.073665
O O11 0.289821 0.598741 0.142082
O O12 0.235770 0.602253 0.017615
O O13 0.500000 0.769176 0.776824
O O14 0.733513 0.818030 0.732367
O O15 0.000000 0.666602 0.998662
O O16 0.248952 0.723546 0.003320
O O17 0.500000 0.345037 0.205403
O O18 0.342656 0.287483 0.120386
O O19 0.788053 0.500000 0.739496
O O20 0.000000 0.577948 0.712388
O O21 0.500000 0.227226 0.037420
#
# Coordination Sequence:
#
# PCOD8188448 Si02
#       8
#     8   8   8   8   8   8   8   8
#     4   9  16  26  41  61  82 102 130 172 217 254
#     4   9  18  30  42  57  81 113 145 175 207 245
#     4   9  18  31  44  59  82 114 148 176 204 243
#     4   9  16  25  40  60  79 100 130 170 212 251
#     4  10  19  29  42  61  84 111 144 179 211 242
#     4   8  14  25  41  58  77 102 131 166 208 249
#     4   9  17  29  43  58  80 113 149 178 205 244
#     4   9  16  27  43  60  79 105 135 168 210 256
#
# _framework density 15.166119999999999
#
# number of rings (size 3 to 8) (size 9 to 14) (size 15 to 20)
#    0.000    3.000    0.000    2.250    0.000    8.000 
#    0.000    1.250    0.000    0.000    0.000    0.000 
#    0.000    1.000    0.000    8.250    0.000    4.625 
#
# Total GULP energy -396706.674959 kJ/mol
# GULP energy per Si atom -12397.083592 kJ/mol
# Density = 1.513160 g / cm^3
# Si number density = 15.166120 Si / 1000 Ang^3
#
#
#
# Elastic Constant Matrix: (Units=GPa)
#
#
# Indices 1 2 3 4 5 6 
#
# 1 103.9294 58.4541 46.2386 0.0000 0.0000 0.0000
# 2 58.4541 81.8677 61.3648 0.0000 0.0000 0.0000
# 3 46.2386 61.3648 48.9674 0.0000 0.0000 0.0000
# 4 0.0000 0.0000 0.0000 15.8912 0.0000 0.0000
# 5 0.0000 0.0000 0.0000 0.0000 22.2431 0.0000
# 6 0.0000 0.0000 0.0000 0.0000 0.0000 19.9950
#
#
#
# Elastic Compliance Matrix: (Units=1/GPa)
#
#
# Indices 1 2 3 4 5 6 
#
# 1 0.016607 -0.001702 -0.013549 0.000000 0.000000 0.000000
# 2 -0.001702 0.201507 -0.250916 0.000000 0.000000 0.000000
# 3 -0.013549 -0.250916 0.347656 0.000000 0.000000 0.000000
# 4 0.000000 0.000000 0.000000 0.062928 0.000000 0.000000
# 5 0.000000 0.000000 0.000000 0.000000 0.044958 0.000000
# 6 0.000000 0.000000 0.000000 0.000000 0.000000 0.050012
#
#
# Mechanical properties :
#
#
# Convention : Reuss Voigt Hill
#
# Bulk Modulus (GPa) = 29.90663 62.98661 46.44662
# Shear Modulus (GPa) = 3.94587 16.20633 10.07610
#
# Velocity S-wave (km/s) = 1.61475 3.27247 2.58036
# Velocity P-wave (km/s) = 4.82066 7.47663 6.29042
#
# Compressibility (1/GPa) = 0.03343740
#
# Stress axis : x y z
#
# Youngs Moduli (GPa) = 60.21532 4.96262 2.87640
#
# Poissons Ratio (x) = 0.00845 0.03897
# Poissons Ratio (y) = 0.10249 0.72173
# Poissons Ratio (z) = 0.81583 1.24520
#
# Static dielectric constant tensor:
#      x y z
#    x 3.113180 0.000000 0.000000 
#    y 0.000000 2.850330 0.000000 
#    z 0.000000 0.000000 2.701350 
# 
# 
# High freq. dielectric constant tensor:
#      x y z
#    x 1.594010 0.000000 0.000000 
#    y 0.000000 1.556200 0.000000 
#    z 0.000000 0.000000 1.546110 
# 
# From -- ./inp_files/22342.got.cif
#   From: 2010.03.12/outbox.cif.g09.slc.cpg/sg44_12_cif.got.tgz:22342.got - 2010.04.14 02:36:11.
