data_PCOD8188923
_publ_section_title
;
Structure prediction by ZEFSAII (Michael W. Deem and Ramdas Pophale) SiO2 
 PCOD8188923
Probable space group: I M M 2
;
_chemical_formula_sum "Si O2"
_cell_formula_units_Z 64
_cell_length_a 8.921335
_cell_length_b 20.790142
_cell_length_c 19.496265
_cell_angle_alpha 90.000000
_cell_angle_beta 90.000000
_cell_angle_gamma 90.000000
_cell_volume 3616.085767
_symmetry_space_group_name_H-M "I M M 2"
_symmetry_group_IT_number 44
_symmetry_cell_setting 'orthorhombic'
loop_
_space_group_symop_operation_xyz
x,y,z
-x,-y,z
-x,y,z
x,-y,z
1/2+x,1/2+y,1/2+z
1/2-x,1/2-y,1/2+z
1/2-x,1/2+y,1/2+z
1/2+x,1/2-y,1/2+z
loop_
_atom_site_type_symbol
_atom_site_label
_atom_site_fract_x
_atom_site_fract_y
_atom_site_fract_z
Si Si1 0.671046 0.122084 0.574440
Si Si2 0.673367 0.131337 0.727478
Si Si3 0.822828 0.268009 0.724071
Si Si4 0.678252 0.690299 0.858160
Si Si5 0.823607 0.929078 0.446291
Si Si6 0.673583 0.730794 0.585381
Si Si7 0.171880 0.071653 0.849872
Si Si8 0.325825 0.693073 0.436948
O O1 0.500000 0.112330 0.552124
O O2 0.698074 0.099754 0.652770
O O3 0.770736 0.079691 0.524358
O O4 0.718253 0.196358 0.567511
O O5 0.500000 0.150610 0.737479
O O6 0.771486 0.195116 0.736727
O O7 0.724225 0.079740 0.783343
O O8 0.750435 0.312172 0.782844
O O9 0.769949 0.294202 0.649836
O O10 0.000000 0.272063 0.729342
O O11 0.500000 0.690363 0.851715
O O12 0.740373 0.626705 0.896955
O O13 0.727254 0.753578 0.899388
O O14 0.000000 0.924048 0.447043
O O15 0.772067 0.000000 0.420515
O O16 0.500000 0.726914 0.606921
O O17 0.710576 0.689122 0.517997
O O18 0.216246 0.123023 0.907948
O O19 0.000000 0.081268 0.827316
O O20 0.198774 0.000000 0.879546
O O21 0.500000 0.710729 0.425192
#
# Coordination Sequence:
#
# PCOD8188923 Si02
#       8
#     8   8   8   8   8   8   8   8
#     4   9  18  32  50  74 104 137 176 217 256 307
#     4  10  20  34  51  75 106 143 183 219 261 312
#     4  11  21  33  53  80 108 137 174 221 272 318
#     4  11  21  34  55  80 106 138 177 221 265 314
#     4  10  22  37  52  75 107 141 177 217 263 314
#     4   9  18  33  53  78 107 137 174 220 267 313
#     4  10  21  35  52  78 110 145 181 218 262 313
#     4  10  19  34  56  79 106 140 177 220 263 311
#
# _framework density 17.698695000000001
#
# number of rings (size 3 to 8) (size 9 to 14) (size 15 to 20)
#    0.000    2.000    2.500    2.625    0.000    4.500 
#    0.000    2.500    0.000    0.750    0.000    3.500 
#    0.000    0.000    0.000    0.000    0.000    0.000 
#
# Total GULP energy -396813.068144 kJ/mol
# GULP energy per Si atom -12400.408379 kJ/mol
# Density = 1.765841 g / cm^3
# Si number density = 17.698695 Si / 1000 Ang^3
#
#
#
# Elastic Constant Matrix: (Units=GPa)
#
#
# Indices 1 2 3 4 5 6 
#
# 1 66.5547 36.6135 47.7253 0.0000 0.0000 0.0000
# 2 36.6135 108.9613 67.3980 0.0000 0.0000 0.0000
# 3 47.7253 67.3980 125.0707 0.0000 0.0000 0.0000
# 4 0.0000 0.0000 0.0000 21.9735 0.0000 0.0000
# 5 0.0000 0.0000 0.0000 0.0000 30.8096 0.0000
# 6 0.0000 0.0000 0.0000 0.0000 0.0000 18.5262
#
#
#
# Elastic Compliance Matrix: (Units=1/GPa)
#
#
# Indices 1 2 3 4 5 6 
#
# 1 0.021409 -0.003211 -0.006439 0.000000 0.000000 0.000000
# 2 -0.003211 0.014248 -0.006453 0.000000 0.000000 0.000000
# 3 -0.006439 -0.006453 0.013930 0.000000 0.000000 0.000000
# 4 0.000000 0.000000 0.000000 0.045509 0.000000 0.000000
# 5 0.000000 0.000000 0.000000 0.000000 0.032457 0.000000
# 6 0.000000 0.000000 0.000000 0.000000 0.000000 0.053978
#
#
# Mechanical properties :
#
#
# Convention : Reuss Voigt Hill
#
# Bulk Modulus (GPa) = 57.53334 67.11781 62.32557
# Shear Modulus (GPa) = 22.77595 24.18519 23.48057
#
# Velocity S-wave (km/s) = 3.59119 3.70062 3.64632
# Velocity P-wave (km/s) = 7.05501 7.50095 7.28140
#
# Compressibility (1/GPa) = 0.01738123
#
# Stress axis : x y z
#
# Youngs Moduli (GPa) = 46.70922 70.18645 71.78936
#
# Poissons Ratio (x) = 0.22537 0.46225
# Poissons Ratio (y) = 0.14999 0.46322
# Poissons Ratio (z) = 0.30076 0.45288
#
# Static dielectric constant tensor:
#      x y z
#    x 3.234040 0.000000 0.000000 
#    y 0.000000 3.228600 0.000000 
#    z 0.000000 0.000000 3.474390 
# 
# 
# High freq. dielectric constant tensor:
#      x y z
#    x 1.684150 0.000000 0.000000 
#    y 0.000000 1.657400 0.000000 
#    z 0.000000 0.000000 1.688750 
# 
# From -- ./inp_files/23336.got.cif
#   From: 2010.03.12/outbox.cif.g09.slc.cpg/sg44_12_cif.got.tgz:23336.got - 2010.04.14 02:36:11.
