data_PCOD8188976
_publ_section_title
;
Structure prediction by ZEFSAII (Michael W. Deem and Ramdas Pophale) SiO2 
 PCOD8188976
Probable space group: I M M 2
;
_chemical_formula_sum "Si O2"
_cell_formula_units_Z 64
_cell_length_a 8.676780
_cell_length_b 15.381825
_cell_length_c 23.719121
_cell_angle_alpha 90.000000
_cell_angle_beta 90.000000
_cell_angle_gamma 90.000000
_cell_volume 3165.665642
_symmetry_space_group_name_H-M "I M M 2"
_symmetry_group_IT_number 44
_symmetry_cell_setting 'orthorhombic'
loop_
_space_group_symop_operation_xyz
x,y,z
-x,-y,z
-x,y,z
x,-y,z
1/2+x,1/2+y,1/2+z
1/2-x,1/2-y,1/2+z
1/2-x,1/2+y,1/2+z
1/2+x,1/2-y,1/2+z
loop_
_atom_site_type_symbol
_atom_site_label
_atom_site_fract_x
_atom_site_fract_y
_atom_site_fract_z
Si Si1 0.323444 0.902111 0.933750
Si Si2 0.819779 0.147487 0.820567
Si Si3 0.675953 0.402332 0.929428
Si Si4 0.316960 0.404272 0.197478
Si Si5 0.176782 0.829192 0.310638
Si Si6 0.178738 0.252755 0.000020
Si Si7 0.818539 0.749352 0.620889
Si Si8 0.817926 0.097500 0.191047
O O1 0.500000 0.870699 0.938109
O O2 0.272813 0.902404 0.868798
O O3 0.304671 0.000000 0.957473
O O4 0.218458 0.837585 0.969710
O O5 0.758509 0.112042 0.760869
O O6 0.788179 0.249580 0.824363
O O7 0.000000 0.129410 0.828996
O O8 0.500000 0.382057 0.947113
O O9 0.722192 0.500000 0.947665
O O10 0.693238 0.396614 0.861898
O O11 0.786384 0.334084 0.959861
O O12 0.500000 0.399139 0.196453
O O13 0.260740 0.500000 0.177592
O O14 0.248185 0.330540 0.156257
O O15 0.235142 0.874312 0.253465
O O16 0.000000 0.797086 0.304644
O O17 0.276743 0.262607 0.056310
O O18 0.000000 0.252240 0.015499
O O19 0.752306 0.659144 0.643596
O O20 0.000000 0.746359 0.627816
O O21 0.000000 0.101307 0.186153
O O22 0.757333 0.000000 0.179794
#
# Coordination Sequence:
#
# PCOD8188976 Si02
#       8
#     8   8   8   8   8   8   8   8
#     4  11  24  42  64  91 122 158 201 248 302 365
#     4  11  20  34  60  93 127 161 195 239 298 358
#     4  10  21  39  64  92 123 163 205 244 294 357
#     4   9  19  36  59  88 121 156 195 238 289 352
#     4  10  19  34  60  90 125 162 199 242 293 358
#     4  12  26  43  63  88 120 158 204 256 309 360
#     4  11  23  41  63  86 116 157 207 254 301 356
#     4  10  21  38  61  90 124 161 200 245 300 359
#
# _framework density 20.216918
#
# number of rings (size 3 to 8) (size 9 to 14) (size 15 to 20)
#    0.000    1.500    2.500    3.000    0.000    4.500 
#    0.000    1.250    0.000    5.625    0.000    0.000 
#    0.000    0.000    0.000    0.000    0.000    0.000 
#
# Total GULP energy -396904.950863 kJ/mol
# GULP energy per Si atom -12403.279714 kJ/mol
# Density = 2.017090 g / cm^3
# Si number density = 20.216918 Si / 1000 Ang^3
#
#
#
# Elastic Constant Matrix: (Units=GPa)
#
#
# Indices 1 2 3 4 5 6 
#
# 1 26.4907 19.0799 -6.7294 0.0000 0.0000 0.0000
# 2 19.0799 128.7916 27.7361 0.0000 0.0000 0.0000
# 3 -6.7294 27.7361 84.3429 0.0000 0.0000 0.0000
# 4 0.0000 0.0000 0.0000 12.9035 0.0000 0.0000
# 5 0.0000 0.0000 0.0000 0.0000 30.9718 0.0000
# 6 0.0000 0.0000 0.0000 0.0000 0.0000 19.7785
#
#
#
# Elastic Compliance Matrix: (Units=1/GPa)
#
#
# Indices 1 2 3 4 5 6 
#
# 1 0.045116 -0.008027 0.006239 0.000000 0.000000 0.000000
# 2 -0.008027 0.009785 -0.003858 0.000000 0.000000 0.000000
# 3 0.006239 -0.003858 0.013623 0.000000 0.000000 0.000000
# 4 0.000000 0.000000 0.000000 0.077498 0.000000 0.000000
# 5 0.000000 0.000000 0.000000 0.000000 0.032287 0.000000
# 6 0.000000 0.000000 0.000000 0.000000 0.000000 0.050560
#
#
# Mechanical properties :
#
#
# Convention : Reuss Voigt Hill
#
# Bulk Modulus (GPa) = 17.47302 35.53316 26.50309
# Shear Modulus (GPa) = 19.28727 26.03333 22.66030
#
# Velocity S-wave (km/s) = 3.09207 3.59235 3.35155
# Velocity P-wave (km/s) = 4.62703 5.90091 5.30236
#
# Compressibility (1/GPa) = 0.05723110
#
# Stress axis : x y z
#
# Youngs Moduli (GPa) = 22.16516 102.20167 73.40571
#
# Poissons Ratio (x) = 0.82042 -0.45801
# Poissons Ratio (y) = 0.17793 0.28321
# Poissons Ratio (z) = -0.13830 0.39431
#
# Static dielectric constant tensor:
#      x y z
#    x 3.483740 0.000000 0.000000 
#    y 0.000000 3.832880 0.000000 
#    z 0.000000 0.000000 3.668080 
# 
# 
# High freq. dielectric constant tensor:
#      x y z
#    x 1.772720 0.000000 0.000000 
#    y 0.000000 1.801500 0.000000 
#    z 0.000000 0.000000 1.788890 
# 
# From -- ./inp_files/25118.got.cif
#   From: 2010.03.12/outbox.cif.g09.slc.cpg/sg44_13_cif.got.tgz:25118.got - 2010.04.14 02:36:11.
