data_PCOD8188129
_publ_section_title
;
Structure prediction by ZEFSAII (Michael W. Deem and Ramdas Pophale) SiO2 
 PCOD8188129
Probable space group: I M M 2
;
_chemical_formula_sum "Si O2"
_cell_formula_units_Z 48
_cell_length_a 18.357593
_cell_length_b 8.913364
_cell_length_c 17.492394
_cell_angle_alpha 90.000000
_cell_angle_beta 90.000000
_cell_angle_gamma 90.000000
_cell_volume 2862.243846
_symmetry_space_group_name_H-M "I M M 2"
_symmetry_group_IT_number 44
_symmetry_cell_setting 'orthorhombic'
loop_
_space_group_symop_operation_xyz
x,y,z
-x,-y,z
-x,y,z
x,-y,z
1/2+x,1/2+y,1/2+z
1/2-x,1/2-y,1/2+z
1/2-x,1/2+y,1/2+z
1/2+x,1/2-y,1/2+z
loop_
_atom_site_type_symbol
_atom_site_label
_atom_site_fract_x
_atom_site_fract_y
_atom_site_fract_z
Si Si1 0.206705 0.328764 0.334360
Si Si2 0.579663 0.825810 0.931955
Si Si3 0.804891 0.676792 0.555783
Si Si4 0.417161 0.324116 0.355006
Si Si5 0.184358 0.829038 0.712984
Si Si6 0.195131 0.675350 0.953672
O O1 0.226378 0.500000 0.361302
O O2 0.120680 0.299658 0.349882
O O3 0.233048 0.309401 0.246892
O O4 0.249888 0.210234 0.385076
O O5 0.500000 0.745941 0.930580
O O6 0.567384 0.000000 0.946360
O O7 0.630127 0.763321 0.000629
O O8 0.796029 0.500000 0.549499
O O9 0.825620 0.720716 0.641603
O O10 0.728062 0.751551 0.531040
O O11 0.500000 0.269561 0.345079
O O12 0.412070 0.500000 0.370028
O O13 0.373775 0.281591 0.277690
O O14 0.383200 0.242973 0.429567
O O15 0.171306 0.000000 0.686646
O O16 0.186746 0.500000 0.967402
#
# Coordination Sequence:
#
# PCOD8188129 Si02
#       6
#     8   8   8   8   8   8
#     4   8  15  29  47  65  88 118 152 187 227 278
#     4   8  14  26  45  67  88 112 145 184 224 267
#     4  10  19  30  45  66  93 125 156 187 229 278
#     4   9  18  33  51  70  96 128 155 184 232 290
#     4   9  17  29  45  67  93 121 153 187 223 268
#     4  10  18  29  47  68  90 118 157 200 231 264
#
# _framework density 16.770057999999999
#
# number of rings (size 3 to 8) (size 9 to 14) (size 15 to 20)
#    0.000    3.000    0.000    4.000    0.000    3.667 
#    0.000    0.000    0.000   13.000    0.000    2.333 
#    0.000    0.000    0.000    0.000    0.000    0.000 
#
# Total GULP energy -297352.593103 kJ/mol
# GULP energy per Si atom -12389.691379 kJ/mol
# Density = 1.673189 g / cm^3
# Si number density = 16.770058 Si / 1000 Ang^3
#
#
#
# Elastic Constant Matrix: (Units=GPa)
#
#
# Indices 1 2 3 4 5 6 
#
# 1 130.2372 34.8456 67.0478 0.0000 0.0000 0.0000
# 2 34.8456 57.4887 21.4661 0.0000 0.0000 0.0000
# 3 67.0478 21.4661 48.1235 0.0000 0.0000 0.0000
# 4 0.0000 0.0000 0.0000 27.1862 0.0000 0.0000
# 5 0.0000 0.0000 0.0000 0.0000 17.8073 0.0000
# 6 0.0000 0.0000 0.0000 0.0000 0.0000 13.8196
#
#
#
# Elastic Compliance Matrix: (Units=1/GPa)
#
#
# Indices 1 2 3 4 5 6 
#
# 1 0.027537 -0.002838 -0.037100 0.000000 0.000000 0.000000
# 2 -0.002838 0.021163 -0.005486 0.000000 0.000000 0.000000
# 3 -0.037100 -0.005486 0.074917 0.000000 0.000000 0.000000
# 4 0.000000 0.000000 0.000000 0.036783 0.000000 0.000000
# 5 0.000000 0.000000 0.000000 0.000000 0.056157 0.000000
# 6 0.000000 0.000000 0.000000 0.000000 0.000000 0.072361
#
#
# Mechanical properties :
#
#
# Convention : Reuss Voigt Hill
#
# Bulk Modulus (GPa) = 30.51697 53.61871 42.06784
# Shear Modulus (GPa) = 12.79783 19.26193 16.02988
#
# Velocity S-wave (km/s) = 2.76549 3.39276 3.09506
# Velocity P-wave (km/s) = 5.33236 6.88405 6.15728
#
# Compressibility (1/GPa) = 0.03276866
#
# Stress axis : x y z
#
# Youngs Moduli (GPa) = 36.31425 47.25125 13.34811
#
# Poissons Ratio (x) = 0.13410 0.49522
# Poissons Ratio (y) = 0.10306 0.07323
# Poissons Ratio (z) = 1.34727 0.25923
#
# Static dielectric constant tensor:
#      x y z
#    x 3.496750 0.000000 0.000000 
#    y 0.000000 2.907210 0.000000 
#    z 0.000000 0.000000 3.030330 
# 
# 
# High freq. dielectric constant tensor:
#      x y z
#    x 1.639000 0.000000 0.000000 
#    y 0.000000 1.629740 0.000000 
#    z 0.000000 0.000000 1.622800 
# 
# From -- ./inp_files/19076.got.cif
#   From: 2010.03.12/outbox.cif.g09.slc.cpg/sg44_10_cif.got.tgz:19076.got - 2010.04.14 02:36:11.
