data_PCOD8188733
_publ_section_title
;
Structure prediction by ZEFSAII (Michael W. Deem and Ramdas Pophale) SiO2 
 PCOD8188733
Probable space group: I M M 2
;
_chemical_formula_sum "Si O2"
_cell_formula_units_Z 40
_cell_length_a 8.791162
_cell_length_b 20.562863
_cell_length_c 12.479222
_cell_angle_alpha 90.000000
_cell_angle_beta 90.000000
_cell_angle_gamma 90.000000
_cell_volume 2255.887178
_symmetry_space_group_name_H-M "I M M 2"
_symmetry_group_IT_number 44
_symmetry_cell_setting 'orthorhombic'
loop_
_space_group_symop_operation_xyz
x,y,z
-x,-y,z
-x,y,z
x,-y,z
1/2+x,1/2+y,1/2+z
1/2-x,1/2-y,1/2+z
1/2-x,1/2+y,1/2+z
1/2+x,1/2-y,1/2+z
loop_
_atom_site_type_symbol
_atom_site_label
_atom_site_fract_x
_atom_site_fract_y
_atom_site_fract_z
Si Si1 0.175740 0.924746 0.294030
Si Si2 0.323745 0.690884 0.405450
Si Si3 0.178883 0.661443 0.620907
Si Si4 0.323105 0.206078 0.691610
Si Si5 0.172859 0.339462 0.963684
O O1 0.276393 0.898480 0.196292
O O2 0.215154 0.888985 0.405268
O O3 0.000000 0.912520 0.267144
O O4 0.213512 0.000000 0.309685
O O5 0.500000 0.673758 0.393591
O O6 0.257598 0.651165 0.505792
O O7 0.235762 0.669424 0.297737
O O8 0.294631 0.766916 0.423489
O O9 0.230447 0.727483 0.678276
O O10 0.000000 0.663366 0.604147
O O11 0.500000 0.224694 0.700780
O O12 0.296039 0.157985 0.591219
O O13 0.000000 0.359374 0.936845
#
# Coordination Sequence:
#
# PCOD8188733 Si02
#       5
#     8   8   8   8   8
#     4  11  23  37  54  76 105 141 181 224 265 310
#     4  10  19  32  52  79 109 138 171 215 267 318
#     4  11  21  33  51  76 106 141 178 215 264 318
#     4  10  19  32  52  78 109 138 170 217 267 317
#     4   9  19  33  50  76 106 137 175 213 260 315
#
# _framework density 17.731383999999998
#
# number of rings (size 3 to 8) (size 9 to 14) (size 15 to 20)
#    0.000    1.800    2.000    4.800    0.000    5.600 
#    0.000    0.000    0.000    1.200    0.000    5.600 
#    0.000    0.000    0.000    0.000    0.000    0.000 
#
# Total GULP energy -248064.185893 kJ/mol
# GULP energy per Si atom -12403.209295 kJ/mol
# Density = 1.769103 g / cm^3
# Si number density = 17.731384 Si / 1000 Ang^3
#
#
#
# Elastic Constant Matrix: (Units=GPa)
#
#
# Indices 1 2 3 4 5 6 
#
# 1 93.0853 31.4668 41.9725 0.0000 0.0000 0.0000
# 2 31.4668 56.0677 28.5413 0.0000 0.0000 0.0000
# 3 41.9725 28.5413 140.4228 0.0002 0.0000 0.0000
# 4 0.0000 0.0000 0.0002 19.3440 0.0000 0.0000
# 5 0.0000 0.0000 0.0000 0.0000 37.3831 0.0000
# 6 0.0000 0.0000 0.0000 0.0000 0.0000 21.7975
#
#
#
# Elastic Compliance Matrix: (Units=1/GPa)
#
#
# Indices 1 2 3 4 5 6 
#
# 1 0.014271 -0.006511 -0.002942 0.000000 0.000000 0.000000
# 2 -0.006511 0.022865 -0.002701 0.000000 0.000000 0.000000
# 3 -0.002942 -0.002701 0.008550 0.000000 0.000000 0.000000
# 4 0.000000 0.000000 0.000000 0.051696 0.000000 0.000000
# 5 0.000000 0.000000 0.000000 0.000000 0.026750 0.000000
# 6 0.000000 0.000000 0.000000 0.000000 0.000000 0.045877
#
#
# Mechanical properties :
#
#
# Convention : Reuss Voigt Hill
#
# Bulk Modulus (GPa) = 46.78103 54.83745 50.80924
# Shear Modulus (GPa) = 24.82101 28.21125 26.51613
#
# Velocity S-wave (km/s) = 3.74550 3.99311 3.87128
# Velocity P-wave (km/s) = 6.71904 7.22868 6.97851
#
# Compressibility (1/GPa) = 0.02137619
#
# Stress axis : x y z
#
# Youngs Moduli (GPa) = 70.07444 43.73502 116.96276
#
# Poissons Ratio (x) = 0.28478 0.34411
# Poissons Ratio (y) = 0.45628 0.31593
# Poissons Ratio (z) = 0.20616 0.11813
#
# Static dielectric constant tensor:
#      x y z
#    x 3.361430 0.000000 0.000000 
#    y 0.000000 2.843260 0.000000 
#    z 0.000000 0.000000 3.588700 
# 
# 
# High freq. dielectric constant tensor:
#      x y z
#    x 1.701110 0.000000 0.000000 
#    y 0.000000 1.629970 0.000000 
#    z 0.000000 0.000000 1.704560 
# 
# From -- ./inp_files/10831.got.cif
#   From: 2010.03.12/outbox.cif.g09.slc.cpg/sg44_6_cif.got.tgz:10831.got - 2010.04.14 02:36:11.
