data_PCOD8188231
_publ_section_title
;
Structure prediction by ZEFSAII (Michael W. Deem and Ramdas Pophale) SiO2 
 PCOD8188231
Probable space group: I M M 2
;
_chemical_formula_sum "Si O2"
_cell_formula_units_Z 64
_cell_length_a 32.923814
_cell_length_b 9.266400
_cell_length_c 11.719087
_cell_angle_alpha 90.000000
_cell_angle_beta 90.000000
_cell_angle_gamma 90.000000
_cell_volume 3575.320353
_symmetry_space_group_name_H-M "I M M 2"
_symmetry_group_IT_number 44
_symmetry_cell_setting 'orthorhombic'
loop_
_space_group_symop_operation_xyz
x,y,z
-x,-y,z
-x,y,z
x,-y,z
1/2+x,1/2+y,1/2+z
1/2-x,1/2-y,1/2+z
1/2-x,1/2+y,1/2+z
1/2+x,1/2-y,1/2+z
loop_
_atom_site_type_symbol
_atom_site_label
_atom_site_fract_x
_atom_site_fract_y
_atom_site_fract_z
Si Si1 0.547315 0.330203 0.410970
Si Si2 0.307848 0.168477 0.360762
Si Si3 0.855387 0.330813 0.277759
Si Si4 0.390530 0.329650 0.977667
Si Si5 0.380020 0.170097 0.521999
Si Si6 0.455464 0.671377 0.155548
Si Si7 0.772541 0.340101 0.395544
Si Si8 0.825186 0.339351 0.604258
O O1 0.500000 0.291124 0.435859
O O2 0.554052 0.500000 0.427648
O O3 0.576978 0.246926 0.497698
O O4 0.559373 0.280827 0.281966
O O5 0.345417 0.227985 0.435645
O O6 0.265374 0.235896 0.394725
O O7 0.315140 0.209881 0.230711
O O8 0.303506 0.000000 0.382269
O O9 0.860488 0.500000 0.301840
O O10 0.888730 0.248333 0.355138
O O11 0.864265 0.289139 0.147853
O O12 0.809791 0.283438 0.315402
O O13 0.391845 0.500000 0.958108
O O14 0.428395 0.270979 0.051584
O O15 0.352205 0.286687 0.052879
O O16 0.386984 0.000000 0.509045
O O17 0.500000 0.735533 0.133631
O O18 0.456470 0.500000 0.154822
O O19 0.759894 0.500000 0.353336
O O20 0.784872 0.346039 0.528196
O O21 0.845796 0.500000 0.603261
#
# Coordination Sequence:
#
# PCOD8188231 Si02
#       8
#     8   8   8   8   8   8   8   8
#     4   9  18  34  56  81 109 139 171 214 267 316
#     4  10  21  34  52  77 102 131 171 217 258 305
#     4   9  20  38  53  68 103 146 174 208 265 316
#     4  10  18  30  53  79  97 126 174 214 247 299
#     4  10  21  36  54  77 105 142 181 217 261 315
#     4   8  15  29  50  77 108 134 158 203 266 316
#     4   9  19  34  51  70  97 136 171 207 260 311
#     4   9  19  35  50  69 101 133 159 200 262 309
#
# _framework density 17.900493999999998
#
# number of rings (size 3 to 8) (size 9 to 14) (size 15 to 20)
#    0.000    2.750    0.000    2.625    1.750    3.750 
#    0.000    1.250    0.000    5.250    0.000    0.000 
#    0.000    0.000    0.000    0.000    0.000    0.000 
#
# Total GULP energy -396628.729107 kJ/mol
# GULP energy per Si atom -12394.647785 kJ/mol
# Density = 1.785975 g / cm^3
# Si number density = 17.900494 Si / 1000 Ang^3
#
#
#
# Elastic Constant Matrix: (Units=GPa)
#
#
# Indices 1 2 3 4 5 6 
#
# 1 104.4325 36.3069 67.2969 0.0000 0.0000 0.0000
# 2 36.3069 39.6085 36.0005 0.0000 0.0000 0.0000
# 3 67.2969 36.0005 136.1428 0.0000 0.0000 0.0000
# 4 0.0000 0.0000 0.0000 26.9076 0.0000 0.0000
# 5 0.0000 0.0000 0.0000 0.0000 22.2185 0.0000
# 6 0.0000 0.0000 0.0000 0.0000 0.0000 26.7364
#
#
#
# Elastic Compliance Matrix: (Units=1/GPa)
#
#
# Indices 1 2 3 4 5 6 
#
# 1 0.016729 -0.010292 -0.005548 0.000000 0.000000 0.000000
# 2 -0.010292 0.039567 -0.005375 0.000000 0.000000 0.000000
# 3 -0.005548 -0.005375 0.011509 0.000000 0.000000 0.000000
# 4 0.000000 0.000000 0.000000 0.037164 0.000000 0.000000
# 5 0.000000 0.000000 0.000000 0.000000 0.045007 0.000000
# 6 0.000000 0.000000 0.000000 0.000000 0.000000 0.037402
#
#
# Mechanical properties :
#
#
# Convention : Reuss Voigt Hill
#
# Bulk Modulus (GPa) = 39.40952 62.15472 50.78212
# Shear Modulus (GPa) = 20.98497 24.54447 22.76472
#
# Velocity S-wave (km/s) = 3.42762 3.70694 3.57001
# Velocity P-wave (km/s) = 6.14235 7.28832 6.73973
#
# Compressibility (1/GPa) = 0.02537458
#
# Stress axis : x y z
#
# Youngs Moduli (GPa) = 59.77817 25.27375 86.88943
#
# Poissons Ratio (x) = 0.26011 0.48203
# Poissons Ratio (y) = 0.61523 0.46706
# Poissons Ratio (z) = 0.33163 0.13586
#
# Static dielectric constant tensor:
#      x y z
#    x 3.363380 0.000000 0.000000 
#    y 0.000000 3.147670 0.000000 
#    z 0.000000 0.000000 3.550910 
# 
# 
# High freq. dielectric constant tensor:
#      x y z
#    x 1.684840 0.000000 0.000000 
#    y 0.000000 1.677430 0.000000 
#    z 0.000000 0.000000 1.698200 
# 
# From -- ./inp_files/15077.got.cif
#   From: 2010.03.12/outbox.cif.g09.slc.cpg/sg44_8_cif.got.tgz:15077.got - 2010.04.14 02:36:11.
