data_PCOD8188633
_publ_section_title
;
Structure prediction by ZEFSAII (Michael W. Deem and Ramdas Pophale) SiO2 
 PCOD8188633
Probable space group: I M M 2
;
_chemical_formula_sum "Si O2"
_cell_formula_units_Z 64
_cell_length_a 9.055370
_cell_length_b 33.331649
_cell_length_c 11.907677
_cell_angle_alpha 90.000000
_cell_angle_beta 90.000000
_cell_angle_gamma 90.000000
_cell_volume 3594.099084
_symmetry_space_group_name_H-M "I M M 2"
_symmetry_group_IT_number 44
_symmetry_cell_setting 'orthorhombic'
loop_
_space_group_symop_operation_xyz
x,y,z
-x,-y,z
-x,y,z
x,-y,z
1/2+x,1/2+y,1/2+z
1/2-x,1/2-y,1/2+z
1/2-x,1/2+y,1/2+z
1/2+x,1/2-y,1/2+z
loop_
_atom_site_type_symbol
_atom_site_label
_atom_site_fract_x
_atom_site_fract_y
_atom_site_fract_z
Si Si1 0.829750 0.160444 0.526390
Si Si2 0.331257 0.734327 0.885049
Si Si3 0.166987 0.045707 0.440746
Si Si4 0.326107 0.685954 0.437548
Si Si5 0.827386 0.826740 0.189371
Si Si6 0.673552 0.045594 0.676090
Si Si7 0.172085 0.121169 0.761467
Si Si8 0.325831 0.112349 0.336816
O O1 0.797092 0.207056 0.495625
O O2 0.796089 0.150294 0.655327
O O3 0.722647 0.133499 0.451978
O O4 0.000000 0.151113 0.494000
O O5 0.500000 0.748073 0.884359
O O6 0.234235 0.773857 0.881909
O O7 0.291719 0.709878 0.772374
O O8 0.247322 0.052851 0.558382
O O9 0.254711 0.068144 0.341667
O O10 0.000000 0.062101 0.453398
O O11 0.167503 0.000000 0.403960
O O12 0.500000 0.689242 0.430705
O O13 0.270173 0.683591 0.565298
O O14 0.274067 0.646460 0.369544
O O15 0.736987 0.865592 0.227764
O O16 0.000000 0.837380 0.190758
O O17 0.500000 0.052276 0.660250
O O18 0.737571 0.079293 0.760446
O O19 0.705757 0.000000 0.719803
O O20 0.000000 0.109992 0.768177
O O21 0.500000 0.109754 0.328547
#
# Coordination Sequence:
#
# PCOD8188633 Si02
#       8
#     8   8   8   8   8   8   8   8
#     4   9  18  33  51  73 106 143 175 211 263 321
#     4   9  19  34  53  75 103 142 176 218 273 319
#     4  10  19  31  50  77 109 143 173 206 259 321
#     4  10  22  37  55  79 104 139 185 230 266 312
#     4   9  20  39  55  71 103 142 179 217 266 319
#     4  10  20  33  51  79 113 143 176 222 272 324
#     4  10  20  34  54  79 108 144 183 222 268 323
#     4  11  20  31  52  79 104 135 174 217 263 310
#
# _framework density 17.806964000000001
#
# number of rings (size 3 to 8) (size 9 to 14) (size 15 to 20)
#    0.000    2.250    1.250    2.625    1.750    4.500 
#    0.000    0.000    0.000    0.750    0.000    1.750 
#    0.000    0.000    0.000    0.000    0.000    0.000 
#
# Total GULP energy -396757.138224 kJ/mol
# GULP energy per Si atom -12398.660570 kJ/mol
# Density = 1.776644 g / cm^3
# Si number density = 17.806964 Si / 1000 Ang^3
#
#
#
# Elastic Constant Matrix: (Units=GPa)
#
#
# Indices 1 2 3 4 5 6 
#
# 1 83.9869 58.6587 38.8797 -0.0001 -0.0001 0.0000
# 2 58.6587 131.0688 54.2601 -0.0001 -0.0001 0.0001
# 3 38.8797 54.2601 93.9486 0.0004 0.0001 0.0001
# 4 -0.0001 -0.0001 0.0004 24.4653 0.0000 0.0001
# 5 -0.0001 -0.0001 0.0001 0.0000 13.0963 0.0000
# 6 0.0000 0.0001 0.0001 0.0001 0.0000 34.2360
#
#
#
# Elastic Compliance Matrix: (Units=1/GPa)
#
#
# Indices 1 2 3 4 5 6 
#
# 1 0.018263 -0.006630 -0.003729 0.000000 0.000000 0.000000
# 2 -0.006630 0.012434 -0.004437 0.000000 0.000000 0.000000
# 3 -0.003729 -0.004437 0.014750 0.000000 0.000000 0.000000
# 4 0.000000 0.000000 0.000000 0.040874 0.000000 0.000000
# 5 0.000000 0.000000 0.000000 0.000000 0.076357 0.000000
# 6 0.000000 0.000000 0.000000 0.000000 0.000000 0.029209
#
#
# Mechanical properties :
#
#
# Convention : Reuss Voigt Hill
#
# Bulk Modulus (GPa) = 63.07294 68.06682 65.56988
# Shear Modulus (GPa) = 22.04922 24.83990 23.44456
#
# Velocity S-wave (km/s) = 3.52267 3.73896 3.63243
# Velocity P-wave (km/s) = 7.21408 7.54636 7.38209
#
# Compressibility (1/GPa) = 0.01585466
#
# Stress axis : x y z
#
# Youngs Moduli (GPa) = 54.75445 80.42648 67.79577
#
# Poissons Ratio (x) = 0.53322 0.25281
# Poissons Ratio (y) = 0.36301 0.30084
# Poissons Ratio (z) = 0.20418 0.35689
#
# Static dielectric constant tensor:
#      x y z
#    x 3.252740 0.000000 0.000000 
#    y 0.000000 3.450750 0.000000 
#    z 0.000000 0.000000 3.234200 
# 
# 
# High freq. dielectric constant tensor:
#      x y z
#    x 1.688700 0.000000 0.000000 
#    y 0.000000 1.694560 0.000000 
#    z 0.000000 0.000000 1.661080 
# 
# From -- ./inp_files/11564.got.cif
#   From: 2010.03.12/outbox.cif.g09.slc.cpg/sg44_6_cif.got.tgz:11564.got - 2010.04.14 02:36:11.
