data_PCOD8188695
_publ_section_title
;
Structure prediction by ZEFSAII (Michael W. Deem and Ramdas Pophale) SiO2 
 PCOD8188695
Probable space group: I M M 2
;
_chemical_formula_sum "Si O2"
_cell_formula_units_Z 64
_cell_length_a 8.870805
_cell_length_b 23.299299
_cell_length_c 19.179701
_cell_angle_alpha 90.000000
_cell_angle_beta 90.000000
_cell_angle_gamma 90.000000
_cell_volume 3964.128462
_symmetry_space_group_name_H-M "I M M 2"
_symmetry_group_IT_number 44
_symmetry_cell_setting 'orthorhombic'
loop_
_space_group_symop_operation_xyz
x,y,z
-x,-y,z
-x,y,z
x,-y,z
1/2+x,1/2+y,1/2+z
1/2-x,1/2-y,1/2+z
1/2-x,1/2+y,1/2+z
1/2+x,1/2-y,1/2+z
loop_
_atom_site_type_symbol
_atom_site_label
_atom_site_fract_x
_atom_site_fract_y
_atom_site_fract_z
Si Si1 0.677977 0.617463 0.764190
Si Si2 0.677239 0.757996 0.261503
Si Si3 0.678075 0.726024 0.410470
Si Si4 0.326146 0.933639 0.129591
Si Si5 0.175681 0.434731 0.898147
Si Si6 0.174092 0.155366 0.037309
Si Si7 0.826417 0.729231 0.124070
Si Si8 0.178420 0.666249 0.991915
O O1 0.500000 0.623075 0.763876
O O2 0.745625 0.680576 0.765271
O O3 0.727549 0.583517 0.695791
O O4 0.729954 0.581076 0.830404
O O5 0.500000 0.768454 0.259801
O O6 0.724451 0.720060 0.329415
O O7 0.728478 0.723123 0.193733
O O8 0.500000 0.728612 0.419282
O O9 0.733268 0.673599 0.459789
O O10 0.745416 0.786254 0.438849
O O11 0.500000 0.920532 0.146395
O O12 0.274956 0.897647 0.062142
O O13 0.299761 0.000000 0.111906
O O14 0.208087 0.500000 0.919377
O O15 0.228241 0.396268 0.964321
O O16 0.000000 0.424178 0.880977
O O17 0.195921 0.208402 0.090016
O O18 0.000000 0.136202 0.035769
O O19 0.000000 0.719539 0.144112
O O20 0.766102 0.680085 0.070590
O O21 0.000000 0.672190 0.993230
#
# Coordination Sequence:
#
# PCOD8188695 Si02
#       8
#     8   8   8   8   8   8   8   8
#     4  12  23  33  45  66  97 131 164 192 226 272
#     4  11  19  30  50  72  96 125 157 193 233 276
#     4   8  15  28  48  69  92 122 152 187 236 283
#     4  11  23  36  49  67  93 126 161 195 232 274
#     4  10  19  32  51  71  91 123 166 201 228 265
#     4   9  17  31  50  70  91 120 157 195 233 276
#     4   9  17  29  47  69  95 124 154 191 236 281
#     4   8  14  28  47  67  93 124 153 189 235 277
#
# _framework density 16.144784000000001
#
# number of rings (size 3 to 8) (size 9 to 14) (size 15 to 20)
#    0.000    2.250    2.500    3.750    0.000    2.750 
#    0.000    1.875    0.000    0.000    0.000    0.875 
#    0.000    3.000    0.000    0.000    0.000    0.000 
#
# Total GULP energy -396665.599476 kJ/mol
# GULP energy per Si atom -12395.799984 kJ/mol
# Density = 1.610804 g / cm^3
# Si number density = 16.144784 Si / 1000 Ang^3
#
#
#
# Elastic Constant Matrix: (Units=GPa)
#
#
# Indices 1 2 3 4 5 6 
#
# 1 64.8725 33.4064 44.5694 0.0000 0.0000 0.0000
# 2 33.4064 87.3095 69.4319 0.0000 0.0000 0.0000
# 3 44.5694 69.4319 132.7800 0.0000 0.0000 0.0000
# 4 0.0000 0.0000 0.0000 18.6849 0.0000 0.0000
# 5 0.0000 0.0000 0.0000 0.0000 24.1450 0.0000
# 6 0.0000 0.0000 0.0000 0.0000 0.0000 15.2625
#
#
#
# Elastic Compliance Matrix: (Units=1/GPa)
#
#
# Indices 1 2 3 4 5 6 
#
# 1 0.020872 -0.004133 -0.004844 0.000000 0.000000 0.000000
# 2 -0.004133 0.020425 -0.009293 0.000000 0.000000 0.000000
# 3 -0.004844 -0.009293 0.014017 0.000000 0.000000 0.000000
# 4 0.000000 0.000000 0.000000 0.053519 0.000000 0.000000
# 5 0.000000 0.000000 0.000000 0.000000 0.041416 0.000000
# 6 0.000000 0.000000 0.000000 0.000000 0.000000 0.065520
#
#
# Mechanical properties :
#
#
# Convention : Reuss Voigt Hill
#
# Bulk Modulus (GPa) = 53.27150 64.41971 58.84561
# Shear Modulus (GPa) = 19.33724 20.78879 20.06301
#
# Velocity S-wave (km/s) = 3.46459 3.59227 3.52901
# Velocity P-wave (km/s) = 7.00516 7.56266 7.28924
#
# Compressibility (1/GPa) = 0.01877176
#
# Stress axis : x y z
#
# Youngs Moduli (GPa) = 47.91187 48.95886 71.34275
#
# Poissons Ratio (x) = 0.20237 0.34562
# Poissons Ratio (y) = 0.19804 0.66300
# Poissons Ratio (z) = 0.23211 0.45498
#
# Static dielectric constant tensor:
#      x y z
#    x 2.908750 0.000000 0.000000 
#    y 0.000000 3.001240 0.000000 
#    z 0.000000 0.000000 3.346890 
# 
# 
# High freq. dielectric constant tensor:
#      x y z
#    x 1.604610 0.000000 0.000000 
#    y 0.000000 1.594650 0.000000 
#    z 0.000000 0.000000 1.621370 
# 
# From -- ./inp_files/20858.got.cif
#   From: 2010.03.12/outbox.cif.g09.slc.cpg/sg44_11_cif.got.tgz:20858.got - 2010.04.14 02:36:11.
