data_PCOD8188136
_publ_section_title
;
Structure prediction by ZEFSAII (Michael W. Deem and Ramdas Pophale) SiO2 
 PCOD8188136
Probable space group: I M M 2
;
_chemical_formula_sum "Si O2"
_cell_formula_units_Z 64
_cell_length_a 9.141107
_cell_length_b 29.907857
_cell_length_c 14.305791
_cell_angle_alpha 90.000000
_cell_angle_beta 90.000000
_cell_angle_gamma 90.000000
_cell_volume 3911.073377
_symmetry_space_group_name_H-M "I M M 2"
_symmetry_group_IT_number 44
_symmetry_cell_setting 'orthorhombic'
loop_
_space_group_symop_operation_xyz
x,y,z
-x,-y,z
-x,y,z
x,-y,z
1/2+x,1/2+y,1/2+z
1/2-x,1/2-y,1/2+z
1/2-x,1/2+y,1/2+z
1/2+x,1/2-y,1/2+z
loop_
_atom_site_type_symbol
_atom_site_label
_atom_site_fract_x
_atom_site_fract_y
_atom_site_fract_z
Si Si1 0.332138 0.449744 0.446200
Si Si2 0.826440 0.215881 0.578229
Si Si3 0.167438 0.134340 0.058781
Si Si4 0.326447 0.803206 0.190715
Si Si5 0.163123 0.185046 0.869165
Si Si6 0.672454 0.727488 0.866488
Si Si7 0.166284 0.869459 0.689301
Si Si8 0.670175 0.949500 0.753181
O O1 0.500000 0.440004 0.416393
O O2 0.313427 0.500000 0.485304
O O3 0.286100 0.415873 0.528991
O O4 0.233159 0.442147 0.356221
O O5 0.768436 0.259573 0.633727
O O6 0.773275 0.216033 0.471166
O O7 0.766851 0.170342 0.625564
O O8 0.000000 0.216860 0.584780
O O9 0.273030 0.151547 0.140374
O O10 0.000000 0.135540 0.093667
O O11 0.190955 0.166947 0.971702
O O12 0.500000 0.803926 0.198954
O O13 0.255684 0.804332 0.293695
O O14 0.283901 0.221668 0.844102
O O15 0.178016 0.144340 0.797535
O O16 0.000000 0.206258 0.859495
O O17 0.500000 0.721364 0.855075
O O18 0.257391 0.915339 0.678751
O O19 0.000000 0.879306 0.659248
O O20 0.500000 0.939135 0.758041
O O21 0.701987 0.000000 0.718530
#
# Coordination Sequence:
#
# PCOD8188136 Si02
#       8
#     8   8   8   8   8   8   8   8
#     4   9  17  31  50  70  96 131 166 198 238 290
#     4   9  19  33  49  68  94 125 162 201 239 279
#     4  10  19  31  47  73 100 128 166 204 240 284
#     4  11  21  35  50  69  97 132 166 200 242 289
#     4  10  18  29  47  71 100 130 161 201 240 278
#     4  11  21  34  49  70  97 130 166 204 243 284
#     4  10  18  33  51  68  93 131 169 200 236 284
#     4  10  20  31  44  69 103 130 157 199 245 289
#
# _framework density 16.363793999999999
#
# number of rings (size 3 to 8) (size 9 to 14) (size 15 to 20)
#    0.000    2.000    3.750    1.125    0.000    1.750 
#    0.000    1.250    0.000    0.000    0.000    0.875 
#    0.000    3.000    0.000    0.000    0.000    0.000 
#
# Total GULP energy -396768.399621 kJ/mol
# GULP energy per Si atom -12399.012488 kJ/mol
# Density = 1.632655 g / cm^3
# Si number density = 16.363794 Si / 1000 Ang^3
#
#
#
# Elastic Constant Matrix: (Units=GPa)
#
#
# Indices 1 2 3 4 5 6 
#
# 1 63.4077 37.7605 26.7317 0.0001 0.0000 0.0000
# 2 37.7605 101.1477 26.6529 0.0001 0.0000 0.0000
# 3 26.7317 26.6529 68.7009 0.0004 0.0000 0.0001
# 4 0.0001 0.0001 0.0004 23.2724 0.0000 0.0000
# 5 0.0000 0.0000 0.0000 0.0000 21.3731 0.0001
# 6 0.0000 0.0000 0.0001 0.0000 0.0001 25.7188
#
#
#
# Elastic Compliance Matrix: (Units=1/GPa)
#
#
# Indices 1 2 3 4 5 6 
#
# 1 0.022349 -0.006741 -0.006081 0.000000 0.000000 0.000000
# 2 -0.006741 0.013046 -0.002438 0.000000 0.000000 0.000000
# 3 -0.006081 -0.002438 0.017868 0.000000 0.000000 0.000000
# 4 0.000000 0.000000 0.000000 0.042969 0.000000 0.000000
# 5 0.000000 0.000000 0.000000 0.000000 0.046788 0.000000
# 6 0.000000 0.000000 0.000000 0.000000 0.000000 0.038882
#
#
# Mechanical properties :
#
#
# Convention : Reuss Voigt Hill
#
# Bulk Modulus (GPa) = 43.97081 46.17183 45.07132
# Shear Modulus (GPa) = 22.72704 23.54693 23.13699
#
# Velocity S-wave (km/s) = 3.73079 3.79749 3.76428
# Velocity P-wave (km/s) = 6.74444 6.89238 6.81881
#
# Compressibility (1/GPa) = 0.02274236
#
# Stress axis : x y z
#
# Youngs Moduli (GPa) = 44.74488 76.65449 55.96652
#
# Poissons Ratio (x) = 0.51673 0.34032
# Poissons Ratio (y) = 0.30162 0.13646
# Poissons Ratio (z) = 0.27209 0.18690
#
# Static dielectric constant tensor:
#      x y z
#    x 3.013180 0.000000 0.000000 
#    y 0.000000 3.168360 0.000000 
#    z 0.000000 0.000000 2.971550 
# 
# 
# High freq. dielectric constant tensor:
#      x y z
#    x 1.623410 0.000000 0.000000 
#    y 0.000000 1.622680 0.000000 
#    z 0.000000 0.000000 1.602680 
# 
# From -- ./inp_files/17108.got.cif
#   From: 2010.03.12/outbox.cif.g09.slc.cpg/sg44_9_cif.got.tgz:17108.got - 2010.04.14 02:36:11.
