data_PCOD8188978
_publ_section_title
;
Structure prediction by ZEFSAII (Michael W. Deem and Ramdas Pophale) SiO2 
 PCOD8188978
Probable space group: I M M 2
;
_chemical_formula_sum "Si O2"
_cell_formula_units_Z 56
_cell_length_a 14.951216
_cell_length_b 22.748464
_cell_length_c 8.770081
_cell_angle_alpha 90.000000
_cell_angle_beta 90.000000
_cell_angle_gamma 90.000000
_cell_volume 2982.855384
_symmetry_space_group_name_H-M "I M M 2"
_symmetry_group_IT_number 44
_symmetry_cell_setting 'orthorhombic'
loop_
_space_group_symop_operation_xyz
x,y,z
-x,-y,z
-x,y,z
x,-y,z
1/2+x,1/2+y,1/2+z
1/2-x,1/2-y,1/2+z
1/2-x,1/2+y,1/2+z
1/2+x,1/2-y,1/2+z
loop_
_atom_site_type_symbol
_atom_site_label
_atom_site_fract_x
_atom_site_fract_y
_atom_site_fract_z
Si Si1 0.216231 0.154690 0.421930
Si Si2 0.500000 0.932221 0.185300
Si Si3 0.602667 0.768329 0.923693
Si Si4 0.274793 0.568792 0.467644
Si Si5 0.347854 0.857299 0.170403
Si Si6 0.600884 0.431292 0.737562
Si Si7 0.320027 0.134034 0.726053
Si Si8 0.500000 0.931707 0.819414
O O1 0.148734 0.206644 0.462965
O O2 0.276049 0.173952 0.277949
O O3 0.158463 0.098258 0.371354
O O4 0.286449 0.139527 0.553875
O O5 0.417702 0.897593 0.263041
O O6 0.500000 0.000000 0.232303
O O7 0.500000 0.921287 0.001518
O O8 0.500000 0.758494 0.871697
O O9 0.658845 0.800975 0.791353
O O10 0.603472 0.806203 0.077267
O O11 0.263416 0.500000 0.435708
O O12 0.191216 0.592461 0.561228
O O13 0.364126 0.582585 0.565579
O O14 0.266809 0.604141 0.308800
O O15 0.500000 0.407583 0.744724
O O16 0.606909 0.500000 0.770351
O O17 0.410900 0.096097 0.743615
O O18 0.500000 0.000000 0.779151
#
# Coordination Sequence:
#
# PCOD8188978 Si02
#       8
#     8   4   8   8   8   8   8   4
#     4  11  24  35  57  83 117 150 184 233 300 342
#     4  11  18  33  61  85 111 155 197 233 275 337
#     4  11  20  40  60  76 104 151 201 238 279 335
#     4   9  17  32  58  82 106 144 189 229 273 338
#     4  10  19  35  54  82 111 144 190 233 274 340
#     4   9  19  38  58  80 110 148 192 237 282 336
#     4  11  21  37  56  87 118 147 188 236 288 348
#     4  11  20  35  61  87 119 157 187 231 287 349
#
# _framework density 18.773956999999999
#
# number of rings (size 3 to 8) (size 9 to 14) (size 15 to 20)
#    0.000    1.714    4.286    2.143    0.000    2.286 
#    0.000    2.143    0.000    1.714    0.000    0.000 
#    0.000    0.000    0.000    0.000    0.000    0.000 
#
# Total GULP energy -346984.524961 kJ/mol
# GULP energy per Si atom -12392.304463 kJ/mol
# Density = 1.873123 g / cm^3
# Si number density = 18.773957 Si / 1000 Ang^3
#
#
#
# Elastic Constant Matrix: (Units=GPa)
#
#
# Indices 1 2 3 4 5 6 
#
# 1 98.3785 42.2398 32.0738 0.0000 0.0000 0.0000
# 2 42.2398 88.4420 26.1064 0.0000 0.0000 0.0000
# 3 32.0738 26.1064 60.8496 0.0002 0.0000 -0.0001
# 4 0.0000 0.0000 0.0002 17.0812 0.0000 0.0000
# 5 0.0000 0.0000 0.0000 0.0000 21.1121 0.0000
# 6 0.0000 0.0000 -0.0001 0.0000 0.0000 34.5854
#
#
#
# Elastic Compliance Matrix: (Units=1/GPa)
#
#
# Indices 1 2 3 4 5 6 
#
# 1 0.014090 -0.005195 -0.005198 0.000000 0.000000 0.000000
# 2 -0.005195 0.014862 -0.003638 0.000000 0.000000 0.000000
# 3 -0.005198 -0.003638 0.020735 0.000000 0.000000 0.000000
# 4 0.000000 0.000000 0.000000 0.058544 0.000000 0.000000
# 5 0.000000 0.000000 0.000000 0.000000 0.047366 0.000000
# 6 0.000000 0.000000 0.000000 0.000000 0.000000 0.028914
#
#
# Mechanical properties :
#
#
# Convention : Reuss Voigt Hill
#
# Bulk Modulus (GPa) = 46.24368 49.83446 48.03907
# Shear Modulus (GPa) = 22.74997 24.37242 23.56119
#
# Velocity S-wave (km/s) = 3.48484 3.60697 3.54643
# Velocity P-wave (km/s) = 6.39355 6.62941 6.51255
#
# Compressibility (1/GPa) = 0.02162458
#
# Stress axis : x y z
#
# Youngs Moduli (GPa) = 70.97209 67.28653 48.22860
#
# Poissons Ratio (x) = 0.34956 0.25069
# Poissons Ratio (y) = 0.36870 0.17545
# Poissons Ratio (z) = 0.36891 0.24478
#
# Static dielectric constant tensor:
#      x y z
#    x 3.712080 0.000000 0.000000 
#    y 0.000000 3.495620 0.000000 
#    z 0.000000 0.000000 3.325280 
# 
# 
# High freq. dielectric constant tensor:
#      x y z
#    x 1.736710 0.000000 0.000000 
#    y 0.000000 1.732880 0.000000 
#    z 0.000000 0.000000 1.700120 
# 
# From -- ./inp_files/7414.got.cif
#   From: 2010.03.12/outbox.cif.g09.slc.cpg/sg44_4_cif.got.tgz:7414.got - 2010.04.14 02:36:11.
