data_PCOD8188774
_publ_section_title
;
Structure prediction by ZEFSAII (Michael W. Deem and Ramdas Pophale) SiO2 
 PCOD8188774
Probable space group: I M M 2
;
_chemical_formula_sum "Si O2"
_cell_formula_units_Z 64
_cell_length_a 24.422841
_cell_length_b 9.109409
_cell_length_c 15.097011
_cell_angle_alpha 90.000000
_cell_angle_beta 90.000000
_cell_angle_gamma 90.000000
_cell_volume 3358.747493
_symmetry_space_group_name_H-M "I M M 2"
_symmetry_group_IT_number 44
_symmetry_cell_setting 'orthorhombic'
loop_
_space_group_symop_operation_xyz
x,y,z
-x,-y,z
-x,y,z
x,-y,z
1/2+x,1/2+y,1/2+z
1/2-x,1/2-y,1/2+z
1/2-x,1/2+y,1/2+z
1/2+x,1/2-y,1/2+z
loop_
_atom_site_type_symbol
_atom_site_label
_atom_site_fract_x
_atom_site_fract_y
_atom_site_fract_z
Si Si1 0.161046 0.171550 0.932920
Si Si2 0.868150 0.832498 0.125776
Si Si3 0.562547 0.667566 0.128286
Si Si4 0.784391 0.671990 0.412144
Si Si5 0.889096 0.829447 0.441875
Si Si6 0.266764 0.333438 0.739181
Si Si7 0.356656 0.829315 0.255842
Si Si8 0.563995 0.170526 0.770417
O O1 0.224386 0.218923 0.945548
O O2 0.133652 0.256205 0.851500
O O3 0.158223 0.000000 0.911126
O O4 0.128147 0.210915 0.022284
O O5 0.804053 0.817136 0.152255
O O6 0.906977 0.726817 0.181371
O O7 0.887578 0.000000 0.140396
O O8 0.500000 0.702386 0.151727
O O9 0.577781 0.500000 0.150842
O O10 0.599851 0.772155 0.186181
O O11 0.570853 0.697579 0.024217
O O12 0.794945 0.500000 0.421389
O O13 0.830646 0.757388 0.467695
O O14 0.791496 0.720973 0.310259
O O15 0.914834 0.755744 0.355783
O O16 0.880664 0.000000 0.420903
O O17 0.269691 0.500000 0.776809
O O18 0.203854 0.293137 0.717591
O O19 0.366342 0.000000 0.268470
O O20 0.500000 0.199400 0.758718
O O21 0.577624 0.000000 0.783199
#
# Coordination Sequence:
#
# PCOD8188774 Si02
#       8
#     8   8   8   8   8   8   8   8
#     4   9  20  37  58  84 118 157 195 235 282 341
#     4  10  20  36  59  85 115 155 197 235 280 339
#     4  10  23  42  61  82 111 150 198 245 287 340
#     4  10  19  32  54  84 118 153 188 229 282 335
#     4  11  22  37  58  85 116 153 193 232 282 345
#     4   9  18  33  54  82 117 152 185 227 279 340
#     4  10  21  37  60  87 117 150 188 240 297 343
#     4  11  24  40  58  84 118 153 192 241 291 339
#
# _framework density 19.054722999999999
#
# number of rings (size 3 to 8) (size 9 to 14) (size 15 to 20)
#    0.000    2.000    1.250    1.875    1.750    4.250 
#    0.000    0.625    0.000    0.750    0.000    0.000 
#    0.000    0.000    0.000    0.000    0.000    0.000 
#
# Total GULP energy -396852.040917 kJ/mol
# GULP energy per Si atom -12401.626279 kJ/mol
# Density = 1.901135 g / cm^3
# Si number density = 19.054723 Si / 1000 Ang^3
#
#
#
# Elastic Constant Matrix: (Units=GPa)
#
#
# Indices 1 2 3 4 5 6 
#
# 1 81.0365 43.8829 43.0157 0.0000 0.0000 0.0000
# 2 43.8829 92.8161 50.9585 0.0000 0.0000 0.0000
# 3 43.0157 50.9585 95.6927 0.0000 0.0000 0.0000
# 4 0.0000 0.0000 0.0000 24.8090 0.0000 0.0000
# 5 0.0000 0.0000 0.0000 0.0000 28.9991 0.0000
# 6 0.0000 0.0000 0.0000 0.0000 0.0000 30.6454
#
#
#
# Elastic Compliance Matrix: (Units=1/GPa)
#
#
# Indices 1 2 3 4 5 6 
#
# 1 0.018181 -0.005807 -0.005081 0.000000 0.000000 0.000000
# 2 -0.005807 0.017080 -0.006485 0.000000 0.000000 0.000000
# 3 -0.005081 -0.006485 0.016188 0.000000 0.000000 0.000000
# 4 0.000000 0.000000 0.000000 0.040308 0.000000 0.000000
# 5 0.000000 0.000000 0.000000 0.000000 0.034484 0.000000
# 6 0.000000 0.000000 0.000000 0.000000 0.000000 0.032631
#
#
# Mechanical properties :
#
#
# Convention : Reuss Voigt Hill
#
# Bulk Modulus (GPa) = 59.86705 60.58439 60.22572
# Shear Modulus (GPa) = 25.10227 25.66991 25.38609
#
# Velocity S-wave (km/s) = 3.63351 3.67436 3.65399
# Velocity P-wave (km/s) = 7.00642 7.06153 7.03403
#
# Compressibility (1/GPa) = 0.01670368
#
# Stress axis : x y z
#
# Youngs Moduli (GPa) = 55.00101 58.54838 61.77587
#
# Poissons Ratio (x) = 0.33997 0.31387
# Poissons Ratio (y) = 0.31937 0.40063
# Poissons Ratio (z) = 0.27945 0.37970
#
# Static dielectric constant tensor:
#      x y z
#    x 3.534280 0.000000 0.000000 
#    y 0.000000 3.533870 0.000000 
#    z 0.000000 0.000000 3.349410 
# 
# 
# High freq. dielectric constant tensor:
#      x y z
#    x 1.736680 0.000000 0.000000 
#    y 0.000000 1.744450 0.000000 
#    z 0.000000 0.000000 1.733680 
# 
# From -- ./inp_files/19474.got.cif
#   From: 2010.03.12/outbox.cif.g09.slc.cpg/sg44_10_cif.got.tgz:19474.got - 2010.04.14 02:36:11.
