data_PCOD8188506
_publ_section_title
;
Structure prediction by ZEFSAII (Michael W. Deem and Ramdas Pophale) SiO2 
 PCOD8188506
Probable space group: I M M 2
;
_chemical_formula_sum "Si O2"
_cell_formula_units_Z 64
_cell_length_a 29.591489
_cell_length_b 9.937902
_cell_length_c 12.776384
_cell_angle_alpha 90.000000
_cell_angle_beta 90.000000
_cell_angle_gamma 90.000000
_cell_volume 3757.244737
_symmetry_space_group_name_H-M "I M M 2"
_symmetry_group_IT_number 44
_symmetry_cell_setting 'orthorhombic'
loop_
_space_group_symop_operation_xyz
x,y,z
-x,-y,z
-x,y,z
x,-y,z
1/2+x,1/2+y,1/2+z
1/2-x,1/2-y,1/2+z
1/2-x,1/2+y,1/2+z
1/2+x,1/2-y,1/2+z
loop_
_atom_site_type_symbol
_atom_site_label
_atom_site_fract_x
_atom_site_fract_y
_atom_site_fract_z
Si Si1 0.293589 0.853247 0.132030
Si Si2 0.050761 0.160104 0.975932
Si Si3 0.374857 0.341080 0.633885
Si Si4 0.350396 0.341490 0.857781
Si Si5 0.748966 0.151445 0.351115
Si Si6 0.209096 0.848444 0.995711
Si Si7 0.449721 0.659647 0.241895
Si Si8 0.872559 0.158972 0.586827
O O1 0.259907 0.847490 0.228911
O O2 0.260244 0.838125 0.035086
O O3 0.329466 0.733927 0.134248
O O4 0.318078 0.000000 0.127830
O O5 0.065189 0.208174 0.858586
O O6 0.000000 0.210467 0.001107
O O7 0.052493 0.000000 0.978772
O O8 0.084553 0.221586 0.063488
O O9 0.381363 0.500000 0.637689
O O10 0.374962 0.282172 0.753189
O O11 0.327336 0.301967 0.581268
O O12 0.346933 0.500000 0.841736
O O13 0.299203 0.287511 0.869059
O O14 0.378376 0.304599 0.963265
O O15 0.709274 0.243435 0.400427
O O16 0.745577 0.000000 0.397656
O O17 0.197554 0.000000 0.957009
O O18 0.500000 0.715007 0.216625
O O19 0.450576 0.500000 0.240168
O O20 0.415886 0.711729 0.151679
O O21 0.864668 0.000000 0.601437
#
# Coordination Sequence:
#
# PCOD8188506 Si02
#       8
#     8   8   8   8   8   8   8   8
#     4  10  20  32  45  65  96 129 155 187 236 279
#     4   8  14  25  41  62  90 120 147 184 234 280
#     4   9  16  27  43  63  90 122 154 186 227 279
#     4   9  16  28  43  61  88 123 156 185 225 272
#     4  10  19  32  45  61  93 129 152 187 239 275
#     4  10  19  30  46  67  89 120 160 194 222 264
#     4   8  15  28  44  66  95 119 145 190 243 281
#     4  10  19  30  49  71  91 123 161 193 229 276
#
# _framework density 17.033757999999999
#
# number of rings (size 3 to 8) (size 9 to 14) (size 15 to 20)
#    0.000    2.750    2.500    0.750    1.750    0.500 
#    0.000    0.625    0.000    4.875    0.000    0.000 
#    0.000    0.500    0.000    0.000    0.000    0.000 
#
# Total GULP energy -396487.285429 kJ/mol
# GULP energy per Si atom -12390.227670 kJ/mol
# Density = 1.699499 g / cm^3
# Si number density = 17.033758 Si / 1000 Ang^3
#
#
#
# Elastic Constant Matrix: (Units=GPa)
#
#
# Indices 1 2 3 4 5 6 
#
# 1 97.3999 21.0659 63.2459 0.0000 0.0000 0.0000
# 2 21.0659 28.7722 21.5414 0.0000 0.0000 0.0000
# 3 63.2459 21.5414 116.6633 0.0000 0.0000 0.0000
# 4 0.0000 0.0000 0.0000 15.5342 0.0000 0.0000
# 5 0.0000 0.0000 0.0000 0.0000 32.1506 0.0000
# 6 0.0000 0.0000 0.0000 0.0000 0.0000 13.4153
#
#
#
# Elastic Compliance Matrix: (Units=1/GPa)
#
#
# Indices 1 2 3 4 5 6 
#
# 1 0.016790 -0.006357 -0.007929 0.000000 0.000000 0.000000
# 2 -0.006357 0.042738 -0.004445 0.000000 0.000000 0.000000
# 3 -0.007929 -0.004445 0.013691 0.000000 0.000000 0.000000
# 4 0.000000 0.000000 0.000000 0.064374 0.000000 0.000000
# 5 0.000000 0.000000 0.000000 0.000000 0.031104 0.000000
# 6 0.000000 0.000000 0.000000 0.000000 0.000000 0.074542
#
#
# Mechanical properties :
#
#
# Convention : Reuss Voigt Hill
#
# Bulk Modulus (GPa) = 27.96608 50.50464 39.23536
# Shear Modulus (GPa) = 17.08706 21.35218 19.21962
#
# Velocity S-wave (km/s) = 3.17066 3.54435 3.36270
# Velocity P-wave (km/s) = 5.46423 6.81645 6.17745
#
# Compressibility (1/GPa) = 0.03575760
#
# Stress axis : x y z
#
# Youngs Moduli (GPa) = 59.55839 23.39823 73.04228
#
# Poissons Ratio (x) = 0.14875 0.57912
# Poissons Ratio (y) = 0.37862 0.32468
# Poissons Ratio (z) = 0.47221 0.10401
#
# Static dielectric constant tensor:
#      x y z
#    x 3.225570 0.000000 0.000000 
#    y 0.000000 2.759100 0.000000 
#    z 0.000000 0.000000 3.460440 
# 
# 
# High freq. dielectric constant tensor:
#      x y z
#    x 1.644110 0.000000 0.000000 
#    y 0.000000 1.598070 0.000000 
#    z 0.000000 0.000000 1.668450 
# 
# From -- ./inp_files/14910.got.cif
#   From: 2010.03.12/outbox.cif.g09.slc.cpg/sg44_8_cif.got.tgz:14910.got - 2010.04.14 02:36:11.
