data_PCOD8189909
_publ_section_title
;
Structure prediction by ZEFSAII (Michael W. Deem and Ramdas Pophale) SiO2 
 PCOD8189909
Probable space group: I M M 2
;
_chemical_formula_sum "Si O2"
_cell_formula_units_Z 48
_cell_length_a 8.919721
_cell_length_b 18.583713
_cell_length_c 15.058649
_cell_angle_alpha 90.000000
_cell_angle_beta 90.000000
_cell_angle_gamma 90.000000
_cell_volume 2496.144775
_symmetry_space_group_name_H-M "I M M 2"
_symmetry_group_IT_number 44
_symmetry_cell_setting 'orthorhombic'
loop_
_space_group_symop_operation_xyz
x,y,z
-x,-y,z
-x,y,z
x,-y,z
1/2+x,1/2+y,1/2+z
1/2-x,1/2-y,1/2+z
1/2-x,1/2+y,1/2+z
1/2+x,1/2-y,1/2+z
loop_
_atom_site_type_symbol
_atom_site_label
_atom_site_fract_x
_atom_site_fract_y
_atom_site_fract_z
Si Si1 0.672059 0.582458 0.750000
Si Si2 0.673559 0.917080 0.752603
Si Si3 0.173795 0.809535 0.097395
Si Si4 0.672402 0.679049 0.395732
Si Si5 0.322935 0.339883 0.093573
Si Si6 0.674542 0.843398 0.408412
O O1 0.500000 0.598229 0.775524
O O2 0.697788 0.500000 0.724478
O O3 0.721239 0.627900 0.664431
O O4 0.775254 0.601687 0.832995
O O5 0.500000 0.902306 0.732846
O O6 0.721309 0.870214 0.837078
O O7 0.767465 0.896689 0.665919
O O8 0.704621 0.000000 0.775602
O O9 0.269621 0.739535 0.121314
O O10 0.000000 0.787643 0.105642
O O11 0.207058 0.838056 0.998534
O O12 0.500000 0.662365 0.371719
O O13 0.710951 0.762431 0.376751
O O14 0.500000 0.341163 0.090374
O O15 0.260741 0.363172 0.998160
O O16 0.500000 0.852531 0.428432
#
# Coordination Sequence:
#
# PCOD8189909 Si02
#       6
#     8   8   8   8   8   8
#     4  10  21  36  55  82 115 150 186 223 268 323
#     4  11  24  39  55  79 113 150 184 223 275 330
#     4   9  19  37  60  84 112 146 183 226 273 321
#     4   9  19  36  59  85 109 139 184 231 273 322
#     4  11  22  37  60  85 108 140 184 232 277 325
#     4  10  21  38  59  83 111 144 183 227 276 327
#
# _framework density 19.229655000000001
#
# number of rings (size 3 to 8) (size 9 to 14) (size 15 to 20)
#    0.000    2.000    0.000    4.500    0.000    9.667 
#    0.000    1.667    0.000    0.000    0.000    0.000 
#    0.000    0.000    0.000    0.000    0.000    0.000 
#
# Total GULP energy -297723.220269 kJ/mol
# GULP energy per Si atom -12405.134178 kJ/mol
# Density = 1.918589 g / cm^3
# Si number density = 19.229655 Si / 1000 Ang^3
#
#
#
# Elastic Constant Matrix: (Units=GPa)
#
#
# Indices 1 2 3 4 5 6 
#
# 1 98.8626 31.4588 36.0404 0.0000 0.0000 0.0000
# 2 31.4588 59.5811 32.4952 0.0000 0.0000 0.0000
# 3 36.0404 32.4952 88.0952 0.0000 0.0000 0.0000
# 4 0.0000 0.0000 0.0000 9.9277 0.0000 0.0000
# 5 0.0000 0.0000 0.0000 0.0000 34.9417 0.0000
# 6 0.0000 0.0000 0.0000 0.0000 0.0000 30.1067
#
#
#
# Elastic Compliance Matrix: (Units=1/GPa)
#
#
# Indices 1 2 3 4 5 6 
#
# 1 0.012956 -0.004945 -0.003476 0.000000 0.000000 0.000000
# 2 -0.004945 0.022898 -0.006423 0.000000 0.000000 0.000000
# 3 -0.003476 -0.006423 0.015143 0.000000 0.000000 0.000000
# 4 0.000000 0.000000 0.000000 0.100728 0.000000 0.000000
# 5 0.000000 0.000000 0.000000 0.000000 0.028619 0.000000
# 6 0.000000 0.000000 0.000000 0.000000 0.000000 0.033215
#
#
# Mechanical properties :
#
#
# Convention : Reuss Voigt Hill
#
# Bulk Modulus (GPa) = 46.93110 49.61419 48.27265
# Shear Modulus (GPa) = 19.97201 24.76485 22.36843
#
# Velocity S-wave (km/s) = 3.22624 3.59255 3.41431
# Velocity P-wave (km/s) = 6.19166 6.56243 6.37974
#
# Compressibility (1/GPa) = 0.02130783
#
# Stress axis : x y z
#
# Youngs Moduli (GPa) = 77.18549 43.67215 66.03752
#
# Poissons Ratio (x) = 0.21594 0.22957
# Poissons Ratio (y) = 0.38166 0.42418
# Poissons Ratio (z) = 0.26833 0.28052
#
# Static dielectric constant tensor:
#      x y z
#    x 3.505790 0.000000 0.000000 
#    y 0.000000 3.465180 0.000000 
#    z 0.000000 0.000000 3.597520 
# 
# 
# High freq. dielectric constant tensor:
#      x y z
#    x 1.749910 0.000000 0.000000 
#    y 0.000000 1.742330 0.000000 
#    z 0.000000 0.000000 1.758580 
# 
# From -- ./inp_files/16060.got.cif
#   From: 2010.03.12/outbox.cif.g09.slc.cpg/sg44_9_cif.got.tgz:16060.got - 2010.04.14 02:36:11.
