data_PCOD8189789
_publ_section_title
;
Structure prediction by ZEFSAII (Michael W. Deem and Ramdas Pophale) SiO2 
 PCOD8189789
Probable space group: I M M 2
;
_chemical_formula_sum "Si O2"
_cell_formula_units_Z 40
_cell_length_a 8.827721
_cell_length_b 11.599833
_cell_length_c 19.864050
_cell_angle_alpha 90.000000
_cell_angle_beta 90.000000
_cell_angle_gamma 90.000000
_cell_volume 2034.080495
_symmetry_space_group_name_H-M "I M M 2"
_symmetry_group_IT_number 44
_symmetry_cell_setting 'orthorhombic'
loop_
_space_group_symop_operation_xyz
x,y,z
-x,-y,z
-x,y,z
x,-y,z
1/2+x,1/2+y,1/2+z
1/2-x,1/2-y,1/2+z
1/2-x,1/2+y,1/2+z
1/2+x,1/2-y,1/2+z
loop_
_atom_site_type_symbol
_atom_site_label
_atom_site_fract_x
_atom_site_fract_y
_atom_site_fract_z
Si Si1 0.830763 0.500000 0.507380
Si Si2 0.829007 0.500000 0.666578
Si Si3 0.177160 0.633533 0.864871
Si Si4 0.180890 0.751128 0.491148
Si Si5 0.821391 0.784060 0.233699
Si Si6 0.825393 0.866297 0.629540
O O1 0.834568 0.500000 0.587234
O O2 0.754745 0.380371 0.481887
O O3 0.000000 0.500000 0.478693
O O4 0.740727 0.611221 0.690291
O O5 0.000000 0.500000 0.696774
O O6 0.213786 0.500000 0.848873
O O7 0.246685 0.665713 0.936450
O O8 0.251815 0.714013 0.808303
O O9 0.000000 0.657310 0.866836
O O10 0.231442 0.796646 0.564231
O O11 0.000000 0.755252 0.485004
O O12 0.772223 0.668076 0.195016
O O13 0.000000 0.790802 0.240318
O O14 0.000000 0.836710 0.644806
O O15 0.800635 0.000000 0.614760
#
# Coordination Sequence:
#
# PCOD8189789 Si02
#       6
#     4   4   8   8   8   8
#     4   9  18  35  63  91 119 154 191 238 299 355
#     4  11  19  37  65  91 121 154 193 246 299 357
#     4  11  24  41  61  85 118 160 202 250 303 355
#     4  10  20  38  63  91 120 155 199 245 296 358
#     4  12  24  38  61  92 122 156 199 250 302 359
#     4  10  21  39  64  91 121 161 202 244 299 360
#
# _framework density 19.664904
#
# number of rings (size 3 to 8) (size 9 to 14) (size 15 to 20)
#    0.000    1.400    3.000    3.300    0.000    3.200 
#    1.800    0.500    0.000    0.000    0.000    0.000 
#    0.000    0.000    0.000    0.000    0.000    0.000 
#
# Total GULP energy -248026.740236 kJ/mol
# GULP energy per Si atom -12401.337012 kJ/mol
# Density = 1.962015 g / cm^3
# Si number density = 19.664904 Si / 1000 Ang^3
#
#
#
# Elastic Constant Matrix: (Units=GPa)
#
#
# Indices 1 2 3 4 5 6 
#
# 1 82.5303 36.7965 50.9520 0.0000 0.0000 0.0000
# 2 36.7965 87.7186 34.8470 0.0000 0.0000 0.0000
# 3 50.9520 34.8470 106.5165 0.0000 0.0000 0.0000
# 4 0.0000 0.0000 0.0000 38.5431 0.0000 0.0000
# 5 0.0000 0.0000 0.0000 0.0000 31.9470 0.0000
# 6 0.0000 0.0000 0.0000 0.0000 0.0000 0.0069
#
#
#
# Elastic Compliance Matrix: (Units=1/GPa)
#
#
# Indices 1 2 3 4 5 6 
#
# 1 0.018922 -0.004990 -0.007419 0.000000 0.000000 -0.000003
# 2 -0.004990 0.014419 -0.002330 0.000000 0.000000 0.000002
# 3 -0.007419 -0.002330 0.013699 0.000000 0.000000 0.000003
# 4 0.000000 0.000000 0.000000 0.025945 0.000000 0.000006
# 5 0.000000 0.000000 0.000000 0.000000 0.031302 0.000002
# 6 -0.000003 0.000002 0.000003 0.000006 0.000002144.586218
#
#
# Mechanical properties :
#
#
# Convention : Reuss Voigt Hill
#
# Bulk Modulus (GPa) = 56.94105 57.99516 57.46810
# Shear Modulus (GPa) = 0.03455 24.37739 12.20597
#
# Velocity S-wave (km/s) = 0.13269 3.52467 2.49408
# Velocity P-wave (km/s) = 5.38906 6.79118 6.13034
#
# Compressibility (1/GPa) = 0.01756202
#
# Stress axis : x y z
#
# Youngs Moduli (GPa) = 52.84925 69.35250 72.99689
#
# Poissons Ratio (x) = 0.34609 0.54154
# Poissons Ratio (y) = 0.26373 0.17009
# Poissons Ratio (z) = 0.39207 0.16160
#
# Static dielectric constant tensor:
#      x y z
#    x 3.475310 0.000000 0.000000 
#    y 0.000000 3.757170 0.000000 
#    z 0.000000 0.000000 3.565110 
# 
# 
# High freq. dielectric constant tensor:
#      x y z
#    x 1.751990 0.000000 0.000000 
#    y 0.000000 1.772460 0.000000 
#    z 0.000000 0.000000 1.768450 
# 
# From -- ./inp_files/20047.got.cif
#   From: 2010.03.12/outbox.cif.g09.slc.cpg/sg44_11_cif.got.tgz:20047.got - 2010.04.14 02:36:11.
