data_PCOD8189734
_publ_section_title
;
Structure prediction by ZEFSAII (Michael W. Deem and Ramdas Pophale) SiO2 
 PCOD8189734
Probable space group: I M M 2
;
_chemical_formula_sum "Si O2"
_cell_formula_units_Z 64
_cell_length_a 30.549797
_cell_length_b 9.013347
_cell_length_c 11.937070
_cell_angle_alpha 90.000000
_cell_angle_beta 90.000000
_cell_angle_gamma 90.000000
_cell_volume 3286.942906
_symmetry_space_group_name_H-M "I M M 2"
_symmetry_group_IT_number 44
_symmetry_cell_setting 'orthorhombic'
loop_
_space_group_symop_operation_xyz
x,y,z
-x,-y,z
-x,y,z
x,-y,z
1/2+x,1/2+y,1/2+z
1/2-x,1/2-y,1/2+z
1/2-x,1/2+y,1/2+z
1/2+x,1/2-y,1/2+z
loop_
_atom_site_type_symbol
_atom_site_label
_atom_site_fract_x
_atom_site_fract_y
_atom_site_fract_z
Si Si1 0.450354 0.830772 0.682300
Si Si2 0.375908 0.825849 0.509389
Si Si3 0.376902 0.323642 0.271058
Si Si4 0.294896 0.323385 0.128649
Si Si5 0.549037 0.169503 0.129681
Si Si6 0.568792 0.667583 0.910023
Si Si7 0.198974 0.674847 0.177213
Si Si8 0.329696 0.333105 0.895846
O O1 0.500000 0.814921 0.638075
O O2 0.418046 0.781202 0.583097
O O3 0.443357 0.726783 0.788243
O O4 0.439795 0.000000 0.717581
O O5 0.377642 0.732863 0.396985
O O6 0.331836 0.777085 0.574289
O O7 0.376018 0.000000 0.481079
O O8 0.378570 0.500000 0.269542
O O9 0.332601 0.263432 0.211662
O O10 0.419304 0.265551 0.206706
O O11 0.295275 0.500000 0.131434
O O12 0.247709 0.257962 0.164091
O O13 0.303059 0.269600 0.001755
O O14 0.500000 0.178699 0.179989
O O15 0.565618 0.000000 0.127374
O O16 0.546705 0.230778 0.003510
O O17 0.550888 0.500000 0.920127
O O18 0.620204 0.670255 0.931538
O O19 0.201391 0.500000 0.183423
O O20 0.177802 0.728565 0.291389
O O21 0.314842 0.500000 0.865092
#
# Coordination Sequence:
#
# PCOD8189734 Si02
#       8
#     8   8   8   8   8   8   8   8
#     4  10  21  38  59  83 115 154 194 240 294 349
#     4  10  22  39  58  84 116 154 199 245 293 346
#     4  11  23  41  62  85 118 156 194 240 295 350
#     4   9  20  39  59  84 119 155 189 239 296 344
#     4  11  24  41  62  88 118 153 194 240 290 346
#     4  11  21  36  60  89 121 154 189 236 294 351
#     4  10  21  38  61  86 116 154 198 242 287 345
#     4  10  20  37  60  85 118 153 188 238 298 346
#
# _framework density 19.470980999999998
#
# number of rings (size 3 to 8) (size 9 to 14) (size 15 to 20)
#    0.000    1.750    2.500    1.500    1.750    4.750 
#    0.000    2.500    0.000    0.000    0.000    0.000 
#    0.000    0.000    0.000    0.000    0.000    0.000 
#
# Total GULP energy -396875.896753 kJ/mol
# GULP energy per Si atom -12402.371774 kJ/mol
# Density = 1.942666 g / cm^3
# Si number density = 19.470981 Si / 1000 Ang^3
#
#
#
# Elastic Constant Matrix: (Units=GPa)
#
#
# Indices 1 2 3 4 5 6 
#
# 1 120.1694 41.8943 48.5197 0.0000 0.0000 0.0000
# 2 41.8943 54.8094 46.7216 0.0000 0.0000 0.0000
# 3 48.5197 46.7216 124.1775 0.0000 0.0000 0.0000
# 4 0.0000 0.0000 0.0000 37.7814 0.0000 0.0000
# 5 0.0000 0.0000 0.0000 0.0000 22.5116 0.0000
# 6 0.0000 0.0000 0.0000 0.0000 0.0000 22.4743
#
#
#
# Elastic Compliance Matrix: (Units=1/GPa)
#
#
# Indices 1 2 3 4 5 6 
#
# 1 0.011601 -0.007366 -0.001761 0.000000 0.000000 0.000000
# 2 -0.007366 0.031536 -0.008988 0.000000 0.000000 0.000000
# 3 -0.001761 -0.008988 0.012123 0.000000 0.000000 0.000000
# 4 0.000000 0.000000 0.000000 0.026468 0.000000 0.000000
# 5 0.000000 0.000000 0.000000 0.000000 0.044422 0.000000
# 6 0.000000 0.000000 0.000000 0.000000 0.000000 0.044495
#
#
# Mechanical properties :
#
#
# Convention : Reuss Voigt Hill
#
# Bulk Modulus (GPa) = 52.54682 63.71416 58.13049
# Shear Modulus (GPa) = 23.45024 27.35483 25.40253
#
# Velocity S-wave (km/s) = 3.47417 3.75227 3.61589
# Velocity P-wave (km/s) = 6.56802 7.18097 6.88133
#
# Compressibility (1/GPa) = 0.01903065
#
# Stress axis : x y z
#
# Youngs Moduli (GPa) = 86.20223 31.70934 82.48929
#
# Poissons Ratio (x) = 0.23356 0.14530
# Poissons Ratio (y) = 0.63493 0.74138
# Poissons Ratio (z) = 0.15184 0.28499
#
# Static dielectric constant tensor:
#      x y z
#    x 3.950270 0.000000 0.000000 
#    y 0.000000 3.445700 0.000000 
#    z 0.000000 0.000000 3.469090 
# 
# 
# High freq. dielectric constant tensor:
#      x y z
#    x 1.774700 0.000000 0.000000 
#    y 0.000000 1.744600 0.000000 
#    z 0.000000 0.000000 1.758750 
# 
# From -- ./inp_files/11451.got.cif
#   From: 2010.03.12/outbox.cif.g09.slc.cpg/sg44_6_cif.got.tgz:11451.got - 2010.04.14 02:36:11.
