data_PCOD8189190
_publ_section_title
;
Structure prediction by ZEFSAII (Michael W. Deem and Ramdas Pophale) SiO2 
 PCOD8189190
Probable space group: I M M 2
;
_chemical_formula_sum "Si O2"
_cell_formula_units_Z 64
_cell_length_a 9.034220
_cell_length_b 15.413505
_cell_length_c 23.126853
_cell_angle_alpha 90.000000
_cell_angle_beta 90.000000
_cell_angle_gamma 90.000000
_cell_volume 3220.391041
_symmetry_space_group_name_H-M "I M M 2"
_symmetry_group_IT_number 44
_symmetry_cell_setting 'orthorhombic'
loop_
_space_group_symop_operation_xyz
x,y,z
-x,-y,z
-x,y,z
x,-y,z
1/2+x,1/2+y,1/2+z
1/2-x,1/2-y,1/2+z
1/2-x,1/2+y,1/2+z
1/2+x,1/2-y,1/2+z
loop_
_atom_site_type_symbol
_atom_site_label
_atom_site_fract_x
_atom_site_fract_y
_atom_site_fract_z
Si Si1 0.667864 0.403488 0.608350
Si Si2 0.825022 0.273720 0.281215
Si Si3 0.340986 0.900594 0.450521
Si Si4 0.835582 0.175576 0.544364
Si Si5 0.827787 0.097785 0.339633
Si Si6 0.173341 0.899880 0.873237
Si Si7 0.169365 0.637824 0.493470
Si Si8 0.675675 0.751511 0.165211
O O1 0.500000 0.368196 0.600457
O O2 0.664766 0.500000 0.634418
O O3 0.749749 0.407628 0.546936
O O4 0.755229 0.346304 0.655158
O O5 0.790337 0.171380 0.292410
O O6 0.755204 0.337286 0.328302
O O7 0.748895 0.295265 0.220058
O O8 0.000000 0.290924 0.278671
O O9 0.500000 0.852257 0.449663
O O10 0.270301 0.893299 0.514072
O O11 0.240831 0.864313 0.398828
O O12 0.365395 0.000000 0.437195
O O13 0.828488 0.259776 0.503746
O O14 0.782203 0.194104 0.609334
O O15 0.000000 0.136898 0.546032
O O16 0.000000 0.092960 0.351665
O O17 0.771244 0.000000 0.321874
O O18 0.243029 0.885811 0.935973
O O19 0.000000 0.876377 0.875228
O O20 0.196380 0.000000 0.854373
O O21 0.000000 0.604288 0.489285
O O22 0.500000 0.760381 0.172890
#
# Coordination Sequence:
#
# PCOD8189190 Si02
#       8
#     8   8   8   8   8   8   8   8
#     4  10  20  34  54  82 115 148 182 222 271 330
#     4  11  23  39  60  84 111 147 191 237 284 334
#     4  10  20  32  50  80 111 136 170 218 268 319
#     4   9  19  35  54  77 105 140 178 215 265 328
#     4   9  19  36  57  82 114 149 181 216 266 331
#     4  11  24  40  58  82 113 150 192 237 286 340
#     4  10  20  34  55  84 115 144 179 226 279 337
#     4  10  22  39  57  78 106 142 186 231 275 330
#
# _framework density 19.873363999999999
#
# number of rings (size 3 to 8) (size 9 to 14) (size 15 to 20)
#    0.000    2.000    0.000    4.125    0.000   11.750 
#    0.000    1.875    0.000    0.750    0.000    0.000 
#    0.000    0.000    0.000    0.000    0.000    0.000 
#
# Total GULP energy -396696.502491 kJ/mol
# GULP energy per Si atom -12396.765703 kJ/mol
# Density = 1.982813 g / cm^3
# Si number density = 19.873364 Si / 1000 Ang^3
#
#
#
# Elastic Constant Matrix: (Units=GPa)
#
#
# Indices 1 2 3 4 5 6 
#
# 1 111.2508 30.8072 45.2614 0.0000 0.0000 0.0000
# 2 30.8072 45.9634 28.1183 0.0000 0.0000 0.0000
# 3 45.2614 28.1183 94.9676 0.0000 0.0000 0.0000
# 4 0.0000 0.0000 0.0000 13.7215 0.0000 0.0000
# 5 0.0000 0.0000 0.0000 0.0000 37.8494 0.0000
# 6 0.0000 0.0000 0.0000 0.0000 0.0000 27.8081
#
#
#
# Elastic Compliance Matrix: (Units=1/GPa)
#
#
# Indices 1 2 3 4 5 6 
#
# 1 0.012250 -0.005665 -0.004161 0.000000 0.000000 0.000000
# 2 -0.005665 0.029189 -0.005942 0.000000 0.000000 0.000000
# 3 -0.004161 -0.005942 0.014272 0.000000 0.000000 0.000000
# 4 0.000000 0.000000 0.000000 0.072878 0.000000 0.000000
# 5 0.000000 0.000000 0.000000 0.000000 0.026421 0.000000
# 6 0.000000 0.000000 0.000000 0.000000 0.000000 0.035961
#
#
# Mechanical properties :
#
#
# Convention : Reuss Voigt Hill
#
# Bulk Modulus (GPa) = 41.36612 51.17285 46.26949
# Shear Modulus (GPa) = 21.68570 25.74213 23.71392
#
# Velocity S-wave (km/s) = 3.30691 3.60294 3.45809
# Velocity P-wave (km/s) = 5.95322 6.56610 6.26716
#
# Compressibility (1/GPa) = 0.02417437
#
# Stress axis : x y z
#
# Youngs Moduli (GPa) = 81.62972 34.25969 70.06481
#
# Poissons Ratio (x) = 0.19409 0.29155
# Poissons Ratio (y) = 0.46246 0.41634
# Poissons Ratio (z) = 0.33967 0.20358
#
# Static dielectric constant tensor:
#      x y z
#    x 3.937120 0.000000 0.000000 
#    y 0.000000 3.575580 0.000000 
#    z 0.000000 0.000000 3.515620 
# 
# 
# High freq. dielectric constant tensor:
#      x y z
#    x 1.789130 0.000000 0.000000 
#    y 0.000000 1.762010 0.000000 
#    z 0.000000 0.000000 1.769020 
# 
# From -- ./inp_files/23299.got.cif
#   From: 2010.03.12/outbox.cif.g09.slc.cpg/sg44_12_cif.got.tgz:23299.got - 2010.04.14 02:36:11.
