data_PCOD8189230
_publ_section_title
;
Structure prediction by ZEFSAII (Michael W. Deem and Ramdas Pophale) SiO2 
 PCOD8189230
Probable space group: I M M 2
;
_chemical_formula_sum "Si O2"
_cell_formula_units_Z 64
_cell_length_a 14.290487
_cell_length_b 8.889269
_cell_length_c 28.367723
_cell_angle_alpha 90.000000
_cell_angle_beta 90.000000
_cell_angle_gamma 90.000000
_cell_volume 3603.608108
_symmetry_space_group_name_H-M "I M M 2"
_symmetry_group_IT_number 44
_symmetry_cell_setting 'orthorhombic'
loop_
_space_group_symop_operation_xyz
x,y,z
-x,-y,z
-x,y,z
x,-y,z
1/2+x,1/2+y,1/2+z
1/2-x,1/2-y,1/2+z
1/2-x,1/2+y,1/2+z
1/2+x,1/2-y,1/2+z
loop_
_atom_site_type_symbol
_atom_site_label
_atom_site_fract_x
_atom_site_fract_y
_atom_site_fract_z
Si Si1 0.108978 0.828762 0.433790
Si Si2 0.708719 0.821880 0.285251
Si Si3 0.392811 0.174869 0.102096
Si Si4 0.773515 0.323428 0.512656
Si Si5 0.106586 0.677453 0.968984
Si Si6 0.392632 0.676514 0.199522
Si Si7 0.889367 0.829808 0.872359
Si Si8 0.601868 0.321850 0.828084
O O1 0.163789 0.719298 0.468192
O O2 0.127131 0.767599 0.380891
O O3 0.000000 0.820850 0.446144
O O4 0.145803 0.000000 0.439841
O O5 0.675101 0.759123 0.235653
O O6 0.647482 0.756831 0.327201
O O7 0.817017 0.770897 0.292170
O O8 0.698067 0.000000 0.285620
O O9 0.500000 0.206997 0.087311
O O10 0.326030 0.228925 0.059979
O O11 0.364185 0.271459 0.147442
O O12 0.378413 0.000000 0.114020
O O13 0.756236 0.500000 0.512717
O O14 0.672846 0.240964 0.510348
O O15 0.115403 0.500000 0.965665
O O16 0.143317 0.746108 0.919741
O O17 0.000000 0.727080 0.979753
O O18 0.500000 0.721412 0.210323
O O19 0.377398 0.500000 0.204271
O O20 0.000000 0.828358 0.868744
O O21 0.850750 0.000000 0.873090
O O22 0.500000 0.256531 0.812208
O O23 0.594464 0.500000 0.830263
#
# Coordination Sequence:
#
# PCOD8189230 Si02
#       8
#     8   8   8   8   8   8   8   8
#     4   9  17  30  49  73 103 138 173 207 243 290
#     4  11  20  30  51  77 100 132 170 206 248 300
#     4   9  19  36  55  76 103 131 160 198 246 301
#     4  11  21  32  51  77 104 133 165 206 255 305
#     4  10  21  36  52  71  99 136 176 214 250 293
#     4  10  21  36  53  74 101 131 162 201 250 300
#     4  10  20  33  49  72 104 137 168 206 251 297
#     4   8  16  31  48  68  96 130 168 206 239 276
#
# _framework density 17.759976000000002
#
# number of rings (size 3 to 8) (size 9 to 14) (size 15 to 20)
#    0.000    2.250    0.000    4.125    0.000    6.500 
#    0.000    1.875    0.000    3.750    0.000    1.750 
#    0.000    0.000    0.000    0.000    0.000    0.000 
#
# Total GULP energy -396818.394695 kJ/mol
# GULP energy per Si atom -12400.574834 kJ/mol
# Density = 1.771955 g / cm^3
# Si number density = 17.759976 Si / 1000 Ang^3
#
#
#
# Elastic Constant Matrix: (Units=GPa)
#
#
# Indices 1 2 3 4 5 6 
#
# 1 83.9802 40.0694 68.7684 0.0000 0.0000 0.0000
# 2 40.0694 71.4946 47.7470 0.0000 0.0000 0.0000
# 3 68.7684 47.7470 102.7128 0.0000 0.0000 0.0000
# 4 0.0000 0.0000 0.0000 30.9995 0.0000 0.0000
# 5 0.0000 0.0000 0.0000 0.0000 31.7940 0.0000
# 6 0.0000 0.0000 0.0000 0.0000 0.0000 24.4487
#
#
#
# Elastic Compliance Matrix: (Units=1/GPa)
#
#
# Indices 1 2 3 4 5 6 
#
# 1 0.027317 -0.004489 -0.016203 0.000000 0.000000 0.000000
# 2 -0.004489 0.021022 -0.006767 0.000000 0.000000 0.000000
# 3 -0.016203 -0.006767 0.023729 0.000000 0.000000 0.000000
# 4 0.000000 0.000000 0.000000 0.032259 0.000000 0.000000
# 5 0.000000 0.000000 0.000000 0.000000 0.031452 0.000000
# 6 0.000000 0.000000 0.000000 0.000000 0.000000 0.040902
#
#
# Mechanical properties :
#
#
# Convention : Reuss Voigt Hill
#
# Bulk Modulus (GPa) = 58.30319 63.48414 60.89366
# Shear Modulus (GPa) = 21.06895 24.22198 22.64546
#
# Velocity S-wave (km/s) = 3.44803 3.69704 3.57471
# Velocity P-wave (km/s) = 6.98223 7.35169 7.16934
#
# Compressibility (1/GPa) = 0.01715172
#
# Stress axis : x y z
#
# Youngs Moduli (GPa) = 36.60692 47.56882 42.14181
#
# Poissons Ratio (x) = 0.21355 0.68281
# Poissons Ratio (y) = 0.16434 0.28516
# Poissons Ratio (z) = 0.59313 0.32188
#
# Static dielectric constant tensor:
#      x y z
#    x 3.634190 0.000000 0.000000 
#    y 0.000000 3.264620 0.000000 
#    z 0.000000 0.000000 3.190470 
# 
# 
# High freq. dielectric constant tensor:
#      x y z
#    x 1.690400 0.000000 0.000000 
#    y 0.000000 1.685310 0.000000 
#    z 0.000000 0.000000 1.668950 
# 
# From -- ./inp_files/25768.got.cif
#   From: 2010.03.12/outbox.cif.g09.slc.cpg/sg44_13_cif.got.tgz:25768.got - 2010.04.14 02:36:11.
