data_PCOD8189907
_publ_section_title
;
Structure prediction by ZEFSAII (Michael W. Deem and Ramdas Pophale) SiO2 
 PCOD8189907
Probable space group: I M M 2
;
_chemical_formula_sum "Si O2"
_cell_formula_units_Z 40
_cell_length_a 28.980478
_cell_length_b 9.039762
_cell_length_c 7.459268
_cell_angle_alpha 90.000000
_cell_angle_beta 90.000000
_cell_angle_gamma 90.000000
_cell_volume 1954.153846
_symmetry_space_group_name_H-M "I M M 2"
_symmetry_group_IT_number 44
_symmetry_cell_setting 'orthorhombic'
loop_
_space_group_symop_operation_xyz
x,y,z
-x,-y,z
-x,y,z
x,-y,z
1/2+x,1/2+y,1/2+z
1/2-x,1/2-y,1/2+z
1/2-x,1/2+y,1/2+z
1/2+x,1/2-y,1/2+z
loop_
_atom_site_type_symbol
_atom_site_label
_atom_site_fract_x
_atom_site_fract_y
_atom_site_fract_z
Si Si1 0.116500 0.674186 0.493380
Si Si2 0.695370 0.837956 0.544728
Si Si3 0.553072 0.829368 0.321182
Si Si4 0.893538 0.824747 0.115068
Si Si5 0.283312 0.839477 0.955916
O O1 0.111686 0.500000 0.452224
O O2 0.083032 0.726017 0.652199
O O3 0.102107 0.762004 0.315233
O O4 0.169494 0.711701 0.556265
O O5 0.652381 0.730439 0.509910
O O6 0.701062 0.856364 0.753912
O O7 0.742669 0.778010 0.461901
O O8 0.685874 0.000000 0.458386
O O9 0.500000 0.806756 0.268885
O O10 0.563644 0.732240 0.497052
O O11 0.564249 0.000000 0.365436
O O12 0.893140 0.000000 0.124828
O O13 0.266547 0.000000 0.029648
#
# Coordination Sequence:
#
# PCOD8189907 Si02
#       5
#     8   8   8   8   8
#     4   9  20  40  62  87 120 158 202 250 300 356
#     4  10  21  36  55  81 115 156 200 240 289 353
#     4  10  22  41  66  93 119 156 205 252 303 360
#     4  11  23  39  60  88 124 161 199 246 303 359
#     4   9  19  34  52  81 115 150 195 243 294 349
#
# _framework density 20.469217
#
# number of rings (size 3 to 8) (size 9 to 14) (size 15 to 20)
#    0.000    2.200    0.000    3.600    2.800    6.000 
#    0.000    2.000    0.000    0.000    0.000    0.000 
#    0.000    0.000    0.000    0.000    0.000    0.000 
#
# Total GULP energy -247967.752688 kJ/mol
# GULP energy per Si atom -12398.387634 kJ/mol
# Density = 2.042263 g / cm^3
# Si number density = 20.469217 Si / 1000 Ang^3
#
#
#
# Elastic Constant Matrix: (Units=GPa)
#
#
# Indices 1 2 3 4 5 6 
#
# 1 89.7531 34.7202 21.9041 0.0000 0.0000 0.0000
# 2 34.7202 115.9200 35.6643 0.0000 0.0000 0.0000
# 3 21.9041 35.6643 48.3431 0.0000 0.0000 0.0000
# 4 0.0000 0.0000 0.0000 26.3723 0.0000 0.0000
# 5 0.0000 0.0000 0.0000 0.0000 35.8259 0.0000
# 6 0.0000 0.0000 0.0000 0.0000 0.0000 29.6655
#
#
#
# Elastic Compliance Matrix: (Units=1/GPa)
#
#
# Indices 1 2 3 4 5 6 
#
# 1 0.013161 -0.002726 -0.003952 0.000000 0.000000 0.000000
# 2 -0.002726 0.011724 -0.007414 0.000000 0.000000 0.000000
# 3 -0.003952 -0.007414 0.027946 0.000000 0.000000 0.000000
# 4 0.000000 0.000000 0.000000 0.037919 0.000000 0.000000
# 5 0.000000 0.000000 0.000000 0.000000 0.027913 0.000000
# 6 0.000000 0.000000 0.000000 0.000000 0.000000 0.033709
#
#
# Mechanical properties :
#
#
# Convention : Reuss Voigt Hill
#
# Bulk Modulus (GPa) = 40.57402 48.73260 44.65331
# Shear Modulus (GPa) = 26.48713 29.15460 27.82087
#
# Velocity S-wave (km/s) = 3.60112 3.77810 3.69067
# Velocity P-wave (km/s) = 6.09555 6.54916 6.32642
#
# Compressibility (1/GPa) = 0.02464631
#
# Stress axis : x y z
#
# Youngs Moduli (GPa) = 75.98397 85.29366 35.78354
#
# Poissons Ratio (x) = 0.23251 0.14142
# Poissons Ratio (y) = 0.20713 0.26531
# Poissons Ratio (z) = 0.30029 0.63238
#
# Static dielectric constant tensor:
#      x y z
#    x 4.115480 0.000000 0.000000 
#    y 0.000000 3.537250 0.000000 
#    z 0.000000 0.000000 3.616070 
# 
# 
# High freq. dielectric constant tensor:
#      x y z
#    x 1.800950 0.000000 0.000000 
#    y 0.000000 1.790610 0.000000 
#    z 0.000000 0.000000 1.796890 
# 
# From -- ./inp_files/4443.got.cif
#   From: 2010.03.12/outbox.cif.g09.slc.cpg/sg44_3_cif.got.tgz:4443.got - 2010.04.14 02:36:11.
