data_PCOD8189589
_publ_section_title
;
Structure prediction by ZEFSAII (Michael W. Deem and Ramdas Pophale) SiO2 
 PCOD8189589
Probable space group: I M M 2
;
_chemical_formula_sum "Si O2"
_cell_formula_units_Z 64
_cell_length_a 8.813904
_cell_length_b 24.091164
_cell_length_c 15.408875
_cell_angle_alpha 90.000000
_cell_angle_beta 90.000000
_cell_angle_gamma 90.000000
_cell_volume 3271.877477
_symmetry_space_group_name_H-M "I M M 2"
_symmetry_group_IT_number 44
_symmetry_cell_setting 'orthorhombic'
loop_
_space_group_symop_operation_xyz
x,y,z
-x,-y,z
-x,y,z
x,-y,z
1/2+x,1/2+y,1/2+z
1/2-x,1/2-y,1/2+z
1/2-x,1/2+y,1/2+z
1/2+x,1/2-y,1/2+z
loop_
_atom_site_type_symbol
_atom_site_label
_atom_site_fract_x
_atom_site_fract_y
_atom_site_fract_z
Si Si1 0.322489 0.864311 0.625000
Si Si2 0.676030 0.370390 0.627635
Si Si3 0.175374 0.866648 0.930692
Si Si4 0.679665 0.937596 0.278207
Si Si5 0.180347 0.437575 0.281330
Si Si6 0.821832 0.746404 0.384069
Si Si7 0.177608 0.640979 0.932372
Si Si8 0.321180 0.747760 0.684404
O O1 0.500000 0.860063 0.644466
O O2 0.253276 0.906992 0.695463
O O3 0.291848 0.885852 0.527353
O O4 0.252120 0.802494 0.637970
O O5 0.500000 0.370915 0.654184
O O6 0.699704 0.388745 0.528401
O O7 0.761636 0.414185 0.687490
O O8 0.745713 0.308648 0.642751
O O9 0.268482 0.906063 0.867386
O O10 0.233303 0.803859 0.928035
O O11 0.000000 0.868099 0.904108
O O12 0.500000 0.937118 0.276623
O O13 0.739048 0.901152 0.359380
O O14 0.741612 0.000000 0.290289
O O15 0.245536 0.500000 0.282213
O O16 0.000000 0.438253 0.279980
O O17 0.771782 0.802631 0.430261
O O18 0.773577 0.749909 0.284268
O O19 0.000000 0.736809 0.395395
O O20 0.000000 0.654280 0.919583
O O21 0.500000 0.746823 0.671728
#
# Coordination Sequence:
#
# PCOD8189589 Si02
#       8
#     8   8   8   8   8   8   8   8
#     4   9  17  33  57  83 111 145 183 224 272 332
#     4  10  21  38  59  82 108 146 191 231 275 335
#     4  11  23  38  59  85 114 147 186 232 284 336
#     4  10  22  38  55  81 116 149 185 235 287 327
#     4  10  21  38  60  84 111 149 195 235 275 327
#     4  11  20  34  59  86 115 147 184 229 278 336
#     4  10  20  35  58  85 115 148 185 230 280 333
#     4   9  16  30  55  81 107 138 177 223 270 323
#
# _framework density 19.560634
#
# number of rings (size 3 to 8) (size 9 to 14) (size 15 to 20)
#    0.000    2.000    2.500    1.500    0.000    4.500 
#    0.000    5.625    0.000    0.000    0.000    1.750 
#    0.000    0.000    0.000    0.000    0.000    0.000 
#
# Total GULP energy -396804.994967 kJ/mol
# GULP energy per Si atom -12400.156093 kJ/mol
# Density = 1.951611 g / cm^3
# Si number density = 19.560634 Si / 1000 Ang^3
#
#
#
# Elastic Constant Matrix: (Units=GPa)
#
#
# Indices 1 2 3 4 5 6 
#
# 1 12.9095 12.1626 14.6344 0.0000 -0.0001 0.0000
# 2 12.1626 144.6403 54.2561 -0.0001 0.0000 0.0000
# 3 14.6344 54.2561 114.3907 -0.0003 0.0000 0.0000
# 4 0.0000 -0.0001 -0.0003 15.4423 0.0000 0.0000
# 5 -0.0001 0.0000 0.0000 0.0000 22.6363 0.0000
# 6 0.0000 0.0000 0.0000 0.0000 0.0000 25.3060
#
#
#
# Elastic Compliance Matrix: (Units=1/GPa)
#
#
# Indices 1 2 3 4 5 6 
#
# 1 0.092525 -0.004063 -0.009910 0.000000 0.000000 0.000000
# 2 -0.004063 0.008588 -0.003554 0.000000 0.000000 0.000000
# 3 -0.009910 -0.003554 0.011695 0.000000 0.000000 0.000000
# 4 0.000000 0.000000 0.000000 0.064757 0.000000 0.000000
# 5 0.000000 0.000000 0.000000 0.000000 0.044177 0.000000
# 6 0.000000 0.000000 0.000000 0.000000 0.000000 0.039516
#
#
# Mechanical properties :
#
#
# Convention : Reuss Voigt Hill
#
# Bulk Modulus (GPa) = 12.86089 48.22739 30.54414
# Shear Modulus (GPa) = 15.51687 25.40275 20.45981
#
# Velocity S-wave (km/s) = 2.81956 3.60761 3.23765
# Velocity P-wave (km/s) = 4.14597 6.48552 5.44293
#
# Compressibility (1/GPa) = 0.07775510
#
# Stress axis : x y z
#
# Youngs Moduli (GPa) = 10.80795 116.43622 85.50425
#
# Poissons Ratio (x) = 0.47307 0.84734
# Poissons Ratio (y) = 0.04391 0.30386
# Poissons Ratio (z) = 0.10711 0.41378
#
# Static dielectric constant tensor:
#      x y z
#    x 3.225640 0.000000 0.000000 
#    y 0.000000 3.762020 0.000000 
#    z 0.000000 0.000000 3.664590 
# 
# 
# High freq. dielectric constant tensor:
#      x y z
#    x 1.726470 0.000000 0.000000 
#    y 0.000000 1.763150 0.000000 
#    z 0.000000 0.000000 1.775830 
# 
# From -- ./inp_files/16782.got.cif
#   From: 2010.03.12/outbox.cif.g09.slc.cpg/sg44_9_cif.got.tgz:16782.got - 2010.04.14 02:36:11.
