data_PCOD8189261
_publ_section_title
;
Structure prediction by ZEFSAII (Michael W. Deem and Ramdas Pophale) SiO2 
 PCOD8189261
Probable space group: I M M 2
;
_chemical_formula_sum "Si O2"
_cell_formula_units_Z 56
_cell_length_a 8.815753
_cell_length_b 23.689497
_cell_length_c 13.930361
_cell_angle_alpha 90.000000
_cell_angle_beta 90.000000
_cell_angle_gamma 90.000000
_cell_volume 2909.227098
_symmetry_space_group_name_H-M "I M M 2"
_symmetry_group_IT_number 44
_symmetry_cell_setting 'orthorhombic'
loop_
_space_group_symop_operation_xyz
x,y,z
-x,-y,z
-x,y,z
x,-y,z
1/2+x,1/2+y,1/2+z
1/2-x,1/2-y,1/2+z
1/2-x,1/2+y,1/2+z
1/2+x,1/2-y,1/2+z
loop_
_atom_site_type_symbol
_atom_site_label
_atom_site_fract_x
_atom_site_fract_y
_atom_site_fract_z
Si Si1 0.179899 0.562429 0.428440
Si Si2 0.180117 0.664706 0.950238
Si Si3 0.323030 0.934468 0.141180
Si Si4 0.323971 0.435274 0.058743
Si Si5 0.178915 0.271210 0.134902
Si Si6 0.320515 0.664851 0.747662
Si Si7 0.679748 0.117549 0.736983
O O1 0.244466 0.500000 0.405756
O O2 0.234947 0.581997 0.533961
O O3 0.235654 0.605090 0.345656
O O4 0.000000 0.559155 0.431570
O O5 0.252130 0.681944 0.849751
O O6 0.000000 0.663440 0.941733
O O7 0.234999 0.602773 0.981955
O O8 0.236643 0.711131 0.028833
O O9 0.500000 0.921409 0.153679
O O10 0.231223 0.897343 0.217106
O O11 0.288780 0.000000 0.162101
O O12 0.500000 0.418631 0.056669
O O13 0.298698 0.500000 0.028888
O O14 0.259679 0.426204 0.165542
O O15 0.241924 0.210717 0.170033
O O16 0.230044 0.318948 0.211273
O O17 0.000000 0.268520 0.132384
O O18 0.500000 0.666549 0.756364
O O19 0.500000 0.108920 0.726231
#
# Coordination Sequence:
#
# PCOD8189261 Si02
#       7
#     8   8   8   8   8   8   8
#     4   8  14  26  48  77 104 132 172 219 258 297
#     4  10  21  39  59  78 103 138 182 221 255 308
#     4   9  19  36  55  77 106 140 182 225 260 307
#     4  10  20  33  50  77 112 144 176 220 273 320
#     4   8  18  35  53  76 106 136 167 209 256 308
#     4  11  22  37  57  81 109 138 170 214 271 321
#     4   9  16  30  53  78 106 142 181 217 259 313
#
# _framework density 19.249098
#
# number of rings (size 3 to 8) (size 9 to 14) (size 15 to 20)
#    0.000    2.714    0.000    3.429    0.000    3.714 
#    0.000    9.286    0.000    0.857    0.000    0.000 
#    0.000    0.000    0.000    0.000    0.000    0.000 
#
# Total GULP energy -347106.095782 kJ/mol
# GULP energy per Si atom -12396.646278 kJ/mol
# Density = 1.920529 g / cm^3
# Si number density = 19.249098 Si / 1000 Ang^3
#
#
#
# Elastic Constant Matrix: (Units=GPa)
#
#
# Indices 1 2 3 4 5 6 
#
# 1 61.9032 37.9046 37.4445 0.0000 0.0000 0.0000
# 2 37.9046 104.8384 66.5153 0.0001 0.0000 0.0000
# 3 37.4445 66.5153 138.1497 0.0005 -0.0002 0.0000
# 4 0.0000 0.0001 0.0005 26.1042 -0.0001 0.0000
# 5 0.0000 0.0000 -0.0002 -0.0001 24.3667 0.0000
# 6 0.0000 0.0000 0.0000 0.0000 0.0000 19.7865
#
#
#
# Elastic Compliance Matrix: (Units=1/GPa)
#
#
# Indices 1 2 3 4 5 6 
#
# 1 0.021585 -0.005892 -0.003014 0.000000 0.000000 0.000000
# 2 -0.005892 0.015342 -0.005790 0.000000 0.000000 0.000000
# 3 -0.003014 -0.005790 0.010843 0.000000 0.000000 0.000000
# 4 0.000000 0.000000 0.000000 0.038308 0.000000 0.000000
# 5 0.000000 0.000000 0.000000 0.000000 0.041040 0.000000
# 6 0.000000 0.000000 0.000000 0.000000 0.000000 0.050540
#
#
# Mechanical properties :
#
#
# Convention : Reuss Voigt Hill
#
# Bulk Modulus (GPa) = 54.40961 65.40225 59.90593
# Shear Modulus (GPa) = 23.45492 24.91992 24.18742
#
# Velocity S-wave (km/s) = 3.49448 3.60196 3.54863
# Velocity P-wave (km/s) = 6.67902 7.16585 6.92671
#
# Compressibility (1/GPa) = 0.01837911
#
# Stress axis : x y z
#
# Youngs Moduli (GPa) = 46.32850 65.17971 92.22569
#
# Poissons Ratio (x) = 0.38405 0.27793
# Poissons Ratio (y) = 0.27297 0.53397
# Poissons Ratio (z) = 0.13961 0.37738
#
# Static dielectric constant tensor:
#      x y z
#    x 3.221200 0.000000 0.000000 
#    y 0.000000 3.605520 0.000000 
#    z 0.000000 0.000000 3.712280 
# 
# 
# High freq. dielectric constant tensor:
#      x y z
#    x 1.722310 0.000000 0.000000 
#    y 0.000000 1.745060 0.000000 
#    z 0.000000 0.000000 1.753440 
# 
# From -- ./inp_files/16485.got.cif
#   From: 2010.03.12/outbox.cif.g09.slc.cpg/sg44_9_cif.got.tgz:16485.got - 2010.04.14 02:36:11.
