data_PCOD8189906
_publ_section_title
;
Structure prediction by ZEFSAII (Michael W. Deem and Ramdas Pophale) SiO2 
 PCOD8189906
Probable space group: I M M 2
;
_chemical_formula_sum "Si O2"
_cell_formula_units_Z 56
_cell_length_a 9.107295
_cell_length_b 14.178134
_cell_length_c 22.534589
_cell_angle_alpha 90.000000
_cell_angle_beta 90.000000
_cell_angle_gamma 90.000000
_cell_volume 2909.766386
_symmetry_space_group_name_H-M "I M M 2"
_symmetry_group_IT_number 44
_symmetry_cell_setting 'orthorhombic'
loop_
_space_group_symop_operation_xyz
x,y,z
-x,-y,z
-x,y,z
x,-y,z
1/2+x,1/2+y,1/2+z
1/2-x,1/2-y,1/2+z
1/2-x,1/2+y,1/2+z
1/2+x,1/2-y,1/2+z
loop_
_atom_site_type_symbol
_atom_site_label
_atom_site_fract_x
_atom_site_fract_y
_atom_site_fract_z
Si Si1 0.172330 0.779530 0.654530
Si Si2 0.327222 0.781793 0.432702
Si Si3 0.171085 0.606852 0.390568
Si Si4 0.167672 0.608341 0.815488
Si Si5 0.332325 0.108828 0.753952
Si Si6 0.171670 0.109255 0.537230
Si Si7 0.327241 0.392822 0.695351
O O1 0.223639 0.829958 0.714503
O O2 0.218501 0.842656 0.598794
O O3 0.250143 0.677328 0.648630
O O4 0.000000 0.763500 0.657663
O O5 0.500000 0.777547 0.441546
O O6 0.262989 0.676075 0.432876
O O7 0.281480 0.830157 0.371094
O O8 0.261041 0.842339 0.485338
O O9 0.211033 0.500000 0.408766
O O10 0.213101 0.624263 0.322101
O O11 0.000000 0.626103 0.400710
O O12 0.185976 0.500000 0.834326
O O13 0.272890 0.634277 0.761105
O O14 0.000000 0.630235 0.796910
O O15 0.500000 0.141234 0.743088
O O16 0.313876 0.000000 0.736445
O O17 0.000000 0.122296 0.524633
O O18 0.215715 0.000000 0.541033
O O19 0.500000 0.378610 0.692689
O O20 0.281941 0.500000 0.679426
#
# Coordination Sequence:
#
# PCOD8189906 Si02
#       7
#     8   8   8   8   8   8   8
#     4  11  22  36  56  81 109 143 183 225 270 320
#     4  11  22  35  55  83 111 141 180 226 275 321
#     4   9  19  36  56  79 110 147 184 220 262 319
#     4   9  18  33  53  80 114 146 176 216 269 326
#     4   9  18  33  55  84 115 146 180 219 266 320
#     4  10  23  42  60  79 106 142 183 222 262 317
#     4  10  21  36  55  81 111 143 181 223 268 321
#
# _framework density 19.245531
#
# number of rings (size 3 to 8) (size 9 to 14) (size 15 to 20)
#    0.000    2.143    0.000    3.857    0.000    8.000 
#    0.000    3.571    0.000    0.857    0.000    0.000 
#    0.000    0.000    0.000    0.000    0.000    0.000 
#
# Total GULP energy -347294.875511 kJ/mol
# GULP energy per Si atom -12403.388411 kJ/mol
# Density = 1.920173 g / cm^3
# Si number density = 19.245531 Si / 1000 Ang^3
#
#
#
# Elastic Constant Matrix: (Units=GPa)
#
#
# Indices 1 2 3 4 5 6 
#
# 1 82.0224 69.1561 54.0351 0.0000 0.0000 0.0000
# 2 69.1561 149.7669 75.5652 0.0000 0.0000 0.0000
# 3 54.0351 75.5652 75.1745 0.0000 0.0000 0.0000
# 4 0.0000 0.0000 0.0000 35.7838 0.0000 0.0000
# 5 0.0000 0.0000 0.0000 0.0000 32.5386 0.0000
# 6 0.0000 0.0000 0.0000 0.0000 0.0000 34.5698
#
#
#
# Elastic Compliance Matrix: (Units=1/GPa)
#
#
# Indices 1 2 3 4 5 6 
#
# 1 0.024877 -0.005002 -0.012853 0.000000 0.000000 0.000000
# 2 -0.005002 0.014554 -0.011035 0.000000 0.000000 0.000000
# 3 -0.012853 -0.011035 0.033633 0.000000 0.000000 0.000000
# 4 0.000000 0.000000 0.000000 0.027946 0.000000 0.000000
# 5 0.000000 0.000000 0.000000 0.000000 0.030733 0.000000
# 6 0.000000 0.000000 0.000000 0.000000 0.000000 0.028927
#
#
# Mechanical properties :
#
#
# Convention : Reuss Voigt Hill
#
# Bulk Modulus (GPa) = 65.42559 78.27519 71.85039
# Shear Modulus (GPa) = 22.36701 27.79228 25.07964
#
# Velocity S-wave (km/s) = 3.41279 3.80424 3.61382
# Velocity P-wave (km/s) = 7.04262 7.74961 7.40456
#
# Compressibility (1/GPa) = 0.01528454
#
# Stress axis : x y z
#
# Youngs Moduli (GPa) = 40.19850 68.70890 29.73246
#
# Poissons Ratio (x) = 0.34366 0.38216
# Poissons Ratio (y) = 0.20106 0.32809
# Poissons Ratio (z) = 0.51669 0.75817
#
# Static dielectric constant tensor:
#      x y z
#    x 3.432920 0.000000 0.000000 
#    y 0.000000 3.779670 0.000000 
#    z 0.000000 0.000000 3.345790 
# 
# 
# High freq. dielectric constant tensor:
#      x y z
#    x 1.748460 0.000000 0.000000 
#    y 0.000000 1.767630 0.000000 
#    z 0.000000 0.000000 1.727070 
# 
# From -- ./inp_files/23002.got.cif
#   From: 2010.03.12/outbox.cif.g09.slc.cpg/sg44_12_cif.got.tgz:23002.got - 2010.04.14 02:36:11.
