data_PCOD8189144
_publ_section_title
;
Structure prediction by ZEFSAII (Michael W. Deem and Ramdas Pophale) SiO2 
 PCOD8189144
Probable space group: I M M 2
;
_chemical_formula_sum "Si O2"
_cell_formula_units_Z 56
_cell_length_a 14.841746
_cell_length_b 13.454222
_cell_length_c 15.594871
_cell_angle_alpha 90.000000
_cell_angle_beta 90.000000
_cell_angle_gamma 90.000000
_cell_volume 3114.048491
_symmetry_space_group_name_H-M "I M M 2"
_symmetry_group_IT_number 44
_symmetry_cell_setting 'orthorhombic'
loop_
_space_group_symop_operation_xyz
x,y,z
-x,-y,z
-x,y,z
x,-y,z
1/2+x,1/2+y,1/2+z
1/2-x,1/2-y,1/2+z
1/2-x,1/2+y,1/2+z
1/2+x,1/2-y,1/2+z
loop_
_atom_site_type_symbol
_atom_site_label
_atom_site_fract_x
_atom_site_fract_y
_atom_site_fract_z
Si Si1 0.396875 0.384203 0.715730
Si Si2 0.099026 0.882486 0.709349
Si Si3 0.714424 0.613851 0.048207
Si Si4 0.601934 0.885909 0.994916
Si Si5 0.785083 0.814114 0.054543
Si Si6 0.602506 0.305887 0.894860
Si Si7 0.399813 0.382934 0.397844
O O1 0.500000 0.355973 0.694417
O O2 0.386611 0.500000 0.734479
O O3 0.337008 0.354956 0.635476
O O4 0.360565 0.325616 0.799207
O O5 0.162376 0.848331 0.632714
O O6 0.132577 0.845610 0.803350
O O7 0.000000 0.837660 0.691971
O O8 0.093455 0.000000 0.708341
O O9 0.749043 0.500000 0.054517
O O10 0.795083 0.694008 0.047054
O O11 0.654495 0.626388 0.963495
O O12 0.500000 0.874464 0.034424
O O13 0.680584 0.852055 0.061038
O O14 0.617340 0.000000 0.965429
O O15 0.611080 0.812126 0.913312
O O16 0.826616 0.852841 0.966739
O O17 0.500000 0.343078 0.899294
O O18 0.500000 0.339804 0.418859
O O19 0.407238 0.500000 0.397040
#
# Coordination Sequence:
#
# PCOD8189144 Si02
#       7
#     8   8   8   8   8   8   8
#     4  10  20  34  53  77 102 128 164 209 252 296
#     4   8  15  29  50  74  96 118 150 198 254 300
#     4  10  20  32  47  69  99 133 167 204 246 295
#     4   9  18  33  52  74 101 133 168 205 247 297
#     4  11  21  32  50  73 101 135 169 203 247 295
#     4   9  18  32  51  75 101 131 167 206 250 298
#     4   9  17  31  53  79 100 118 150 202 259 304
#
# _framework density 17.983021000000001
#
# number of rings (size 3 to 8) (size 9 to 14) (size 15 to 20)
#    0.000    2.571    0.000    3.429    0.000    5.429 
#    0.000    2.143    0.000    2.571    0.000    0.000 
#    0.000    6.857    0.000    0.000    0.000    0.714 
#
# Total GULP energy -346928.970312 kJ/mol
# GULP energy per Si atom -12390.320368 kJ/mol
# Density = 1.794209 g / cm^3
# Si number density = 17.983021 Si / 1000 Ang^3
#
#
#
# Elastic Constant Matrix: (Units=GPa)
#
#
# Indices 1 2 3 4 5 6 
#
# 1 72.7651 25.1664 46.7015 0.0000 0.0000 0.0000
# 2 25.1664 84.2890 25.7473 0.0000 0.0000 0.0000
# 3 46.7015 25.7473 122.7866 0.0000 0.0000 0.0000
# 4 0.0000 0.0000 0.0000 23.3251 0.0000 0.0000
# 5 0.0000 0.0000 0.0000 0.0000 -86.9557 0.0000
# 6 0.0000 0.0000 0.0000 0.0000 0.0000 5.8981
#
#
#
# Elastic Compliance Matrix: (Units=1/GPa)
#
#
# Indices 1 2 3 4 5 6 
#
# 1 0.019228 -0.003747 -0.006528 0.000000 0.000000 0.000000
# 2 -0.003747 0.013406 -0.001386 0.000000 0.000000 0.000000
# 3 -0.006528 -0.001386 0.010918 0.000000 0.000000 0.000000
# 4 0.000000 0.000000 0.000000 0.042872 0.000000 0.000000
# 5 0.000000 0.000000 0.000000 0.000000 -0.011500 0.000000
# 6 0.000000 0.000000 0.000000 0.000000 0.000000 0.169546
#
#
# Mechanical properties :
#
#
# Convention : Reuss Voigt Hill
#
# Bulk Modulus (GPa) = 49.43011 52.78566 51.10788
# Shear Modulus (GPa) = 18.21260 0.60188 9.40724
#
# Velocity S-wave (km/s) = 3.18585 0.57915 2.28966
# Velocity P-wave (km/s) = 6.40934 5.46480 5.95582
#
# Compressibility (1/GPa) = 0.02023059
#
# Stress axis : x y z
#
# Youngs Moduli (GPa) = 52.00642 74.59297 91.59496
#
# Poissons Ratio (x) = 0.27951 0.59791
# Poissons Ratio (y) = 0.19487 0.12695
# Poissons Ratio (z) = 0.33948 0.10338
#
# Static dielectric constant tensor:
#      x y z
#    x 3.585510 0.000000 0.000000 
#    y 0.000000 3.294110 0.000000 
#    z 0.000000 0.000000 3.523200 
# 
# 
# High freq. dielectric constant tensor:
#      x y z
#    x 1.681780 0.000000 0.000000 
#    y 0.000000 1.685880 0.000000 
#    z 0.000000 0.000000 1.695450 
# 
# From -- ./inp_files/18476.got.cif
#   From: 2010.03.12/outbox.cif.g09.slc.cpg/sg44_10_cif.got.tgz:18476.got - 2010.04.14 02:36:11.
