data_PCOD8189482
_publ_section_title
;
Structure prediction by ZEFSAII (Michael W. Deem and Ramdas Pophale) SiO2 
 PCOD8189482
Probable space group: I M M 2
;
_chemical_formula_sum "Si O2"
_cell_formula_units_Z 64
_cell_length_a 18.501894
_cell_length_b 22.561465
_cell_length_c 7.802146
_cell_angle_alpha 90.000000
_cell_angle_beta 90.000000
_cell_angle_gamma 90.000000
_cell_volume 3256.848509
_symmetry_space_group_name_H-M "I M M 2"
_symmetry_group_IT_number 44
_symmetry_cell_setting 'orthorhombic'
loop_
_space_group_symop_operation_xyz
x,y,z
-x,-y,z
-x,y,z
x,-y,z
1/2+x,1/2+y,1/2+z
1/2-x,1/2-y,1/2+z
1/2-x,1/2+y,1/2+z
1/2+x,1/2-y,1/2+z
loop_
_atom_site_type_symbol
_atom_site_label
_atom_site_fract_x
_atom_site_fract_y
_atom_site_fract_z
Si Si1 0.584448 0.643904 0.608100
Si Si2 0.716316 0.567922 0.615703
Si Si3 0.275322 0.135503 0.435333
Si Si4 0.584759 0.846407 0.921095
Si Si5 0.646383 0.284018 0.915485
Si Si6 0.422585 0.161031 0.302064
Si Si7 0.301713 0.929697 0.772513
Si Si8 0.420883 0.700200 0.260197
O O1 0.500000 0.627578 0.605392
O O2 0.631658 0.584687 0.625085
O O3 0.600441 0.688250 0.762524
O O4 0.612935 0.675272 0.434760
O O5 0.722957 0.500000 0.655723
O O6 0.760195 0.599080 0.765156
O O7 0.749671 0.584132 0.431919
O O8 0.231397 0.197726 0.413408
O O9 0.360922 0.147903 0.439431
O O10 0.260379 0.097655 0.606946
O O11 0.500000 0.836009 0.869563
O O12 0.632523 0.786114 0.904131
O O13 0.621267 0.896842 0.802877
O O14 0.590028 0.869478 0.116766
O O15 0.623267 0.316319 0.091376
O O16 0.500000 0.139467 0.378423
O O17 0.426472 0.229980 0.267387
O O18 0.315024 0.000000 0.746677
O O19 0.500000 0.671835 0.238801
#
# Coordination Sequence:
#
# PCOD8189482 Si02
#       8
#     8   8   8   8   8   8   8   8
#     4  10  20  34  58  88 114 153 194 229 293 360
#     4  10  22  41  58  79 116 151 194 251 291 340
#     4  11  22  37  61  89 112 152 198 242 299 359
#     4  10  21  39  61  86 121 160 195 241 301 354
#     4  10  21  35  57  88 124 151 187 240 297 361
#     4   9  19  37  57  82 116 151 186 233 293 346
#     4  11  24  41  61  84 116 160 206 249 294 346
#     4   9  18  34  53  78 118 153 180 223 282 348
#
# _framework density 19.650898000000002
#
# number of rings (size 3 to 8) (size 9 to 14) (size 15 to 20)
#    0.000    2.000    1.250    3.000    1.750    4.000 
#    0.000    0.000    0.000    1.125    0.000    3.500 
#    0.000    0.000    0.000    0.000    0.000    0.000 
#
# Total GULP energy -396580.710347 kJ/mol
# GULP energy per Si atom -12393.147198 kJ/mol
# Density = 1.960617 g / cm^3
# Si number density = 19.650898 Si / 1000 Ang^3
#
#
#
# Elastic Constant Matrix: (Units=GPa)
#
#
# Indices 1 2 3 4 5 6 
#
# 1 120.9262 45.4744 36.3903 0.0000 0.0000 0.0000
# 2 45.4744 72.0767 25.5962 0.0000 0.0000 0.0000
# 3 36.3903 25.5962 89.7487 0.0000 0.0000 0.0000
# 4 0.0000 0.0000 0.0000 21.0069 0.0000 0.0000
# 5 0.0000 0.0000 0.0000 0.0000 48.9346 0.0000
# 6 0.0000 0.0000 0.0000 0.0000 0.0000 -7.9939
#
#
#
# Elastic Compliance Matrix: (Units=1/GPa)
#
#
# Indices 1 2 3 4 5 6 
#
# 1 0.011474 -0.006216 -0.002879 0.000000 0.000000 0.000000
# 2 -0.006216 0.018806 -0.002843 0.000000 0.000000 0.000000
# 3 -0.002879 -0.002843 0.013120 0.000000 0.000000 0.000000
# 4 0.000000 0.000000 0.000000 0.047603 0.000000 0.000000
# 5 0.000000 0.000000 0.000000 0.000000 0.020435 0.000000
# 6 0.000000 0.000000 0.000000 0.000000 0.000000 -0.125096
#
#
# Mechanical properties :
#
#
# Convention : Reuss Voigt Hill
#
# Bulk Modulus (GPa) = 51.22218 55.29704 53.25961
# Shear Modulus (GPa) = 298.91157 24.07557 161.49357
#
# Velocity S-wave (km/s) = 12.34670 3.50403 9.07522
# Velocity P-wave (km/s) = 15.14521 6.67621 11.70362
#
# Compressibility (1/GPa) = 0.01952279
#
# Stress axis : x y z
#
# Youngs Moduli (GPa) = 87.15614 53.17536 76.21685
#
# Poissons Ratio (x) = 0.33056 0.21945
# Poissons Ratio (y) = 0.54180 0.21667
# Poissons Ratio (z) = 0.25095 0.15117
#
# Static dielectric constant tensor:
#      x y z
#    x 3.394640 0.000000 0.000000 
#    y 0.000000 3.289580 0.000000 
#    z 0.000000 0.000000 3.795340 
# 
# 
# High freq. dielectric constant tensor:
#      x y z
#    x 1.770840 0.000000 0.000000 
#    y 0.000000 1.736120 0.000000 
#    z 0.000000 0.000000 1.781090 
# 
# From -- ./inp_files/8525.got.cif
#   From: 2010.03.12/outbox.cif.g09.slc.cpg/sg44_5_cif.got.tgz:8525.got - 2010.04.14 02:36:11.
