data_PCOD8189766
_publ_section_title
;
Structure prediction by ZEFSAII (Michael W. Deem and Ramdas Pophale) SiO2 
 PCOD8189766
Probable space group: I M M 2
;
_chemical_formula_sum "Si O2"
_cell_formula_units_Z 48
_cell_length_a 8.901812
_cell_length_b 7.814662
_cell_length_c 33.869022
_cell_angle_alpha 90.000000
_cell_angle_beta 90.000000
_cell_angle_gamma 90.000000
_cell_volume 2356.086728
_symmetry_space_group_name_H-M "I M M 2"
_symmetry_group_IT_number 44
_symmetry_cell_setting 'orthorhombic'
loop_
_space_group_symop_operation_xyz
x,y,z
-x,-y,z
-x,y,z
x,-y,z
1/2+x,1/2+y,1/2+z
1/2-x,1/2-y,1/2+z
1/2-x,1/2+y,1/2+z
1/2+x,1/2-y,1/2+z
loop_
_atom_site_type_symbol
_atom_site_label
_atom_site_fract_x
_atom_site_fract_y
_atom_site_fract_z
Si Si1 0.668447 0.306167 0.639180
Si Si2 0.177104 0.302405 0.980317
Si Si3 0.831307 0.806774 0.714562
Si Si4 0.326745 0.310153 0.789801
Si Si5 0.679046 0.000000 0.931766
Si Si6 0.671343 0.301155 0.062271
Si Si7 0.178370 0.500000 0.342230
O O1 0.500000 0.236869 0.631486
O O2 0.665081 0.500000 0.654246
O O3 0.744054 0.195643 0.673309
O O4 0.762400 0.300078 0.599046
O O5 0.219589 0.500000 0.970059
O O6 0.000000 0.273123 0.977946
O O7 0.258507 0.174342 0.950516
O O8 0.231660 0.254623 0.024017
O O9 0.756133 0.691168 0.747915
O O10 0.000000 0.740318 0.707198
O O11 0.829795 0.000000 0.730389
O O12 0.500000 0.268803 0.781226
O O13 0.306265 0.500000 0.808271
O O14 0.260297 0.170317 0.820222
O O15 0.737563 0.000000 0.886810
O O16 0.500000 0.000000 0.935313
O O17 0.500000 0.243801 0.054723
O O18 0.681698 0.500000 0.072423
O O19 0.000000 0.500000 0.342596
#
# Coordination Sequence:
#
# PCOD8189766 Si02
#       7
#     8   8   8   8   4   8   4
#     4  11  24  38  54  81 116 156 201 248 299 359
#     4  10  22  41  64  90 124 167 210 255 310 375
#     4  11  23  38  57  83 116 155 199 248 303 359
#     4  10  20  37  63  90 117 155 200 245 299 363
#     4  11  23  39  65  97 127 163 207 261 319 375
#     4  10  21  38  60  86 116 152 198 251 306 362
#     4   9  20  39  61  91 125 157 199 251 307 365
#
# _framework density 20.372764
#
# number of rings (size 3 to 8) (size 9 to 14) (size 15 to 20)
#    0.000    1.667    0.833    3.250    1.167    9.333 
#    0.000    3.333    0.000    0.000    0.000    0.000 
#    0.000    0.000    0.000    0.000    0.000    0.000 
#
# Total GULP energy -297670.472434 kJ/mol
# GULP energy per Si atom -12402.936351 kJ/mol
# Density = 2.032639 g / cm^3
# Si number density = 20.372764 Si / 1000 Ang^3
#
#
#
# Elastic Constant Matrix: (Units=GPa)
#
#
# Indices 1 2 3 4 5 6 
#
# 1 105.9086 41.6805 45.8849 0.0000 0.0000 0.0000
# 2 41.6805 107.6777 59.7800 -0.0001 0.0000 0.0000
# 3 45.8849 59.7800 142.2237 -0.0001 0.0000 0.0000
# 4 0.0000 -0.0001 -0.0001 29.4393 0.0000 0.0000
# 5 0.0000 0.0000 0.0000 0.0000 28.1585 0.0000
# 6 0.0000 0.0000 0.0000 0.0000 0.0000 25.0996
#
#
#
# Elastic Compliance Matrix: (Units=1/GPa)
#
#
# Indices 1 2 3 4 5 6 
#
# 1 0.011761 -0.003190 -0.002453 0.000000 0.000000 0.000000
# 2 -0.003190 0.012979 -0.004426 0.000000 0.000000 0.000000
# 3 -0.002453 -0.004426 0.009683 0.000000 0.000000 0.000000
# 4 0.000000 0.000000 0.000000 0.033968 0.000000 0.000000
# 5 0.000000 0.000000 0.000000 0.000000 0.035513 0.000000
# 6 0.000000 0.000000 0.000000 0.000000 0.000000 0.039841
#
#
# Mechanical properties :
#
#
# Convention : Reuss Voigt Hill
#
# Bulk Modulus (GPa) = 70.01205 72.27788 71.14497
# Shear Modulus (GPa) = 29.64783 30.43710 30.04247
#
# Velocity S-wave (km/s) = 3.81894 3.86944 3.84427
# Velocity P-wave (km/s) = 7.34070 7.45105 7.39608
#
# Compressibility (1/GPa) = 0.01428326
#
# Stress axis : x y z
#
# Youngs Moduli (GPa) = 85.03011 77.04614 103.27276
#
# Poissons Ratio (x) = 0.24580 0.25336
# Poissons Ratio (y) = 0.27128 0.45711
# Poissons Ratio (z) = 0.20860 0.34102
#
# Static dielectric constant tensor:
#      x y z
#    x 3.728240 0.000000 0.000000 
#    y 0.000000 3.735110 0.000000 
#    z 0.000000 0.000000 3.591730 
# 
# 
# High freq. dielectric constant tensor:
#      x y z
#    x 1.795990 0.000000 0.000000 
#    y 0.000000 1.805320 0.000000 
#    z 0.000000 0.000000 1.788900 
# 
# From -- ./inp_files/26944.got.cif
#   From: 2010.03.12/outbox.cif.g09.slc.cpg/sg44_14_cif.got.tgz:26944.got - 2010.04.14 02:36:11.
