data_PCOD8189098
_publ_section_title
;
Structure prediction by ZEFSAII (Michael W. Deem and Ramdas Pophale) SiO2 
 PCOD8189098
Probable space group: I M M 2
;
_chemical_formula_sum "Si O2"
_cell_formula_units_Z 48
_cell_length_a 18.538961
_cell_length_b 8.890582
_cell_length_c 14.923992
_cell_angle_alpha 90.000000
_cell_angle_beta 90.000000
_cell_angle_gamma 90.000000
_cell_volume 2459.804492
_symmetry_space_group_name_H-M "I M M 2"
_symmetry_group_IT_number 44
_symmetry_cell_setting 'orthorhombic'
loop_
_space_group_symop_operation_xyz
x,y,z
-x,-y,z
-x,y,z
x,-y,z
1/2+x,1/2+y,1/2+z
1/2-x,1/2-y,1/2+z
1/2-x,1/2+y,1/2+z
1/2+x,1/2-y,1/2+z
loop_
_atom_site_type_symbol
_atom_site_label
_atom_site_fract_x
_atom_site_fract_y
_atom_site_fract_z
Si Si1 0.000000 0.321997 0.435900
Si Si2 0.885016 0.828600 0.756305
Si Si3 0.154421 0.320852 0.369224
Si Si4 0.758763 0.178146 0.221221
Si Si5 0.770998 0.821194 0.016201
Si Si6 0.000000 0.321726 0.636969
Si Si7 0.076959 0.828208 0.955748
O O1 0.072964 0.265060 0.388313
O O2 0.000000 0.500000 0.438400
O O3 0.000000 0.260612 0.536490
O O4 0.808996 0.748942 0.771778
O O5 0.927311 0.820304 0.848809
O O6 0.927811 0.739456 0.681082
O O7 0.873914 0.000000 0.725219
O O8 0.159307 0.500000 0.360610
O O9 0.172713 0.245076 0.273837
O O10 0.208295 0.263274 0.448833
O O11 0.755468 0.229762 0.117642
O O12 0.758834 0.000000 0.229370
O O13 0.774436 0.000000 0.007206
O O14 0.849814 0.749745 0.991707
O O15 0.000000 0.500000 0.643450
O O16 0.000000 0.756151 0.990020
O O17 0.078857 0.000000 0.988347
#
# Coordination Sequence:
#
# PCOD8189098 Si02
#       7
#     4   8   8   8   8   4   8
#     4   9  20  37  59  82 109 156 200 232 282 356
#     4  11  20  34  57  84 113 150 191 228 281 353
#     4  10  19  38  62  80 107 151 198 235 280 350
#     4  11  22  36  56  86 115 146 191 243 294 335
#     4   9  18  34  56  79 108 149 191 230 278 349
#     4  11  21  35  57  88 119 146 186 244 296 340
#     4   9  16  30  54  80 104 138 186 227 261 326
#
# _framework density 19.513746000000001
#
# number of rings (size 3 to 8) (size 9 to 14) (size 15 to 20)
#    0.000    2.000    2.500    2.250    0.000    2.667 
#    1.500    5.417    0.000    0.000    0.000    0.000 
#    0.000    0.000    0.000    0.000    0.000    0.000 
#
# Total GULP energy -297468.709254 kJ/mol
# GULP energy per Si atom -12394.529552 kJ/mol
# Density = 1.946933 g / cm^3
# Si number density = 19.513746 Si / 1000 Ang^3
#
#
#
# Elastic Constant Matrix: (Units=GPa)
#
#
# Indices 1 2 3 4 5 6 
#
# 1 160.3665 26.0908 36.7649 0.0000 0.0000 0.0000
# 2 26.0908 51.3572 26.6757 0.0000 0.0000 0.0000
# 3 36.7649 26.6757 78.5869 0.0000 0.0000 0.0000
# 4 0.0000 0.0000 0.0000 25.1102 0.0000 0.0000
# 5 0.0000 0.0000 0.0000 0.0000 40.2893 0.0000
# 6 0.0000 0.0000 0.0000 0.0000 0.0000 21.0763
#
#
#
# Elastic Compliance Matrix: (Units=1/GPa)
#
#
# Indices 1 2 3 4 5 6 
#
# 1 0.007205 -0.002318 -0.002584 0.000000 0.000000 0.000000
# 2 -0.002318 0.024385 -0.007193 0.000000 0.000000 0.000000
# 3 -0.002584 -0.007193 0.016375 0.000000 0.000000 0.000000
# 4 0.000000 0.000000 0.000000 0.039824 0.000000 0.000000
# 5 0.000000 0.000000 0.000000 0.000000 0.024820 0.000000
# 6 0.000000 0.000000 0.000000 0.000000 0.000000 0.047447
#
#
# Mechanical properties :
#
#
# Convention : Reuss Voigt Hill
#
# Bulk Modulus (GPa) = 42.05991 52.15261 47.10626
# Shear Modulus (GPa) = 26.01827 30.68043 28.34935
#
# Velocity S-wave (km/s) = 3.65544 3.96946 3.81568
# Velocity P-wave (km/s) = 6.27830 6.91324 6.60341
#
# Compressibility (1/GPa) = 0.02377561
#
# Stress axis : x y z
#
# Youngs Moduli (GPa) = 138.78736 41.00825 61.06828
#
# Poissons Ratio (x) = 0.09507 0.15779
# Poissons Ratio (y) = 0.32176 0.43925
# Poissons Ratio (z) = 0.35861 0.29497
#
# Static dielectric constant tensor:
#      x y z
#    x 3.911880 0.000000 0.000000 
#    y 0.000000 3.137210 0.000000 
#    z 0.000000 0.000000 3.512980 
# 
# 
# High freq. dielectric constant tensor:
#      x y z
#    x 1.780550 0.000000 0.000000 
#    y 0.000000 1.715330 0.000000 
#    z 0.000000 0.000000 1.752810 
# 
# From -- ./inp_files/16173.got.cif
#   From: 2010.03.12/outbox.cif.g09.slc.cpg/sg44_9_cif.got.tgz:16173.got - 2010.04.14 02:36:11.
