data_PCOD8189443
_publ_section_title
;
Structure prediction by ZEFSAII (Michael W. Deem and Ramdas Pophale) SiO2 
 PCOD8189443
Probable space group: I M M 2
;
_chemical_formula_sum "Si O2"
_cell_formula_units_Z 64
_cell_length_a 19.466183
_cell_length_b 8.784455
_cell_length_c 20.627006
_cell_angle_alpha 90.000000
_cell_angle_beta 90.000000
_cell_angle_gamma 90.000000
_cell_volume 3527.214078
_symmetry_space_group_name_H-M "I M M 2"
_symmetry_group_IT_number 44
_symmetry_cell_setting 'orthorhombic'
loop_
_space_group_symop_operation_xyz
x,y,z
-x,-y,z
-x,y,z
x,-y,z
1/2+x,1/2+y,1/2+z
1/2-x,1/2-y,1/2+z
1/2-x,1/2+y,1/2+z
1/2+x,1/2-y,1/2+z
loop_
_atom_site_type_symbol
_atom_site_label
_atom_site_fract_x
_atom_site_fract_y
_atom_site_fract_z
Si Si1 0.707953 0.677586 0.314200
Si Si2 0.421880 0.822346 0.263036
Si Si3 0.716503 0.821307 0.680143
Si Si4 0.422438 0.324582 0.125218
Si Si5 0.286182 0.677180 0.932974
Si Si6 0.423723 0.674485 0.867185
Si Si7 0.925094 0.320621 0.231699
Si Si8 0.702031 0.178636 0.064410
O O1 0.712469 0.500000 0.329932
O O2 0.628522 0.728738 0.309795
O O3 0.745830 0.718765 0.247264
O O4 0.741945 0.769849 0.372183
O O5 0.500000 0.786186 0.284320
O O6 0.409586 0.772482 0.189386
O O7 0.405144 0.000000 0.268458
O O8 0.636682 0.768229 0.684865
O O9 0.748251 0.723548 0.622880
O O10 0.723881 0.000000 0.664495
O O11 0.500000 0.305574 0.099300
O O12 0.405821 0.500000 0.141426
O O13 0.371193 0.263661 0.070491
O O14 0.272360 0.500000 0.944821
O O15 0.366969 0.711872 0.921154
O O16 0.263718 0.769026 0.996955
O O17 0.500000 0.710273 0.895176
O O18 0.418068 0.500000 0.844972
O O19 0.407593 0.774482 0.804641
O O20 0.927889 0.500000 0.231051
O O21 0.000000 0.253841 0.209846
O O22 0.690021 0.000000 0.064509
#
# Coordination Sequence:
#
# PCOD8189443 Si02
#       8
#     8   8   8   8   8   8   8   8
#     4  11  21  35  58  85 113 146 186 230 280 332
#     4  10  20  34  55  84 114 144 183 230 278 328
#     4  10  20  35  56  82 112 145 183 226 277 332
#     4  10  20  35  55  79 110 148 187 227 276 332
#     4  11  23  38  56  78 112 151 189 232 281 331
#     4   9  18  32  51  77 108 143 181 218 261 318
#     4   9  17  31  54  82 110 140 176 221 269 318
#     4  12  25  38  55  79 111 148 191 234 280 335
#
# _framework density 18.144632000000001
#
# number of rings (size 3 to 8) (size 9 to 14) (size 15 to 20)
#    0.000    1.750    2.500    2.625    0.000    3.500 
#    0.000    1.250    0.000    0.750    0.000    1.750 
#    0.000    0.000    0.000    0.000    0.000    0.000 
#
# Total GULP energy -396809.249510 kJ/mol
# GULP energy per Si atom -12400.289047 kJ/mol
# Density = 1.810333 g / cm^3
# Si number density = 18.144632 Si / 1000 Ang^3
#
#
#
# Elastic Constant Matrix: (Units=GPa)
#
#
# Indices 1 2 3 4 5 6 
#
# 1 103.0020 41.6047 45.8273 0.0000 0.0000 0.0000
# 2 41.6047 50.3896 26.6232 0.0000 0.0000 0.0000
# 3 45.8273 26.6232 83.3225 0.0000 0.0000 0.0000
# 4 0.0000 0.0000 0.0000 30.1478 0.0000 0.0000
# 5 0.0000 0.0000 0.0000 0.0000 18.0425 0.0000
# 6 0.0000 0.0000 0.0000 0.0000 0.0000 26.2248
#
#
#
# Elastic Compliance Matrix: (Units=1/GPa)
#
#
# Indices 1 2 3 4 5 6 
#
# 1 0.016545 -0.010651 -0.005697 0.000000 0.000000 0.000000
# 2 -0.010651 0.030733 -0.003962 0.000000 0.000000 0.000000
# 3 -0.005697 -0.003962 0.016401 0.000000 0.000000 0.000000
# 4 0.000000 0.000000 0.000000 0.033170 0.000000 0.000000
# 5 0.000000 0.000000 0.000000 0.000000 0.055425 0.000000
# 6 0.000000 0.000000 0.000000 0.000000 0.000000 0.038132
#
#
# Mechanical properties :
#
#
# Convention : Reuss Voigt Hill
#
# Bulk Modulus (GPa) = 43.36546 51.64713 47.50630
# Shear Modulus (GPa) = 20.94593 23.06029 22.00311
#
# Velocity S-wave (km/s) = 3.40131 3.56886 3.48609
# Velocity P-wave (km/s) = 6.27511 6.74598 6.51480
#
# Compressibility (1/GPa) = 0.02305983
#
# Stress axis : x y z
#
# Youngs Moduli (GPa) = 60.44043 32.53880 60.97351
#
# Poissons Ratio (x) = 0.34657 0.34735
# Poissons Ratio (y) = 0.64375 0.24156
# Poissons Ratio (z) = 0.34431 0.12891
#
# Static dielectric constant tensor:
#      x y z
#    x 3.819840 0.000000 0.000000 
#    y 0.000000 3.357180 0.000000 
#    z 0.000000 0.000000 3.040620 
# 
# 
# High freq. dielectric constant tensor:
#      x y z
#    x 1.712050 0.000000 0.000000 
#    y 0.000000 1.709330 0.000000 
#    z 0.000000 0.000000 1.672530 
# 
# From -- ./inp_files/20736.got.cif
#   From: 2010.03.12/outbox.cif.g09.slc.cpg/sg44_11_cif.got.tgz:20736.got - 2010.04.14 02:36:11.
