data_PCOD8189843
_publ_section_title
;
Structure prediction by ZEFSAII (Michael W. Deem and Ramdas Pophale) SiO2 
 PCOD8189843
Probable space group: I M M 2
;
_chemical_formula_sum "Si O2"
_cell_formula_units_Z 48
_cell_length_a 7.543602
_cell_length_b 9.185806
_cell_length_c 34.297290
_cell_angle_alpha 90.000000
_cell_angle_beta 90.000000
_cell_angle_gamma 90.000000
_cell_volume 2376.598626
_symmetry_space_group_name_H-M "I M M 2"
_symmetry_group_IT_number 44
_symmetry_cell_setting 'orthorhombic'
loop_
_space_group_symop_operation_xyz
x,y,z
-x,-y,z
-x,y,z
x,-y,z
1/2+x,1/2+y,1/2+z
1/2-x,1/2-y,1/2+z
1/2-x,1/2+y,1/2+z
1/2+x,1/2-y,1/2+z
loop_
_atom_site_type_symbol
_atom_site_label
_atom_site_fract_x
_atom_site_fract_y
_atom_site_fract_z
Si Si1 0.709634 0.338473 0.067860
Si Si2 0.296532 0.168048 0.800630
Si Si3 0.292080 0.333989 0.153864
Si Si4 0.000000 0.830786 0.862091
Si Si5 0.500000 0.825819 0.442594
Si Si6 0.208291 0.329711 0.492373
Si Si7 0.201376 0.157842 0.227675
O O1 0.500000 0.348454 0.069947
O O2 0.784234 0.500000 0.057499
O O3 0.777896 0.288946 0.110646
O O4 0.769369 0.222788 0.035364
O O5 0.500000 0.210513 0.810533
O O6 0.214031 0.249486 0.762863
O O7 0.176722 0.205670 0.837777
O O8 0.281211 0.000000 0.789727
O O9 0.500000 0.311782 0.157015
O O10 0.238080 0.500000 0.162104
O O11 0.203150 0.234094 0.185924
O O12 0.000000 0.721230 0.897928
O O13 0.000000 0.000000 0.875569
O O14 0.678425 0.760510 0.461404
O O15 0.500000 0.000000 0.446418
O O16 0.251383 0.500000 0.488504
O O17 0.000000 0.298372 0.485102
O O18 0.000000 0.136294 0.239728
O O19 0.296184 0.000000 0.224910
#
# Coordination Sequence:
#
# PCOD8189843 Si02
#       7
#     8   8   8   4   4   8   8
#     4   8  15  31  54  80 111 148 192 239 288 346
#     4   9  19  37  60  83 110 148 189 233 288 347
#     4   9  18  32  52  78 108 145 190 236 281 336
#     4  10  22  40  62  88 116 146 190 242 292 356
#     4  12  26  42  62  92 126 158 198 244 294 362
#     4  10  21  39  64  90 119 158 199 245 301 356
#     4  10  21  35  50  74 110 148 188 234 284 336
#
# _framework density 20.196933000000001
#
# number of rings (size 3 to 8) (size 9 to 14) (size 15 to 20)
#    0.000    2.500    0.000    2.750    1.167    4.333 
#    1.500    3.333    0.000    0.000    0.000    0.000 
#    0.000    0.000    0.000    0.000    0.000    0.000 
#
# Total GULP energy -297485.089826 kJ/mol
# GULP energy per Si atom -12395.212076 kJ/mol
# Density = 2.015096 g / cm^3
# Si number density = 20.196933 Si / 1000 Ang^3
#
#
#
# Elastic Constant Matrix: (Units=GPa)
#
#
# Indices 1 2 3 4 5 6 
#
# 1 70.1086 47.3042 48.0698 0.0000 0.0000 0.0000
# 2 47.3042 131.3489 86.2917 0.0000 0.0000 0.0000
# 3 48.0698 86.2917 155.1121 0.0000 0.0000 0.0000
# 4 0.0000 0.0000 0.0000 40.8109 0.0000 0.0000
# 5 0.0000 0.0000 0.0000 0.0000 31.1257 0.0000
# 6 0.0000 0.0000 0.0000 0.0000 0.0000 18.8691
#
#
#
# Elastic Compliance Matrix: (Units=1/GPa)
#
#
# Indices 1 2 3 4 5 6 
#
# 1 0.019945 -0.004921 -0.003443 0.000000 0.000000 0.000000
# 2 -0.004921 0.013213 -0.005825 0.000000 0.000000 0.000000
# 3 -0.003443 -0.005825 0.010755 0.000000 0.000000 0.000000
# 4 0.000000 0.000000 0.000000 0.024503 0.000000 0.000000
# 5 0.000000 0.000000 0.000000 0.000000 0.032128 0.000000
# 6 0.000000 0.000000 0.000000 0.000000 0.000000 0.052997
#
#
# Mechanical properties :
#
#
# Convention : Reuss Voigt Hill
#
# Bulk Modulus (GPa) = 64.37920 79.98899 72.18409
# Shear Modulus (GPa) = 26.72412 29.82140 28.27276
#
# Velocity S-wave (km/s) = 3.64150 3.84673 3.74552
# Velocity P-wave (km/s) = 7.04454 7.70846 7.38397
#
# Compressibility (1/GPa) = 0.01553297
#
# Stress axis : x y z
#
# Youngs Moduli (GPa) = 50.13860 75.68548 92.98083
#
# Poissons Ratio (x) = 0.37242 0.32018
# Poissons Ratio (y) = 0.24672 0.54166
# Poissons Ratio (z) = 0.17265 0.44090
#
# Static dielectric constant tensor:
#      x y z
#    x 3.579210 0.000000 0.000000 
#    y 0.000000 3.821950 0.000000 
#    z 0.000000 0.000000 3.952150 
# 
# 
# High freq. dielectric constant tensor:
#      x y z
#    x 1.781830 0.000000 0.000000 
#    y 0.000000 1.783820 0.000000 
#    z 0.000000 0.000000 1.789050 
# 
# From -- ./inp_files/26894.got.cif
#   From: 2010.03.12/outbox.cif.g09.slc.cpg/sg44_14_cif.got.tgz:26894.got - 2010.04.14 02:36:11.
