data_PCOD8189317
_publ_section_title
;
Structure prediction by ZEFSAII (Michael W. Deem and Ramdas Pophale) SiO2 
 PCOD8189317
Probable space group: I M M 2
;
_chemical_formula_sum "Si O2"
_cell_formula_units_Z 40
_cell_length_a 7.704995
_cell_length_b 26.416398
_cell_length_c 10.209942
_cell_angle_alpha 90.000000
_cell_angle_beta 90.000000
_cell_angle_gamma 90.000000
_cell_volume 2078.113365
_symmetry_space_group_name_H-M "I M M 2"
_symmetry_group_IT_number 44
_symmetry_cell_setting 'orthorhombic'
loop_
_space_group_symop_operation_xyz
x,y,z
-x,-y,z
-x,y,z
x,-y,z
1/2+x,1/2+y,1/2+z
1/2-x,1/2-y,1/2+z
1/2-x,1/2+y,1/2+z
1/2+x,1/2-y,1/2+z
loop_
_atom_site_type_symbol
_atom_site_label
_atom_site_fract_x
_atom_site_fract_y
_atom_site_fract_z
Si Si1 0.305783 0.704634 0.556590
Si Si2 0.000000 0.442472 0.716389
Si Si3 0.500000 0.057460 0.905289
Si Si4 0.699130 0.369418 0.775971
Si Si5 0.706308 0.182921 0.536413
Si Si6 0.691493 0.853271 0.814471
O O1 0.500000 0.714545 0.604084
O O2 0.219601 0.670070 0.669544
O O3 0.218397 0.759788 0.544566
O O4 0.310215 0.675512 0.418395
O O5 0.000000 0.439403 0.560547
O O6 0.175140 0.417779 0.774075
O O7 0.000000 0.500000 0.765329
O O8 0.328224 0.086743 0.850202
O O9 0.500000 0.000000 0.853748
O O10 0.500000 0.385140 0.740872
O O11 0.698142 0.344532 0.918251
O O12 0.500000 0.181098 0.512608
O O13 0.764502 0.153619 0.668340
O O14 0.500000 0.827559 0.823136
#
# Coordination Sequence:
#
# PCOD8189317 Si02
#       6
#     8   4   4   8   8   8
#     4  10  20  33  52  81 117 157 196 239 286 350
#     4  11  22  41  67  89 115 155 201 255 306 346
#     4   9  18  35  63  85 103 149 201 245 300 348
#     4  11  22  39  59  88 122 154 199 250 291 354
#     4  10  20  34  53  82 121 158 191 233 297 354
#     4   9  18  34  54  78 110 145 191 245 281 348
#
# _framework density 19.24823
#
# number of rings (size 3 to 8) (size 9 to 14) (size 15 to 20)
#    0.600    1.400    3.000    1.200    0.000    3.600 
#    0.000    2.000    0.000    0.600    0.000    0.000 
#    0.000    0.000    0.000    0.000    0.000    0.000 
#
# Total GULP energy -247898.721739 kJ/mol
# GULP energy per Si atom -12394.936087 kJ/mol
# Density = 1.920442 g / cm^3
# Si number density = 19.248230 Si / 1000 Ang^3
#
#
#
# Elastic Constant Matrix: (Units=GPa)
#
#
# Indices 1 2 3 4 5 6 
#
# 1 63.3368 36.4190 14.5640 0.0000 0.0000 0.0005
# 2 36.4190 161.8606 57.0185 0.0004 0.0000 0.0001
# 3 14.5640 57.0185 131.2528 0.0013 0.0003 0.0014
# 4 0.0000 0.0004 0.0013 18.9186 0.0000 0.0001
# 5 0.0000 0.0000 0.0003 0.0000 14.1024 0.0001
# 6 0.0005 0.0001 0.0014 0.0001 0.0001 15.9731
#
#
#
# Elastic Compliance Matrix: (Units=1/GPa)
#
#
# Indices 1 2 3 4 5 6 
#
# 1 0.018144 -0.003983 -0.000283 0.000000 0.000000 -0.000001
# 2 -0.003983 0.008169 -0.003107 0.000000 0.000000 0.000000
# 3 -0.000283 -0.003107 0.009000 -0.000001 0.000000 -0.000001
# 4 0.000000 0.000000 -0.000001 0.052858 0.000000 0.000000
# 5 0.000000 0.000000 0.000000 0.000000 0.070910 -0.000001
# 6 -0.000001 0.000000 -0.000001 0.000000 -0.000001 0.062605
#
#
# Mechanical properties :
#
#
# Convention : Reuss Voigt Hill
#
# Bulk Modulus (GPa) = 48.62066 63.60590 56.11328
# Shear Modulus (GPa) = 20.55194 26.36207 23.45700
#
# Velocity S-wave (km/s) = 3.27116 3.70480 3.49471
# Velocity P-wave (km/s) = 6.29142 7.17060 6.74535
#
# Compressibility (1/GPa) = 0.02056739
#
# Stress axis : x y z
#
# Youngs Moduli (GPa) = 55.11538 122.41927 111.11237
#
# Poissons Ratio (x) = 0.48755 0.03146
# Poissons Ratio (y) = 0.21951 0.34519
# Poissons Ratio (z) = 0.01560 0.38032
#
# Static dielectric constant tensor:
#      x y z
#    x 3.229630 0.000000 0.000000 
#    y 0.000000 3.546700 0.000000 
#    z 0.000000 0.000000 3.469950 
# 
# 
# High freq. dielectric constant tensor:
#      x y z
#    x 1.726660 0.000000 0.000000 
#    y 0.000000 1.731460 0.000000 
#    z 0.000000 0.000000 1.755810 
# 
# From -- ./inp_files/4642.got.cif
#   From: 2010.03.12/outbox.cif.g09.slc.cpg/sg44_3_cif.got.tgz:4642.got - 2010.04.14 02:36:11.
