data_PCOD8189042
_publ_section_title
;
Structure prediction by ZEFSAII (Michael W. Deem and Ramdas Pophale) SiO2 
 PCOD8189042
Probable space group: I M M 2
;
_chemical_formula_sum "Si O2"
_cell_formula_units_Z 34
_cell_length_a 8.019081
_cell_length_b 7.744784
_cell_length_c 27.254372
_cell_angle_alpha 90.000000
_cell_angle_beta 90.000000
_cell_angle_gamma 90.000000
_cell_volume 1692.661396
_symmetry_space_group_name_H-M "I M M 2"
_symmetry_group_IT_number 44
_symmetry_cell_setting 'orthorhombic'
loop_
_space_group_symop_operation_xyz
x,y,z
-x,-y,z
-x,y,z
x,-y,z
1/2+x,1/2+y,1/2+z
1/2-x,1/2-y,1/2+z
1/2-x,1/2+y,1/2+z
1/2+x,1/2-y,1/2+z
loop_
_atom_site_type_symbol
_atom_site_label
_atom_site_fract_x
_atom_site_fract_y
_atom_site_fract_z
Si Si1 0.813555 0.703965 0.935010
Si Si2 0.000000 0.000000 0.296827
Si Si3 0.804950 0.190038 0.643049
Si Si4 0.500000 0.808470 0.872080
Si Si5 0.315323 0.704583 0.037084
Si Si6 0.681992 0.500000 0.702499
O O1 0.787290 0.500000 0.930545
O O2 0.668593 0.791625 0.903602
O O3 0.000000 0.756493 0.916717
O O4 0.798364 0.766151 0.991654
O O5 0.834986 0.000000 0.261904
O O6 0.000000 0.171497 0.328674
O O7 0.736261 0.258812 0.590079
O O8 0.773126 0.325596 0.686208
O O9 0.000000 0.168647 0.635743
O O10 0.729381 0.000000 0.656622
O O11 0.500000 0.000000 0.849034
O O12 0.500000 0.785059 0.029885
O O13 0.328639 0.500000 0.036991
O O14 0.500000 0.500000 0.677434
#
# Coordination Sequence:
#
# PCOD8189042 Si02
#       6
#     8   2   8   4   8   4
#     4  10  19  35  63  94 130 172 210 258 318 385
#     4  10  26  48  66  86 118 170 224 266 340 368
#     4   9  18  35  60  90 127 166 205 255 309 373
#     4  12  24  44  70  90 124 168 216 280 328 381
#     4   8  14  28  54  87 126 175 211 240 304 380
#     4  10  23  39  60  88 115 159 214 264 319 369
#
# _framework density 20.086711000000001
#
# number of rings (size 3 to 8) (size 9 to 14) (size 15 to 20)
#    0.353    2.118    2.353    1.765    0.000    2.824 
#    2.118    4.706    0.000    0.000    0.000    0.000 
#    0.000    0.000    0.000    0.000    0.000    0.000 
#
# Total GULP energy -210604.974637 kJ/mol
# GULP energy per Si atom -12388.527920 kJ/mol
# Density = 2.004099 g / cm^3
# Si number density = 20.086711 Si / 1000 Ang^3
#
#
#
# Elastic Constant Matrix: (Units=GPa)
#
#
# Indices 1 2 3 4 5 6 
#
# 1 87.5311 29.2816 37.9224 0.0000 0.0000 0.0000
# 2 29.2816 116.9702 64.6239 0.0000 0.0000 0.0000
# 3 37.9224 64.6239 135.9243 0.0000 0.0000 0.0000
# 4 0.0000 0.0000 0.0000 5.3590 0.0000 0.0000
# 5 0.0000 0.0000 0.0000 0.0000 21.7845 0.0000
# 6 0.0000 0.0000 0.0000 0.0000 0.0000 10.4582
#
#
#
# Elastic Compliance Matrix: (Units=1/GPa)
#
#
# Indices 1 2 3 4 5 6 
#
# 1 0.013248 -0.001728 -0.002874 0.000000 0.000000 0.000000
# 2 -0.001728 0.011820 -0.005138 0.000000 0.000000 0.000000
# 3 -0.002874 -0.005138 0.010602 0.000000 0.000000 0.000000
# 4 0.000000 0.000000 0.000000 0.186601 0.000000 0.000000
# 5 0.000000 0.000000 0.000000 0.000000 0.045904 0.000000
# 6 0.000000 0.000000 0.000000 0.000000 0.000000 0.095619
#
#
# Mechanical properties :
#
#
# Convention : Reuss Voigt Hill
#
# Bulk Modulus (GPa) = 61.76992 67.12015 64.44503
# Shear Modulus (GPa) = 12.86434 21.42686 17.14560
#
# Velocity S-wave (km/s) = 2.53344 3.26961 2.92478
# Velocity P-wave (km/s) = 6.27504 6.90952 6.59991
#
# Compressibility (1/GPa) = 0.01618911
#
# Stress axis : x y z
#
# Youngs Moduli (GPa) = 75.48303 84.60010 94.32508
#
# Poissons Ratio (x) = 0.14622 0.27113
# Poissons Ratio (y) = 0.13046 0.48461
# Poissons Ratio (z) = 0.21697 0.43465
#
# Static dielectric constant tensor:
#      x y z
#    x 3.542600 0.000000 0.000000 
#    y 0.000000 3.553160 0.000000 
#    z 0.000000 0.000000 3.588780 
# 
# 
# High freq. dielectric constant tensor:
#      x y z
#    x 1.770660 0.000000 0.000000 
#    y 0.000000 1.770920 0.000000 
#    z 0.000000 0.000000 1.763750 
# 
# From -- ./inp_files/25921.got.cif
#   From: 2010.03.12/outbox.cif.g09.slc.cpg/sg44_13_cif.got.tgz:25921.got - 2010.04.14 02:36:11.
