data_PCOD8189700
_publ_section_title
;
Structure prediction by ZEFSAII (Michael W. Deem and Ramdas Pophale) SiO2 
 PCOD8189700
Probable space group: I M M 2
;
_chemical_formula_sum "Si O2"
_cell_formula_units_Z 32
_cell_length_a 8.615680
_cell_length_b 7.545306
_cell_length_c 23.682512
_cell_angle_alpha 90.000000
_cell_angle_beta 90.000000
_cell_angle_gamma 90.000000
_cell_volume 1539.551366
_symmetry_space_group_name_H-M "I M M 2"
_symmetry_group_IT_number 44
_symmetry_cell_setting 'orthorhombic'
loop_
_space_group_symop_operation_xyz
x,y,z
-x,-y,z
-x,y,z
x,-y,z
1/2+x,1/2+y,1/2+z
1/2-x,1/2-y,1/2+z
1/2-x,1/2+y,1/2+z
1/2+x,1/2-y,1/2+z
loop_
_atom_site_type_symbol
_atom_site_label
_atom_site_fract_x
_atom_site_fract_y
_atom_site_fract_z
Si Si1 0.182626 0.296866 0.039050
Si Si2 0.178956 0.000000 0.235330
Si Si3 0.823368 0.800851 0.807113
Si Si4 0.318629 0.000000 0.114902
Si Si5 0.322387 0.291282 0.920773
O O1 0.229582 0.500000 0.051972
O O2 0.000000 0.275336 0.032997
O O3 0.243439 0.177456 0.089934
O O4 0.259949 0.228847 0.981352
O O5 0.210190 0.825739 0.272274
O O6 0.289445 0.000000 0.181432
O O7 0.000000 0.000000 0.216576
O O8 0.777367 0.803214 0.872766
O O9 0.000000 0.733408 0.801181
O O10 0.806657 0.000000 0.783289
O O11 0.500000 0.000000 0.102368
O O12 0.500000 0.231456 0.915138
O O13 0.302225 0.500000 0.913650
#
# Coordination Sequence:
#
# PCOD8189700 Si02
#       5
#     8   4   8   4   8
#     4  10  22  41  65  94 129 168 211 262 318 376
#     4  12  26  46  68  92 126 168 215 268 319 378
#     4  11  24  41  64  94 128 168 212 261 319 380
#     4  12  26  44  68  94 126 170 215 264 317 382
#     4  10  20  36  61  94 132 169 208 259 318 377
#
# _framework density 20.785276
#
# number of rings (size 3 to 8) (size 9 to 14) (size 15 to 20)
#    0.000    1.250    1.250    4.500    1.750    5.500 
#    0.000    0.000    0.000    0.000    0.000    0.000 
#    0.000    0.000    0.000    0.000    0.000    0.000 
#
# Total GULP energy -198512.249687 kJ/mol
# GULP energy per Si atom -12407.015605 kJ/mol
# Density = 2.073797 g / cm^3
# Si number density = 20.785276 Si / 1000 Ang^3
#
#
#
# Elastic Constant Matrix: (Units=GPa)
#
#
# Indices 1 2 3 4 5 6 
#
# 1 91.9158 31.0338 8.9964 0.0000 0.0000 0.0000
# 2 31.0338 99.4210 38.9159 0.0000 0.0000 0.0000
# 3 8.9964 38.9159 98.8624 0.0000 0.0000 0.0000
# 4 0.0000 0.0000 0.0000 5.1004 0.0000 0.0000
# 5 0.0000 0.0000 0.0000 0.0000 40.9515 0.0000
# 6 0.0000 0.0000 0.0000 0.0000 0.0000 23.6504
#
#
#
# Elastic Compliance Matrix: (Units=1/GPa)
#
#
# Indices 1 2 3 4 5 6 
#
# 1 0.012179 -0.003981 0.000459 0.000000 0.000000 0.000000
# 2 -0.003981 0.013192 -0.004830 0.000000 0.000000 0.000000
# 3 0.000459 -0.004830 0.011975 0.000000 0.000000 0.000000
# 4 0.000000 0.000000 0.000000 0.196064 0.000000 0.000000
# 5 0.000000 0.000000 0.000000 0.000000 0.024419 0.000000
# 6 0.000000 0.000000 0.000000 0.000000 0.000000 0.042283
#
#
# Mechanical properties :
#
#
# Convention : Reuss Voigt Hill
#
# Bulk Modulus (GPa) = 48.45022 49.78794 49.11908
# Shear Modulus (GPa) = 15.44655 28.02399 21.73527
#
# Velocity S-wave (km/s) = 2.72903 3.67585 3.23724
# Velocity P-wave (km/s) = 5.76980 6.48238 6.13645
#
# Compressibility (1/GPa) = 0.02063974
#
# Stress axis : x y z
#
# Youngs Moduli (GPa) = 82.10998 75.80517 83.50899
#
# Poissons Ratio (x) = 0.30179 -0.03832
# Poissons Ratio (y) = 0.32689 0.40339
# Poissons Ratio (z) = -0.03768 0.36617
#
# Static dielectric constant tensor:
#      x y z
#    x 3.815070 0.000000 0.000000 
#    y 0.000000 3.632270 0.000000 
#    z 0.000000 0.000000 3.647940 
# 
# 
# High freq. dielectric constant tensor:
#      x y z
#    x 1.827250 0.000000 0.000000 
#    y 0.000000 1.820740 0.000000 
#    z 0.000000 0.000000 1.808290 
# 
# From -- ./inp_files/24570.got.cif
#   From: 2010.03.12/outbox.cif.g09.slc.cpg/sg44_13_cif.got.tgz:24570.got - 2010.04.14 02:36:11.
