data_PCOD8189268
_publ_section_title
;
Structure prediction by ZEFSAII (Michael W. Deem and Ramdas Pophale) SiO2 
 PCOD8189268
Probable space group: I M M 2
;
_chemical_formula_sum "Si O2"
_cell_formula_units_Z 40
_cell_length_a 25.659279
_cell_length_b 8.953180
_cell_length_c 9.630598
_cell_angle_alpha 90.000000
_cell_angle_beta 90.000000
_cell_angle_gamma 90.000000
_cell_volume 2212.457922
_symmetry_space_group_name_H-M "I M M 2"
_symmetry_group_IT_number 44
_symmetry_cell_setting 'orthorhombic'
loop_
_space_group_symop_operation_xyz
x,y,z
-x,-y,z
-x,y,z
x,-y,z
1/2+x,1/2+y,1/2+z
1/2-x,1/2-y,1/2+z
1/2-x,1/2+y,1/2+z
1/2+x,1/2-y,1/2+z
loop_
_atom_site_type_symbol
_atom_site_label
_atom_site_fract_x
_atom_site_fract_y
_atom_site_fract_z
Si Si1 0.500000 0.177688 0.460840
Si Si2 0.000000 0.321150 0.647513
Si Si3 0.408430 0.825553 0.957537
Si Si4 0.904503 0.322275 0.145391
Si Si5 0.297492 0.324401 0.655756
Si Si6 0.792011 0.325836 0.444153
O O1 0.500000 0.241898 0.304467
O O2 0.551202 0.236165 0.540822
O O3 0.500000 0.000000 0.461554
O O4 0.050775 0.256023 0.567270
O O5 0.000000 0.500000 0.653060
O O6 0.418198 0.765382 0.801091
O O7 0.349488 0.788306 0.004856
O O8 0.419146 0.000000 0.955379
O O9 0.898949 0.500000 0.142232
O O10 0.849639 0.253063 0.098054
O O11 0.306472 0.500000 0.658855
O O12 0.250236 0.277935 0.556364
O O13 0.281450 0.268694 0.807088
O O14 0.788795 0.500000 0.404661
#
# Coordination Sequence:
#
# PCOD8189268 Si02
#       6
#     4   4   8   8   8   8
#     4   9  17  27  44  71  96 122 160 203 246 291
#     4   9  15  23  41  71  96 112 148 205 250 283
#     4   8  14  26  43  62  89 122 150 186 238 289
#     4   9  17  31  49  69  96 129 163 200 245 295
#     4  10  20  33  51  75 100 131 170 207 250 301
#     4   9  19  34  50  71 100 132 166 205 250 300
#
# _framework density 18.079440000000002
#
# number of rings (size 3 to 8) (size 9 to 14) (size 15 to 20)
#    0.000    3.000    0.000    2.400    0.000    5.600 
#    0.000    4.500    0.000    0.000    0.000    5.600 
#    0.000    0.000    0.000    0.000    0.000    0.000 
#
# Total GULP energy -247935.134790 kJ/mol
# GULP energy per Si atom -12396.756739 kJ/mol
# Density = 1.803829 g / cm^3
# Si number density = 18.079440 Si / 1000 Ang^3
#
#
#
# Elastic Constant Matrix: (Units=GPa)
#
#
# Indices 1 2 3 4 5 6 
#
# 1 176.7025 30.9491 108.4064 0.0000 0.0000 0.0000
# 2 30.9491 26.8472 22.5949 0.0000 0.0000 0.0000
# 3 108.4064 22.5949 128.6304 0.0000 0.0000 0.0000
# 4 0.0000 0.0000 0.0000 18.3841 0.0000 0.0000
# 5 0.0000 0.0000 0.0000 0.0000 40.9029 0.0000
# 6 0.0000 0.0000 0.0000 0.0000 0.0000 23.5274
#
#
#
# Elastic Compliance Matrix: (Units=1/GPa)
#
#
# Indices 1 2 3 4 5 6 
#
# 1 0.012635 -0.006576 -0.009494 0.000000 0.000000 0.000000
# 2 -0.006576 0.047132 -0.002737 0.000000 0.000000 0.000000
# 3 -0.009494 -0.002737 0.016256 0.000000 0.000000 0.000000
# 4 0.000000 0.000000 0.000000 0.054395 0.000000 0.000000
# 5 0.000000 0.000000 0.000000 0.000000 0.024448 0.000000
# 6 0.000000 0.000000 0.000000 0.000000 0.000000 0.042504
#
#
# Mechanical properties :
#
#
# Convention : Reuss Voigt Hill
#
# Bulk Modulus (GPa) = 26.03481 72.89788 49.46634
# Shear Modulus (GPa) = 20.17867 27.91153 24.04510
#
# Velocity S-wave (km/s) = 3.34445 3.93342 3.65083
# Velocity P-wave (km/s) = 5.41713 7.81265 6.72245
#
# Compressibility (1/GPa) = 0.03841011
#
# Stress axis : x y z
#
# Youngs Moduli (GPa) = 79.14356 21.21701 61.51598
#
# Poissons Ratio (x) = 0.13952 0.58401
# Poissons Ratio (y) = 0.52044 0.16837
# Poissons Ratio (z) = 0.75136 0.05807
#
# Static dielectric constant tensor:
#      x y z
#    x 3.593830 0.000000 0.000000 
#    y 0.000000 2.889110 0.000000 
#    z 0.000000 0.000000 3.474530 
# 
# 
# High freq. dielectric constant tensor:
#      x y z
#    x 1.715380 0.000000 0.000000 
#    y 0.000000 1.652890 0.000000 
#    z 0.000000 0.000000 1.697640 
# 
# From -- ./inp_files/4678.got.cif
#   From: 2010.03.12/outbox.cif.g09.slc.cpg/sg44_3_cif.got.tgz:4678.got - 2010.04.14 02:36:11.
