data_PCOD8189132
_publ_section_title
;
Structure prediction by ZEFSAII (Michael W. Deem and Ramdas Pophale) SiO2 
 PCOD8189132
Probable space group: I M M 2
;
_chemical_formula_sum "Si O2"
_cell_formula_units_Z 64
_cell_length_a 8.988127
_cell_length_b 14.632668
_cell_length_c 28.456266
_cell_angle_alpha 90.000000
_cell_angle_beta 90.000000
_cell_angle_gamma 90.000000
_cell_volume 3742.576025
_symmetry_space_group_name_H-M "I M M 2"
_symmetry_group_IT_number 44
_symmetry_cell_setting 'orthorhombic'
loop_
_space_group_symop_operation_xyz
x,y,z
-x,-y,z
-x,y,z
x,-y,z
1/2+x,1/2+y,1/2+z
1/2-x,1/2-y,1/2+z
1/2-x,1/2+y,1/2+z
1/2+x,1/2-y,1/2+z
loop_
_atom_site_type_symbol
_atom_site_label
_atom_site_fract_x
_atom_site_fract_y
_atom_site_fract_z
Si Si1 0.670957 0.893275 0.821040
Si Si2 0.173250 0.102285 0.724379
Si Si3 0.323423 0.100183 0.365948
Si Si4 0.826988 0.396332 0.761984
Si Si5 0.675464 0.219079 0.176949
Si Si6 0.175763 0.211872 0.904846
Si Si7 0.673975 0.894764 0.986683
Si Si8 0.323032 0.898156 0.092082
O O1 0.500000 0.862754 0.822958
O O2 0.735627 0.868354 0.770181
O O3 0.761784 0.841201 0.860413
O O4 0.688930 0.000000 0.831278
O O5 0.211820 0.172776 0.682055
O O6 0.000000 0.108427 0.737768
O O7 0.216209 0.000000 0.707530
O O8 0.500000 0.095956 0.361448
O O9 0.257249 0.121014 0.313742
O O10 0.275470 0.181171 0.401176
O O11 0.265682 0.000000 0.383517
O O12 0.799800 0.500000 0.745927
O O13 0.753710 0.331630 0.722382
O O14 0.000000 0.372958 0.764761
O O15 0.500000 0.201403 0.175578
O O16 0.742966 0.176224 0.128934
O O17 0.237861 0.172870 0.953102
O O18 0.000000 0.200845 0.904548
O O19 0.500000 0.875026 0.980777
O O20 0.708326 0.000000 0.973616
O O21 0.730173 0.873320 0.039500
O O22 0.500000 0.898174 0.092064
O O23 0.266780 0.000000 0.105881
#
# Coordination Sequence:
#
# PCOD8189132 Si02
#       8
#     8   8   8   8   8   8   8   8
#     4  10  20  32  45  63  91 126 157 183 218 268
#     4   9  17  28  42  63  91 119 148 184 221 256
#     4   8  15  27  41  61  90 118 142 173 215 260
#     4   8  12  18  31  54  83 108 129 160 204 249
#     4   9  14  21  38  63  87 110 139 177 216 250
#     4  11  20  29  47  71  90 113 149 191 231 268
#     4   9  18  32  47  64  90 121 149 181 226 278
#     4   8  14  25  42  64  88 114 145 180 219 266
#
# _framework density 17.100521000000001
#
# number of rings (size 3 to 8) (size 9 to 14) (size 15 to 20)
#    0.000    3.000    0.000    3.750    0.000    6.000 
#    0.000    0.000    0.000    3.000    0.000    1.750 
#    0.000    0.000    0.000    0.000    0.000    0.000 
#
# Total GULP energy -396547.661080 kJ/mol
# GULP energy per Si atom -12392.114409 kJ/mol
# Density = 1.706160 g / cm^3
# Si number density = 17.100521 Si / 1000 Ang^3
#
#
#
# Elastic Constant Matrix: (Units=GPa)
#
#
# Indices 1 2 3 4 5 6 
#
# 1 33.9271 31.6082 30.0624 0.0000 0.0000 0.0000
# 2 31.6082 119.3476 93.7564 0.0000 0.0000 0.0000
# 3 30.0624 93.7564 118.1997 0.0000 0.0000 0.0000
# 4 0.0000 0.0000 0.0000 31.7608 0.0000 0.0000
# 5 0.0000 0.0000 0.0000 0.0000 17.3187 0.0000
# 6 0.0000 0.0000 0.0000 0.0000 0.0000 11.6757
#
#
#
# Elastic Compliance Matrix: (Units=1/GPa)
#
#
# Indices 1 2 3 4 5 6 
#
# 1 0.040094 -0.006919 -0.004709 0.000000 0.000000 0.000000
# 2 -0.006919 0.023426 -0.016822 0.000000 0.000000 0.000000
# 3 -0.004709 -0.016822 0.023001 0.000000 0.000000 0.000000
# 4 0.000000 0.000000 0.000000 0.031485 0.000000 0.000000
# 5 0.000000 0.000000 0.000000 0.000000 0.057741 0.000000
# 6 0.000000 0.000000 0.000000 0.000000 0.000000 0.085648
#
#
# Mechanical properties :
#
#
# Convention : Reuss Voigt Hill
#
# Bulk Modulus (GPa) = 33.75990 64.70315 49.23153
# Shear Modulus (GPa) = 15.23601 19.88754 17.56178
#
# Velocity S-wave (km/s) = 2.98815 3.41395 3.20812
# Velocity P-wave (km/s) = 5.62941 7.31158 6.52493
#
# Compressibility (1/GPa) = 0.02962094
#
# Stress axis : x y z
#
# Youngs Moduli (GPa) = 24.94146 42.68685 43.47602
#
# Poissons Ratio (x) = 0.29537 0.20472
# Poissons Ratio (y) = 0.17258 0.73136
# Poissons Ratio (z) = 0.11744 0.71808
#
# Static dielectric constant tensor:
#      x y z
#    x 2.771300 0.000000 0.000000 
#    y 0.000000 3.495230 0.000000 
#    z 0.000000 0.000000 3.341290 
# 
# 
# High freq. dielectric constant tensor:
#      x y z
#    x 1.610120 0.000000 0.000000 
#    y 0.000000 1.665860 0.000000 
#    z 0.000000 0.000000 1.645310 
# 
# From -- ./inp_files/27341.got.cif
#   From: 2010.03.12/outbox.cif.g09.slc.cpg/sg44_14_cif.got.tgz:27341.got - 2010.04.14 02:36:11.
