data_PCOD8189737
_publ_section_title
;
Structure prediction by ZEFSAII (Michael W. Deem and Ramdas Pophale) SiO2 
 PCOD8189737
Probable space group: I M M 2
;
_chemical_formula_sum "Si O2"
_cell_formula_units_Z 48
_cell_length_a 14.469705
_cell_length_b 8.694523
_cell_length_c 20.275999
_cell_angle_alpha 90.000000
_cell_angle_beta 90.000000
_cell_angle_gamma 90.000000
_cell_volume 2550.866315
_symmetry_space_group_name_H-M "I M M 2"
_symmetry_group_IT_number 44
_symmetry_cell_setting 'orthorhombic'
loop_
_space_group_symop_operation_xyz
x,y,z
-x,-y,z
-x,y,z
x,-y,z
1/2+x,1/2+y,1/2+z
1/2-x,1/2-y,1/2+z
1/2-x,1/2+y,1/2+z
1/2+x,1/2-y,1/2+z
loop_
_atom_site_type_symbol
_atom_site_label
_atom_site_fract_x
_atom_site_fract_y
_atom_site_fract_z
Si Si1 0.500000 0.317721 0.393240
Si Si2 0.698662 0.321258 0.952085
Si Si3 0.000000 0.176464 0.503185
Si Si4 0.000000 0.319507 0.644258
Si Si5 0.000000 0.182105 0.041285
Si Si6 0.306142 0.818034 0.196214
Si Si7 0.688664 0.181156 0.581071
Si Si8 0.692568 0.681102 0.335087
O O1 0.500000 0.500000 0.397227
O O2 0.500000 0.249665 0.467097
O O3 0.408928 0.258116 0.355983
O O4 0.718184 0.500000 0.937559
O O5 0.589789 0.287673 0.959331
O O6 0.734226 0.219180 0.891885
O O7 0.750162 0.267027 0.018515
O O8 0.000000 0.280025 0.567614
O O9 0.000000 0.000000 0.527220
O O10 0.908924 0.253509 0.680186
O O11 0.000000 0.500000 0.651562
O O12 0.910792 0.241037 0.079358
O O13 0.000000 0.000000 0.040643
O O14 0.235685 0.736883 0.147549
O O15 0.277798 0.770958 0.269749
O O16 0.299301 0.000000 0.187084
O O17 0.676839 0.000000 0.582857
O O18 0.692528 0.500000 0.321742
#
# Coordination Sequence:
#
# PCOD8189737 Si02
#       8
#     4   8   4   4   4   8   8   8
#     4   9  19  34  56  86 118 152 189 234 293 354
#     4  10  21  37  59  86 117 152 194 243 292 347
#     4  10  20  37  60  87 117 152 194 238 289 348
#     4  10  21  35  57  88 121 153 190 241 297 352
#     4  11  21  38  61  89 122 155 195 243 295 350
#     4  11  23  39  58  86 122 159 196 242 300 357
#     4  11  22  38  61  89 118 154 200 247 291 347
#     4  11  22  38  59  85 118 156 197 242 293 355
#
# _framework density 18.817136999999999
#
# number of rings (size 3 to 8) (size 9 to 14) (size 15 to 20)
#    0.000    1.500    3.333    2.250    0.000    2.000 
#    0.000    2.083    0.000    1.000    0.000    0.000 
#    0.000    0.000    0.000    0.000    0.000    0.000 
#
# Total GULP energy -297727.540508 kJ/mol
# GULP energy per Si atom -12405.314188 kJ/mol
# Density = 1.877431 g / cm^3
# Si number density = 18.817137 Si / 1000 Ang^3
#
#
#
# Elastic Constant Matrix: (Units=GPa)
#
#
# Indices 1 2 3 4 5 6 
#
# 1 139.2680 29.3484 52.0787 0.0000 0.0000 0.0000
# 2 29.3484 45.1776 20.1539 0.0000 0.0000 0.0000
# 3 52.0787 20.1539 116.7275 0.0000 0.0000 0.0000
# 4 0.0000 0.0000 0.0000 30.2102 0.0000 0.0000
# 5 0.0000 0.0000 0.0000 0.0000 28.9994 0.0000
# 6 0.0000 0.0000 0.0000 0.0000 0.0000 24.7059
#
#
#
# Elastic Compliance Matrix: (Units=1/GPa)
#
#
# Indices 1 2 3 4 5 6 
#
# 1 0.009426 -0.004601 -0.003411 0.000000 0.000000 0.000000
# 2 -0.004601 0.026228 -0.002476 0.000000 0.000000 0.000000
# 3 -0.003411 -0.002476 0.010516 0.000000 0.000000 0.000000
# 4 0.000000 0.000000 0.000000 0.033101 0.000000 0.000000
# 5 0.000000 0.000000 0.000000 0.000000 0.034483 0.000000
# 6 0.000000 0.000000 0.000000 0.000000 0.000000 0.040476
#
#
# Mechanical properties :
#
#
# Convention : Reuss Voigt Hill
#
# Bulk Modulus (GPa) = 39.69130 56.03725 47.86427
# Shear Modulus (GPa) = 27.23240 30.08925 28.66083
#
# Velocity S-wave (km/s) = 3.80835 4.00313 3.90696
# Velocity P-wave (km/s) = 6.36216 7.15621 6.77083
#
# Compressibility (1/GPa) = 0.02519444
#
# Stress axis : x y z
#
# Youngs Moduli (GPa) = 106.09484 38.12657 95.09206
#
# Poissons Ratio (x) = 0.17544 0.32434
# Poissons Ratio (y) = 0.48819 0.23541
# Poissons Ratio (z) = 0.36187 0.09438
#
# Static dielectric constant tensor:
#      x y z
#    x 3.602820 0.000000 0.000000 
#    y 0.000000 3.350290 0.000000 
#    z 0.000000 0.000000 3.354980 
# 
# 
# High freq. dielectric constant tensor:
#      x y z
#    x 1.736450 0.000000 0.000000 
#    y 0.000000 1.727800 0.000000 
#    z 0.000000 0.000000 1.728470 
# 
# From -- ./inp_files/20373.got.cif
#   From: 2010.03.12/outbox.cif.g09.slc.cpg/sg44_11_cif.got.tgz:20373.got - 2010.04.14 02:36:11.
