data_PCOD8189082
_publ_section_title
;
Structure prediction by ZEFSAII (Michael W. Deem and Ramdas Pophale) SiO2 
 PCOD8189082
Probable space group: I M M 2
;
_chemical_formula_sum "Si O2"
_cell_formula_units_Z 64
_cell_length_a 30.485394
_cell_length_b 8.881533
_cell_length_c 11.988383
_cell_angle_alpha 90.000000
_cell_angle_beta 90.000000
_cell_angle_gamma 90.000000
_cell_volume 3245.939009
_symmetry_space_group_name_H-M "I M M 2"
_symmetry_group_IT_number 44
_symmetry_cell_setting 'orthorhombic'
loop_
_space_group_symop_operation_xyz
x,y,z
-x,-y,z
-x,y,z
x,-y,z
1/2+x,1/2+y,1/2+z
1/2-x,1/2-y,1/2+z
1/2-x,1/2+y,1/2+z
1/2+x,1/2-y,1/2+z
loop_
_atom_site_type_symbol
_atom_site_label
_atom_site_fract_x
_atom_site_fract_y
_atom_site_fract_z
Si Si1 0.949551 0.173630 0.825980
Si Si2 0.197865 0.677437 0.812903
Si Si3 0.069430 0.169682 0.577461
Si Si4 0.624269 0.678633 0.717165
Si Si5 0.622184 0.821586 0.475339
Si Si6 0.671085 0.330797 0.092104
Si Si7 0.950764 0.672001 0.357614
Si Si8 0.293944 0.320856 0.860198
O O1 0.942290 0.232572 0.699989
O O2 0.921314 0.272808 0.910075
O O3 0.000000 0.192261 0.860908
O O4 0.934200 0.000000 0.833931
O O5 0.200658 0.500000 0.820222
O O6 0.165288 0.736793 0.909223
O O7 0.178610 0.721004 0.694247
O O8 0.246649 0.746420 0.825824
O O9 0.120955 0.170676 0.555844
O O10 0.047457 0.275857 0.486051
O O11 0.050801 0.000000 0.565146
O O12 0.624793 0.500000 0.707666
O O13 0.622626 0.748297 0.595627
O O14 0.581239 0.724747 0.785436
O O15 0.668115 0.740775 0.778268
O O16 0.621854 0.000000 0.487820
O O17 0.685790 0.500000 0.124922
O O18 0.698054 0.267856 0.986860
O O19 0.934399 0.500000 0.352027
O O20 0.000000 0.686438 0.308734
O O21 0.294817 0.500000 0.855419
#
# Coordination Sequence:
#
# PCOD8189082 Si02
#       8
#     8   8   8   8   8   8   8   8
#     4  10  21  38  61  88 117 154 201 246 288 344
#     4  10  22  39  59  86 122 158 193 236 292 352
#     4  10  19  36  62  90 120 154 194 240 289 344
#     4  11  23  42  65  85 113 156 202 246 290 342
#     4  11  24  40  59  86 121 157 193 242 299 352
#     4  10  19  36  63  89 117 152 193 242 292 340
#     4  11  24  40  60  89 123 155 190 238 296 355
#     4   9  20  39  60  86 119 154 193 242 291 341
#
# _framework density 19.716944999999999
#
# number of rings (size 3 to 8) (size 9 to 14) (size 15 to 20)
#    0.000    1.750    2.500    1.500    1.750    3.750 
#    0.000    1.250    0.000    0.000    0.000    0.000 
#    0.000    0.000    0.000    0.000    0.000    0.000 
#
# Total GULP energy -396874.792584 kJ/mol
# GULP energy per Si atom -12402.337268 kJ/mol
# Density = 1.967207 g / cm^3
# Si number density = 19.716945 Si / 1000 Ang^3
#
#
#
# Elastic Constant Matrix: (Units=GPa)
#
#
# Indices 1 2 3 4 5 6 
#
# 1 118.2134 34.7075 52.3876 0.0000 0.0000 0.0000
# 2 34.7075 46.5251 34.6582 0.0000 0.0000 0.0000
# 3 52.3876 34.6582 136.2026 0.0000 0.0000 0.0000
# 4 0.0000 0.0000 0.0000 29.6281 0.0000 0.0000
# 5 0.0000 0.0000 0.0000 0.0000 22.1914 0.0000
# 6 0.0000 0.0000 0.0000 0.0000 0.0000 23.0910
#
#
#
# Elastic Compliance Matrix: (Units=1/GPa)
#
#
# Indices 1 2 3 4 5 6 
#
# 1 0.011635 -0.006597 -0.002797 0.000000 0.000000 0.000000
# 2 -0.006597 0.030261 -0.005163 0.000000 0.000000 0.000000
# 3 -0.002797 -0.005163 0.009732 0.000000 0.000000 0.000000
# 4 0.000000 0.000000 0.000000 0.033752 0.000000 0.000000
# 5 0.000000 0.000000 0.000000 0.000000 0.045063 0.000000
# 6 0.000000 0.000000 0.000000 0.000000 0.000000 0.043307
#
#
# Mechanical properties :
#
#
# Convention : Reuss Voigt Hill
#
# Bulk Modulus (GPa) = 44.41445 60.49419 52.45432
# Shear Modulus (GPa) = 23.76802 26.92795 25.34798
#
# Velocity S-wave (km/s) = 3.47574 3.69958 3.58941
# Velocity P-wave (km/s) = 6.21954 6.99980 6.62117
#
# Compressibility (1/GPa) = 0.02251520
#
# Stress axis : x y z
#
# Youngs Moduli (GPa) = 85.94422 33.04600 102.75908
#
# Poissons Ratio (x) = 0.21799 0.28739
# Poissons Ratio (y) = 0.56694 0.53054
# Poissons Ratio (z) = 0.24037 0.17062
#
# Static dielectric constant tensor:
#      x y z
#    x 3.867620 0.000000 0.000000 
#    y 0.000000 3.405550 0.000000 
#    z 0.000000 0.000000 3.570090 
# 
# 
# High freq. dielectric constant tensor:
#      x y z
#    x 1.782120 0.000000 0.000000 
#    y 0.000000 1.749450 0.000000 
#    z 0.000000 0.000000 1.773420 
# 
# From -- ./inp_files/15086.got.cif
#   From: 2010.03.12/outbox.cif.g09.slc.cpg/sg44_8_cif.got.tgz:15086.got - 2010.04.14 02:36:11.
