data_PCOD8189087
_publ_section_title
;
Structure prediction by ZEFSAII (Michael W. Deem and Ramdas Pophale) SiO2 
 PCOD8189087
Probable space group: I M M 2
;
_chemical_formula_sum "Si O2"
_cell_formula_units_Z 48
_cell_length_a 27.520630
_cell_length_b 8.648607
_cell_length_c 9.947397
_cell_angle_alpha 90.000000
_cell_angle_beta 90.000000
_cell_angle_gamma 90.000000
_cell_volume 2367.630824
_symmetry_space_group_name_H-M "I M M 2"
_symmetry_group_IT_number 44
_symmetry_cell_setting 'orthorhombic'
loop_
_space_group_symop_operation_xyz
x,y,z
-x,-y,z
-x,y,z
x,-y,z
1/2+x,1/2+y,1/2+z
1/2-x,1/2-y,1/2+z
1/2-x,1/2+y,1/2+z
1/2+x,1/2-y,1/2+z
loop_
_atom_site_type_symbol
_atom_site_label
_atom_site_fract_x
_atom_site_fract_y
_atom_site_fract_z
Si Si1 0.612380 0.682714 0.516770
Si Si2 0.398261 0.179244 0.003503
Si Si3 0.701460 0.318594 0.902611
Si Si4 0.444757 0.683216 0.261169
Si Si5 0.445298 0.675668 0.767349
Si Si6 0.781127 0.818172 0.094632
O O1 0.605766 0.500000 0.516334
O O2 0.583793 0.753091 0.389698
O O3 0.588223 0.748233 0.651816
O O4 0.668865 0.728164 0.519997
O O5 0.411355 0.270530 0.137245
O O6 0.396529 0.000000 0.038155
O O7 0.347645 0.231922 0.940127
O O8 0.440548 0.216862 0.897428
O O9 0.691193 0.500000 0.904910
O O10 0.718291 0.268991 0.752144
O O11 0.740603 0.276726 0.015614
O O12 0.500000 0.750279 0.253456
O O13 0.447486 0.500000 0.268806
O O14 0.500000 0.678797 0.714109
O O15 0.429488 0.500000 0.804130
O O16 0.770514 0.000000 0.081358
#
# Coordination Sequence:
#
# PCOD8189087 Si02
#       6
#     8   8   8   8   8   8
#     4   9  18  37  63  91 121 153 198 251 299 356
#     4  12  25  40  59  86 124 163 205 250 299 355
#     4  11  24  43  66  91 122 158 201 248 305 366
#     4  10  21  38  62  92 123 161 207 250 301 361
#     4  10  19  36  64  92 118 153 198 248 303 362
#     4  10  22  41  64  93 125 156 198 250 304 360
#
# _framework density 20.273430999999999
#
# number of rings (size 3 to 8) (size 9 to 14) (size 15 to 20)
#    0.000    1.667    1.667    3.000    2.333    6.000 
#    0.000    0.833    0.000    2.000    0.000    0.000 
#    0.000    0.000    0.000    0.000    0.000    0.000 
#
# Total GULP energy -297603.215657 kJ/mol
# GULP energy per Si atom -12400.133986 kJ/mol
# Density = 2.022729 g / cm^3
# Si number density = 20.273431 Si / 1000 Ang^3
#
#
#
# Elastic Constant Matrix: (Units=GPa)
#
#
# Indices 1 2 3 4 5 6 
#
# 1 90.5782 16.4654 36.7439 0.0000 0.0000 0.0000
# 2 16.4654 22.4022 8.7037 0.0000 0.0000 0.0000
# 3 36.7439 8.7037 125.5958 0.0000 0.0000 0.0000
# 4 0.0000 0.0000 0.0000 10.4594 0.0000 0.0000
# 5 0.0000 0.0000 0.0000 0.0000 42.6395 0.0000
# 6 0.0000 0.0000 0.0000 0.0000 0.0000 26.0498
#
#
#
# Elastic Compliance Matrix: (Units=1/GPa)
#
#
# Indices 1 2 3 4 5 6 
#
# 1 0.014096 -0.009001 -0.003500 0.000000 0.000000 0.000000
# 2 -0.009001 0.051621 -0.000944 0.000000 0.000000 0.000000
# 3 -0.003500 -0.000944 0.009051 0.000000 0.000000 0.000000
# 4 0.000000 0.000000 0.000000 0.095607 0.000000 0.000000
# 5 0.000000 0.000000 0.000000 0.000000 0.023452 0.000000
# 6 0.000000 0.000000 0.000000 0.000000 0.000000 0.038388
#
#
# Mechanical properties :
#
#
# Convention : Reuss Voigt Hill
#
# Bulk Modulus (GPa) = 20.88622 40.26691 30.57656
# Shear Modulus (GPa) = 18.17749 27.60730 22.89240
#
# Velocity S-wave (km/s) = 2.99760 3.69419 3.36398
# Velocity P-wave (km/s) = 4.72287 6.17261 5.49575
#
# Compressibility (1/GPa) = 0.04787846
#
# Stress axis : x y z
#
# Youngs Moduli (GPa) = 70.94100 19.37210 110.47912
#
# Poissons Ratio (x) = 0.17436 0.38670
# Poissons Ratio (y) = 0.63852 0.10430
# Poissons Ratio (z) = 0.24831 0.01829
#
# Static dielectric constant tensor:
#      x y z
#    x 3.829440 0.000000 0.000000 
#    y 0.000000 3.370840 0.000000 
#    z 0.000000 0.000000 3.897520 
# 
# 
# High freq. dielectric constant tensor:
#      x y z
#    x 1.805860 0.000000 0.000000 
#    y 0.000000 1.759060 0.000000 
#    z 0.000000 0.000000 1.806280 
# 
# From -- ./inp_files/4896.got.cif
#   From: 2010.03.12/outbox.cif.g09.slc.cpg/sg44_3_cif.got.tgz:4896.got - 2010.04.14 02:36:11.
