data_PCOD8189865
_publ_section_title
;
Structure prediction by ZEFSAII (Michael W. Deem and Ramdas Pophale) SiO2 
 PCOD8189865
Probable space group: I M M 2
;
_chemical_formula_sum "Si O2"
_cell_formula_units_Z 40
_cell_length_a 7.528989
_cell_length_b 8.948581
_cell_length_c 29.111854
_cell_angle_alpha 90.000000
_cell_angle_beta 90.000000
_cell_angle_gamma 90.000000
_cell_volume 1961.375295
_symmetry_space_group_name_H-M "I M M 2"
_symmetry_group_IT_number 44
_symmetry_cell_setting 'orthorhombic'
loop_
_space_group_symop_operation_xyz
x,y,z
-x,-y,z
-x,y,z
x,-y,z
1/2+x,1/2+y,1/2+z
1/2-x,1/2-y,1/2+z
1/2-x,1/2+y,1/2+z
1/2+x,1/2-y,1/2+z
loop_
_atom_site_type_symbol
_atom_site_label
_atom_site_fract_x
_atom_site_fract_y
_atom_site_fract_z
Si Si1 0.500000 0.176599 0.793601
Si Si2 0.209419 0.173345 0.633966
Si Si3 0.791651 0.664802 0.956946
Si Si4 0.500000 0.677771 0.694956
Si Si5 0.797832 0.338052 0.545104
Si Si6 0.206015 0.674512 0.853218
O O1 0.500000 0.264581 0.746418
O O2 0.676924 0.222000 0.820810
O O3 0.500000 0.000000 0.784934
O O4 0.319841 0.264160 0.671461
O O5 0.278763 0.225894 0.583556
O O6 0.000000 0.202201 0.641991
O O7 0.256089 0.000000 0.638506
O O8 0.710363 0.500000 0.965264
O O9 0.745509 0.718647 0.905590
O O10 0.000000 0.657779 0.963660
O O11 0.711782 0.777001 0.993659
O O12 0.500000 0.500000 0.694035
O O13 0.700582 0.500000 0.547490
O O14 0.000000 0.362282 0.558062
O O15 0.248352 0.500000 0.844841
O O16 0.000000 0.707547 0.842805
#
# Coordination Sequence:
#
# PCOD8189865 Si02
#       6
#     4   8   8   4   8   8
#     4  12  26  42  64  94 126 160 204 256 313 374
#     4  10  22  42  66  91 123 162 204 253 308 367
#     4   9  19  35  56  83 115 156 203 249 299 358
#     4  12  26  44  68  94 122 160 206 256 313 370
#     4  10  21  35  53  83 122 161 202 245 296 359
#     4   9  20  41  65  89 121 162 208 257 308 366
#
# _framework density 20.393854000000001
#
# number of rings (size 3 to 8) (size 9 to 14) (size 15 to 20)
#    0.000    2.000    0.000    4.200    2.800    4.800 
#    0.000    2.000    0.000    0.000    0.000    0.000 
#    0.000    0.000    0.000    0.000    0.000    0.000 
#
# Total GULP energy -247957.467430 kJ/mol
# GULP energy per Si atom -12397.873371 kJ/mol
# Density = 2.034744 g / cm^3
# Si number density = 20.393854 Si / 1000 Ang^3
#
#
#
# Elastic Constant Matrix: (Units=GPa)
#
#
# Indices 1 2 3 4 5 6 
#
# 1 77.3837 51.6433 48.5602 0.0000 0.0000 0.0000
# 2 51.6433 161.1045 75.2285 0.0000 0.0000 0.0000
# 3 48.5602 75.2285 135.5868 0.0000 0.0000 0.0000
# 4 0.0000 0.0000 0.0000 26.1138 0.0000 0.0000
# 5 0.0000 0.0000 0.0000 0.0000 35.8842 0.0000
# 6 0.0000 0.0000 0.0000 0.0000 0.0000 31.1029
#
#
#
# Elastic Compliance Matrix: (Units=1/GPa)
#
#
# Indices 1 2 3 4 5 6 
#
# 1 0.018221 -0.003771 -0.004434 0.000000 0.000000 0.000000
# 2 -0.003771 0.009158 -0.003731 0.000000 0.000000 0.000000
# 3 -0.004434 -0.003731 0.011033 0.000000 0.000000 0.000000
# 4 0.000000 0.000000 0.000000 0.038294 0.000000 0.000000
# 5 0.000000 0.000000 0.000000 0.000000 0.027867 0.000000
# 6 0.000000 0.000000 0.000000 0.000000 0.000000 0.032151
#
#
# Mechanical properties :
#
#
# Convention : Reuss Voigt Hill
#
# Bulk Modulus (GPa) = 68.76551 80.54877 74.65714
# Shear Modulus (GPa) = 30.22188 31.86303 31.04246
#
# Velocity S-wave (km/s) = 3.85374 3.95699 3.90570
# Velocity P-wave (km/s) = 7.32077 7.77556 7.55159
#
# Compressibility (1/GPa) = 0.01454217
#
# Stress axis : x y z
#
# Youngs Moduli (GPa) = 54.88067 109.19515 90.63475
#
# Poissons Ratio (x) = 0.41173 0.40187
# Poissons Ratio (y) = 0.20693 0.33813
# Poissons Ratio (z) = 0.24334 0.40738
#
# Static dielectric constant tensor:
#      x y z
#    x 3.558930 0.000000 0.000000 
#    y 0.000000 6.791300 0.000000 
#    z 0.000000 0.000000 3.838300 
# 
# 
# High freq. dielectric constant tensor:
#      x y z
#    x 1.798820 0.000000 0.000000 
#    y 0.000000 1.799350 0.000000 
#    z 0.000000 0.000000 1.798140 
# 
# From -- ./inp_files/25961.got.cif
#   From: 2010.03.12/outbox.cif.g09.slc.cpg/sg44_13_cif.got.tgz:25961.got - 2010.04.14 02:36:11.
