data_PCOD8189859
_publ_section_title
;
Structure prediction by ZEFSAII (Michael W. Deem and Ramdas Pophale) SiO2 
 PCOD8189859
Probable space group: I M M 2
;
_chemical_formula_sum "Si O2"
_cell_formula_units_Z 40
_cell_length_a 23.327446
_cell_length_b 9.394954
_cell_length_c 10.167776
_cell_angle_alpha 90.000000
_cell_angle_beta 90.000000
_cell_angle_gamma 90.000000
_cell_volume 2228.372657
_symmetry_space_group_name_H-M "I M M 2"
_symmetry_group_IT_number 44
_symmetry_cell_setting 'orthorhombic'
loop_
_space_group_symop_operation_xyz
x,y,z
-x,-y,z
-x,y,z
x,-y,z
1/2+x,1/2+y,1/2+z
1/2-x,1/2-y,1/2+z
1/2-x,1/2+y,1/2+z
1/2+x,1/2-y,1/2+z
loop_
_atom_site_type_symbol
_atom_site_label
_atom_site_fract_x
_atom_site_fract_y
_atom_site_fract_z
Si Si1 0.933671 0.665400 0.228030
Si Si2 0.150131 0.166139 0.732179
Si Si3 0.872446 0.660395 0.967635
Si Si4 0.866568 0.165422 0.435521
Si Si5 0.741975 0.839307 0.349251
O O1 0.921090 0.500000 0.251722
O O2 0.898203 0.723209 0.102253
O O3 0.914480 0.748637 0.357473
O O4 0.000000 0.695820 0.201539
O O5 0.123173 0.194011 0.589529
O O6 0.214128 0.236497 0.738124
O O7 0.155777 0.000000 0.763109
O O8 0.109286 0.241037 0.842409
O O9 0.896192 0.500000 0.945235
O O10 0.802613 0.660517 0.973716
O O11 0.803259 0.219401 0.395013
O O12 0.873356 0.000000 0.402563
O O13 0.747437 0.000000 0.293012
#
# Coordination Sequence:
#
# PCOD8189859 Si02
#       5
#     8   8   8   8   8
#     4  10  22  39  58  80 106 144 191 229 268 319
#     4   9  18  32  52  80 109 138 176 219 269 325
#     4   8  17  34  54  75 107 141 176 225 270 316
#     4  10  21  35  53  80 115 146 178 221 273 330
#     4   8  17  32  51  77 110 143 175 215 270 325
#
# _framework density 17.950319
#
# number of rings (size 3 to 8) (size 9 to 14) (size 15 to 20)
#    1.200    1.800    0.000    0.000    2.800    3.600 
#    0.000    1.000    0.000    3.600    0.000    0.000 
#    0.000    0.000    0.000    0.000    0.000    0.000 
#
# Total GULP energy -247797.699368 kJ/mol
# GULP energy per Si atom -12389.884968 kJ/mol
# Density = 1.790946 g / cm^3
# Si number density = 17.950319 Si / 1000 Ang^3
#
#
#
# Elastic Constant Matrix: (Units=GPa)
#
#
# Indices 1 2 3 4 5 6 
#
# 1 55.4136 21.7653 27.5837 0.0000 0.0000 0.0000
# 2 21.7653 73.1167 54.7724 0.0000 0.0000 0.0000
# 3 27.5837 54.7724 104.1307 0.0000 0.0000 0.0000
# 4 0.0000 0.0000 0.0000 33.0642 0.0000 0.0000
# 5 0.0000 0.0000 0.0000 0.0000 20.5491 0.0000
# 6 0.0000 0.0000 0.0000 0.0000 0.0000 24.1324
#
#
#
# Elastic Compliance Matrix: (Units=1/GPa)
#
#
# Indices 1 2 3 4 5 6 
#
# 1 0.021314 -0.003491 -0.003810 0.000000 0.000000 0.000000
# 2 -0.003491 0.023142 -0.011248 0.000000 0.000000 0.000000
# 3 -0.003810 -0.011248 0.016529 0.000000 0.000000 0.000000
# 4 0.000000 0.000000 0.000000 0.030244 0.000000 0.000000
# 5 0.000000 0.000000 0.000000 0.000000 0.048664 0.000000
# 6 0.000000 0.000000 0.000000 0.000000 0.000000 0.041438
#
#
# Mechanical properties :
#
#
# Convention : Reuss Voigt Hill
#
# Bulk Modulus (GPa) = 41.86272 48.98932 45.42602
# Shear Modulus (GPa) = 22.08585 24.11846 23.10215
#
# Velocity S-wave (km/s) = 3.51149 3.66952 3.59138
# Velocity P-wave (km/s) = 6.30974 6.73088 6.52371
#
# Compressibility (1/GPa) = 0.02388760
#
# Stress axis : x y z
#
# Youngs Moduli (GPa) = 46.91841 43.21203 60.50037
#
# Poissons Ratio (x) = 0.15084 0.23049
# Poissons Ratio (y) = 0.16378 0.68050
# Poissons Ratio (z) = 0.17875 0.48604
#
# Static dielectric constant tensor:
#      x y z
#    x 3.044630 0.000000 0.000000 
#    y 0.000000 3.246940 0.000000 
#    z 0.000000 0.000000 3.180330 
# 
# 
# High freq. dielectric constant tensor:
#      x y z
#    x 1.666970 0.000000 0.000000 
#    y 0.000000 1.693120 0.000000 
#    z 0.000000 0.000000 1.685030 
# 
# From -- ./inp_files/6091.got.cif
#   From: 2010.03.12/outbox.cif.g09.slc.cpg/sg44_4_cif.got.tgz:6091.got - 2010.04.14 02:36:11.
