data_PCOD8189635
_publ_section_title
;
Structure prediction by ZEFSAII (Michael W. Deem and Ramdas Pophale) SiO2 
 PCOD8189635
Probable space group: I M M 2
;
_chemical_formula_sum "Si O2"
_cell_formula_units_Z 64
_cell_length_a 14.242294
_cell_length_b 19.746263
_cell_length_c 11.752504
_cell_angle_alpha 90.000000
_cell_angle_beta 90.000000
_cell_angle_gamma 90.000000
_cell_volume 3305.181181
_symmetry_space_group_name_H-M "I M M 2"
_symmetry_group_IT_number 44
_symmetry_cell_setting 'orthorhombic'
loop_
_space_group_symop_operation_xyz
x,y,z
-x,-y,z
-x,y,z
x,-y,z
1/2+x,1/2+y,1/2+z
1/2-x,1/2-y,1/2+z
1/2-x,1/2+y,1/2+z
1/2+x,1/2-y,1/2+z
loop_
_atom_site_type_symbol
_atom_site_label
_atom_site_fract_x
_atom_site_fract_y
_atom_site_fract_z
Si Si1 0.893098 0.818624 0.441700
Si Si2 0.729321 0.423677 0.079442
Si Si3 0.607674 0.729223 0.698723
Si Si4 0.606173 0.279724 0.447702
Si Si5 0.107749 0.620563 0.939520
Si Si6 0.263352 0.157503 0.791040
Si Si7 0.889574 0.335056 0.488373
Si Si8 0.888520 0.575596 0.695138
O O1 0.832387 0.876124 0.499155
O O2 0.879701 0.822374 0.304645
O O3 0.861331 0.744405 0.487421
O O4 0.000000 0.831598 0.477003
O O5 0.691233 0.500000 0.070716
O O6 0.724483 0.401955 0.211235
O O7 0.836467 0.419429 0.036766
O O8 0.500000 0.758277 0.701703
O O9 0.624748 0.692589 0.576739
O O10 0.683172 0.788960 0.710857
O O11 0.500000 0.296197 0.408701
O O12 0.623169 0.199936 0.452792
O O13 0.673968 0.311813 0.355533
O O14 0.149375 0.598056 0.817611
O O15 0.000000 0.599086 0.952623
O O16 0.336969 0.128600 0.883421
O O17 0.852005 0.370029 0.603103
O O18 0.000000 0.344775 0.470769
O O19 0.852178 0.500000 0.665411
O O20 0.000000 0.577363 0.695936
#
# Coordination Sequence:
#
# PCOD8189635 Si02
#       8
#     8   8   8   8   8   8   8   8
#     4   9  20  39  61  81 107 144 194 250 293 329
#     4  12  26  39  53  81 119 159 198 232 279 346
#     4   9  18  36  61  88 114 140 180 239 298 348
#     4  10  21  36  59  88 114 144 187 240 295 347
#     4  10  20  36  57  82 116 153 186 227 285 352
#     4  11  22  34  55  81 116 152 189 232 284 345
#     4   9  19  35  59  86 112 146 191 242 290 339
#     4   9  18  32  52  81 116 150 186 229 281 344
#
# _framework density 19.363537999999998
#
# number of rings (size 3 to 8) (size 9 to 14) (size 15 to 20)
#    0.000    2.125    1.250    3.000    1.750    3.500 
#    0.000    0.000    0.000    0.750    0.000    1.750 
#    0.000    0.000    0.000    0.000    0.000    0.000 
#
# Total GULP energy -396734.271288 kJ/mol
# GULP energy per Si atom -12397.945978 kJ/mol
# Density = 1.931947 g / cm^3
# Si number density = 19.363538 Si / 1000 Ang^3
#
#
#
# Elastic Constant Matrix: (Units=GPa)
#
#
# Indices 1 2 3 4 5 6 
#
# 1 69.4470 41.6414 49.6999 0.0000 0.0000 0.0000
# 2 41.6414 88.6222 56.2438 0.0000 0.0000 0.0000
# 3 49.6999 56.2438 121.7065 -0.0001 0.0000 0.0000
# 4 0.0000 0.0000 -0.0001 18.8081 0.0000 0.0000
# 5 0.0000 0.0000 0.0000 0.0000 27.6275 0.0000
# 6 0.0000 0.0000 0.0000 0.0000 0.0000 15.6591
#
#
#
# Elastic Compliance Matrix: (Units=1/GPa)
#
#
# Indices 1 2 3 4 5 6 
#
# 1 0.022944 -0.006841 -0.006208 0.000000 0.000000 0.000000
# 2 -0.006841 0.018006 -0.005528 0.000000 0.000000 0.000000
# 3 -0.006208 -0.005528 0.013306 0.000000 0.000000 0.000000
# 4 0.000000 0.000000 0.000000 0.053169 0.000000 0.000000
# 5 0.000000 0.000000 0.000000 0.000000 0.036196 0.000000
# 6 0.000000 0.000000 0.000000 0.000000 0.000000 0.063861
#
#
# Mechanical properties :
#
#
# Convention : Reuss Voigt Hill
#
# Bulk Modulus (GPa) = 58.46837 63.88289 61.17563
# Shear Modulus (GPa) = 19.97310 21.23162 20.60236
#
# Velocity S-wave (km/s) = 3.21515 3.31490 3.26541
# Velocity P-wave (km/s) = 6.63653 6.90756 6.77340
#
# Compressibility (1/GPa) = 0.01710326
#
# Stress axis : x y z
#
# Youngs Moduli (GPa) = 43.58382 55.53585 75.15357
#
# Poissons Ratio (x) = 0.37992 0.46656
# Poissons Ratio (y) = 0.29816 0.41542
# Poissons Ratio (z) = 0.27057 0.30698
#
# Static dielectric constant tensor:
#      x y z
#    x 3.541920 0.000000 0.000000 
#    y 0.000000 3.231740 0.000000 
#    z 0.000000 0.000000 3.838630 
# 
# 
# High freq. dielectric constant tensor:
#      x y z
#    x 1.751860 0.000000 0.000000 
#    y 0.000000 1.710630 0.000000 
#    z 0.000000 0.000000 1.769020 
# 
# From -- ./inp_files/13426.got.cif
#   From: 2010.03.12/outbox.cif.g09.slc.cpg/sg44_7_cif.got.tgz:13426.got - 2010.04.14 02:36:11.
