data_PCOD8189851
_publ_section_title
;
Structure prediction by ZEFSAII (Michael W. Deem and Ramdas Pophale) SiO2 
 PCOD8189851
Probable space group: I M M 2
;
_chemical_formula_sum "Si O2"
_cell_formula_units_Z 64
_cell_length_a 9.321124
_cell_length_b 33.139023
_cell_length_c 11.448157
_cell_angle_alpha 90.000000
_cell_angle_beta 90.000000
_cell_angle_gamma 90.000000
_cell_volume 3536.254903
_symmetry_space_group_name_H-M "I M M 2"
_symmetry_group_IT_number 44
_symmetry_cell_setting 'orthorhombic'
loop_
_space_group_symop_operation_xyz
x,y,z
-x,-y,z
-x,y,z
x,-y,z
1/2+x,1/2+y,1/2+z
1/2-x,1/2-y,1/2+z
1/2-x,1/2+y,1/2+z
1/2+x,1/2-y,1/2+z
loop_
_atom_site_type_symbol
_atom_site_label
_atom_site_fract_x
_atom_site_fract_y
_atom_site_fract_z
Si Si1 0.671894 0.153439 0.752300
Si Si2 0.666689 0.376100 0.025304
Si Si3 0.663245 0.277058 0.374930
Si Si4 0.835833 0.611670 0.483291
Si Si5 0.667689 0.453621 0.879321
Si Si6 0.835126 0.801400 0.360551
Si Si7 0.658390 0.673123 0.607216
Si Si8 0.334503 0.045112 0.151661
O O1 0.500000 0.158450 0.742246
O O2 0.733476 0.134797 0.634247
O O3 0.742974 0.196853 0.782274
O O4 0.721641 0.121742 0.853703
O O5 0.500000 0.374522 0.063124
O O6 0.707324 0.421314 0.980694
O O7 0.699140 0.343493 0.924580
O O8 0.500000 0.273404 0.327002
O O9 0.731280 0.233800 0.403111
O O10 0.664865 0.296145 0.501592
O O11 0.766606 0.637195 0.586416
O O12 0.805524 0.566310 0.526244
O O13 0.000000 0.623698 0.483294
O O14 0.500000 0.451759 0.853826
O O15 0.713432 0.500000 0.913783
O O16 0.744438 0.438458 0.761290
O O17 0.797541 0.804572 0.224642
O O18 0.000000 0.788788 0.381988
O O19 0.500000 0.654335 0.620730
O O20 0.500000 0.049380 0.187853
O O21 0.286675 0.000000 0.126188
#
# Coordination Sequence:
#
# PCOD8189851 Si02
#       8
#     8   8   8   8   8   8   8   8
#     4  10  21  37  55  74 103 142 182 222 267 317
#     4  10  21  36  54  79 109 143 183 224 269 319
#     4  10  21  36  54  77 102 133 173 215 264 318
#     4   9  18  33  52  74 100 133 171 211 259 311
#     4   9  18  34  56  81 111 145 179 219 270 323
#     4  10  21  35  52  76 106 136 168 215 266 314
#     4   9  19  35  53  73  98 129 166 208 256 307
#     4   9  17  30  51  79 109 136 167 214 267 319
#
# _framework density 18.098241999999999
#
# number of rings (size 3 to 8) (size 9 to 14) (size 15 to 20)
#    0.000    2.500    0.000    1.500    1.750    4.000 
#    0.000    0.625    0.000    0.750    0.000    0.000 
#    0.000    0.000    0.000    0.000    0.000    0.000 
#
# Total GULP energy -396621.230619 kJ/mol
# GULP energy per Si atom -12394.413457 kJ/mol
# Density = 1.805705 g / cm^3
# Si number density = 18.098242 Si / 1000 Ang^3
#
#
#
# Elastic Constant Matrix: (Units=GPa)
#
#
# Indices 1 2 3 4 5 6 
#
# 1 64.0415 44.0844 42.1706 -0.0004 -0.0002 -0.0002
# 2 44.0844 95.9855 41.2945 -0.0044 0.0006 -0.0004
# 3 42.1706 41.2945 77.6982 -0.0066 0.0022 -0.0003
# 4 -0.0004 -0.0044 -0.0066 18.9428 0.0014 -0.0003
# 5 -0.0002 0.0006 0.0022 0.0014 26.0100 -0.0011
# 6 -0.0002 -0.0004 -0.0003 -0.0003 -0.0011 27.1434
#
#
#
# Elastic Compliance Matrix: (Units=1/GPa)
#
#
# Indices 1 2 3 4 5 6 
#
# 1 0.028727 -0.008409 -0.011123 -0.000005 0.000001 0.000000
# 2 -0.008409 0.015968 -0.003923 0.000002 0.000000 0.000000
# 3 -0.011123 -0.003923 0.020992 0.000006 -0.000002 0.000000
# 4 -0.000005 0.000002 0.000006 0.052791 -0.000003 0.000001
# 5 0.000001 0.000000 -0.000002 -0.000003 0.038447 0.000002
# 6 0.000000 0.000000 0.000000 0.000001 0.000002 0.036841
#
#
# Mechanical properties :
#
#
# Convention : Reuss Voigt Hill
#
# Bulk Modulus (GPa) = 53.25123 54.75824 54.00473
# Shear Modulus (GPa) = 20.24835 21.76430 21.00633
#
# Velocity S-wave (km/s) = 3.34848 3.47156 3.41058
# Velocity P-wave (km/s) = 6.66611 6.81108 6.73899
#
# Compressibility (1/GPa) = 0.01877891
#
# Stress axis : x y z
#
# Youngs Moduli (GPa) = 34.80992 62.62598 47.63745
#
# Poissons Ratio (x) = 0.52661 0.52986
# Poissons Ratio (y) = 0.29271 0.18686
# Poissons Ratio (z) = 0.38718 0.24566
#
# Static dielectric constant tensor:
#      x y z
#    x 3.443570 0.000000 0.000000 
#    y 0.000000 3.535650 0.000000 
#    z 0.000000 0.000000 3.404240 
# 
# 
# High freq. dielectric constant tensor:
#      x y z
#    x 1.703060 0.000000 0.000000 
#    y 0.000000 1.700020 0.000000 
#    z 0.000000 0.000000 1.695480 
# 
# From -- ./inp_files/11467.got.cif
#   From: 2010.03.12/outbox.cif.g09.slc.cpg/sg44_6_cif.got.tgz:11467.got - 2010.04.14 02:36:11.
