data_PCOD8189084
_publ_section_title
;
Structure prediction by ZEFSAII (Michael W. Deem and Ramdas Pophale) SiO2 
 PCOD8189084
Probable space group: I M M 2
;
_chemical_formula_sum "Si O2"
_cell_formula_units_Z 64
_cell_length_a 14.692414
_cell_length_b 22.321141
_cell_length_c 9.569518
_cell_angle_alpha 90.000000
_cell_angle_beta 90.000000
_cell_angle_gamma 90.000000
_cell_volume 3138.337252
_symmetry_space_group_name_H-M "I M M 2"
_symmetry_group_IT_number 44
_symmetry_cell_setting 'orthorhombic'
loop_
_space_group_symop_operation_xyz
x,y,z
-x,-y,z
-x,y,z
x,-y,z
1/2+x,1/2+y,1/2+z
1/2-x,1/2-y,1/2+z
1/2-x,1/2+y,1/2+z
1/2+x,1/2-y,1/2+z
loop_
_atom_site_type_symbol
_atom_site_label
_atom_site_fract_x
_atom_site_fract_y
_atom_site_fract_z
Si Si1 0.667974 0.566322 0.490850
Si Si2 0.781458 0.866592 0.557838
Si Si3 0.900894 0.682665 0.391750
Si Si4 0.330616 0.067363 0.775056
Si Si5 0.226692 0.258258 0.890105
Si Si6 0.900930 0.162000 0.816486
Si Si7 0.244123 0.070916 0.283465
Si Si8 0.894024 0.343079 0.713633
O O1 0.629315 0.500000 0.504087
O O2 0.760287 0.568643 0.401895
O O3 0.590205 0.601770 0.407302
O O4 0.688610 0.590681 0.646033
O O5 0.716175 0.915384 0.628728
O O6 0.732557 0.802964 0.522147
O O7 0.864635 0.850881 0.660070
O O8 0.810428 0.897509 0.411605
O O9 0.901250 0.621083 0.301919
O O10 0.825980 0.732143 0.345557
O O11 0.887447 0.661010 0.548825
O O12 0.000000 0.712787 0.370627
O O13 0.373654 0.000000 0.762638
O O14 0.165100 0.200139 0.918016
O O15 0.170626 0.288943 0.764416
O O16 0.000000 0.191773 0.798553
O O17 0.348168 0.095591 0.271304
O O18 0.249126 0.000000 0.303006
O O19 0.000000 0.339600 0.764710
#
# Coordination Sequence:
#
# PCOD8189084 Si02
#       8
#     8   8   8   8   8   8   8   8
#     4   9  18  35  60  89 122 163 208 255 305 362
#     4  10  22  38  63  90 126 164 207 257 324 384
#     4  11  22  37  61  92 120 160 215 267 316 377
#     4  10  19  38  62  89 124 167 211 254 310 381
#     4  11  21  38  60  84 126 163 202 262 317 379
#     4  11  22  40  66  91 118 164 217 258 310 380
#     4  10  19  36  62  90 124 168 208 259 325 376
#     4  10  21  36  59  89 121 160 211 260 311 375
#
# _framework density 20.392966000000001
#
# number of rings (size 3 to 8) (size 9 to 14) (size 15 to 20)
#    0.000    1.750    3.750    1.500    0.000    3.750 
#    0.000    5.000    0.000    3.750    0.000    0.000 
#    0.000    0.000    0.000    0.000    0.000    0.000 
#
# Total GULP energy -396426.346274 kJ/mol
# GULP energy per Si atom -12388.323321 kJ/mol
# Density = 2.034655 g / cm^3
# Si number density = 20.392966 Si / 1000 Ang^3
#
#
#
# Elastic Constant Matrix: (Units=GPa)
#
#
# Indices 1 2 3 4 5 6 
#
# 1 117.0291 45.3853 36.2455 0.0001 0.0000 0.0000
# 2 45.3853 104.4249 43.6687 0.0002 0.0000 0.0000
# 3 36.2455 43.6687 117.0075 0.0014 -0.0004 -0.0001
# 4 0.0001 0.0002 0.0014 34.5677 -0.0001 0.0000
# 5 0.0000 0.0000 -0.0004 -0.0001 15.0021 0.0000
# 6 0.0000 0.0000 -0.0001 0.0000 0.0000 16.5268
#
#
#
# Elastic Compliance Matrix: (Units=1/GPa)
#
#
# Indices 1 2 3 4 5 6 
#
# 1 0.010606 -0.003834 -0.001855 0.000000 0.000000 0.000000
# 2 -0.003834 0.012733 -0.003565 0.000000 0.000000 0.000000
# 3 -0.001855 -0.003565 0.010451 0.000000 0.000000 0.000000
# 4 0.000000 0.000000 0.000000 0.028929 0.000000 0.000000
# 5 0.000000 0.000000 0.000000 0.000000 0.066657 0.000000
# 6 0.000000 0.000000 0.000000 0.000000 0.000000 0.060508
#
#
# Mechanical properties :
#
#
# Convention : Reuss Voigt Hill
#
# Bulk Modulus (GPa) = 65.42647 65.45120 65.43883
# Shear Modulus (GPa) = 23.42075 27.43012 25.42544
#
# Velocity S-wave (km/s) = 3.39259 3.67151 3.53480
# Velocity P-wave (km/s) = 6.89193 7.08082 6.98701
#
# Compressibility (1/GPa) = 0.01528433
#
# Stress axis : x y z
#
# Youngs Moduli (GPa) = 94.28462 78.53436 95.68223
#
# Poissons Ratio (x) = 0.30111 0.17745
# Poissons Ratio (y) = 0.36150 0.34106
# Poissons Ratio (z) = 0.17485 0.27994
#
# Static dielectric constant tensor:
#      x y z
#    x 3.522810 0.000000 0.000000 
#    y 0.000000 4.102110 0.000000 
#    z 0.000000 0.000000 3.662020 
# 
# 
# High freq. dielectric constant tensor:
#      x y z
#    x 1.765140 0.000000 0.000000 
#    y 0.000000 1.811500 0.000000 
#    z 0.000000 0.000000 1.796450 
# 
# From -- ./inp_files/7551.got.cif
#   From: 2010.03.12/outbox.cif.g09.slc.cpg/sg44_4_cif.got.tgz:7551.got - 2010.04.14 02:36:11.
