data_PCOD8190125
_publ_section_title
;
Structure prediction by ZEFSAII (Michael W. Deem and Ramdas Pophale) SiO2 
 PCOD8190125
Probable space group: I M M 2
;
_chemical_formula_sum "Si O2"
_cell_formula_units_Z 26
_cell_length_a 7.885224
_cell_length_b 7.583706
_cell_length_c 21.982002
_cell_angle_alpha 90.000000
_cell_angle_beta 90.000000
_cell_angle_gamma 90.000000
_cell_volume 1314.506586
_symmetry_space_group_name_H-M "I M M 2"
_symmetry_group_IT_number 44
_symmetry_cell_setting 'orthorhombic'
loop_
_space_group_symop_operation_xyz
x,y,z
-x,-y,z
-x,y,z
x,-y,z
1/2+x,1/2+y,1/2+z
1/2-x,1/2-y,1/2+z
1/2-x,1/2+y,1/2+z
1/2+x,1/2-y,1/2+z
loop_
_atom_site_type_symbol
_atom_site_label
_atom_site_fract_x
_atom_site_fract_y
_atom_site_fract_z
Si Si1 0.500000 0.000000 0.592051
Si Si2 0.801926 0.799462 0.916464
Si Si3 0.814280 0.208648 0.778418
Si Si4 0.312774 0.500000 0.002076
Si Si5 0.000000 0.304153 0.208376
O O1 0.670645 0.000000 0.553645
O O2 0.500000 0.176392 0.634829
O O3 0.762951 0.742804 0.847281
O O4 0.699633 0.673781 0.961088
O O5 0.000000 0.777668 0.930434
O O6 0.743278 0.000000 0.928199
O O7 0.671701 0.290229 0.732875
O O8 0.000000 0.290403 0.762803
O O9 0.829335 0.000000 0.771214
O O10 0.500000 0.500000 0.032472
O O11 0.000000 0.500000 0.238449
#
# Coordination Sequence:
#
# PCOD8190125 Si02
#       5
#     2   8   8   4   4
#     4  10  22  38  48  78 126 160 198 240 278 352
#     4   9  18  35  59  85 119 152 185 246 305 346
#     4   8  14  26  48  81 106 131 181 234 287 335
#     4  12  24  36  54  86 122 162 198 233 290 358
#     4   8  16  28  50  73 105 150 181 234 271 336
#
# _framework density 19.779287
#
# number of rings (size 3 to 8) (size 9 to 14) (size 15 to 20)
#    0.462    2.462    1.538    1.846    2.154    1.846 
#    0.000    0.000    0.000    0.000    8.000    0.000 
#    0.000    0.000    0.000    0.000    0.000    0.000 
#
# Total GULP energy -161071.485097 kJ/mol
# GULP energy per Si atom -12390.114238 kJ/mol
# Density = 1.973427 g / cm^3
# Si number density = 19.779287 Si / 1000 Ang^3
#
#
#
# Elastic Constant Matrix: (Units=GPa)
#
#
# Indices 1 2 3 4 5 6 
#
# 1 172.6010 25.6063 92.5705 0.0000 0.0000 0.0000
# 2 25.6063 54.3814 28.3512 0.0000 0.0000 0.0000
# 3 92.5705 28.3512 121.7676 0.0000 0.0000 0.0000
# 4 0.0000 0.0000 0.0000 -35.3143 0.0000 0.0000
# 5 0.0000 0.0000 0.0000 0.0000 29.3774 0.0000
# 6 0.0000 0.0000 0.0000 0.0000 0.0000 10.7121
#
#
#
# Elastic Compliance Matrix: (Units=1/GPa)
#
#
# Indices 1 2 3 4 5 6 
#
# 1 0.009815 -0.000833 -0.007268 0.000000 0.000000 0.000000
# 2 -0.000833 0.021000 -0.004256 0.000000 0.000000 0.000000
# 3 -0.007268 -0.004256 0.014729 0.000000 0.000000 0.000000
# 4 0.000000 0.000000 0.000000 -0.028317 0.000000 0.000000
# 5 0.000000 0.000000 0.000000 0.000000 0.034040 0.000000
# 6 0.000000 0.000000 0.000000 0.000000 0.000000 0.093352
#
#
# Mechanical properties :
#
#
# Convention : Reuss Voigt Hill
#
# Bulk Modulus (GPa) = 48.00831 71.31178 59.66004
# Shear Modulus (GPa) = 28.36474 14.43650 21.40062
#
# Velocity S-wave (km/s) = 3.79101 2.70456 3.29290
# Velocity P-wave (km/s) = 6.59447 6.77384 6.68476
#
# Compressibility (1/GPa) = 0.02082973
#
# Stress axis : x y z
#
# Youngs Moduli (GPa) = 101.88300 47.61965 67.89507
#
# Poissons Ratio (x) = 0.03965 0.49345
# Poissons Ratio (y) = 0.08483 0.28899
# Poissons Ratio (z) = 0.74047 0.20269
#
# Static dielectric constant tensor:
#      x y z
#    x 4.163860 0.000000 0.000000 
#    y 0.000000 3.201420 0.000000 
#    z 0.000000 0.000000 3.357050 
# 
# 
# High freq. dielectric constant tensor:
#      x y z
#    x 1.784200 0.000000 0.000000 
#    y 0.000000 1.732410 0.000000 
#    z 0.000000 0.000000 1.741550 
# 
# From -- ./inp_files/19905.got.cif
#   From: 2010.03.12/outbox.cif.g09.slc.cpg/sg44_10_cif.got.tgz:19905.got - 2010.04.14 02:36:11.
