data_PCOD8190876
_publ_section_title
;
Structure prediction by ZEFSAII (Michael W. Deem and Ramdas Pophale) SiO2 
 PCOD8190876
Probable space group: I B A 2
;
_chemical_formula_sum "Si O2"
_cell_formula_units_Z 48
_cell_length_a 10.363030
_cell_length_b 13.796220
_cell_length_c 16.258863
_cell_angle_alpha 90.000000
_cell_angle_beta 90.000000
_cell_angle_gamma 90.000000
_cell_volume 2324.540077
_symmetry_space_group_name_H-M "I B A 2"
_symmetry_group_IT_number 45
_symmetry_cell_setting 'orthorhombic'
loop_
_space_group_symop_operation_xyz
x,y,z
-x,-y,z
-x,y,1/2+z
x,-y,1/2+z
1/2+x,1/2+y,1/2+z
1/2-x,1/2-y,1/2+z
1/2-x,1/2+y,z
1/2+x,1/2-y,z
loop_
_atom_site_type_symbol
_atom_site_label
_atom_site_fract_x
_atom_site_fract_y
_atom_site_fract_z
Si Si1 0.354663 0.027127 0.838260
Si Si2 0.683443 0.651720 0.814418
Si Si3 0.113782 0.708728 0.950143
Si Si4 0.745301 0.329537 0.709610
Si Si5 0.136630 0.743385 0.553630
Si Si6 0.475151 0.394930 0.661824
O O1 0.354009 0.101706 0.914856
O O2 0.285436 0.076147 0.760534
O O3 0.500000 0.000000 0.814133
O O4 0.277485 0.927256 0.858044
O O5 0.594881 0.709141 0.880126
O O6 0.763110 0.733325 0.765349
O O7 0.592278 0.596453 0.750549
O O8 0.232805 0.747702 0.002743
O O9 0.980483 0.700706 0.999930
O O10 0.846005 0.324010 0.634079
O O11 0.604890 0.334636 0.671035
O O12 0.108497 0.849523 0.589017
O O13 0.500000 0.500000 0.626740
#
# Coordination Sequence:
#
# PCOD8190876 Si02
#       6
#     8   8   8   8   8   8
#     4  11  24  42  66  98 125 167 222 265 319 383
#     4  10  24  39  70  91 126 169 216 267 319 375
#     4  11  25  43  66  95 135 174 207 263 330 387
#     4  10  23  43  66  93 128 167 219 269 316 380
#     4  11  24  44  66  92 137 174 205 264 330 383
#     4  11  22  42  68  97 123 168 226 265 317 382
#
# _framework density 20.649246000000002
#
# number of rings (size 3 to 8) (size 9 to 14) (size 15 to 20)
#    0.000    1.333    3.333    1.000   11.667    1.333 
#    3.000    0.000    0.000    0.000    0.000    0.000 
#    0.000    0.000    0.000    0.000    0.000    0.000 
#
# Total GULP energy -297575.215248 kJ/mol
# GULP energy per Si atom -12398.967302 kJ/mol
# Density = 2.060225 g / cm^3
# Si number density = 20.649246 Si / 1000 Ang^3
#
#
#
# Elastic Constant Matrix: (Units=GPa)
#
#
# Indices 1 2 3 4 5 6 
#
# 1 82.8187 19.5208 14.2193 0.0000 0.0000 0.0000
# 2 19.5208 101.3323 27.1104 0.0000 0.0000 0.0000
# 3 14.2193 27.1104 80.0167 0.0000 0.0000 0.0000
# 4 0.0000 0.0000 0.0000 14.2075 0.0000 0.0000
# 5 0.0000 0.0000 0.0000 0.0000 29.0694 0.0000
# 6 0.0000 0.0000 0.0000 0.0000 0.0000 32.9224
#
#
#
# Elastic Compliance Matrix: (Units=1/GPa)
#
#
# Indices 1 2 3 4 5 6 
#
# 1 0.012829 -0.002047 -0.001586 0.000000 0.000000 0.000000
# 2 -0.002047 0.011179 -0.003424 0.000000 0.000000 0.000000
# 3 -0.001586 -0.003424 0.013939 0.000000 0.000000 0.000000
# 4 0.000000 0.000000 0.000000 0.070386 0.000000 0.000000
# 5 0.000000 0.000000 0.000000 0.000000 0.034400 0.000000
# 6 0.000000 0.000000 0.000000 0.000000 0.000000 0.030374
#
#
# Mechanical properties :
#
#
# Convention : Reuss Voigt Hill
#
# Bulk Modulus (GPa) = 41.95794 42.87429 42.41611
# Shear Modulus (GPa) = 25.61913 28.79432 27.20673
#
# Velocity S-wave (km/s) = 3.52615 3.73828 3.63377
# Velocity P-wave (km/s) = 6.07798 6.28022 6.17993
#
# Compressibility (1/GPa) = 0.02383339
#
# Stress axis : x y z
#
# Youngs Moduli (GPa) = 77.94578 89.45460 71.73979
#
# Poissons Ratio (x) = 0.18312 0.11380
# Poissons Ratio (y) = 0.15956 0.24562
# Poissons Ratio (z) = 0.12364 0.30627
#
# Static dielectric constant tensor:
#      x y z
#    x 3.776910 0.000000 0.000000 
#    y 0.000000 3.723580 0.000000 
#    z 0.000000 0.000000 3.841590 
# 
# 
# High freq. dielectric constant tensor:
#      x y z
#    x 1.812600 0.000000 0.000000 
#    y 0.000000 1.811400 0.000000 
#    z 0.000000 0.000000 1.809630 
# 
# From -- ./inp_files/6483.got.cif
#   From: 2010.03.12/outbox.cif.g09.slc.cpg/sg45_4_cif.got.tgz:6483.got - 2010.04.14 02:50:11.
