data_PCOD8190556
_publ_section_title
;
Structure prediction by ZEFSAII (Michael W. Deem and Ramdas Pophale) SiO2 
 PCOD8190556
Probable space group: I B A 2
;
_chemical_formula_sum "Si O2"
_cell_formula_units_Z 56
_cell_length_a 8.962309
_cell_length_b 20.392286
_cell_length_c 14.457199
_cell_angle_alpha 90.000000
_cell_angle_beta 90.000000
_cell_angle_gamma 90.000000
_cell_volume 2642.226146
_symmetry_space_group_name_H-M "I B A 2"
_symmetry_group_IT_number 45
_symmetry_cell_setting 'orthorhombic'
loop_
_space_group_symop_operation_xyz
x,y,z
-x,-y,z
-x,y,1/2+z
x,-y,1/2+z
1/2+x,1/2+y,1/2+z
1/2-x,1/2-y,1/2+z
1/2-x,1/2+y,z
1/2+x,1/2-y,z
loop_
_atom_site_type_symbol
_atom_site_label
_atom_site_fract_x
_atom_site_fract_y
_atom_site_fract_z
Si Si1 0.794403 0.664406 0.273660
Si Si2 0.626281 0.794797 0.486228
Si Si3 0.373719 0.205203 0.274638
Si Si4 0.500000 0.500000 0.130433
Si Si5 0.000000 0.500000 0.630433
Si Si6 0.247491 0.590364 0.165949
Si Si7 0.205597 0.335594 0.487206
Si Si8 0.252509 0.909636 0.094916
O O1 0.669837 0.719823 0.255868
O O2 0.792597 0.640629 0.380433
O O3 0.756826 0.603725 0.206250
O O4 0.955050 0.694604 0.245341
O O5 0.651848 0.813319 0.380433
O O6 0.669837 0.719823 0.504998
O O7 0.455050 0.805396 0.515525
O O8 0.740578 0.841200 0.541809
O O9 0.259422 0.158800 0.219057
O O10 0.395035 0.548377 0.191452
O O11 0.395035 0.451623 0.069414
O O12 0.104543 0.453873 0.694275
O O13 0.104543 0.546127 0.566591
O O14 0.243174 0.603725 0.054616
#
# Coordination Sequence:
#
# PCOD8190556 Si02
#       8
#     8   8   8   4   4   8   8   8
#     4  10  21  37  62  91 116 146 187 237 294 347
#     4  10  21  37  62  91 116 146 187 237 294 347
#     4  10  21  37  62  91 116 146 187 237 294 347
#     4  10  28  38  60  82 116 156 208 228 282 330
#     4  10  20  38  60  74 112 148 200 232 266 338
#     4  11  21  42  57  84 114 156 190 245 278 338
#     4  10  21  37  62  91 116 146 187 237 294 347
#     4  11  21  42  57  84 114 156 190 245 278 338
#
# _framework density 21.194248999999999
#
# number of rings (size 3 to 8) (size 9 to 14) (size 15 to 20)
#    0.000    1.714    2.857    0.857    4.000    0.000 
#    0.000    8.571    0.000    0.000    0.000    0.000 
#    0.000    0.000    0.000    0.000    0.000    0.000 
#
# Total GULP energy -347121.802811 kJ/mol
# GULP energy per Si atom -12397.207243 kJ/mol
# Density = 2.114601 g / cm^3
# Si number density = 21.194249 Si / 1000 Ang^3
#
#
#
# Elastic Constant Matrix: (Units=GPa)
#
#
# Indices 1 2 3 4 5 6 
#
# 1 115.5677 31.6734 20.2930 0.0000 0.0000 0.0000
# 2 31.6734 80.9754 32.9865 0.0000 0.0000 0.0000
# 3 20.2930 32.9865 68.8715 -0.0003 0.0000 0.0000
# 4 0.0000 0.0000 -0.0003 13.8693 0.0000 0.0000
# 5 0.0000 0.0000 0.0000 0.0000 15.9028 0.0000
# 6 0.0000 0.0000 0.0000 0.0000 0.0000 38.7169
#
#
#
# Elastic Compliance Matrix: (Units=1/GPa)
#
#
# Indices 1 2 3 4 5 6 
#
# 1 0.009785 -0.003296 -0.001305 0.000000 0.000000 0.000000
# 2 -0.003296 0.016453 -0.006909 0.000000 0.000000 0.000000
# 3 -0.001305 -0.006909 0.018213 0.000000 0.000000 0.000000
# 4 0.000000 0.000000 0.000000 0.072102 0.000000 0.000000
# 5 0.000000 0.000000 0.000000 0.000000 0.062882 0.000000
# 6 0.000000 0.000000 0.000000 0.000000 0.000000 0.025829
#
#
# Mechanical properties :
#
#
# Convention : Reuss Voigt Hill
#
# Bulk Modulus (GPa) = 46.65861 48.36893 47.51377
# Shear Modulus (GPa) = 21.23792 25.72858 23.48325
#
# Velocity S-wave (km/s) = 3.16897 3.48795 3.33228
# Velocity P-wave (km/s) = 5.95419 6.25238 6.10511
#
# Compressibility (1/GPa) = 0.02143227
#
# Stress axis : x y z
#
# Youngs Moduli (GPa) = 102.19345 60.77817 54.90457
#
# Poissons Ratio (x) = 0.20033 0.07163
# Poissons Ratio (y) = 0.33684 0.37935
# Poissons Ratio (z) = 0.13332 0.41993
#
# Static dielectric constant tensor:
#      x y z
#    x 4.046440 0.000000 0.000000 
#    y 0.000000 3.816540 0.000000 
#    z 0.000000 0.000000 3.594580 
# 
# 
# High freq. dielectric constant tensor:
#      x y z
#    x 1.840600 0.000000 0.000000 
#    y 0.000000 1.835480 0.000000 
#    z 0.000000 0.000000 1.796520 
# 
# From -- ./inp_files/5757.got.cif
#   From: 2010.03.12/outbox.cif.g09.slc.cpg/sg45_3_cif.got.tgz:5757.got - 2010.04.14 02:50:11.
