data_PCOD8190469
_publ_section_title
;
Structure prediction by ZEFSAII (Michael W. Deem and Ramdas Pophale) SiO2 
 PCOD8190469
Probable space group: I B A 2
;
_chemical_formula_sum "Si O2"
_cell_formula_units_Z 56
_cell_length_a 13.729949
_cell_length_b 14.656331
_cell_length_c 13.162030
_cell_angle_alpha 90.000000
_cell_angle_beta 90.000000
_cell_angle_gamma 90.000000
_cell_volume 2648.604210
_symmetry_space_group_name_H-M "I B A 2"
_symmetry_group_IT_number 45
_symmetry_cell_setting 'orthorhombic'
loop_
_space_group_symop_operation_xyz
x,y,z
-x,-y,z
-x,y,1/2+z
x,-y,1/2+z
1/2+x,1/2+y,1/2+z
1/2-x,1/2-y,1/2+z
1/2-x,1/2+y,z
1/2+x,1/2-y,z
loop_
_atom_site_type_symbol
_atom_site_label
_atom_site_fract_x
_atom_site_fract_y
_atom_site_fract_z
Si Si1 0.833296 0.536732 0.479500
Si Si2 0.070081 0.344347 0.641216
Si Si3 0.269080 0.708469 0.226113
Si Si4 0.249002 0.151786 0.444572
Si Si5 0.340081 0.340200 0.517509
Si Si6 0.457468 0.704829 0.474369
Si Si7 0.088680 0.344890 0.305513
O O1 0.889468 0.566135 0.582261
O O2 0.820713 0.428080 0.481860
O O3 0.726139 0.579455 0.474340
O O4 0.891352 0.569394 0.379121
O O5 0.158408 0.284777 0.687258
O O6 0.018152 0.279004 0.560802
O O7 0.993357 0.376201 0.725848
O O8 0.267824 0.642932 0.324038
O O9 0.336567 0.661993 0.139995
O O10 0.312059 0.809793 0.250342
O O11 0.300062 0.246191 0.471351
O O12 0.141972 0.149108 0.497073
O O13 0.448763 0.361140 0.476485
O O14 0.449626 0.756998 0.367345
#
# Coordination Sequence:
#
# PCOD8190469 Si02
#       7
#     8   8   8   8   8   8   8
#     4  10  23  41  63  98 133 172 213 275 344 380
#     4  10  19  39  64  92 125 165 222 263 324 396
#     4  10  19  37  64  90 121 172 208 268 323 386
#     4  11  22  43  63  91 139 168 213 276 334 395
#     4  11  20  41  65  89 127 172 224 264 328 403
#     4  10  20  36  68  93 120 180 212 264 332 385
#     4  10  19  37  64  93 126 167 220 266 326 392
#
# _framework density 21.14321
#
# number of rings (size 3 to 8) (size 9 to 14) (size 15 to 20)
#    0.000    1.714    7.143    0.857    0.000    0.571 
#    5.143    7.857    0.000    3.429    0.000    0.000 
#    0.000    0.000    0.000    0.000    0.000    0.000 
#
# Total GULP energy -347138.766517 kJ/mol
# GULP energy per Si atom -12397.813090 kJ/mol
# Density = 2.109509 g / cm^3
# Si number density = 21.143210 Si / 1000 Ang^3
#
#
#
# Elastic Constant Matrix: (Units=GPa)
#
#
# Indices 1 2 3 4 5 6 
#
# 1 105.9212 6.8338 32.8582 0.0000 0.0000 0.0000
# 2 6.8338 49.4116 13.2633 0.0000 0.0000 0.0000
# 3 32.8582 13.2633 103.2625 0.0000 0.0000 0.0000
# 4 0.0000 0.0000 0.0000 16.5672 0.0000 0.0000
# 5 0.0000 0.0000 0.0000 0.0000 37.8546 0.0000
# 6 0.0000 0.0000 0.0000 0.0000 0.0000 21.8479
#
#
#
# Elastic Compliance Matrix: (Units=1/GPa)
#
#
# Indices 1 2 3 4 5 6 
#
# 1 0.010491 -0.000575 -0.003264 0.000000 0.000000 0.000000
# 2 -0.000575 0.020992 -0.002513 0.000000 0.000000 0.000000
# 3 -0.003264 -0.002513 0.011046 0.000000 0.000000 0.000000
# 4 0.000000 0.000000 0.000000 0.060360 0.000000 0.000000
# 5 0.000000 0.000000 0.000000 0.000000 0.026417 0.000000
# 6 0.000000 0.000000 0.000000 0.000000 0.000000 0.045771
#
#
# Mechanical properties :
#
#
# Convention : Reuss Voigt Hill
#
# Bulk Modulus (GPa) = 33.53037 40.50065 37.01551
# Shear Modulus (GPa) = 25.28794 28.96329 27.12561
#
# Velocity S-wave (km/s) = 3.46212 3.70518 3.58571
# Velocity P-wave (km/s) = 5.64578 6.12384 5.88966
#
# Compressibility (1/GPa) = 0.02982371
#
# Stress axis : x y z
#
# Youngs Moduli (GPa) = 95.32251 47.63653 90.53376
#
# Poissons Ratio (x) = 0.02738 0.29553
# Poissons Ratio (y) = 0.05478 0.22755
# Poissons Ratio (z) = 0.31116 0.11973
#
# Static dielectric constant tensor:
#      x y z
#    x 4.001580 0.000000 0.000000 
#    y 0.000000 3.292950 0.000000 
#    z 0.000000 0.000000 4.082990 
# 
# 
# High freq. dielectric constant tensor:
#      x y z
#    x 1.840570 0.000000 0.000000 
#    y 0.000000 1.780400 0.000000 
#    z 0.000000 0.000000 1.840880 
# 
# From -- ./inp_files/6570.got.cif
#   From: 2010.03.12/outbox.cif.g09.slc.cpg/sg45_4_cif.got.tgz:6570.got - 2010.04.14 02:50:11.
