data_PCOD8190955
_publ_section_title
;
Structure prediction by ZEFSAII (Michael W. Deem and Ramdas Pophale) SiO2 
 PCOD8190955
Probable space group: I B A 2
;
_chemical_formula_sum "Si O2"
_cell_formula_units_Z 60
_cell_length_a 15.700614
_cell_length_b 8.344071
_cell_length_c 20.494139
_cell_angle_alpha 90.000000
_cell_angle_beta 90.000000
_cell_angle_gamma 90.000000
_cell_volume 2684.876446
_symmetry_space_group_name_H-M "I B A 2"
_symmetry_group_IT_number 45
_symmetry_cell_setting 'orthorhombic'
loop_
_space_group_symop_operation_xyz
x,y,z
-x,-y,z
-x,y,1/2+z
x,-y,1/2+z
1/2+x,1/2+y,1/2+z
1/2-x,1/2-y,1/2+z
1/2-x,1/2+y,z
1/2+x,1/2-y,z
loop_
_atom_site_type_symbol
_atom_site_label
_atom_site_fract_x
_atom_site_fract_y
_atom_site_fract_z
Si Si1 0.480008 0.829358 0.543860
Si Si2 0.406868 0.568764 0.450787
Si Si3 0.583135 0.205099 0.681459
Si Si4 0.158209 0.126838 0.311353
Si Si5 0.000000 0.000000 0.738010
Si Si6 0.233563 0.881986 0.128387
Si Si7 0.674578 0.969375 0.752741
Si Si8 0.345196 0.658468 0.052968
O O1 0.418074 0.720306 0.499536
O O2 0.435181 0.876330 0.611683
O O3 0.562821 0.731357 0.563405
O O4 0.500000 0.000000 0.508083
O O5 0.500000 0.500000 0.431810
O O6 0.353740 0.626596 0.388914
O O7 0.347341 0.429546 0.482711
O O8 0.512588 0.341390 0.694540
O O9 0.679051 0.270267 0.675534
O O10 0.590428 0.082955 0.743572
O O11 0.147705 0.309362 0.289217
O O12 0.084753 0.016844 0.281003
O O13 0.249781 0.056193 0.292074
O O14 0.307623 0.940407 0.175944
O O15 0.272850 0.795077 0.063439
O O16 0.171077 0.025299 0.108036
#
# Coordination Sequence:
#
# PCOD8190955 Si02
#       8
#     8   8   8   8   4   8   8   8
#     4  11  25  43  69 103 135 176 225 288 346 405
#     4  10  24  48  69  94 134 184 237 280 326 407
#     4  12  24  40  69 103 139 169 225 284 355 414
#     4  12  25  48  68  95 140 188 232 281 334 410
#     4  12  26  42  70 100 136 192 224 280 348 408
#     4  12  21  40  65 102 140 170 216 285 356 406
#     4  12  25  43  68 104 141 177 225 290 347 415
#     4  11  24  40  69  98 136 180 222 279 348 407
#
# _framework density 22.347396
#
# number of rings (size 3 to 8) (size 9 to 14) (size 15 to 20)
#    0.000    0.533    6.000    1.600    4.667    1.067 
#    2.400    1.333    0.000    0.000    0.000    0.000 
#    0.000    0.000    0.000    0.000    0.000    0.000 
#
# Total GULP energy -371886.694068 kJ/mol
# GULP energy per Si atom -12396.223136 kJ/mol
# Density = 2.229653 g / cm^3
# Si number density = 22.347396 Si / 1000 Ang^3
#
#
#
# Elastic Constant Matrix: (Units=GPa)
#
#
# Indices 1 2 3 4 5 6 
#
# 1 61.1293 36.1335 42.3967 0.0000 0.0000 0.0000
# 2 36.1335 136.4231 58.1684 0.0000 0.0000 0.0000
# 3 42.3967 58.1684 123.9487 0.0000 0.0000 0.0000
# 4 0.0000 0.0000 0.0000 26.7047 0.0000 0.0000
# 5 0.0000 0.0000 0.0000 0.0000 33.6707 0.0000
# 6 0.0000 0.0000 0.0000 0.0000 0.0000 40.5014
#
#
#
# Elastic Compliance Matrix: (Units=1/GPa)
#
#
# Indices 1 2 3 4 5 6 
#
# 1 0.022619 -0.003365 -0.006157 0.000000 0.000000 0.000000
# 2 -0.003365 0.009665 -0.003384 0.000000 0.000000 0.000000
# 3 -0.006157 -0.003384 0.011762 0.000000 0.000000 0.000000
# 4 0.000000 0.000000 0.000000 0.037447 0.000000 0.000000
# 5 0.000000 0.000000 0.000000 0.000000 0.029699 0.000000
# 6 0.000000 0.000000 0.000000 0.000000 0.000000 0.024691
#
#
# Mechanical properties :
#
#
# Convention : Reuss Voigt Hill
#
# Bulk Modulus (GPa) = 54.85138 66.09980 60.47559
# Shear Modulus (GPa) = 29.80217 32.49552 31.14884
#
# Velocity S-wave (km/s) = 3.65579 3.81741 3.73748
# Velocity P-wave (km/s) = 6.51290 7.00519 6.76353
#
# Compressibility (1/GPa) = 0.01823108
#
# Stress axis : x y z
#
# Youngs Moduli (GPa) = 44.21158 103.47085 85.01802
#
# Poissons Ratio (x) = 0.34823 0.52348
# Poissons Ratio (y) = 0.14879 0.28773
# Poissons Ratio (z) = 0.27222 0.35018
#
# Static dielectric constant tensor:
#      x y z
#    x 3.953530 0.000000 0.000000 
#    y 0.000000 4.447020 0.000000 
#    z 0.000000 0.000000 3.813830 
# 
# 
# High freq. dielectric constant tensor:
#      x y z
#    x 1.882010 0.000000 0.000000 
#    y 0.000000 1.899030 0.000000 
#    z 0.000000 0.000000 1.853160 
# 
# From -- ./inp_files/8347.got.cif
#   From: 2010.03.12/outbox.cif.g09.slc.cpg/sg45_5_cif.got.tgz:8347.got - 2010.04.14 02:50:11.
