data_PCOD8190424
_publ_section_title
;
Structure prediction by ZEFSAII (Michael W. Deem and Ramdas Pophale) SiO2 
 PCOD8190424
Probable space group: I B A 2
;
_chemical_formula_sum "Si O2"
_cell_formula_units_Z 64
_cell_length_a 14.725714
_cell_length_b 28.673228
_cell_length_c 8.975791
_cell_angle_alpha 90.000000
_cell_angle_beta 90.000000
_cell_angle_gamma 90.000000
_cell_volume 3789.881938
_symmetry_space_group_name_H-M "I B A 2"
_symmetry_group_IT_number 45
_symmetry_cell_setting 'orthorhombic'
loop_
_space_group_symop_operation_xyz
x,y,z
-x,-y,z
-x,y,1/2+z
x,-y,1/2+z
1/2+x,1/2+y,1/2+z
1/2-x,1/2-y,1/2+z
1/2-x,1/2+y,z
1/2+x,1/2-y,z
loop_
_atom_site_type_symbol
_atom_site_label
_atom_site_fract_x
_atom_site_fract_y
_atom_site_fract_z
Si Si1 0.447290 0.317066 0.299010
Si Si2 0.171729 0.765089 0.702355
Si Si3 0.912100 0.051204 0.958254
Si Si4 0.106150 0.958063 0.311698
Si Si5 0.879647 0.133670 0.771593
Si Si6 0.694752 0.623012 0.460775
Si Si7 0.018029 0.755949 0.048332
Si Si8 0.182107 0.298011 0.475279
O O1 0.510666 0.361336 0.255924
O O2 0.363776 0.333291 0.398701
O O3 0.508146 0.279280 0.387284
O O4 0.419880 0.291524 0.146388
O O5 0.162740 0.814884 0.788619
O O6 0.080452 0.748080 0.618717
O O7 0.198847 0.724596 0.814738
O O8 0.252594 0.770494 0.586699
O O9 0.909002 0.042519 0.134560
O O10 0.860409 0.099305 0.912128
O O11 0.015767 0.055058 0.902873
O O12 0.863228 0.009132 0.868096
O O13 0.186618 0.921522 0.352856
O O14 0.841365 0.108747 0.623369
O O15 0.795481 0.646082 0.468681
O O16 0.076908 0.708570 0.027459
#
# Coordination Sequence:
#
# PCOD8190424 Si02
#       8
#     8   8   8   8   8   8   8   8
#     4  11  18  31  48  66  95 136 178 214 253 299
#     4  10  22  34  48  75  98 137 180 221 261 318
#     4  11  21  33  49  70  95 137 172 217 254 308
#     4  11  22  32  48  69  98 129 177 214 255 307
#     4  10  19  31  47  66  95 127 172 215 250 303
#     4  11  21  33  47  72  97 134 177 219 255 307
#     4  11  20  34  49  69 100 139 182 220 262 305
#     4  11  21  34  51  71 103 136 183 222 262 310
#
# _framework density 16.887070000000001
#
# number of rings (size 3 to 8) (size 9 to 14) (size 15 to 20)
#    0.000    1.250    7.500    3.750    1.750    1.000 
#    0.000    0.000    0.000    0.000    0.000    0.000 
#    0.000    0.000    0.000   45.000    0.000    0.000 
#
# Total GULP energy -396523.938883 kJ/mol
# GULP energy per Si atom -12391.373090 kJ/mol
# Density = 1.684863 g / cm^3
# Si number density = 16.887070 Si / 1000 Ang^3
#
#
#
# Elastic Constant Matrix: (Units=GPa)
#
#
# Indices 1 2 3 4 5 6 
#
# 1 50.9394 35.0071 12.2751 -0.0005 -0.0001 0.0003
# 2 35.0071 87.5976 37.6115 0.0014 0.0002 0.0002
# 3 12.2751 37.6115 87.0225 0.0089 -0.0027 0.0010
# 4 -0.0005 0.0014 0.0089 26.7525 0.0005 0.0005
# 5 -0.0001 0.0002 -0.0027 0.0005 19.3643 -0.0012
# 6 0.0003 0.0002 0.0010 0.0005 -0.0012 22.8314
#
#
#
# Elastic Compliance Matrix: (Units=1/GPa)
#
#
# Indices 1 2 3 4 5 6 
#
# 1 0.027143 -0.011300 0.001055 0.000001 0.000000 0.000000
# 2 -0.011300 0.018722 -0.006498 0.000001 -0.000001 0.000000
# 3 0.001055 -0.006498 0.014151 -0.000004 0.000002 -0.000001
# 4 0.000001 0.000001 -0.000004 0.037380 -0.000001 -0.000001
# 5 0.000000 -0.000001 0.000002 -0.000001 0.051641 0.000003
# 6 0.000000 0.000000 -0.000001 -0.000001 0.000003 0.043799
#
#
# Mechanical properties :
#
#
# Convention : Reuss Voigt Hill
#
# Bulk Modulus (GPa) = 37.69310 43.92742 40.81026
# Shear Modulus (GPa) = 21.26175 23.16736 22.21455
#
# Velocity S-wave (km/s) = 3.55217 3.70793 3.63089
# Velocity P-wave (km/s) = 6.26043 6.66338 6.46504
#
# Compressibility (1/GPa) = 0.02653006
#
# Stress axis : x y z
#
# Youngs Moduli (GPa) = 36.84220 53.41396 70.66786
#
# Poissons Ratio (x) = 0.60360 -0.07458
# Poissons Ratio (y) = 0.41633 0.45917
# Poissons Ratio (z) = -0.03888 0.34706
#
# Static dielectric constant tensor:
#      x y z
#    x 2.862710 0.000000 0.000000 
#    y 0.000000 3.200550 0.000010 
#    z 0.000000 0.000010 3.334970 
# 
# 
# High freq. dielectric constant tensor:
#      x y z
#    x 1.597010 0.000000 0.000000 
#    y 0.000000 1.633030 0.000000 
#    z 0.000000 0.000000 1.673670 
# 
# From -- ./inp_files/1999.got.cif
#   From: 2010.03.12/outbox.cif.g09.slc.cpg/sg45_1_cif.got.tgz:1999.got - 2010.04.14 02:50:11.
