data_PCOD8190344
_publ_section_title
;
Structure prediction by ZEFSAII (Michael W. Deem and Ramdas Pophale) SiO2 
 PCOD8190344
Probable space group: I M M 2
;
_chemical_formula_sum "Si O2"
_cell_formula_units_Z 48
_cell_length_a 7.951682
_cell_length_b 9.297259
_cell_length_c 34.895844
_cell_angle_alpha 90.000000
_cell_angle_beta 90.000000
_cell_angle_gamma 90.000000
_cell_volume 2579.809513
_symmetry_space_group_name_H-M "I M M 2"
_symmetry_group_IT_number 44
_symmetry_cell_setting 'orthorhombic'
loop_
_space_group_symop_operation_xyz
x,y,z
-x,-y,z
-x,y,z
x,-y,z
1/2+x,1/2+y,1/2+z
1/2-x,1/2-y,1/2+z
1/2-x,1/2+y,1/2+z
1/2+x,1/2-y,1/2+z
loop_
_atom_site_type_symbol
_atom_site_label
_atom_site_fract_x
_atom_site_fract_y
_atom_site_fract_z
Si Si1 0.185876 0.171088 0.308840
Si Si2 0.302489 0.160855 0.547234
Si Si3 0.695483 0.337918 0.966982
Si Si4 0.500000 0.171893 0.260260
Si Si5 0.000000 0.329545 0.674186
Si Si6 0.192390 0.335610 0.888048
Si Si7 0.806822 0.169642 0.121900
O O1 0.331441 0.231999 0.281011
O O2 0.207130 0.233220 0.352185
O O3 0.000000 0.215406 0.293580
O O4 0.205023 0.000000 0.310670
O O5 0.500000 0.151139 0.546541
O O6 0.241790 0.236654 0.507487
O O7 0.244363 0.258343 0.582560
O O8 0.224292 0.000000 0.551787
O O9 0.500000 0.336151 0.960130
O O10 0.768625 0.500000 0.970206
O O11 0.774833 0.259124 0.929347
O O12 0.500000 0.233338 0.217135
O O13 0.500000 0.000000 0.260299
O O14 0.173037 0.277253 0.653826
O O15 0.000000 0.500000 0.675304
O O16 0.252083 0.500000 0.893384
O O17 0.000000 0.324751 0.876125
O O18 0.000000 0.214321 0.132962
O O19 0.796622 0.000000 0.116000
#
# Coordination Sequence:
#
# PCOD8190344 Si02
#       7
#     8   8   8   4   4   8   8
#     4   9  15  22  33  49  71 101 136 173 212 253
#     4   9  17  29  44  63  87 115 148 186 227 264
#     4   9  16  23  33  53  79 108 143 180 216 257
#     4   9  16  26  36  53  75  99 137 181 217 255
#     4   9  18  30  45  61  81 109 147 189 227 269
#     4   9  14  21  32  46  71 106 141 174 209 252
#     4   9  18  32  48  65  86 116 151 184 223 271
#
# _framework density 18.606024999999999
#
# number of rings (size 3 to 8) (size 9 to 14) (size 15 to 20)
#    0.000    3.000    0.833    1.000    1.167    4.667 
#    0.000    3.333    0.000    0.000    0.000    0.000 
#    0.000    0.000    0.000    3.000    0.000   13.500 
#
# Total GULP energy -297345.348489 kJ/mol
# GULP energy per Si atom -12389.389520 kJ/mol
# Density = 1.856368 g / cm^3
# Si number density = 18.606025 Si / 1000 Ang^3
#
#
#
# Elastic Constant Matrix: (Units=GPa)
#
#
# Indices 1 2 3 4 5 6 
#
# 1 112.0752 10.5104 82.1642 0.0000 0.0000 0.0000
# 2 10.5104 9.6440 14.6491 0.0000 0.0000 0.0000
# 3 82.1642 14.6491 179.2619 0.0000 0.0000 0.0000
# 4 0.0000 0.0000 0.0000 12.3193 0.0000 0.0000
# 5 0.0000 0.0000 0.0000 0.0000 32.4882 0.0000
# 6 0.0000 0.0000 0.0000 0.0000 0.0000 6.7627
#
#
#
# Elastic Compliance Matrix: (Units=1/GPa)
#
#
# Indices 1 2 3 4 5 6 
#
# 1 0.013753 -0.006181 -0.005799 0.000000 0.000000 0.000000
# 2 -0.006181 0.121165 -0.007069 0.000000 0.000000 0.000000
# 3 -0.005799 -0.007069 0.008814 0.000000 0.000000 0.000000
# 4 0.000000 0.000000 0.000000 0.081174 0.000000 0.000000
# 5 0.000000 0.000000 0.000000 0.000000 0.030780 0.000000
# 6 0.000000 0.000000 0.000000 0.000000 0.000000 0.147871
#
#
# Mechanical properties :
#
#
# Convention : Reuss Voigt Hill
#
# Bulk Modulus (GPa) = 9.46645 57.29206 33.37925
# Shear Modulus (GPa) = 10.48513 23.22450 16.85482
#
# Velocity S-wave (km/s) = 2.37646 3.53686 3.01305
# Velocity P-wave (km/s) = 3.55373 6.89479 5.48485
#
# Compressibility (1/GPa) = 0.10563626
#
# Stress axis : x y z
#
# Youngs Moduli (GPa) = 72.70959 8.25320 113.45710
#
# Poissons Ratio (x) = 0.05101 0.65791
# Poissons Ratio (y) = 0.44939 0.80198
# Poissons Ratio (z) = 0.42162 0.05834
#
# Static dielectric constant tensor:
#      x y z
#    x 3.505620 0.000000 0.000000 
#    y 0.000000 2.753640 0.000000 
#    z 0.000000 0.000000 3.785310 
# 
# 
# High freq. dielectric constant tensor:
#      x y z
#    x 1.734870 0.000000 0.000000 
#    y 0.000000 1.618840 0.000000 
#    z 0.000000 0.000000 1.736940 
# 
# From -- ./inp_files/26962.got.cif
#   From: 2010.03.12/outbox.cif.g09.slc.cpg/sg44_14_cif.got.tgz:26962.got - 2010.04.14 02:36:11.
