data_PCOD8190534
_publ_section_title
;
Structure prediction by ZEFSAII (Michael W. Deem and Ramdas Pophale) SiO2 
 PCOD8190534
Probable space group: I B A 2
;
_chemical_formula_sum "Si O2"
_cell_formula_units_Z 44
_cell_length_a 6.867247
_cell_length_b 17.603822
_cell_length_c 14.785412
_cell_angle_alpha 90.000000
_cell_angle_beta 90.000000
_cell_angle_gamma 90.000000
_cell_volume 1787.405408
_symmetry_space_group_name_H-M "I B A 2"
_symmetry_group_IT_number 45
_symmetry_cell_setting 'orthorhombic'
loop_
_space_group_symop_operation_xyz
x,y,z
-x,-y,z
-x,y,1/2+z
x,-y,1/2+z
1/2+x,1/2+y,1/2+z
1/2-x,1/2-y,1/2+z
1/2-x,1/2+y,z
1/2+x,1/2-y,z
loop_
_atom_site_type_symbol
_atom_site_label
_atom_site_fract_x
_atom_site_fract_y
_atom_site_fract_z
Si Si1 0.457516 0.678206 0.493010
Si Si2 0.000000 0.000000 0.700066
Si Si3 0.730811 0.898396 0.098033
Si Si4 0.372792 0.186967 0.263900
Si Si5 0.443176 0.351670 0.303401
Si Si6 0.980016 0.345953 0.454674
O O1 0.567646 0.649056 0.582579
O O2 0.604539 0.653420 0.410490
O O3 0.244824 0.641194 0.481539
O O4 0.434783 0.768594 0.497855
O O5 0.899714 0.933436 0.759985
O O6 0.187106 0.976228 0.639719
O O7 0.587575 0.853889 0.168412
O O8 0.605277 0.911566 0.006137
O O9 0.353258 0.278455 0.250991
O O10 0.521538 0.159687 0.345019
O O11 0.173273 0.156495 0.301782
#
# Coordination Sequence:
#
# PCOD8190534 Si02
#       6
#     8   4   8   8   8   8
#     4  10  20  36  66  98 132 177 238 284 345 409
#     4  10  24  42  62  98 138 186 228 280 374 418
#     4  11  23  41  68  99 142 183 227 296 349 424
#     4   9  21  37  64 104 130 178 236 287 346 411
#     4   9  20  40  65  94 135 178 234 294 346 423
#     4  10  20  38  63 105 136 172 237 298 340 414
#
# _framework density 24.616689000000001
#
# number of rings (size 3 to 8) (size 9 to 14) (size 15 to 20)
#    0.000    2.182    1.818    0.000    7.636    0.727 
#    0.000    0.909    4.000    0.000   18.909    0.000 
#    0.000    0.000    0.000    0.000    0.000    0.000 
#
# Total GULP energy -272586.782747 kJ/mol
# GULP energy per Si atom -12390.308307 kJ/mol
# Density = 2.456066 g / cm^3
# Si number density = 24.616689 Si / 1000 Ang^3
#
#
#
# Elastic Constant Matrix: (Units=GPa)
#
#
# Indices 1 2 3 4 5 6 
#
# 1 37.4528 21.9330 35.8015 0.0000 0.0000 0.0000
# 2 21.9330 120.5915 58.9793 0.0000 0.0000 0.0000
# 3 35.8015 58.9793 114.1714 0.0000 0.0000 0.0000
# 4 0.0000 0.0000 0.0000 20.6739 0.0000 0.0000
# 5 0.0000 0.0000 0.0000 0.0000 45.5558 0.0000
# 6 0.0000 0.0000 0.0000 0.0000 0.0000 38.7445
#
#
#
# Elastic Compliance Matrix: (Units=1/GPa)
#
#
# Indices 1 2 3 4 5 6 
#
# 1 0.038321 -0.001462 -0.011261 0.000000 0.000000 0.000000
# 2 -0.001462 0.011152 -0.005302 0.000000 0.000000 0.000000
# 3 -0.011261 -0.005302 0.015029 0.000000 0.000000 0.000000
# 4 0.000000 0.000000 0.000000 0.048370 0.000000 0.000000
# 5 0.000000 0.000000 0.000000 0.000000 0.021951 0.000000
# 6 0.000000 0.000000 0.000000 0.000000 0.000000 0.025810
#
#
# Mechanical properties :
#
#
# Convention : Reuss Voigt Hill
#
# Bulk Modulus (GPa) = 35.14861 56.18258 45.66559
# Shear Modulus (GPa) = 24.25200 31.36164 27.80682
#
# Velocity S-wave (km/s) = 3.14217 3.57318 3.36459
# Velocity P-wave (km/s) = 5.24153 6.31633 5.80387
#
# Compressibility (1/GPa) = 0.02845063
#
# Stress axis : x y z
#
# Youngs Moduli (GPa) = 26.09511 89.67283 66.53733
#
# Poissons Ratio (x) = 0.13111 0.74930
# Poissons Ratio (y) = 0.03815 0.35280
# Poissons Ratio (z) = 0.29387 0.47547
#
# Static dielectric constant tensor:
#      x y z
#    x 4.292340 0.000000 0.000000 
#    y 0.000000 4.528020 0.000000 
#    z 0.000000 0.000000 5.268210 
# 
# 
# High freq. dielectric constant tensor:
#      x y z
#    x 1.982730 0.000000 0.000000 
#    y 0.000000 1.931220 0.000000 
#    z 0.000000 0.000000 1.991970 
# 
# From -- ./inp_files/5559.got.cif
#   From: 2010.03.12/outbox.cif.g09.slc.cpg/sg45_3_cif.got.tgz:5559.got - 2010.04.14 02:50:11.
