data_PCOD8190171
_publ_section_title
;
Structure prediction by ZEFSAII (Michael W. Deem and Ramdas Pophale) SiO2 
 PCOD8190171
Probable space group: I M M 2
;
_chemical_formula_sum "Si O2"
_cell_formula_units_Z 56
_cell_length_a 13.827264
_cell_length_b 21.243839
_cell_length_c 10.041593
_cell_angle_alpha 90.000000
_cell_angle_beta 90.000000
_cell_angle_gamma 90.000000
_cell_volume 2949.659404
_symmetry_space_group_name_H-M "I M M 2"
_symmetry_group_IT_number 44
_symmetry_cell_setting 'orthorhombic'
loop_
_space_group_symop_operation_xyz
x,y,z
-x,-y,z
-x,y,z
x,-y,z
1/2+x,1/2+y,1/2+z
1/2-x,1/2-y,1/2+z
1/2-x,1/2+y,1/2+z
1/2+x,1/2-y,1/2+z
loop_
_atom_site_type_symbol
_atom_site_label
_atom_site_fract_x
_atom_site_fract_y
_atom_site_fract_z
Si Si1 0.745983 0.353249 0.199720
Si Si2 0.885976 0.252783 0.779139
Si Si3 0.298394 0.926615 0.958461
Si Si4 0.000000 0.573694 0.566307
Si Si5 0.386922 0.247670 0.590088
Si Si6 0.000000 0.574267 0.864446
Si Si7 0.236286 0.853589 0.201273
Si Si8 0.711336 0.925678 0.448947
O O1 0.648245 0.311876 0.207858
O O2 0.756479 0.386226 0.340203
O O3 0.837044 0.309636 0.166356
O O4 0.741522 0.408093 0.089729
O O5 0.832024 0.309876 0.704982
O O6 0.000000 0.260624 0.760076
O O7 0.855593 0.251161 0.934917
O O8 0.284865 0.000000 0.928239
O O9 0.409414 0.906641 0.977700
O O10 0.243951 0.908975 0.093627
O O11 0.000000 0.500000 0.593717
O O12 0.000000 0.603519 0.715230
O O13 0.500000 0.238940 0.605021
O O14 0.356785 0.311998 0.664440
O O15 0.901901 0.597473 0.938657
O O16 0.000000 0.500000 0.862763
O O17 0.223649 0.889144 0.341182
O O18 0.718064 0.000000 0.425473
#
# Coordination Sequence:
#
# PCOD8190171 Si02
#       8
#     8   8   8   4   8   4   8   8
#     4  11  23  39  59  90 117 152 192 238 297 345
#     4  10  22  40  63  85 111 154 201 245 284 334
#     4  11  22  36  56  85 123 155 189 238 286 343
#     4   9  18  31  49  81 119 157 191 221 268 337
#     4  10  22  40  61  85 115 153 197 247 287 332
#     4   9  18  31  51  83 115 157 195 215 266 349
#     4  11  21  37  61  89 113 154 196 234 287 347
#     4  11  22  36  59  87 123 156 187 233 290 357
#
# _framework density 18.985242
#
# number of rings (size 3 to 8) (size 9 to 14) (size 15 to 20)
#    0.000    1.571    4.286    0.857    4.000    0.000 
#    0.000    4.286    0.000    5.143    0.000    0.000 
#    0.000    0.000    0.000    0.000    0.000    0.000 
#
# Total GULP energy -347161.819679 kJ/mol
# GULP energy per Si atom -12398.636417 kJ/mol
# Density = 1.894203 g / cm^3
# Si number density = 18.985242 Si / 1000 Ang^3
#
#
#
# Elastic Constant Matrix: (Units=GPa)
#
#
# Indices 1 2 3 4 5 6 
#
# 1 44.7748 17.0245 18.4899 0.0001 -0.0001 0.0001
# 2 17.0245 71.3709 15.6880 0.0001 -0.0001 0.0000
# 3 18.4899 15.6880 69.9995 0.0018 -0.0020 0.0001
# 4 0.0001 0.0001 0.0018 34.7660 -0.0012 0.0001
# 5 -0.0001 -0.0001 -0.0020 -0.0012 40.0344 -0.0001
# 6 0.0001 0.0000 0.0001 0.0001 -0.0001 25.7833
#
#
#
# Elastic Compliance Matrix: (Units=1/GPa)
#
#
# Indices 1 2 3 4 5 6 
#
# 1 0.026705 -0.005069 -0.005918 0.000000 0.000000 0.000000
# 2 -0.005069 0.015700 -0.002180 0.000000 0.000000 0.000000
# 3 -0.005918 -0.002180 0.016337 -0.000001 0.000001 0.000000
# 4 0.000000 0.000000 -0.000001 0.028764 0.000001 0.000000
# 5 0.000000 0.000000 0.000001 0.000001 0.024979 0.000000
# 6 0.000000 0.000000 0.000000 0.000000 0.000000 0.038785
#
#
# Mechanical properties :
#
#
# Convention : Reuss Voigt Hill
#
# Bulk Modulus (GPa) = 30.85575 32.06110 31.45842
# Shear Modulus (GPa) = 26.53846 29.11293 27.82569
#
# Velocity S-wave (km/s) = 3.74283 3.92018 3.83253
# Velocity P-wave (km/s) = 5.91322 6.11673 6.01584
#
# Compressibility (1/GPa) = 0.03240887
#
# Stress axis : x y z
#
# Youngs Moduli (GPa) = 37.44576 63.69588 61.20908
#
# Poissons Ratio (x) = 0.32290 0.36223
# Poissons Ratio (y) = 0.18983 0.13341
# Poissons Ratio (z) = 0.22160 0.13883
#
# Static dielectric constant tensor:
#      x y z
#    x 2.902530 0.000000 0.000010 
#    y 0.000000 3.570770 0.000000 
#    z 0.000010 0.000000 3.574870 
# 
# 
# High freq. dielectric constant tensor:
#      x y z
#    x 1.706290 0.000000 0.000000 
#    y 0.000000 1.749410 0.000000 
#    z 0.000000 0.000000 1.742260 
# 
# From -- ./inp_files/7431.got.cif
#   From: 2010.03.12/outbox.cif.g09.slc.cpg/sg44_4_cif.got.tgz:7431.got - 2010.04.14 02:36:11.
