data_PCOD8190064
_publ_section_title
;
Structure prediction by ZEFSAII (Michael W. Deem and Ramdas Pophale) SiO2 
 PCOD8190064
Probable space group: I M M 2
;
_chemical_formula_sum "Si O2"
_cell_formula_units_Z 48
_cell_length_a 8.733408
_cell_length_b 15.253811
_cell_length_c 18.898292
_cell_angle_alpha 90.000000
_cell_angle_beta 90.000000
_cell_angle_gamma 90.000000
_cell_volume 2517.588034
_symmetry_space_group_name_H-M "I M M 2"
_symmetry_group_IT_number 44
_symmetry_cell_setting 'orthorhombic'
loop_
_space_group_symop_operation_xyz
x,y,z
-x,-y,z
-x,y,z
x,-y,z
1/2+x,1/2+y,1/2+z
1/2-x,1/2-y,1/2+z
1/2-x,1/2+y,1/2+z
1/2+x,1/2-y,1/2+z
loop_
_atom_site_type_symbol
_atom_site_label
_atom_site_fract_x
_atom_site_fract_y
_atom_site_fract_z
Si Si1 0.817747 0.000000 0.738981
Si Si2 0.176032 0.648392 0.487762
Si Si3 0.318972 0.500000 0.079701
Si Si4 0.821044 0.000000 0.079025
Si Si5 0.182397 0.000000 0.239068
Si Si6 0.680767 0.157112 0.825942
Si Si7 0.820478 0.847153 0.478766
Si Si8 0.318730 0.844357 0.328501
O O1 0.754239 0.000000 0.658877
O O2 0.753149 0.086160 0.775027
O O3 0.000000 0.000000 0.743243
O O4 0.273094 0.587488 0.538481
O O5 0.219567 0.629989 0.406334
O O6 0.213168 0.749263 0.506272
O O7 0.000000 0.625832 0.501224
O O8 0.500000 0.500000 0.082544
O O9 0.261984 0.413235 0.039038
O O10 0.755809 0.000000 0.158490
O O11 0.000000 0.000000 0.083331
O O12 0.247451 0.913634 0.275285
O O13 0.000000 0.000000 0.244468
O O14 0.500000 0.163546 0.814528
O O15 0.754736 0.249791 0.806674
O O16 0.727961 0.869228 0.408093
O O17 0.000000 0.858360 0.461059
O O18 0.500000 0.845106 0.321422
#
# Coordination Sequence:
#
# PCOD8190064 Si02
#       8
#     4   8   4   4   4   8   8   8
#     4  11  22  35  54  86 120 151 190 237 276 318
#     4   9  19  35  57  81 107 142 186 228 273 331
#     4   9  19  35  56  82 114 149 184 219 270 334
#     4  11  24  37  54  80 110 145 186 231 280 326
#     4  11  24  41  56  78 116 157 186 219 278 348
#     4  10  21  39  60  83 112 152 191 226 279 343
#     4   9  18  36  60  83 110 149 185 220 273 339
#     4  11  22  37  60  89 112 139 186 242 283 321
#
# _framework density 19.065867000000001
#
# number of rings (size 3 to 8) (size 9 to 14) (size 15 to 20)
#    0.000    2.000    0.000    4.750    0.000    8.667 
#    0.000    3.333    0.000    0.000    0.000    0.000 
#    0.000    0.000    0.000    0.000    0.000    0.000 
#
# Total GULP energy -297663.933217 kJ/mol
# GULP energy per Si atom -12402.663884 kJ/mol
# Density = 1.902247 g / cm^3
# Si number density = 19.065867 Si / 1000 Ang^3
#
#
#
# Elastic Constant Matrix: (Units=GPa)
#
#
# Indices 1 2 3 4 5 6 
#
# 1 90.1798 54.4632 53.9487 0.0000 0.0000 0.0000
# 2 54.4632 157.6496 110.5397 0.0000 0.0000 0.0000
# 3 53.9487 110.5397 148.1898 0.0000 0.0000 0.0000
# 4 0.0000 0.0000 0.0000 -42.5837 0.0000 0.0000
# 5 0.0000 0.0000 0.0000 0.0000 27.6296 0.0000
# 6 0.0000 0.0000 0.0000 0.0000 0.0000 32.0569
#
#
#
# Elastic Compliance Matrix: (Units=1/GPa)
#
#
# Indices 1 2 3 4 5 6 
#
# 1 0.014738 -0.002787 -0.003286 0.000000 0.000000 0.000000
# 2 -0.002787 0.013826 -0.009299 0.000000 0.000000 0.000000
# 3 -0.003286 -0.009299 0.014881 0.000000 0.000000 0.000000
# 4 0.000000 0.000000 0.000000 -0.023483 0.000000 0.000000
# 5 0.000000 0.000000 0.000000 0.000000 0.036193 0.000000
# 6 0.000000 0.000000 0.000000 0.000000 0.000000 0.031195
#
#
# Mechanical properties :
#
#
# Convention : Reuss Voigt Hill
#
# Bulk Modulus (GPa) = 78.73714 92.65803 85.69759
# Shear Modulus (GPa) = 40.87392 15.22507 28.04950
#
# Velocity S-wave (km/s) = 4.63517 2.82893 3.83977
# Velocity P-wave (km/s) = 8.36860 7.70551 8.04389
#
# Compressibility (1/GPa) = 0.01270049
#
# Stress axis : x y z
#
# Youngs Moduli (GPa) = 67.85014 72.32738 67.20172
#
# Poissons Ratio (x) = 0.20160 0.22085
# Poissons Ratio (y) = 0.18912 0.62488
# Poissons Ratio (z) = 0.22298 0.67254
#
# Static dielectric constant tensor:
#      x y z
#    x 3.431900 0.000000 0.000000 
#    y 0.000000 3.008540 0.000000 
#    z 0.000000 0.000000 3.645220 
# 
# 
# High freq. dielectric constant tensor:
#      x y z
#    x 1.737440 0.000000 0.000000 
#    y 0.000000 1.758680 0.000000 
#    z 0.000000 0.000000 1.739760 
# 
# From -- ./inp_files/20385.got.cif
#   From: 2010.03.12/outbox.cif.g09.slc.cpg/sg44_11_cif.got.tgz:20385.got - 2010.04.14 02:36:11.
