data_PCOD8190970
_publ_section_title
;
Structure prediction by ZEFSAII (Michael W. Deem and Ramdas Pophale) SiO2 
 PCOD8190970
Probable space group: I B A 2
;
_chemical_formula_sum "Si O2"
_cell_formula_units_Z 60
_cell_length_a 13.099827
_cell_length_b 11.957854
_cell_length_c 17.674154
_cell_angle_alpha 90.000000
_cell_angle_beta 90.000000
_cell_angle_gamma 90.000000
_cell_volume 2768.582323
_symmetry_space_group_name_H-M "I B A 2"
_symmetry_group_IT_number 45
_symmetry_cell_setting 'orthorhombic'
loop_
_space_group_symop_operation_xyz
x,y,z
-x,-y,z
-x,y,1/2+z
x,-y,1/2+z
1/2+x,1/2+y,1/2+z
1/2-x,1/2-y,1/2+z
1/2-x,1/2+y,z
1/2+x,1/2-y,z
loop_
_atom_site_type_symbol
_atom_site_label
_atom_site_fract_x
_atom_site_fract_y
_atom_site_fract_z
Si Si1 0.948990 0.394591 0.479690
Si Si2 0.000000 0.000000 0.900292
Si Si3 0.094655 0.568271 0.314941
Si Si4 0.077774 0.178250 0.782777
Si Si5 0.917440 0.147395 0.655340
Si Si6 0.229793 0.970506 0.214523
Si Si7 0.561043 0.325232 0.515906
Si Si8 0.220745 0.326276 0.088555
O O1 0.907401 0.456475 0.403978
O O2 0.849766 0.343722 0.517249
O O3 0.000000 0.500000 0.524896
O O4 0.028441 0.290676 0.474424
O O5 0.938387 0.914594 0.847719
O O6 0.073712 0.923512 0.953310
O O7 0.083772 0.700568 0.317696
O O8 0.199802 0.534867 0.274315
O O9 0.000000 0.500000 0.276523
O O10 0.991033 0.194121 0.719772
O O11 0.187627 0.146481 0.747917
O O12 0.873730 0.033512 0.690072
O O13 0.819439 0.225324 0.640749
O O14 0.977726 0.132091 0.576800
O O15 0.289530 0.939504 0.138179
O O16 0.665754 0.301270 0.559774
#
# Coordination Sequence:
#
# PCOD8190970 Si02
#       8
#     8   4   8   8   8   8   8   8
#     4  10  25  47  66 102 143 183 232 294 362 431
#     4  12  24  42  70 102 140 192 232 310 360 416
#     4  11  26  49  70 102 147 188 232 302 358 432
#     4  12  24  46  72 106 143 186 241 291 369 431
#     4  11  24  44  69 103 142 179 238 297 354 423
#     4  12  24  42  69 104 138 189 237 292 355 432
#     4  11  24  46  70 103 142 184 243 296 359 435
#     4  11  25  41  72 104 132 195 232 296 356 432
#
# _framework density 21.671742999999999
#
# number of rings (size 3 to 8) (size 9 to 14) (size 15 to 20)
#    0.000    0.800    4.000    2.400    3.733    1.600 
#    4.800    0.000    0.000    0.000    0.000    0.000 
#    0.000    0.000    0.000    0.000    0.000    0.000 
#
# Total GULP energy -371823.569049 kJ/mol
# GULP energy per Si atom -12394.118968 kJ/mol
# Density = 2.162242 g / cm^3
# Si number density = 21.671743 Si / 1000 Ang^3
#
#
#
# Elastic Constant Matrix: (Units=GPa)
#
#
# Indices 1 2 3 4 5 6 
#
# 1 109.4340 46.0403 44.8692 0.0000 0.0000 0.0000
# 2 46.0403 116.7784 27.9952 0.0000 0.0000 0.0000
# 3 44.8692 27.9952 94.5867 0.0000 0.0000 0.0000
# 4 0.0000 0.0000 0.0000 41.8962 0.0000 0.0000
# 5 0.0000 0.0000 0.0000 0.0000 21.5521 0.0000
# 6 0.0000 0.0000 0.0000 0.0000 0.0000 32.7375
#
#
#
# Elastic Compliance Matrix: (Units=1/GPa)
#
#
# Indices 1 2 3 4 5 6 
#
# 1 0.012778 -0.003859 -0.004920 0.000000 0.000000 0.000000
# 2 -0.003859 0.010382 -0.001243 0.000000 0.000000 0.000000
# 3 -0.004920 -0.001243 0.013274 0.000000 0.000000 0.000000
# 4 0.000000 0.000000 0.000000 0.023869 0.000000 0.000000
# 5 0.000000 0.000000 0.000000 0.000000 0.046399 0.000000
# 6 0.000000 0.000000 0.000000 0.000000 0.000000 0.030546
#
#
# Mechanical properties :
#
#
# Convention : Reuss Voigt Hill
#
# Bulk Modulus (GPa) = 61.00135 62.06760 61.53447
# Shear Modulus (GPa) = 30.72119 32.69678 31.70898
#
# Velocity S-wave (km/s) = 3.76915 3.88845 3.82926
# Velocity P-wave (km/s) = 6.86665 6.99014 6.92867
#
# Compressibility (1/GPa) = 0.01639308
#
# Stress axis : x y z
#
# Youngs Moduli (GPa) = 78.25720 96.31747 75.33627
#
# Poissons Ratio (x) = 0.37164 0.37063
# Poissons Ratio (y) = 0.30196 0.09361
# Poissons Ratio (z) = 0.38500 0.11968
#
# Static dielectric constant tensor:
#      x y z
#    x 3.766890 0.000000 0.000000 
#    y 0.000000 4.110680 0.000000 
#    z 0.000000 0.000000 4.024680 
# 
# 
# High freq. dielectric constant tensor:
#      x y z
#    x 1.844960 0.000000 0.000000 
#    y 0.000000 1.863350 0.000000 
#    z 0.000000 0.000000 1.859310 
# 
# From -- ./inp_files/9099.got.cif
#   From: 2010.03.12/outbox.cif.g09.slc.cpg/sg45_5_cif.got.tgz:9099.got - 2010.04.14 02:50:11.
