data_PCOD8190821
_publ_section_title
;
Structure prediction by ZEFSAII (Michael W. Deem and Ramdas Pophale) SiO2 
 PCOD8190821
Probable space group: I B A 2
;
_chemical_formula_sum "Si O2"
_cell_formula_units_Z 60
_cell_length_a 26.755815
_cell_length_b 8.973090
_cell_length_c 11.739980
_cell_angle_alpha 90.000000
_cell_angle_beta 90.000000
_cell_angle_gamma 90.000000
_cell_volume 2818.561823
_symmetry_space_group_name_H-M "I B A 2"
_symmetry_group_IT_number 45
_symmetry_cell_setting 'orthorhombic'
loop_
_space_group_symop_operation_xyz
x,y,z
-x,-y,z
-x,y,1/2+z
x,-y,1/2+z
1/2+x,1/2+y,1/2+z
1/2-x,1/2-y,1/2+z
1/2-x,1/2+y,z
1/2+x,1/2-y,z
loop_
_atom_site_type_symbol
_atom_site_label
_atom_site_fract_x
_atom_site_fract_y
_atom_site_fract_z
Si Si1 0.973210 0.715695 0.959470
Si Si2 0.424833 0.919116 0.515641
Si Si3 0.827609 0.203944 0.344134
Si Si4 0.000000 0.000000 0.593134
Si Si5 0.229618 0.895513 0.540329
Si Si6 0.260545 0.136569 0.696418
Si Si7 0.426440 0.710842 0.724991
Si Si8 0.173947 0.536347 0.895534
O O1 0.956411 0.721902 0.829880
O O2 0.939076 0.594918 0.027635
O O3 0.030438 0.666124 0.953861
O O4 0.970095 0.878103 0.018164
O O5 0.416087 0.849003 0.640487
O O6 0.376542 0.884198 0.437812
O O7 0.814046 0.084733 0.445104
O O8 0.777054 0.232915 0.272999
O O9 0.873647 0.143312 0.269372
O O10 0.840563 0.363092 0.397231
O O11 0.957787 0.922141 0.669519
O O12 0.222477 0.727930 0.585992
O O13 0.283641 0.921515 0.485489
O O14 0.225955 0.001383 0.649961
O O15 0.309220 0.087018 0.768638
#
# Coordination Sequence:
#
# PCOD8190821 Si02
#       8
#     8   8   8   4   8   8   8   8
#     4  10  22  43  68 100 132 170 226 271 337 404
#     4  10  23  41  70  99 127 174 225 280 322 397
#     4  11  23  40  66  98 126 173 222 274 321 404
#     4  10  24  44  66  96 140 182 206 286 344 402
#     4  11  23  41  65  92 133 170 215 272 329 391
#     4  11  23  41  65  93 131 175 211 269 336 386
#     4  11  23  45  69  95 137 174 224 275 340 395
#     4  11  22  41  67  96 130 166 223 270 324 394
#
# _framework density 21.287451999999998
#
# number of rings (size 3 to 8) (size 9 to 14) (size 15 to 20)
#    0.000    1.333    4.000    1.200    0.000    5.333 
#    0.000    5.333    0.000    0.000    0.000    0.000 
#    0.000    0.000    0.000    0.000    0.000    0.000 
#
# Total GULP energy -371919.054885 kJ/mol
# GULP energy per Si atom -12397.301830 kJ/mol
# Density = 2.123900 g / cm^3
# Si number density = 21.287452 Si / 1000 Ang^3
#
#
#
# Elastic Constant Matrix: (Units=GPa)
#
#
# Indices 1 2 3 4 5 6 
#
# 1 130.3393 39.3799 65.1356 0.0000 0.0000 0.0000
# 2 39.3799 108.0542 54.6340 0.0000 0.0000 0.0000
# 3 65.1356 54.6340 133.9527 0.0000 0.0000 0.0000
# 4 0.0000 0.0000 0.0000 34.0027 0.0000 0.0000
# 5 0.0000 0.0000 0.0000 0.0000 48.4619 0.0000
# 6 0.0000 0.0000 0.0000 0.0000 0.0000 22.2636
#
#
#
# Elastic Compliance Matrix: (Units=1/GPa)
#
#
# Indices 1 2 3 4 5 6 
#
# 1 0.010336 -0.001544 -0.004396 0.000000 0.000000 0.000000
# 2 -0.001544 0.011890 -0.004098 0.000000 0.000000 0.000000
# 3 -0.004396 -0.004098 0.011275 0.000000 0.000000 0.000000
# 4 0.000000 0.000000 0.000000 0.029409 0.000000 0.000000
# 5 0.000000 0.000000 0.000000 0.000000 0.020635 0.000000
# 6 0.000000 0.000000 0.000000 0.000000 0.000000 0.044916
#
#
# Mechanical properties :
#
#
# Convention : Reuss Voigt Hill
#
# Bulk Modulus (GPa) = 74.50106 76.73835 75.61971
# Shear Modulus (GPa) = 32.67721 35.15874 33.91797
#
# Velocity S-wave (km/s) = 3.92222 4.06842 3.99599
# Velocity P-wave (km/s) = 7.45556 7.62865 7.54260
#
# Compressibility (1/GPa) = 0.01342263
#
# Stress axis : x y z
#
# Youngs Moduli (GPa) = 96.75225 84.10710 88.69549
#
# Poissons Ratio (x) = 0.12987 0.38991
# Poissons Ratio (y) = 0.14939 0.36352
# Poissons Ratio (z) = 0.42533 0.34471
#
# Static dielectric constant tensor:
#      x y z
#    x 3.836140 0.000000 0.000000 
#    y 0.000000 3.843480 0.000000 
#    z 0.000000 0.000000 3.958430 
# 
# 
# High freq. dielectric constant tensor:
#      x y z
#    x 1.833520 0.000000 0.000000 
#    y 0.000000 1.826610 0.000000 
#    z 0.000000 0.000000 1.845720 
# 
# From -- ./inp_files/3347.got.cif
#   From: 2010.03.12/outbox.cif.g09.slc.cpg/sg45_2_cif.got.tgz:3347.got - 2010.04.14 02:50:11.
