data_PCOD8190473
_publ_section_title
;
Structure prediction by ZEFSAII (Michael W. Deem and Ramdas Pophale) SiO2 
 PCOD8190473
Probable space group: I B A 2
;
_chemical_formula_sum "Si O2"
_cell_formula_units_Z 64
_cell_length_a 12.474262
_cell_length_b 14.599272
_cell_length_c 17.093110
_cell_angle_alpha 90.000000
_cell_angle_beta 90.000000
_cell_angle_gamma 90.000000
_cell_volume 3112.914188
_symmetry_space_group_name_H-M "I B A 2"
_symmetry_group_IT_number 45
_symmetry_cell_setting 'orthorhombic'
loop_
_space_group_symop_operation_xyz
x,y,z
-x,-y,z
-x,y,1/2+z
x,-y,1/2+z
1/2+x,1/2+y,1/2+z
1/2-x,1/2-y,1/2+z
1/2-x,1/2+y,z
1/2+x,1/2-y,z
loop_
_atom_site_type_symbol
_atom_site_label
_atom_site_fract_x
_atom_site_fract_y
_atom_site_fract_z
Si Si1 0.338015 0.803791 0.927020
Si Si2 0.429648 0.342339 0.804485
Si Si3 0.339991 0.708353 0.762277
Si Si4 0.177990 0.035334 0.411317
Si Si5 0.729305 0.370347 0.005339
Si Si6 0.572905 0.153917 0.391084
Si Si7 0.810510 0.450711 0.774646
Si Si8 0.234937 0.623035 0.186598
O O1 0.311333 0.754149 0.845383
O O2 0.254129 0.884073 0.945070
O O3 0.454780 0.850173 0.927133
O O4 0.333679 0.725115 0.993125
O O5 0.545434 0.341588 0.764177
O O6 0.428859 0.418952 0.873969
O O7 0.401581 0.249603 0.849734
O O8 0.343035 0.362894 0.736994
O O9 0.248276 0.637108 0.735635
O O10 0.343196 0.790133 0.698998
O O11 0.157879 0.957581 0.476614
O O12 0.229843 0.984100 0.339600
O O13 0.741387 0.386968 0.096325
O O14 0.843550 0.366448 0.960884
O O15 0.581283 0.079238 0.320483
O O16 0.829762 0.531218 0.712164
#
# Coordination Sequence:
#
# PCOD8190473 Si02
#       8
#     8   8   8   8   8   8   8   8
#     4  11  20  39  65  91 116 161 212 258 305 361
#     4  10  20  39  65  86 115 159 210 258 300 361
#     4  11  20  39  65  91 116 161 212 258 305 361
#     4  10  19  38  60  88 119 157 211 251 306 362
#     4  11  23  39  61  92 130 162 201 252 321 385
#     4  10  20  39  65  86 115 159 210 258 300 361
#     4  10  19  38  60  88 119 157 211 251 306 362
#     4  11  23  39  61  92 130 162 201 252 321 385
#
# _framework density 20.559512999999999
#
# number of rings (size 3 to 8) (size 9 to 14) (size 15 to 20)
#    0.000    1.500    7.500    0.000    0.000    6.000 
#    0.000    0.000   11.000    0.000    0.000    0.000 
#    0.000    0.000    0.000    0.000    0.000    0.000 
#
# Total GULP energy -396573.224868 kJ/mol
# GULP energy per Si atom -12392.913277 kJ/mol
# Density = 2.051272 g / cm^3
# Si number density = 20.559513 Si / 1000 Ang^3
#
#
#
# Elastic Constant Matrix: (Units=GPa)
#
#
# Indices 1 2 3 4 5 6 
#
# 1 85.1466 24.4030 11.7768 0.0000 0.0000 0.0000
# 2 24.4030 114.8011 35.1173 0.0000 0.0000 0.0000
# 3 11.7768 35.1173 108.3632 0.0000 0.0000 0.0000
# 4 0.0000 0.0000 0.0000 29.4994 0.0000 0.0000
# 5 0.0000 0.0000 0.0000 0.0000 15.4019 0.0000
# 6 0.0000 0.0000 0.0000 0.0000 0.0000 20.4420
#
#
#
# Elastic Compliance Matrix: (Units=1/GPa)
#
#
# Indices 1 2 3 4 5 6 
#
# 1 0.012536 -0.002495 -0.000554 0.000000 0.000000 0.000000
# 2 -0.002495 0.010166 -0.003023 0.000000 0.000000 0.000000
# 3 -0.000554 -0.003023 0.010268 0.000000 0.000000 0.000000
# 4 0.000000 0.000000 0.000000 0.033899 0.000000 0.000000
# 5 0.000000 0.000000 0.000000 0.000000 0.064927 0.000000
# 6 0.000000 0.000000 0.000000 0.000000 0.000000 0.048919
#
#
# Mechanical properties :
#
#
# Convention : Reuss Voigt Hill
#
# Bulk Modulus (GPa) = 48.01809 50.10056 49.05932
# Shear Modulus (GPa) = 25.02476 28.86958 26.94717
#
# Velocity S-wave (km/s) = 3.49261 3.75133 3.62427
# Velocity P-wave (km/s) = 6.29847 6.57151 6.43644
#
# Compressibility (1/GPa) = 0.02082549
#
# Stress axis : x y z
#
# Youngs Moduli (GPa) = 79.76890 98.36734 97.38838
#
# Poissons Ratio (x) = 0.24547 0.05393
# Poissons Ratio (y) = 0.19906 0.29443
# Poissons Ratio (z) = 0.04417 0.29739
#
# Static dielectric constant tensor:
#      x y z
#    x 3.641670 0.000000 0.000000 
#    y 0.000000 5.297800 0.000000 
#    z 0.000000 0.000000 3.492440 
# 
# 
# High freq. dielectric constant tensor:
#      x y z
#    x 1.790920 0.000000 0.000000 
#    y 0.000000 1.831830 0.000000 
#    z 0.000000 0.000000 1.761340 
# 
# From -- ./inp_files/8278.got.cif
#   From: 2010.03.12/outbox.cif.g09.slc.cpg/sg45_5_cif.got.tgz:8278.got - 2010.04.14 02:50:11.
