data_PCOD8190658
_publ_section_title
;
Structure prediction by ZEFSAII (Michael W. Deem and Ramdas Pophale) SiO2 
 PCOD8190658
Probable space group: I B A 2
;
_chemical_formula_sum "Si O2"
_cell_formula_units_Z 60
_cell_length_a 18.204684
_cell_length_b 15.278769
_cell_length_c 10.671159
_cell_angle_alpha 90.000000
_cell_angle_beta 90.000000
_cell_angle_gamma 90.000000
_cell_volume 2968.131244
_symmetry_space_group_name_H-M "I B A 2"
_symmetry_group_IT_number 45
_symmetry_cell_setting 'orthorhombic'
loop_
_space_group_symop_operation_xyz
x,y,z
-x,-y,z
-x,y,1/2+z
x,-y,1/2+z
1/2+x,1/2+y,1/2+z
1/2-x,1/2-y,1/2+z
1/2-x,1/2+y,z
1/2+x,1/2-y,z
loop_
_atom_site_type_symbol
_atom_site_label
_atom_site_fract_x
_atom_site_fract_y
_atom_site_fract_z
Si Si1 0.746408 0.674729 0.690420
Si Si2 0.495579 0.294799 0.789957
Si Si3 0.595802 0.855149 0.901119
Si Si4 0.597848 0.425485 0.899962
Si Si5 0.102824 0.066065 0.181904
Si Si6 0.000000 0.500000 0.291981
Si Si7 0.243512 0.817603 0.405737
Si Si8 0.590154 0.151357 0.677288
O O1 0.683698 0.602880 0.711569
O O2 0.746311 0.741868 0.804592
O O3 0.736930 0.718105 0.550459
O O4 0.824985 0.627200 0.699288
O O5 0.430290 0.226998 0.819053
O O6 0.529835 0.356562 0.898717
O O7 0.458452 0.357580 0.686790
O O8 0.566379 0.238452 0.750243
O O9 0.682431 0.874500 0.890801
O O10 0.556719 0.946878 0.876306
O O11 0.572738 0.822823 0.036687
O O12 0.585122 0.493753 0.786936
O O13 0.674838 0.378018 0.872766
O O14 0.599197 0.470724 0.038352
O O15 0.955765 0.434282 0.206027
#
# Coordination Sequence:
#
# PCOD8190658 Si02
#       8
#     8   8   8   8   8   4   8   8
#     4  10  21  41  63  87 117 155 202 245 297 357
#     4  11  21  39  65  86 120 156 207 251 307 359
#     4  10  21  38  61  87 119 156 197 248 304 361
#     4  11  25  41  62  92 125 162 206 254 304 364
#     4  11  25  41  62  92 125 162 206 254 304 364
#     4  10  22  36  58  90 122 150 196 244 304 368
#     4  10  21  41  63  87 117 155 202 245 297 357
#     4  10  21  38  61  87 119 156 197 248 304 361
#
# _framework density 20.214739000000002
#
# number of rings (size 3 to 8) (size 9 to 14) (size 15 to 20)
#    0.000    1.600    2.667    1.600    1.867    4.267 
#    0.000    1.333    0.000    0.000    0.000    0.000 
#    0.000    0.000    0.000    0.000    0.000    0.000 
#
# Total GULP energy -371710.524984 kJ/mol
# GULP energy per Si atom -12390.350833 kJ/mol
# Density = 2.016873 g / cm^3
# Si number density = 20.214739 Si / 1000 Ang^3
#
#
#
# Elastic Constant Matrix: (Units=GPa)
#
#
# Indices 1 2 3 4 5 6 
#
# 1 100.8110 14.1334 1.8756 0.0000 0.0000 0.0000
# 2 14.1334 36.7963 7.6739 0.0000 0.0000 0.0000
# 3 1.8756 7.6739 74.5599 0.0000 0.0000 0.0000
# 4 0.0000 0.0000 0.0000 26.8810 0.0000 0.0000
# 5 0.0000 0.0000 0.0000 0.0000 26.8302 0.0000
# 6 0.0000 0.0000 0.0000 0.0000 0.0000 31.5603
#
#
#
# Elastic Compliance Matrix: (Units=1/GPa)
#
#
# Indices 1 2 3 4 5 6 
#
# 1 0.010486 -0.004060 0.000154 0.000000 0.000000 0.000000
# 2 -0.004060 0.029345 -0.002918 0.000000 0.000000 0.000000
# 3 0.000154 -0.002918 0.013708 0.000000 0.000000 0.000000
# 4 0.000000 0.000000 0.000000 0.037201 0.000000 0.000000
# 5 0.000000 0.000000 0.000000 0.000000 0.037271 0.000000
# 6 0.000000 0.000000 0.000000 0.000000 0.000000 0.031685
#
#
# Mechanical properties :
#
#
# Convention : Reuss Voigt Hill
#
# Bulk Modulus (GPa) = 25.06809 28.83701 26.95255
# Shear Modulus (GPa) = 26.78934 29.61992 28.20463
#
# Velocity S-wave (km/s) = 3.64433 3.83203 3.73936
# Velocity P-wave (km/s) = 5.48963 5.82027 5.65737
#
# Compressibility (1/GPa) = 0.03989135
#
# Stress axis : x y z
#
# Youngs Moduli (GPa) = 95.36665 34.07786 72.94747
#
# Poissons Ratio (x) = 0.13835 -0.01124
# Poissons Ratio (y) = 0.38716 0.21287
# Poissons Ratio (z) = -0.01469 0.09944
#
# Static dielectric constant tensor:
#      x y z
#    x 4.043050 0.000000 0.000000 
#    y 0.000000 4.095710 0.000000 
#    z 0.000000 0.000000 4.034310 
# 
# 
# High freq. dielectric constant tensor:
#      x y z
#    x 1.815540 0.000000 0.000000 
#    y 0.000000 1.770130 0.000000 
#    z 0.000000 0.000000 1.791770 
# 
# From -- ./inp_files/4235.got.cif
#   From: 2010.03.12/outbox.cif.g09.slc.cpg/sg45_3_cif.got.tgz:4235.got - 2010.04.14 02:50:11.
