data_PCOD8190686
_publ_section_title
;
Structure prediction by ZEFSAII (Michael W. Deem and Ramdas Pophale) SiO2 
 PCOD8190686
Probable space group: I B A 2
;
_chemical_formula_sum "Si O2"
_cell_formula_units_Z 64
_cell_length_a 14.477616
_cell_length_b 9.425318
_cell_length_c 20.661947
_cell_angle_alpha 90.000000
_cell_angle_beta 90.000000
_cell_angle_gamma 90.000000
_cell_volume 2819.449423
_symmetry_space_group_name_H-M "I B A 2"
_symmetry_group_IT_number 45
_symmetry_cell_setting 'orthorhombic'
loop_
_space_group_symop_operation_xyz
x,y,z
-x,-y,z
-x,y,1/2+z
x,-y,1/2+z
1/2+x,1/2+y,1/2+z
1/2-x,1/2-y,1/2+z
1/2-x,1/2+y,z
1/2+x,1/2-y,z
loop_
_atom_site_type_symbol
_atom_site_label
_atom_site_fract_x
_atom_site_fract_y
_atom_site_fract_z
Si Si1 0.453952 0.351337 0.422910
Si Si2 0.429855 0.381578 0.280355
Si Si3 0.320348 0.081193 0.615662
Si Si4 0.815751 0.711599 0.569755
Si Si5 0.405619 0.923115 0.739392
Si Si6 0.258922 0.992279 0.340563
Si Si7 0.010088 0.662320 0.538784
Si Si8 0.245935 0.255691 0.427289
O O1 0.500000 0.500000 0.443996
O O2 0.476093 0.323715 0.347251
O O3 0.498807 0.236791 0.469836
O O4 0.344476 0.335516 0.433221
O O5 0.500000 0.500000 0.250293
O O6 0.420917 0.247609 0.230753
O O7 0.330878 0.453168 0.297068
O O8 0.234384 0.189515 0.624059
O O9 0.395550 0.180511 0.578978
O O10 0.281890 0.951500 0.572796
O O11 0.361579 0.007573 0.679169
O O12 0.798107 0.763358 0.497325
O O13 0.925793 0.714789 0.584436
O O14 0.334686 0.932781 0.797398
O O15 0.500000 0.000000 0.757360
O O16 0.238150 0.099617 0.398670
O O17 0.306353 0.856001 0.375228
O O18 0.000000 0.500000 0.520989
#
# Coordination Sequence:
#
# PCOD8190686 Si02
#       8
#     8   8   8   8   8   8   8   8
#     4  10  21  39  64  99 146 175 224 289 359 430
#     4  10  25  45  69 107 145 185 236 298 364 430
#     4  11  26  48  66 102 138 186 250 292 348 430
#     4  11  24  41  73  95 140 185 232 294 366 417
#     4  12  27  47  74  99 143 196 247 301 355 422
#     4  11  24  44  68 104 148 180 242 295 363 430
#     4  10  23  41  66  98 137 183 233 294 354 429
#     4  11  23  41  68 108 142 182 232 298 364 440
#
# _framework density 22.699468
#
# number of rings (size 3 to 8) (size 9 to 14) (size 15 to 20)
#    0.000    1.250    3.750    1.875   12.250    0.500 
#    0.000    0.000    0.000    3.750    0.000    0.000 
#    0.000    0.000    0.000    0.000    0.000    0.000 
#
# Total GULP energy -396469.695769 kJ/mol
# GULP energy per Si atom -12389.677993 kJ/mol
# Density = 2.264780 g / cm^3
# Si number density = 22.699468 Si / 1000 Ang^3
#
#
#
# Elastic Constant Matrix: (Units=GPa)
#
#
# Indices 1 2 3 4 5 6 
#
# 1 99.9297 75.2856 17.7969 0.0000 0.0000 0.0000
# 2 75.2856 117.8792 36.3754 0.0000 0.0000 0.0000
# 3 17.7969 36.3754 53.1647 0.0000 0.0000 0.0000
# 4 0.0000 0.0000 0.0000 40.4782 0.0000 0.0000
# 5 0.0000 0.0000 0.0000 0.0000 23.0506 0.0000
# 6 0.0000 0.0000 0.0000 0.0000 0.0000 40.4351
#
#
#
# Elastic Compliance Matrix: (Units=1/GPa)
#
#
# Indices 1 2 3 4 5 6 
#
# 1 0.019553 -0.013270 0.002534 0.000000 0.000000 0.000000
# 2 -0.013270 0.019759 -0.009077 0.000000 0.000000 0.000000
# 3 0.002534 -0.009077 0.024172 0.000000 0.000000 0.000000
# 4 0.000000 0.000000 0.000000 0.024705 0.000000 0.000000
# 5 0.000000 0.000000 0.000000 0.000000 0.043383 0.000000
# 6 0.000000 0.000000 0.000000 0.000000 0.000000 0.024731
#
#
# Mechanical properties :
#
#
# Convention : Reuss Voigt Hill
#
# Bulk Modulus (GPa) = 41.91493 58.87661 50.39577
# Shear Modulus (GPa) = 24.52399 30.22717 27.37558
#
# Velocity S-wave (km/s) = 3.29047 3.65310 3.47652
# Velocity P-wave (km/s) = 5.73947 6.61720 6.19390
#
# Compressibility (1/GPa) = 0.02385784
#
# Stress axis : x y z
#
# Youngs Moduli (GPa) = 51.14286 50.60891 41.37017
#
# Poissons Ratio (x) = 0.67157 -0.10483
# Poissons Ratio (y) = 0.67866 0.37553
# Poissons Ratio (z) = -0.12959 0.45939
#
# Static dielectric constant tensor:
#      x y z
#    x 4.329540 0.000000 0.000000 
#    y 0.000000 4.370260 0.000000 
#    z 0.000000 0.000000 4.037300 
# 
# 
# High freq. dielectric constant tensor:
#      x y z
#    x 1.897610 0.000000 0.000000 
#    y 0.000000 1.904600 0.000000 
#    z 0.000000 0.000000 1.881140 
# 
# From -- ./inp_files/9795.got.cif
#   From: 2010.03.12/outbox.cif.g09.slc.cpg/sg45_5_cif.got.tgz:9795.got - 2010.04.14 02:50:11.
