data_PCOD8190423
_publ_section_title
;
Structure prediction by ZEFSAII (Michael W. Deem and Ramdas Pophale) SiO2 
 PCOD8190423
Probable space group: I B A 2
;
_chemical_formula_sum "Si O2"
_cell_formula_units_Z 40
_cell_length_a 21.659166
_cell_length_b 20.820489
_cell_length_c 5.052906
_cell_angle_alpha 90.000000
_cell_angle_beta 90.000000
_cell_angle_gamma 90.000000
_cell_volume 2278.630332
_symmetry_space_group_name_H-M "I B A 2"
_symmetry_group_IT_number 45
_symmetry_cell_setting 'orthorhombic'
loop_
_space_group_symop_operation_xyz
x,y,z
-x,-y,z
-x,y,1/2+z
x,-y,1/2+z
1/2+x,1/2+y,1/2+z
1/2-x,1/2-y,1/2+z
1/2-x,1/2+y,z
1/2+x,1/2-y,z
loop_
_atom_site_type_symbol
_atom_site_label
_atom_site_fract_x
_atom_site_fract_y
_atom_site_fract_z
Si Si1 0.964903 0.758866 0.319100
Si Si2 0.168448 0.755275 0.662588
Si Si3 0.331121 0.540163 0.509725
Si Si4 0.215681 0.172495 0.657873
Si Si5 0.464468 0.411015 0.886321
O O1 0.901395 0.730575 0.198142
O O2 0.960069 0.835040 0.349031
O O3 0.982574 0.734413 0.611967
O O4 0.178594 0.801624 0.411914
O O5 0.212601 0.693116 0.659283
O O6 0.181133 0.798496 0.911979
O O7 0.317659 0.481109 0.709089
O O8 0.286640 0.596130 0.619854
O O9 0.401615 0.563205 0.512215
O O10 0.482386 0.435307 0.592255
#
# Coordination Sequence:
#
# PCOD8190423 Si02
#       5
#     8   8   8   8   8
#     4  10  19  30  51  76 100 126 160 208 257 298
#     4  10  19  35  56  73  99 128 167 215 254 320
#     4  12  24  35  50  68 100 133 175 215 240 290
#     4  10  21  35  53  74  96 132 174 208 262 298
#     4  10  21  33  48  65  96 134 173 211 238 281
#
# _framework density 17.554403000000001
#
# number of rings (size 3 to 8) (size 9 to 14) (size 15 to 20)
#    0.000    1.600    2.000    3.600    5.600    2.400 
#    0.000    0.000    0.000    0.000    0.000    0.000 
#    0.000    4.800    0.000    0.000    0.000    0.000 
#
# Total GULP energy -247849.678248 kJ/mol
# GULP energy per Si atom -12392.483912 kJ/mol
# Density = 1.751445 g / cm^3
# Si number density = 17.554403 Si / 1000 Ang^3
#
#
#
# Elastic Constant Matrix: (Units=GPa)
#
#
# Indices 1 2 3 4 5 6 
#
# 1 88.5786 32.0860 31.7105 0.0000 0.0000 0.0000
# 2 32.0860 52.7259 23.1874 0.0000 0.0000 0.0000
# 3 31.7105 23.1874 123.6845 0.0000 0.0000 0.0000
# 4 0.0000 0.0000 0.0000 30.6809 0.0000 0.0000
# 5 0.0000 0.0000 0.0000 0.0000 46.0053 0.0000
# 6 0.0000 0.0000 0.0000 0.0000 0.0000 22.8177
#
#
#
# Elastic Compliance Matrix: (Units=1/GPa)
#
#
# Indices 1 2 3 4 5 6 
#
# 1 0.015078 -0.008147 -0.002338 0.000000 0.000000 0.000000
# 2 -0.008147 0.025072 -0.002612 0.000000 0.000000 0.000000
# 3 -0.002338 -0.002612 0.009174 0.000000 0.000000 0.000000
# 4 0.000000 0.000000 0.000000 0.032594 0.000000 0.000000
# 5 0.000000 0.000000 0.000000 0.000000 0.021737 0.000000
# 6 0.000000 0.000000 0.000000 0.000000 0.000000 0.043826
#
#
# Mechanical properties :
#
#
# Convention : Reuss Voigt Hill
#
# Bulk Modulus (GPa) = 43.23343 48.77299 46.00321
# Shear Modulus (GPa) = 27.56582 31.76779 29.66681
#
# Velocity S-wave (km/s) = 3.96701 4.25864 4.11541
# Velocity P-wave (km/s) = 6.75756 7.21288 6.98893
#
# Compressibility (1/GPa) = 0.02313025
#
# Stress axis : x y z
#
# Youngs Moduli (GPa) = 66.32340 39.88450 109.00153
#
# Poissons Ratio (x) = 0.32494 0.25488
# Poissons Ratio (y) = 0.54034 0.28467
# Poissons Ratio (z) = 0.15508 0.10416
#
# Static dielectric constant tensor:
#      x y z
#    x -1.730030 0.000000 0.000000 
#    y 0.000000 2.436150 0.000000 
#    z 0.000000 0.000000 3.621000 
# 
# 
# High freq. dielectric constant tensor:
#      x y z
#    x 1.661540 0.000000 0.000000 
#    y 0.000000 1.629720 0.000000 
#    z 0.000000 0.000000 1.710680 
# 
# From -- ./inp_files/270.got.cif
#   From: 2010.03.12/outbox.cif.g09.slc.cpg/sg45_1_cif.got.tgz:270.got - 2010.04.14 02:50:11.
