data_PCOD8190837
_publ_section_title
;
Structure prediction by ZEFSAII (Michael W. Deem and Ramdas Pophale) SiO2 
 PCOD8190837
Probable space group: I B A 2
;
_chemical_formula_sum "Si O2"
_cell_formula_units_Z 60
_cell_length_a 9.014981
_cell_length_b 18.086488
_cell_length_c 16.856935
_cell_angle_alpha 90.000000
_cell_angle_beta 90.000000
_cell_angle_gamma 90.000000
_cell_volume 2748.512222
_symmetry_space_group_name_H-M "I B A 2"
_symmetry_group_IT_number 45
_symmetry_cell_setting 'orthorhombic'
loop_
_space_group_symop_operation_xyz
x,y,z
-x,-y,z
-x,y,1/2+z
x,-y,1/2+z
1/2+x,1/2+y,1/2+z
1/2-x,1/2-y,1/2+z
1/2-x,1/2+y,z
1/2+x,1/2-y,z
loop_
_atom_site_type_symbol
_atom_site_label
_atom_site_fract_x
_atom_site_fract_y
_atom_site_fract_z
Si Si1 0.254993 0.449285 0.674820
Si Si2 0.937609 0.740286 0.976370
Si Si3 0.846666 0.873525 0.321224
Si Si4 0.801602 0.708365 0.368240
Si Si5 0.018837 0.866029 0.097033
Si Si6 0.000000 0.500000 0.571214
Si Si7 0.733079 0.901672 0.489171
Si Si8 0.844964 0.105356 0.251854
O O1 0.238743 0.393310 0.748217
O O2 0.378288 0.418005 0.614445
O O3 0.293580 0.529220 0.711743
O O4 0.100457 0.449096 0.627864
O O5 0.860779 0.790756 0.908896
O O6 0.814947 0.682749 0.006113
O O7 0.073559 0.694393 0.935906
O O8 0.983879 0.790883 0.049891
O O9 0.844453 0.785337 0.327263
O O10 0.779594 0.913156 0.398458
O O11 0.011146 0.906835 0.307497
O O12 0.789346 0.643894 0.301381
O O13 0.100462 0.842343 0.179040
O O14 0.126995 0.917889 0.045023
O O15 0.900709 0.454022 0.511367
#
# Coordination Sequence:
#
# PCOD8190837 Si02
#       8
#     8   8   8   8   8   4   8   8
#     4  11  27  47  69 102 145 186 239 293 359 447
#     4  11  23  43  69 104 139 181 239 300 359 432
#     4  10  22  45  70  99 132 186 241 281 361 436
#     4  11  22  42  68 103 140 177 237 297 354 431
#     4  11  22  45  72  95 140 191 231 291 359 437
#     4  12  28  46  64 106 144 184 234 302 370 416
#     4  11  25  45  67 103 143 179 243 297 357 435
#     4  11  23  44  70 103 137 191 237 294 355 437
#
# _framework density 21.829992000000001
#
# number of rings (size 3 to 8) (size 9 to 14) (size 15 to 20)
#    0.000    1.067    5.333    1.600    1.867    6.933 
#    4.800    0.000    0.000    0.000    0.000    0.000 
#    0.000    0.000    0.000    0.000    0.000    0.000 
#
# Total GULP energy -371901.611926 kJ/mol
# GULP energy per Si atom -12396.720398 kJ/mol
# Density = 2.178031 g / cm^3
# Si number density = 21.829992 Si / 1000 Ang^3
#
#
#
# Elastic Constant Matrix: (Units=GPa)
#
#
# Indices 1 2 3 4 5 6 
#
# 1 103.5986 14.8091 69.2827 0.0000 0.0000 0.0000
# 2 14.8091 47.3993 45.3243 0.0000 0.0000 0.0000
# 3 69.2827 45.3243 134.5601 0.0000 0.0000 0.0000
# 4 0.0000 0.0000 0.0000 37.9988 0.0000 0.0000
# 5 0.0000 0.0000 0.0000 0.0000 40.6334 0.0000
# 6 0.0000 0.0000 0.0000 0.0000 0.0000 31.0580
#
#
#
# Elastic Compliance Matrix: (Units=1/GPa)
#
#
# Indices 1 2 3 4 5 6 
#
# 1 0.015229 0.004042 -0.009203 0.000000 0.000000 0.000000
# 2 0.004042 0.032194 -0.012925 0.000000 0.000000 0.000000
# 3 -0.009203 -0.012925 0.016523 0.000000 0.000000 0.000000
# 4 0.000000 0.000000 0.000000 0.026317 0.000000 0.000000
# 5 0.000000 0.000000 0.000000 0.000000 0.024610 0.000000
# 6 0.000000 0.000000 0.000000 0.000000 0.000000 0.032198
#
#
# Mechanical properties :
#
#
# Convention : Reuss Voigt Hill
#
# Bulk Modulus (GPa) = 36.00404 60.48778 48.24591
# Shear Modulus (GPa) = 25.97389 32.34751 29.16070
#
# Velocity S-wave (km/s) = 3.45313 3.85358 3.65884
# Velocity P-wave (km/s) = 5.69452 6.89702 6.32441
#
# Compressibility (1/GPa) = 0.02777466
#
# Stress axis : x y z
#
# Youngs Moduli (GPa) = 65.66301 31.06202 60.52011
#
# Poissons Ratio (x) = -0.12554 0.55695
# Poissons Ratio (y) = -0.26539 0.78221
# Poissons Ratio (z) = 0.60427 0.40147
#
# Static dielectric constant tensor:
#      x y z
#    x 4.073470 0.000000 0.000000 
#    y 0.000000 3.709670 0.000000 
#    z 0.000000 0.000000 4.210940 
# 
# 
# High freq. dielectric constant tensor:
#      x y z
#    x 1.863780 0.000000 0.000000 
#    y 0.000000 1.838380 0.000000 
#    z 0.000000 0.000000 1.872610 
# 
# From -- ./inp_files/7708.got.cif
#   From: 2010.03.12/outbox.cif.g09.slc.cpg/sg45_4_cif.got.tgz:7708.got - 2010.04.14 02:50:11.
