data_PCOD8190867
_publ_section_title
;
Structure prediction by ZEFSAII (Michael W. Deem and Ramdas Pophale) SiO2 
 PCOD8190867
Probable space group: I B A 2
;
_chemical_formula_sum "Si O2"
_cell_formula_units_Z 40
_cell_length_a 12.843580
_cell_length_b 5.168517
_cell_length_c 25.298528
_cell_angle_alpha 90.000000
_cell_angle_beta 90.000000
_cell_angle_gamma 90.000000
_cell_volume 1679.373503
_symmetry_space_group_name_H-M "I B A 2"
_symmetry_group_IT_number 45
_symmetry_cell_setting 'orthorhombic'
loop_
_space_group_symop_operation_xyz
x,y,z
-x,-y,z
-x,y,1/2+z
x,-y,1/2+z
1/2+x,1/2+y,1/2+z
1/2-x,1/2-y,1/2+z
1/2-x,1/2+y,z
1/2+x,1/2-y,z
loop_
_atom_site_type_symbol
_atom_site_label
_atom_site_fract_x
_atom_site_fract_y
_atom_site_fract_z
Si Si1 0.000000 0.000000 0.083030
Si Si2 0.000000 0.500000 0.151578
Si Si3 0.500000 0.500000 0.388279
Si Si4 0.293372 0.304026 0.040888
Si Si5 0.177147 0.447853 0.735624
Si Si6 0.710826 0.315573 0.923747
Si Si7 0.500000 0.000000 0.819687
O O1 0.030289 0.246905 0.117985
O O2 0.908939 0.087241 0.043616
O O3 0.897435 0.430542 0.184812
O O4 0.406476 0.416637 0.426861
O O5 0.470108 0.746960 0.353266
O O6 0.220074 0.524795 0.068949
O O7 0.257861 0.266223 0.980514
O O8 0.257104 0.210881 0.735538
O O9 0.102111 0.430168 0.786109
O O10 0.779830 0.538305 0.893668
#
# Coordination Sequence:
#
# PCOD8190867 Si02
#       7
#     4   4   4   8   8   8   4
#     4  12  24  42  68 100 140 174 228 295 328 403
#     4  11  26  42  66 105 134 176 232 275 346 413
#     4  12  24  42  68 100 140 174 228 295 328 403
#     4  10  23  42  64  93 128 174 225 273 341 397
#     4  11  24  45  70  96 140 183 218 279 348 416
#     4  10  23  42  64  93 128 174 225 273 341 397
#     4  11  26  42  66 105 134 176 232 275 346 413
#
# _framework density 23.818408000000002
#
# number of rings (size 3 to 8) (size 9 to 14) (size 15 to 20)
#    0.000    1.200    0.000    4.800    0.000   16.000 
#    0.000    8.000    0.000    0.000    0.000    0.000 
#    0.000    0.000    0.000    0.000    0.000    0.000 
#
# Total GULP energy -247790.916011 kJ/mol
# GULP energy per Si atom -12389.545801 kJ/mol
# Density = 2.376420 g / cm^3
# Si number density = 23.818408 Si / 1000 Ang^3
#
#
#
# Elastic Constant Matrix: (Units=GPa)
#
#
# Indices 1 2 3 4 5 6 
#
# 1 171.4709 63.9252 51.5332 0.0000 0.0000 0.0000
# 2 63.9252 219.4447 33.7702 0.0000 0.0000 0.0000
# 3 51.5332 33.7702 77.2170 0.0000 0.0000 0.0000
# 4 0.0000 0.0000 0.0000 43.9446 0.0000 0.0000
# 5 0.0000 0.0000 0.0000 0.0000 22.9295 0.0000
# 6 0.0000 0.0000 0.0000 0.0000 0.0000 56.2329
#
#
#
# Elastic Compliance Matrix: (Units=1/GPa)
#
#
# Indices 1 2 3 4 5 6 
#
# 1 0.007769 -0.001571 -0.004498 0.000000 0.000000 0.000000
# 2 -0.001571 0.005203 -0.001227 0.000000 0.000000 0.000000
# 3 -0.004498 -0.001227 0.016489 0.000000 0.000000 0.000000
# 4 0.000000 0.000000 0.000000 0.022756 0.000000 0.000000
# 5 0.000000 0.000000 0.000000 0.000000 0.043612 0.000000
# 6 0.000000 0.000000 0.000000 0.000000 0.000000 0.017783
#
#
# Mechanical properties :
#
#
# Convention : Reuss Voigt Hill
#
# Bulk Modulus (GPa) = 67.25234 85.17664 76.21449
# Shear Modulus (GPa) = 37.54818 45.88166 41.71492
#
# Velocity S-wave (km/s) = 3.97474 4.39374 4.18948
# Velocity P-wave (km/s) = 7.02577 7.84719 7.44782
#
# Compressibility (1/GPa) = 0.01486937
#
# Stress axis : x y z
#
# Youngs Moduli (GPa) = 128.70959 192.17955 60.64597
#
# Poissons Ratio (x) = 0.30193 0.27279
# Poissons Ratio (y) = 0.20221 0.07442
# Poissons Ratio (z) = 0.57895 0.23584
#
# Static dielectric constant tensor:
#      x y z
#    x 4.362150 0.000000 0.000000 
#    y 0.000000 -19.599890 0.000000 
#    z 0.000000 0.000000 4.606100 
# 
# 
# High freq. dielectric constant tensor:
#      x y z
#    x 1.956940 0.000000 0.000000 
#    y 0.000000 1.989860 0.000000 
#    z 0.000000 0.000000 1.919860 
# 
# From -- ./inp_files/9997.got.cif
#   From: 2010.03.12/outbox.cif.g09.slc.cpg/sg45_5_cif.got.tgz:9997.got - 2010.04.14 02:50:11.
