data_PCOD8190487
_publ_section_title
;
Structure prediction by ZEFSAII (Michael W. Deem and Ramdas Pophale) SiO2 
 PCOD8190487
Probable space group: I B A 2
;
_chemical_formula_sum "Si O2"
_cell_formula_units_Z 44
_cell_length_a 12.304142
_cell_length_b 22.971359
_cell_length_c 8.930522
_cell_angle_alpha 90.000000
_cell_angle_beta 90.000000
_cell_angle_gamma 90.000000
_cell_volume 2524.148307
_symmetry_space_group_name_H-M "I B A 2"
_symmetry_group_IT_number 45
_symmetry_cell_setting 'orthorhombic'
loop_
_space_group_symop_operation_xyz
x,y,z
-x,-y,z
-x,y,1/2+z
x,-y,1/2+z
1/2+x,1/2+y,1/2+z
1/2-x,1/2-y,1/2+z
1/2-x,1/2+y,z
1/2+x,1/2-y,z
loop_
_atom_site_type_symbol
_atom_site_label
_atom_site_fract_x
_atom_site_fract_y
_atom_site_fract_z
Si Si1 0.353690 0.666673 0.392500
Si Si2 0.409904 0.785902 0.222004
Si Si3 0.500000 0.500000 0.598972
Si Si4 0.382623 0.201144 0.379263
Si Si5 0.178258 0.180122 0.734147
Si Si6 0.455774 0.582243 0.848877
O O1 0.399046 0.722324 0.300433
O O2 0.222416 0.658024 0.371763
O O3 0.373445 0.674787 0.569367
O O4 0.420574 0.608664 0.344305
O O5 0.511149 0.822415 0.291392
O O6 0.307250 0.827874 0.246532
O O7 0.419779 0.778523 0.043701
O O8 0.429333 0.542019 0.704960
O O9 0.570191 0.542629 0.493249
O O10 0.347679 0.256112 0.285291
O O11 0.128574 0.134580 0.850590
#
# Coordination Sequence:
#
# PCOD8190487 Si02
#       6
#     8   8   4   8   8   8
#     4  10  20  33  52  73 108 141 169 210 261 304
#     4  10  20  32  48  78 108 142 174 200 246 328
#     4  10  24  34  56  74 102 126 188 218 264 302
#     4  10  20  32  48  78 108 142 174 200 246 328
#     4  10  20  33  52  73 108 141 169 210 261 304
#     4  11  20  38  52  80 100 136 168 225 262 306
#
# _framework density 17.431623999999999
#
# number of rings (size 3 to 8) (size 9 to 14) (size 15 to 20)
#    0.000    1.818    3.636    1.091    2.545    1.455 
#    0.000    0.000    0.000    0.000    0.000    7.636 
#    0.000    0.000    0.000    0.000    0.000    0.000 
#
# Total GULP energy -272544.519728 kJ/mol
# GULP energy per Si atom -12388.387260 kJ/mol
# Density = 1.739195 g / cm^3
# Si number density = 17.431624 Si / 1000 Ang^3
#
#
#
# Elastic Constant Matrix: (Units=GPa)
#
#
# Indices 1 2 3 4 5 6 
#
# 1 110.0482 26.7447 38.7161 -0.0001 0.0000 -0.0001
# 2 26.7447 58.1887 20.2175 -0.0004 -0.0001 -0.0010
# 3 38.7161 20.2175 89.5246 -0.0006 -0.0001 -0.0074
# 4 -0.0001 -0.0004 -0.0006 21.0606 -0.0001 -0.0018
# 5 0.0000 -0.0001 -0.0001 -0.0001 26.9796 -0.0007
# 6 -0.0001 -0.0010 -0.0074 -0.0018 -0.0007 -61.9147
#
#
#
# Elastic Compliance Matrix: (Units=1/GPa)
#
#
# Indices 1 2 3 4 5 6 
#
# 1 0.011460 -0.003847 -0.004087 0.000000 0.000000 0.000001
# 2 -0.003847 0.019940 -0.002839 0.000000 0.000000 0.000000
# 3 -0.004087 -0.002839 0.013579 0.000000 0.000000 -0.000002
# 4 0.000000 0.000000 0.000000 0.047482 0.000000 -0.000001
# 5 0.000000 0.000000 0.000000 0.000000 0.037065 0.000000
# 6 0.000001 0.000000 -0.000002 -0.000001 0.000000 -0.016151
#
#
# Mechanical properties :
#
#
# Convention : Reuss Voigt Hill
#
# Bulk Modulus (GPa) = 42.67742 47.67980 45.17861
# Shear Modulus (GPa) = 35.03059 8.69732 21.86396
#
# Velocity S-wave (km/s) = 4.48772 2.23612 3.54541
# Velocity P-wave (km/s) = 7.16859 5.83771 6.53711
#
# Compressibility (1/GPa) = 0.02343159
#
# Stress axis : x y z
#
# Youngs Moduli (GPa) = 87.26186 50.14997 73.64379
#
# Poissons Ratio (x) = 0.19293 0.30099
# Poissons Ratio (y) = 0.33570 0.20911
# Poissons Ratio (z) = 0.35665 0.14240
#
# Static dielectric constant tensor:
#      x y z
#    x 5.688270 0.000000 0.000010 
#    y 0.000000 3.066840 0.000000 
#    z 0.000010 0.000000 3.508340 
# 
# 
# High freq. dielectric constant tensor:
#      x y z
#    x 1.666430 0.000000 0.000000 
#    y 0.000000 1.630740 0.000000 
#    z 0.000000 0.000000 1.696730 
# 
# From -- ./inp_files/1328.got.cif
#   From: 2010.03.12/outbox.cif.g09.slc.cpg/sg45_1_cif.got.tgz:1328.got - 2010.04.14 02:50:11.
