data_PCOD8190024
_publ_section_title
;
Structure prediction by ZEFSAII (Michael W. Deem and Ramdas Pophale) SiO2 
 PCOD8190024
Probable space group: I M M 2
;
_chemical_formula_sum "Si O2"
_cell_formula_units_Z 64
_cell_length_a 8.897523
_cell_length_b 30.826377
_cell_length_c 12.026616
_cell_angle_alpha 90.000000
_cell_angle_beta 90.000000
_cell_angle_gamma 90.000000
_cell_volume 3298.640974
_symmetry_space_group_name_H-M "I M M 2"
_symmetry_group_IT_number 44
_symmetry_cell_setting 'orthorhombic'
loop_
_space_group_symop_operation_xyz
x,y,z
-x,-y,z
-x,y,z
x,-y,z
1/2+x,1/2+y,1/2+z
1/2-x,1/2-y,1/2+z
1/2-x,1/2+y,1/2+z
1/2+x,1/2-y,1/2+z
loop_
_atom_site_type_symbol
_atom_site_label
_atom_site_fract_x
_atom_site_fract_y
_atom_site_fract_z
Si Si1 0.822280 0.295892 0.307370
Si Si2 0.178806 0.568182 0.078753
Si Si3 0.823027 0.622356 0.450253
Si Si4 0.672367 0.451717 0.851690
Si Si5 0.172367 0.951717 0.805817
Si Si6 0.323027 0.122356 0.207255
Si Si7 0.677720 0.204108 0.350137
Si Si8 0.178176 0.666003 0.078753
O O1 0.771319 0.331816 0.397469
O O2 0.750000 0.250000 0.328753
O O3 0.759944 0.310321 0.187640
O O4 0.000000 0.290648 0.308340
O O5 0.242225 0.545998 0.188731
O O6 0.237408 0.617300 0.078753
O O7 0.000000 0.564008 0.078754
O O8 0.242225 0.545998 0.968776
O O9 0.744369 0.582289 0.390377
O O10 0.775429 0.622744 0.578754
O O11 0.000000 0.616180 0.433843
O O12 0.500000 0.438562 0.872097
O O13 0.684327 0.500000 0.798953
O O14 0.744369 0.417711 0.767131
O O15 0.000000 0.938562 0.785410
O O16 0.184328 0.000000 0.858554
O O17 0.500000 0.116181 0.223665
O O18 0.271319 0.168184 0.260039
O O19 0.500000 0.209353 0.349166
O O20 0.740055 0.189679 0.469867
O O21 0.000000 0.665638 0.078754
#
# Coordination Sequence:
#
# PCOD8190024 Si02
#       8
#     8   8   8   8   8   8   8   8
#     4  10  21  38  59  86 118 152 193 243 296 349
#     4  11  20  38  65  90 120 158 198 243 295 351
#     4  10  22  41  63  86 116 156 204 251 294 351
#     4  11  24  40  59  88 124 157 194 245 303 359
#     4  11  24  40  59  88 124 157 194 245 303 359
#     4  10  22  41  63  86 116 156 204 251 294 351
#     4  10  21  38  59  86 118 152 193 243 296 349
#     4   9  18  36  60  83 114 152 191 239 290 343
#
# _framework density 19.40193
#
# number of rings (size 3 to 8) (size 9 to 14) (size 15 to 20)
#    0.000    1.750    2.500    1.500    1.750    5.500 
#    0.000    2.500    0.000    0.000    0.000    0.000 
#    0.000    0.000    0.000    0.000    0.000    0.000 
#
# Total GULP energy -396822.212115 kJ/mol
# GULP energy per Si atom -12400.694129 kJ/mol
# Density = 1.935777 g / cm^3
# Si number density = 19.401930 Si / 1000 Ang^3
#
#
#
# Elastic Constant Matrix: (Units=GPa)
#
#
# Indices 1 2 3 4 5 6 
#
# 1 62.7354 49.8428 52.0786 0.0002 0.0003 0.0001
# 2 49.8428 170.2847 80.7277 0.0007 0.0000 0.0000
# 3 52.0786 80.7277 162.7625 0.0004 0.0003 -0.0001
# 4 0.0002 0.0007 0.0004 45.9163 0.0000 0.0001
# 5 0.0003 0.0000 0.0003 0.0000 22.1042 -0.0001
# 6 0.0001 0.0000 -0.0001 0.0001 -0.0001 37.2007
#
#
#
# Elastic Compliance Matrix: (Units=1/GPa)
#
#
# Indices 1 2 3 4 5 6 
#
# 1 0.024013 -0.004427 -0.005487 0.000000 0.000000 0.000000
# 2 -0.004427 0.008494 -0.002796 0.000000 0.000000 0.000000
# 3 -0.005487 -0.002796 0.009287 0.000000 0.000000 0.000000
# 4 0.000000 0.000000 0.000000 0.021779 0.000000 0.000000
# 5 0.000000 0.000000 0.000000 0.000000 0.045240 0.000000
# 6 0.000000 0.000000 0.000000 0.000000 0.000000 0.026881
#
#
# Mechanical properties :
#
#
# Convention : Reuss Voigt Hill
#
# Bulk Modulus (GPa) = 61.08199 84.56452 72.82326
# Shear Modulus (GPa) = 30.01697 35.25314 32.63506
#
# Velocity S-wave (km/s) = 3.93760 4.26724 4.10573
# Velocity P-wave (km/s) = 7.22660 8.24375 7.75187
#
# Compressibility (1/GPa) = 0.01637144
#
# Stress axis : x y z
#
# Youngs Moduli (GPa) = 41.64489 117.72966 107.68096
#
# Poissons Ratio (x) = 0.52120 0.59089
# Poissons Ratio (y) = 0.18436 0.30112
# Poissons Ratio (z) = 0.22852 0.32922
#
# Static dielectric constant tensor:
#      x y z
#    x 3.392750 0.000000 0.000000 
#    y 0.000000 3.697640 0.000000 
#    z 0.000000 0.000000 3.807140 
# 
# 
# High freq. dielectric constant tensor:
#      x y z
#    x 1.741290 0.000000 0.000000 
#    y 0.000000 1.772110 0.000000 
#    z 0.000000 0.000000 1.761270 
# 
# From -- ./inp_files/11548.got.cif
#   From: 2010.03.12/outbox.cif.g09.slc.cpg/sg44_6_cif.got.tgz:11548.got - 2010.04.14 02:36:11.
