data_PCOD8190704
_publ_section_title
;
Structure prediction by ZEFSAII (Michael W. Deem and Ramdas Pophale) SiO2 
 PCOD8190704
Probable space group: I B A 2
;
_chemical_formula_sum "Si O2"
_cell_formula_units_Z 48
_cell_length_a 13.985062
_cell_length_b 7.932484
_cell_length_c 16.771535
_cell_angle_alpha 90.000000
_cell_angle_beta 90.000000
_cell_angle_gamma 90.000000
_cell_volume 1860.571712
_symmetry_space_group_name_H-M "I B A 2"
_symmetry_group_IT_number 45
_symmetry_cell_setting 'orthorhombic'
loop_
_space_group_symop_operation_xyz
x,y,z
-x,-y,z
-x,y,1/2+z
x,-y,1/2+z
1/2+x,1/2+y,1/2+z
1/2-x,1/2-y,1/2+z
1/2-x,1/2+y,z
1/2+x,1/2-y,z
loop_
_atom_site_type_symbol
_atom_site_label
_atom_site_fract_x
_atom_site_fract_y
_atom_site_fract_z
Si Si1 0.783203 0.625014 0.046590
Si Si2 0.620997 0.813725 0.786002
Si Si3 0.871479 0.678582 0.466679
Si Si4 0.558959 0.330672 0.982817
Si Si5 0.566625 0.338075 0.801229
Si Si6 0.269838 0.493105 0.715930
O O1 0.771164 0.522482 0.127767
O O2 0.828299 0.505098 0.979315
O O3 0.678385 0.679229 0.020420
O O4 0.854692 0.790124 0.045613
O O5 0.641450 0.758560 0.876197
O O6 0.505140 0.815452 0.774215
O O7 0.677316 0.685174 0.725865
O O8 0.671544 0.994816 0.769365
O O9 0.983152 0.677609 0.489358
O O10 0.500000 0.500000 0.004194
O O11 0.602078 0.331116 0.892952
O O12 0.500000 0.500000 0.790829
O O13 0.658203 0.355118 0.743247
#
# Coordination Sequence:
#
# PCOD8190704 Si02
#       6
#     8   8   8   8   8   8
#     4  12  24  39  63 100 142 178 221 285 354 416
#     4  10  21  40  65  90 124 175 227 274 328 399
#     4  11  23  41  65  95 132 179 233 283 336 411
#     4  10  21  41  68  97 131 177 230 283 339 407
#     4   8  18  38  64  89 120 167 223 271 323 397
#     4  11  22  39  61  93 132 170 216 276 341 406
#
# _framework density 25.798521000000001
#
# number of rings (size 3 to 8) (size 9 to 14) (size 15 to 20)
#    0.000    1.667    0.000    5.500    0.000    1.333 
#    0.000    7.500    0.000    0.000    0.000    0.000 
#    0.000    0.000    0.000    0.000    0.000    0.000 
#
# Total GULP energy -297441.424040 kJ/mol
# GULP energy per Si atom -12393.392668 kJ/mol
# Density = 2.573980 g / cm^3
# Si number density = 25.798521 Si / 1000 Ang^3
#
#
#
# Elastic Constant Matrix: (Units=GPa)
#
#
# Indices 1 2 3 4 5 6 
#
# 1 112.5525 -10.4009 45.3070 0.0000 0.0000 0.0000
# 2 -10.4009 32.0731 3.3232 0.0000 0.0000 0.0000
# 3 45.3070 3.3232 96.7188 0.0000 0.0000 0.0000
# 4 0.0000 0.0000 0.0000 37.9773 0.0000 0.0000
# 5 0.0000 0.0000 0.0000 0.0000 30.2038 0.0000
# 6 0.0000 0.0000 0.0000 0.0000 0.0000 40.9837
#
#
#
# Elastic Compliance Matrix: (Units=1/GPa)
#
#
# Indices 1 2 3 4 5 6 
#
# 1 0.011513 0.004308 -0.005541 0.000000 0.000000 0.000000
# 2 0.004308 0.032902 -0.003148 0.000000 0.000000 0.000000
# 3 -0.005541 -0.003148 0.013043 0.000000 0.000000 0.000000
# 4 0.000000 0.000000 0.000000 0.026331 0.000000 0.000000
# 5 0.000000 0.000000 0.000000 0.000000 0.033108 0.000000
# 6 0.000000 0.000000 0.000000 0.000000 0.000000 0.024400
#
#
# Mechanical properties :
#
#
# Convention : Reuss Voigt Hill
#
# Bulk Modulus (GPa) = 20.53612 35.31143 27.92377
# Shear Modulus (GPa) = 30.06722 35.37398 32.72060
#
# Velocity S-wave (km/s) = 3.41759 3.70694 3.56520
# Velocity P-wave (km/s) = 4.85291 5.66030 5.27208
#
# Compressibility (1/GPa) = 0.04869470
#
# Stress axis : x y z
#
# Youngs Moduli (GPa) = 86.85491 30.39329 76.66813
#
# Poissons Ratio (x) = -0.13093 0.42485
# Poissons Ratio (y) = -0.37416 0.24138
# Poissons Ratio (z) = 0.48130 0.09569
#
# Static dielectric constant tensor:
#      x y z
#    x 5.364880 0.000000 0.000000 
#    y 0.000000 4.775700 0.000000 
#    z 0.000000 0.000000 4.217180 
# 
# 
# High freq. dielectric constant tensor:
#      x y z
#    x 2.052080 0.000000 0.000000 
#    y 0.000000 2.033280 0.000000 
#    z 0.000000 0.000000 2.001900 
# 
# From -- ./inp_files/8138.got.cif
#   From: 2010.03.12/outbox.cif.g09.slc.cpg/sg45_5_cif.got.tgz:8138.got - 2010.04.14 02:50:11.
