data_PCOD8190210
_publ_section_title
;
Structure prediction by ZEFSAII (Michael W. Deem and Ramdas Pophale) SiO2 
 PCOD8190210
Probable space group: I M M 2
;
_chemical_formula_sum "Si O2"
_cell_formula_units_Z 48
_cell_length_a 13.864738
_cell_length_b 16.518346
_cell_length_c 9.568229
_cell_angle_alpha 90.000000
_cell_angle_beta 90.000000
_cell_angle_gamma 90.000000
_cell_volume 2191.340104
_symmetry_space_group_name_H-M "I M M 2"
_symmetry_group_IT_number 44
_symmetry_cell_setting 'orthorhombic'
loop_
_space_group_symop_operation_xyz
x,y,z
-x,-y,z
-x,y,z
x,-y,z
1/2+x,1/2+y,1/2+z
1/2-x,1/2-y,1/2+z
1/2-x,1/2+y,1/2+z
1/2+x,1/2-y,1/2+z
loop_
_atom_site_type_symbol
_atom_site_label
_atom_site_fract_x
_atom_site_fract_y
_atom_site_fract_z
Si Si1 0.389523 0.167373 0.608190
Si Si2 0.109682 0.593680 0.810206
Si Si3 0.763441 0.822963 0.123150
Si Si4 0.387438 0.587684 0.826886
Si Si5 0.272541 0.905684 0.834325
Si Si6 0.606536 0.596314 0.129003
O O1 0.500000 0.201855 0.617120
O O2 0.378786 0.109257 0.474994
O O3 0.302347 0.232359 0.603787
O O4 0.369307 0.113669 0.746787
O O5 0.139153 0.500000 0.779334
O O6 0.174832 0.660015 0.729366
O O7 0.000000 0.608570 0.762046
O O8 0.856177 0.865519 0.189506
O O9 0.728471 0.856519 0.976292
O O10 0.500000 0.577133 0.819212
O O11 0.336355 0.500000 0.822047
O O12 0.361270 0.630743 0.975826
O O13 0.179721 0.875126 0.747092
O O14 0.267380 0.000000 0.869723
O O15 0.500000 0.628843 0.169628
O O16 0.604395 0.500000 0.115075
#
# Coordination Sequence:
#
# PCOD8190210 Si02
#       6
#     8   8   8   8   8   8
#     4  11  25  44  64  89 127 174 216 255 309 379
#     4  10  22  43  70  94 120 165 221 265 304 367
#     4  12  23  39  61  94 130 158 198 262 330 378
#     4   9  17  31  54  83 117 162 210 252 299 364
#     4  11  23  38  61  93 127 166 211 263 320 374
#     4   8  16  32  54  82 116 156 204 252 299 358
#
# _framework density 21.904406000000002
#
# number of rings (size 3 to 8) (size 9 to 14) (size 15 to 20)
#    0.000    1.833    0.000    5.500    0.000    4.333 
#    0.000    2.500    0.000    0.000    0.000    0.000 
#    0.000    0.000    0.000    0.000    0.000    0.000 
#
# Total GULP energy -297383.722051 kJ/mol
# GULP energy per Si atom -12390.988419 kJ/mol
# Density = 2.185455 g / cm^3
# Si number density = 21.904406 Si / 1000 Ang^3
#
#
#
# Elastic Constant Matrix: (Units=GPa)
#
#
# Indices 1 2 3 4 5 6 
#
# 1 104.1119 33.4828 36.3249 0.0000 0.0000 0.0000
# 2 33.4828 60.0866 6.7533 0.0000 0.0000 0.0000
# 3 36.3249 6.7533 115.5025 0.0000 0.0000 0.0000
# 4 0.0000 0.0000 0.0000 25.6005 0.0000 0.0000
# 5 0.0000 0.0000 0.0000 0.0000 34.9172 0.0000
# 6 0.0000 0.0000 0.0000 0.0000 0.0000 32.8560
#
#
#
# Elastic Compliance Matrix: (Units=1/GPa)
#
#
# Indices 1 2 3 4 5 6 
#
# 1 0.013121 -0.006893 -0.003723 0.000000 0.000000 0.000000
# 2 -0.006893 0.020374 0.000977 0.000000 0.000000 0.000000
# 3 -0.003723 0.000977 0.009772 0.000000 0.000000 0.000000
# 4 0.000000 0.000000 0.000000 0.039062 0.000000 0.000000
# 5 0.000000 0.000000 0.000000 0.000000 0.028639 0.000000
# 6 0.000000 0.000000 0.000000 0.000000 0.000000 0.030436
#
#
# Mechanical properties :
#
#
# Convention : Reuss Voigt Hill
#
# Bulk Modulus (GPa) = 41.68952 48.09144 44.89048
# Shear Modulus (GPa) = 29.64208 32.21741 30.92974
#
# Velocity S-wave (km/s) = 3.68264 3.83929 3.76178
# Velocity P-wave (km/s) = 6.09559 6.45417 6.27744
#
# Compressibility (1/GPa) = 0.02398684
#
# Stress axis : x y z
#
# Youngs Moduli (GPa) = 76.21351 49.08212 102.33607
#
# Poissons Ratio (x) = 0.33833 0.38104
# Poissons Ratio (y) = 0.52535 -0.09994
# Poissons Ratio (z) = 0.28378 -0.04793
#
# Static dielectric constant tensor:
#      x y z
#    x 4.144150 0.000000 0.000000 
#    y 0.000000 3.757830 0.000000 
#    z 0.000000 0.000000 4.053690 
# 
# 
# High freq. dielectric constant tensor:
#      x y z
#    x 1.873340 0.000000 0.000000 
#    y 0.000000 1.841830 0.000000 
#    z 0.000000 0.000000 1.863190 
# 
# From -- ./inp_files/7124.got.cif
#   From: 2010.03.12/outbox.cif.g09.slc.cpg/sg44_4_cif.got.tgz:7124.got - 2010.04.14 02:36:11.
