data_PCOD8190975
_publ_section_title
;
Structure prediction by ZEFSAII (Michael W. Deem and Ramdas Pophale) SiO2 
 PCOD8190975
Probable space group: I B A 2
;
_chemical_formula_sum "Si O2"
_cell_formula_units_Z 48
_cell_length_a 11.733565
_cell_length_b 8.523406
_cell_length_c 21.088514
_cell_angle_alpha 90.000000
_cell_angle_beta 90.000000
_cell_angle_gamma 90.000000
_cell_volume 2109.060984
_symmetry_space_group_name_H-M "I B A 2"
_symmetry_group_IT_number 45
_symmetry_cell_setting 'orthorhombic'
loop_
_space_group_symop_operation_xyz
x,y,z
-x,-y,z
-x,y,1/2+z
x,-y,1/2+z
1/2+x,1/2+y,1/2+z
1/2-x,1/2-y,1/2+z
1/2-x,1/2+y,z
1/2+x,1/2-y,z
loop_
_atom_site_type_symbol
_atom_site_label
_atom_site_fract_x
_atom_site_fract_y
_atom_site_fract_z
Si Si1 0.625310 0.568489 0.733500
Si Si2 0.867229 0.520726 0.429947
Si Si3 0.000000 0.500000 0.694437
Si Si4 0.622669 0.259886 0.112362
Si Si5 0.000000 0.000000 0.029907
Si Si6 0.713989 0.686077 0.001524
Si Si7 0.325527 0.099268 0.786522
O O1 0.500000 0.500000 0.727364
O O2 0.673301 0.618123 0.663972
O O3 0.630317 0.723194 0.777690
O O4 0.696718 0.425068 0.762719
O O5 0.809404 0.357080 0.449524
O O6 0.831443 0.643157 0.484359
O O7 0.828804 0.566337 0.360418
O O8 0.000000 0.500000 0.432425
O O9 0.959764 0.360427 0.649177
O O10 0.896429 0.528449 0.744515
O O11 0.532908 0.346498 0.068417
O O12 0.727913 0.186316 0.072070
O O13 0.887168 0.056925 0.992507
#
# Coordination Sequence:
#
# PCOD8190975 Si02
#       7
#     8   8   4   8   4   8   8
#     4  11  27  46  75 113 147 192 247 311 374 450
#     4  12  27  51  74 104 152 202 252 307 365 452
#     4  10  26  44  76 106 140 198 236 318 362 450
#     4  11  26  44  77 108 151 185 247 302 386 443
#     4  12  26  46  70 108 144 184 248 300 376 450
#     4  12  28  48  72 113 146 203 247 310 375 450
#     4  11  26  48  76 106 150 195 256 303 380 433
#
# _framework density 22.758942999999999
#
# number of rings (size 3 to 8) (size 9 to 14) (size 15 to 20)
#    0.000    0.667    3.333    2.000   15.167    1.333 
#    3.000    0.000    0.000    0.000    0.000    0.000 
#    0.000    0.000    0.000    0.000    0.000    0.000 
#
# Total GULP energy -297468.043494 kJ/mol
# GULP energy per Si atom -12394.501812 kJ/mol
# Density = 2.270714 g / cm^3
# Si number density = 22.758943 Si / 1000 Ang^3
#
#
#
# Elastic Constant Matrix: (Units=GPa)
#
#
# Indices 1 2 3 4 5 6 
#
# 1 103.4179 13.8570 38.4967 0.0000 0.0000 0.0000
# 2 13.8570 68.9423 30.0237 0.0000 0.0000 0.0000
# 3 38.4967 30.0237 122.3212 0.0000 0.0000 0.0000
# 4 0.0000 0.0000 0.0000 44.8603 0.0000 0.0000
# 5 0.0000 0.0000 0.0000 0.0000 30.6289 0.0000
# 6 0.0000 0.0000 0.0000 0.0000 0.0000 16.3324
#
#
#
# Elastic Compliance Matrix: (Units=1/GPa)
#
#
# Indices 1 2 3 4 5 6 
#
# 1 0.010991 -0.000787 -0.003266 0.000000 0.000000 0.000000
# 2 -0.000787 0.016297 -0.003753 0.000000 0.000000 0.000000
# 3 -0.003266 -0.003753 0.010124 0.000000 0.000000 0.000000
# 4 0.000000 0.000000 0.000000 0.022291 0.000000 0.000000
# 5 0.000000 0.000000 0.000000 0.000000 0.032649 0.000000
# 6 0.000000 0.000000 0.000000 0.000000 0.000000 0.061228
#
#
# Mechanical properties :
#
#
# Convention : Reuss Voigt Hill
#
# Bulk Modulus (GPa) = 45.86823 51.04847 48.45835
# Shear Modulus (GPa) = 28.33537 32.51790 30.42663
#
# Velocity S-wave (km/s) = 3.53231 3.78404 3.66034
# Velocity P-wave (km/s) = 6.06910 6.44754 6.26118
#
# Compressibility (1/GPa) = 0.02180158
#
# Stress axis : x y z
#
# Youngs Moduli (GPa) = 90.98674 61.36014 98.77451
#
# Poissons Ratio (x) = 0.04828 0.32258
# Poissons Ratio (y) = 0.07159 0.37065
# Poissons Ratio (z) = 0.29715 0.23026
#
# Static dielectric constant tensor:
#      x y z
#    x 4.301030 0.000000 0.000000 
#    y 0.000000 4.158760 0.000000 
#    z 0.000000 0.000000 4.263180 
# 
# 
# High freq. dielectric constant tensor:
#      x y z
#    x 1.911440 0.000000 0.000000 
#    y 0.000000 1.897600 0.000000 
#    z 0.000000 0.000000 1.900470 
# 
# From -- ./inp_files/9543.got.cif
#   From: 2010.03.12/outbox.cif.g09.slc.cpg/sg45_5_cif.got.tgz:9543.got - 2010.04.14 02:50:11.
