data_PCOD8190823
_publ_section_title
;
Structure prediction by ZEFSAII (Michael W. Deem and Ramdas Pophale) SiO2 
 PCOD8190823
Probable space group: I B A 2
;
_chemical_formula_sum "Si O2"
_cell_formula_units_Z 64
_cell_length_a 8.767087
_cell_length_b 24.666247
_cell_length_c 13.963023
_cell_angle_alpha 90.000000
_cell_angle_beta 90.000000
_cell_angle_gamma 90.000000
_cell_volume 3019.519550
_symmetry_space_group_name_H-M "I B A 2"
_symmetry_group_IT_number 45
_symmetry_cell_setting 'orthorhombic'
loop_
_space_group_symop_operation_xyz
x,y,z
-x,-y,z
-x,y,1/2+z
x,-y,1/2+z
1/2+x,1/2+y,1/2+z
1/2-x,1/2-y,1/2+z
1/2-x,1/2+y,z
1/2+x,1/2-y,z
loop_
_atom_site_type_symbol
_atom_site_label
_atom_site_fract_x
_atom_site_fract_y
_atom_site_fract_z
Si Si1 0.172895 0.514806 0.720260
Si Si2 0.865082 0.118852 0.828725
Si Si3 0.105096 0.900288 0.164269
Si Si4 0.349258 0.314750 0.011198
Si Si5 0.178709 0.005798 0.403870
Si Si6 0.936579 0.731803 0.082099
Si Si7 0.283053 0.825594 0.656151
Si Si8 0.817029 0.936592 0.085477
O O1 0.231712 0.569341 0.667248
O O2 0.214567 0.526503 0.829729
O O3 0.265515 0.461618 0.686965
O O4 0.000000 0.500000 0.698519
O O5 0.744065 0.150272 0.762211
O O6 0.017566 0.104759 0.766645
O O7 0.784442 0.068919 0.885545
O O8 0.913140 0.155822 0.917871
O O9 0.123322 0.842339 0.115305
O O10 0.001087 0.935045 0.089629
O O11 0.168321 0.303529 0.010543
O O12 0.443023 0.259417 0.011573
O O13 0.233587 0.978083 0.502598
O O14 0.000000 0.000000 0.383377
O O15 0.832527 0.775049 0.140280
O O16 0.039929 0.693201 0.151143
O O17 0.248330 0.874736 0.579485
#
# Coordination Sequence:
#
# PCOD8190823 Si02
#       8
#     8   8   8   8   8   8   8   8
#     4  12  25  39  60  98 135 165 215 273 333 407
#     4  11  22  40  72  97 129 176 235 275 339 412
#     4  11  22  43  67  95 131 183 224 271 341 411
#     4  11  23  42  68  99 130 174 226 281 341 406
#     4  12  22  40  67  94 127 173 226 262 322 421
#     4  10  23  43  67  96 132 173 230 282 342 396
#     4  10  22  43  68  95 135 176 223 284 340 396
#     4  11  22  42  67  92 131 178 217 270 332 399
#
# _framework density 21.195423000000002
#
# number of rings (size 3 to 8) (size 9 to 14) (size 15 to 20)
#    0.000    1.000    6.250    2.625    1.750    1.500 
#    2.250    0.000    0.000    0.000    0.000    0.000 
#    0.000    0.000    0.000    0.000    0.000    0.000 
#
# Total GULP energy -396441.232426 kJ/mol
# GULP energy per Si atom -12388.788513 kJ/mol
# Density = 2.114718 g / cm^3
# Si number density = 21.195423 Si / 1000 Ang^3
#
#
#
# Elastic Constant Matrix: (Units=GPa)
#
#
# Indices 1 2 3 4 5 6 
#
# 1 115.8398 37.9024 30.6401 -0.0001 0.0000 0.0000
# 2 37.9024 95.5406 56.2045 0.0000 0.0000 0.0000
# 3 30.6401 56.2045 101.6613 -0.0002 0.0000 0.0000
# 4 -0.0001 0.0000 -0.0002 33.4489 0.0000 0.0000
# 5 0.0000 0.0000 0.0000 0.0000 15.1355 0.0000
# 6 0.0000 0.0000 0.0000 0.0000 0.0000 32.2190
#
#
#
# Elastic Compliance Matrix: (Units=1/GPa)
#
#
# Indices 1 2 3 4 5 6 
#
# 1 0.010021 -0.003259 -0.001219 0.000000 0.000000 0.000000
# 2 -0.003259 0.016571 -0.008180 0.000000 0.000000 0.000000
# 3 -0.001219 -0.008180 0.014726 0.000000 0.000000 0.000000
# 4 0.000000 0.000000 0.000000 0.029896 0.000000 0.000000
# 5 0.000000 0.000000 0.000000 0.000000 0.066070 0.000000
# 6 0.000000 0.000000 0.000000 0.000000 0.000000 0.031038
#
#
# Mechanical properties :
#
#
# Convention : Reuss Voigt Hill
#
# Bulk Modulus (GPa) = 62.48124 62.50398 62.49261
# Shear Modulus (GPa) = 25.12932 28.71369 26.92150
#
# Velocity S-wave (km/s) = 3.44699 3.68463 3.56779
# Velocity P-wave (km/s) = 6.73684 6.90329 6.82057
#
# Compressibility (1/GPa) = 0.01600480
#
# Stress axis : x y z
#
# Youngs Moduli (GPa) = 99.78872 60.34527 67.90688
#
# Poissons Ratio (x) = 0.19664 0.08276
# Poissons Ratio (y) = 0.32517 0.55545
# Poissons Ratio (z) = 0.12162 0.49359
#
# Static dielectric constant tensor:
#      x y z
#    x 3.764200 0.000000 0.000000 
#    y 0.000000 4.072350 0.000000 
#    z 0.000000 0.000000 3.679700 
# 
# 
# High freq. dielectric constant tensor:
#      x y z
#    x 1.814330 0.000000 0.000000 
#    y 0.000000 1.844540 0.000000 
#    z 0.000000 0.000000 1.816670 
# 
# From -- ./inp_files/5875.got.cif
#   From: 2010.03.12/outbox.cif.g09.slc.cpg/sg45_3_cif.got.tgz:5875.got - 2010.04.14 02:50:11.
