data_PCOD8190104
_publ_section_title
;
Structure prediction by ZEFSAII (Michael W. Deem and Ramdas Pophale) SiO2 
 PCOD8190104
Probable space group: I M M 2
;
_chemical_formula_sum "Si O2"
_cell_formula_units_Z 40
_cell_length_a 11.640199
_cell_length_b 7.697426
_cell_length_c 22.154038
_cell_angle_alpha 90.000000
_cell_angle_beta 90.000000
_cell_angle_gamma 90.000000
_cell_volume 1984.992288
_symmetry_space_group_name_H-M "I M M 2"
_symmetry_group_IT_number 44
_symmetry_cell_setting 'orthorhombic'
loop_
_space_group_symop_operation_xyz
x,y,z
-x,-y,z
-x,y,z
x,-y,z
1/2+x,1/2+y,1/2+z
1/2-x,1/2-y,1/2+z
1/2-x,1/2+y,1/2+z
1/2+x,1/2-y,1/2+z
loop_
_atom_site_type_symbol
_atom_site_label
_atom_site_fract_x
_atom_site_fract_y
_atom_site_fract_z
Si Si1 0.287006 0.697050 0.317500
Si Si2 0.129402 0.796269 0.949895
Si Si3 0.635332 0.500000 0.772687
Si Si4 0.000000 0.799380 0.609549
Si Si5 0.500000 0.803398 0.243707
Si Si6 0.364934 0.500000 0.634304
Si Si7 0.744784 0.695792 0.064454
O O1 0.239376 0.500000 0.318249
O O2 0.338354 0.751464 0.381854
O O3 0.183107 0.825892 0.303170
O O4 0.386858 0.707583 0.267696
O O5 0.000000 0.729920 0.962344
O O6 0.137229 0.000000 0.961938
O O7 0.217914 0.702432 0.994647
O O8 0.500000 0.500000 0.780916
O O9 0.674638 0.500000 0.703343
O O10 0.000000 0.692402 0.671400
O O11 0.111091 0.750498 0.569589
O O12 0.000000 0.000000 0.627742
O O13 0.500000 0.000000 0.267896
O O14 0.500000 0.500000 0.627047
O O15 0.320112 0.325000 0.604041
O O16 0.763590 0.500000 0.088941
#
# Coordination Sequence:
#
# PCOD8190104 Si02
#       7
#     8   8   4   4   4   4   8
#     4  11  23  42  66  98 131 170 213 274 335 382
#     4  10  21  40  65  93 129 164 211 268 323 384
#     4  11  26  45  65  95 129 176 225 265 319 396
#     4  10  24  42  60  92 132 173 217 255 317 396
#     4  12  22  36  68 103 129 164 215 276 330 384
#     4  11  24  43  65  93 129 166 217 267 323 380
#     4  11  24  41  63  94 129 172 211 263 321 384
#
# _framework density 20.151209999999999
#
# number of rings (size 3 to 8) (size 9 to 14) (size 15 to 20)
#    0.000    1.200    3.000    2.700    2.800    4.400 
#    1.800    2.000    0.000    0.000    0.000    0.000 
#    0.000    0.000    0.000    0.000    0.000    0.000 
#
# Total GULP energy -248097.514594 kJ/mol
# GULP energy per Si atom -12404.875730 kJ/mol
# Density = 2.010535 g / cm^3
# Si number density = 20.151210 Si / 1000 Ang^3
#
#
#
# Elastic Constant Matrix: (Units=GPa)
#
#
# Indices 1 2 3 4 5 6 
#
# 1 98.8027 39.1201 71.7456 0.0000 0.0000 0.0000
# 2 39.1201 107.1059 41.6215 0.0000 0.0000 0.0000
# 3 71.7456 41.6215 121.8524 0.0000 0.0000 0.0000
# 4 0.0000 0.0000 0.0000 27.5143 0.0000 0.0000
# 5 0.0000 0.0000 0.0000 0.0000 38.3560 0.0000
# 6 0.0000 0.0000 0.0000 0.0000 0.0000 31.4331
#
#
#
# Elastic Compliance Matrix: (Units=1/GPa)
#
#
# Indices 1 2 3 4 5 6 
#
# 1 0.018430 -0.002899 -0.009861 0.000000 0.000000 0.000000
# 2 -0.002899 0.011222 -0.002126 0.000000 0.000000 0.000000
# 3 -0.009861 -0.002126 0.014739 0.000000 0.000000 0.000000
# 4 0.000000 0.000000 0.000000 0.036345 0.000000 0.000000
# 5 0.000000 0.000000 0.000000 0.000000 0.026072 0.000000
# 6 0.000000 0.000000 0.000000 0.000000 0.000000 0.031814
#
#
# Mechanical properties :
#
#
# Convention : Reuss Voigt Hill
#
# Bulk Modulus (GPa) = 68.40973 70.30394 69.35683
# Shear Modulus (GPa) = 28.85755 31.14558 30.00156
#
# Velocity S-wave (km/s) = 3.78835 3.93567 3.86271
# Velocity P-wave (km/s) = 7.29091 7.45765 7.37475
#
# Compressibility (1/GPa) = 0.01461780
#
# Stress axis : x y z
#
# Youngs Moduli (GPa) = 54.26044 89.11328 67.84831
#
# Poissons Ratio (x) = 0.25838 0.66904
# Poissons Ratio (y) = 0.15732 0.14424
# Poissons Ratio (z) = 0.53505 0.18944
#
# Static dielectric constant tensor:
#      x y z
#    x 3.715580 0.000000 0.000000 
#    y 0.000000 3.757150 0.000000 
#    z 0.000000 0.000000 3.739860 
# 
# 
# High freq. dielectric constant tensor:
#      x y z
#    x 1.783650 0.000000 0.000000 
#    y 0.000000 1.797960 0.000000 
#    z 0.000000 0.000000 1.789990 
# 
# From -- ./inp_files/23636.got.cif
#   From: 2010.03.12/outbox.cif.g09.slc.cpg/sg44_12_cif.got.tgz:23636.got - 2010.04.14 02:36:11.
