data_PCOD8190259
_publ_section_title
;
Structure prediction by ZEFSAII (Michael W. Deem and Ramdas Pophale) SiO2 
 PCOD8190259
Probable space group: I M M 2
;
_chemical_formula_sum "Si O2"
_cell_formula_units_Z 64
_cell_length_a 27.723177
_cell_length_b 8.471896
_cell_length_c 13.222793
_cell_angle_alpha 90.000000
_cell_angle_beta 90.000000
_cell_angle_gamma 90.000000
_cell_volume 3105.609258
_symmetry_space_group_name_H-M "I M M 2"
_symmetry_group_IT_number 44
_symmetry_cell_setting 'orthorhombic'
loop_
_space_group_symop_operation_xyz
x,y,z
-x,-y,z
-x,y,z
x,-y,z
1/2+x,1/2+y,1/2+z
1/2-x,1/2-y,1/2+z
1/2-x,1/2+y,1/2+z
1/2+x,1/2-y,1/2+z
loop_
_atom_site_type_symbol
_atom_site_label
_atom_site_fract_x
_atom_site_fract_y
_atom_site_fract_z
Si Si1 0.710176 0.817914 0.703710
Si Si2 0.554689 0.188194 0.933094
Si Si3 0.229816 0.318450 0.868108
Si Si4 0.622190 0.812081 0.112794
Si Si5 0.945536 0.688173 0.018357
Si Si6 0.898760 0.687699 0.225081
Si Si7 0.121733 0.687752 0.839148
Si Si8 0.727587 0.181956 0.050631
O O1 0.749402 0.704184 0.756169
O O2 0.656356 0.754553 0.721507
O O3 0.727336 0.790106 0.588748
O O4 0.714384 0.000000 0.735370
O O5 0.500000 0.249549 0.943159
O O6 0.576652 0.253472 0.827464
O O7 0.556436 0.000000 0.931772
O O8 0.584690 0.254630 0.029212
O O9 0.232524 0.500000 0.901251
O O10 0.175046 0.254945 0.869889
O O11 0.266342 0.207076 0.930968
O O12 0.608091 0.751755 0.225713
O O13 0.675708 0.751449 0.085421
O O14 0.621640 0.000000 0.108197
O O15 0.942780 0.500000 0.018699
O O16 0.925410 0.754323 0.125057
O O17 0.000000 0.748376 0.005363
O O18 0.915278 0.755373 0.922821
O O19 0.901297 0.500000 0.223243
O O20 0.120604 0.500000 0.837620
O O21 0.733203 0.000000 0.080328
#
# Coordination Sequence:
#
# PCOD8190259 Si02
#       8
#     8   8   8   8   8   8   8   8
#     4  11  21  34  53  78 107 145 184 217 264 323
#     4   9  16  26  43  67  98 137 174 210 262 325
#     4  11  21  35  53  76 108 145 180 221 269 321
#     4   9  17  30  46  67 100 138 171 212 268 319
#     4   9  16  26  43  67  98 137 174 210 262 325
#     4   9  17  29  44  69 104 137 171 216 268 317
#     4   9  17  30  46  67 100 138 171 212 268 319
#     4  11  21  35  53  76 108 145 180 221 269 321
#
# _framework density 20.607873999999999
#
# number of rings (size 3 to 8) (size 9 to 14) (size 15 to 20)
#    0.000    2.250    1.250    3.000    0.000    6.000 
#    0.000    2.500    0.000    0.000    0.000    0.000 
#    0.000   53.000    0.000    0.000    0.000    0.000 
#
# Total GULP energy -396663.240230 kJ/mol
# GULP energy per Si atom -12395.726257 kJ/mol
# Density = 2.056097 g / cm^3
# Si number density = 20.607874 Si / 1000 Ang^3
#
#
#
# Elastic Constant Matrix: (Units=GPa)
#
#
# Indices 1 2 3 4 5 6 
#
# 1 178.6103 23.5248 86.8186 0.0000 0.0000 0.0000
# 2 23.5248 18.5078 13.8323 0.0000 0.0000 0.0000
# 3 86.8186 13.8323 158.5721 0.0000 0.0000 0.0000
# 4 0.0000 0.0000 0.0000 20.0106 0.0000 0.0000
# 5 0.0000 0.0000 0.0000 0.0000 45.4315 0.0000
# 6 0.0000 0.0000 0.0000 0.0000 0.0000 17.3300
#
#
#
# Elastic Compliance Matrix: (Units=1/GPa)
#
#
# Indices 1 2 3 4 5 6 
#
# 1 0.008593 -0.007923 -0.004014 0.000000 0.000000 0.000000
# 2 -0.007923 0.065105 -0.001341 0.000000 0.000000 0.000000
# 3 -0.004014 -0.001341 0.008621 0.000000 0.000000 0.000000
# 4 0.000000 0.000000 0.000000 0.049973 0.000000 0.000000
# 5 0.000000 0.000000 0.000000 0.000000 0.022011 0.000000
# 6 0.000000 0.000000 0.000000 0.000000 0.000000 0.057703
#
#
# Mechanical properties :
#
#
# Convention : Reuss Voigt Hill
#
# Bulk Modulus (GPa) = 17.93313 67.11575 42.52444
# Shear Modulus (GPa) = 19.44390 31.98872 25.71631
#
# Velocity S-wave (km/s) = 3.07501 3.94414 3.53638
# Velocity P-wave (km/s) = 4.61828 7.30619 6.11183
#
# Compressibility (1/GPa) = 0.05576272
#
# Stress axis : x y z
#
# Youngs Moduli (GPa) = 116.36963 15.35991 115.99845
#
# Poissons Ratio (x) = 0.12170 0.46559
# Poissons Ratio (y) = 0.92199 0.15558
# Poissons Ratio (z) = 0.46708 0.02060
#
# Static dielectric constant tensor:
#      x y z
#    x 3.821970 0.000000 0.000000 
#    y 0.000000 2.898580 0.000000 
#    z 0.000000 0.000000 4.007080 
# 
# 
# High freq. dielectric constant tensor:
#      x y z
#    x 1.809860 0.000000 0.000000 
#    y 0.000000 1.733590 0.000000 
#    z 0.000000 0.000000 1.829400 
# 
# From -- ./inp_files/15032.got.cif
#   From: 2010.03.12/outbox.cif.g09.slc.cpg/sg44_8_cif.got.tgz:15032.got - 2010.04.14 02:36:11.
