data_PCOD8190007
_publ_section_title
;
Structure prediction by ZEFSAII (Michael W. Deem and Ramdas Pophale) SiO2 
 PCOD8190007
Probable space group: I M M 2
;
_chemical_formula_sum "Si O2"
_cell_formula_units_Z 64
_cell_length_a 22.840630
_cell_length_b 15.452706
_cell_length_c 9.074746
_cell_angle_alpha 90.000000
_cell_angle_beta 90.000000
_cell_angle_gamma 90.000000
_cell_volume 3202.927429
_symmetry_space_group_name_H-M "I M M 2"
_symmetry_group_IT_number 44
_symmetry_cell_setting 'orthorhombic'
loop_
_space_group_symop_operation_xyz
x,y,z
-x,-y,z
-x,y,z
x,-y,z
1/2+x,1/2+y,1/2+z
1/2-x,1/2-y,1/2+z
1/2-x,1/2+y,1/2+z
1/2+x,1/2-y,1/2+z
loop_
_atom_site_type_symbol
_atom_site_label
_atom_site_fract_x
_atom_site_fract_y
_atom_site_fract_z
Si Si1 0.895155 0.095430 0.900850
Si Si2 0.270739 0.353144 0.312789
Si Si3 0.845544 0.402451 0.793775
Si Si4 0.159596 0.406954 0.454212
Si Si5 0.251141 0.682498 0.974536
Si Si6 0.434260 0.756606 0.247121
Si Si7 0.933488 0.904563 0.215421
Si Si8 0.119188 0.224654 0.434686
O O1 0.832785 0.099576 0.818091
O O2 0.937524 0.172142 0.849166
O O3 0.921616 0.000000 0.864778
O O4 0.889579 0.105856 0.077513
O O5 0.221030 0.417134 0.371318
O O6 0.277105 0.272152 0.422436
O O7 0.251694 0.323377 0.150287
O O8 0.869307 0.500000 0.818433
O O9 0.826011 0.387928 0.625082
O O10 0.789351 0.391145 0.900546
O O11 0.897557 0.333720 0.825533
O O12 0.126395 0.500000 0.436175
O O13 0.122815 0.326580 0.386911
O O14 0.318029 0.677889 0.919041
O O15 0.500000 0.790887 0.217993
O O16 0.404163 0.722496 0.099496
O O17 0.924470 0.827862 0.331741
O O18 0.000000 0.897133 0.157759
O O19 0.923481 0.000000 0.288149
#
# Coordination Sequence:
#
# PCOD8190007 Si02
#       8
#     8   8   8   8   8   8   8   8
#     4  11  23  39  60  85 116 155 201 247 301 363
#     4  11  21  36  59  88 122 158 197 243 301 377
#     4  10  22  40  61  90 124 160 206 256 310 369
#     4   9  20  36  57  88 123 159 196 245 304 364
#     4  11  21  37  59  89 125 157 199 250 312 366
#     4  11  22  41  63  87 122 162 209 258 304 361
#     4  10  23  41  59  84 117 157 206 253 303 365
#     4  10  21  37  62  88 119 160 201 251 305 371
#
# _framework density 19.981719999999999
#
# number of rings (size 3 to 8) (size 9 to 14) (size 15 to 20)
#    0.000    1.625    2.500    2.625    5.250    3.000 
#    0.000    0.000    0.000    1.125    0.000    0.000 
#    0.000    0.000    0.000    0.000    0.000    0.000 
#
# Total GULP energy -396618.032129 kJ/mol
# GULP energy per Si atom -12394.313504 kJ/mol
# Density = 1.993624 g / cm^3
# Si number density = 19.981720 Si / 1000 Ang^3
#
#
#
# Elastic Constant Matrix: (Units=GPa)
#
#
# Indices 1 2 3 4 5 6 
#
# 1 85.1454 45.4589 24.8242 0.0000 0.0000 0.0000
# 2 45.4589 153.4311 58.6199 0.0000 0.0000 0.0000
# 3 24.8242 58.6199 78.9763 0.0000 0.0000 0.0000
# 4 0.0000 0.0000 0.0000 27.8910 0.0000 0.0000
# 5 0.0000 0.0000 0.0000 0.0000 26.1021 0.0000
# 6 0.0000 0.0000 0.0000 0.0000 0.0000 19.8309
#
#
#
# Elastic Compliance Matrix: (Units=1/GPa)
#
#
# Indices 1 2 3 4 5 6 
#
# 1 0.014145 -0.003479 -0.001864 0.000000 0.000000 0.000000
# 2 -0.003479 0.009953 -0.006294 0.000000 0.000000 0.000000
# 3 -0.001864 -0.006294 0.017920 0.000000 0.000000 0.000000
# 4 0.000000 0.000000 0.000000 0.035854 0.000000 0.000000
# 5 0.000000 0.000000 0.000000 0.000000 0.038311 0.000000
# 6 0.000000 0.000000 0.000000 0.000000 0.000000 0.050426
#
#
# Mechanical properties :
#
#
# Convention : Reuss Voigt Hill
#
# Bulk Modulus (GPa) = 53.35013 63.92875 58.63944
# Shear Modulus (GPa) = 25.49309 27.34146 26.41728
#
# Velocity S-wave (km/s) = 3.57574 3.70310 3.63998
# Velocity P-wave (km/s) = 6.61856 7.09556 6.86121
#
# Compressibility (1/GPa) = 0.01874410
#
# Stress axis : x y z
#
# Youngs Moduli (GPa) = 70.69418 100.47184 55.80433
#
# Poissons Ratio (x) = 0.34953 0.10402
# Poissons Ratio (y) = 0.24593 0.35124
# Poissons Ratio (z) = 0.13178 0.63238
#
# Static dielectric constant tensor:
#      x y z
#    x 3.467190 0.000000 0.000000 
#    y 0.000000 3.791360 0.000000 
#    z 0.000000 0.000000 3.497520 
# 
# 
# High freq. dielectric constant tensor:
#      x y z
#    x 1.762380 0.000000 0.000000 
#    y 0.000000 1.790720 0.000000 
#    z 0.000000 0.000000 1.767940 
# 
# From -- ./inp_files/9453.got.cif
#   From: 2010.03.12/outbox.cif.g09.slc.cpg/sg44_5_cif.got.tgz:9453.got - 2010.04.14 02:36:11.
