data_PCOD8190581
_publ_section_title
;
Structure prediction by ZEFSAII (Michael W. Deem and Ramdas Pophale) SiO2 
 PCOD8190581
Probable space group: I B A 2
;
_chemical_formula_sum "Si O2"
_cell_formula_units_Z 36
_cell_length_a 20.809558
_cell_length_b 7.295452
_cell_length_c 12.776424
_cell_angle_alpha 90.000000
_cell_angle_beta 90.000000
_cell_angle_gamma 90.000000
_cell_volume 1939.654490
_symmetry_space_group_name_H-M "I B A 2"
_symmetry_group_IT_number 45
_symmetry_cell_setting 'orthorhombic'
loop_
_space_group_symop_operation_xyz
x,y,z
-x,-y,z
-x,y,1/2+z
x,-y,1/2+z
1/2+x,1/2+y,1/2+z
1/2-x,1/2-y,1/2+z
1/2-x,1/2+y,z
1/2+x,1/2-y,z
loop_
_atom_site_type_symbol
_atom_site_label
_atom_site_fract_x
_atom_site_fract_y
_atom_site_fract_z
Si Si1 0.337891 0.460713 0.543610
Si Si2 0.000000 0.500000 0.020880
Si Si3 0.891449 0.298486 0.150844
Si Si4 0.196289 0.570439 0.547102
Si Si5 0.397598 0.794835 0.896247
O O1 0.382685 0.588211 0.614943
O O2 0.271149 0.562896 0.518146
O O3 0.321137 0.267258 0.601439
O O4 0.376420 0.409387 0.436346
O O5 0.048558 0.609644 0.094477
O O6 0.034756 0.351005 0.947826
O O7 0.826221 0.410047 0.125057
O O8 0.904451 0.298676 0.273160
O O9 0.156749 0.559902 0.436886
#
# Coordination Sequence:
#
# PCOD8190581 Si02
#       5
#     8   4   8   8   8
#     4  10  20  40  58  92 120 149 192 243 293 356
#     4  10  22  42  60  84 124 150 204 256 278 340
#     4  11  20  41  63  81 123 155 195 246 291 347
#     4   9  20  39  58  90 123 144 192 247 291 352
#     4   9  22  38  59  91 109 164 195 232 305 340
#
# _framework density 18.560006000000001
#
# number of rings (size 3 to 8) (size 9 to 14) (size 15 to 20)
#    1.333    0.889    2.222    0.667    0.000    2.667 
#    8.000    2.222    0.000    0.000    0.000    0.000 
#    0.000    0.000    0.000    0.000    0.000    0.000 
#
# Total GULP energy -222996.014611 kJ/mol
# GULP energy per Si atom -12388.667478 kJ/mol
# Density = 1.851776 g / cm^3
# Si number density = 18.560006 Si / 1000 Ang^3
#
#
#
# Elastic Constant Matrix: (Units=GPa)
#
#
# Indices 1 2 3 4 5 6 
#
# 1 116.0646 41.2800 61.7890 0.0000 0.0000 0.0000
# 2 41.2800 115.0714 55.7599 0.0000 0.0000 0.0000
# 3 61.7890 55.7599 155.7654 0.0000 0.0000 0.0000
# 4 0.0000 0.0000 0.0000 26.7080 0.0000 0.0000
# 5 0.0000 0.0000 0.0000 0.0000 11.8299 0.0000
# 6 0.0000 0.0000 0.0000 0.0000 0.0000 34.1080
#
#
#
# Elastic Compliance Matrix: (Units=1/GPa)
#
#
# Indices 1 2 3 4 5 6 
#
# 1 0.011403 -0.002297 -0.003701 0.000000 0.000000 0.000000
# 2 -0.002297 0.010977 -0.003018 0.000000 0.000000 0.000000
# 3 -0.003701 -0.003018 0.008968 0.000000 0.000000 0.000000
# 4 0.000000 0.000000 0.000000 0.037442 0.000000 0.000000
# 5 0.000000 0.000000 0.000000 0.000000 0.084531 0.000000
# 6 0.000000 0.000000 0.000000 0.000000 0.000000 0.029319
#
#
# Mechanical properties :
#
#
# Convention : Reuss Voigt Hill
#
# Bulk Modulus (GPa) = 75.10001 78.28434 76.69218
# Shear Modulus (GPa) = 24.37690 29.73403 27.05546
#
# Velocity S-wave (km/s) = 3.62803 4.00690 3.82216
# Velocity P-wave (km/s) = 7.62242 7.97983 7.80317
#
# Compressibility (1/GPa) = 0.01331558
#
# Stress axis : x y z
#
# Youngs Moduli (GPa) = 87.69398 91.10061 111.50186
#
# Poissons Ratio (x) = 0.20929 0.41268
# Poissons Ratio (y) = 0.20146 0.33653
# Poissons Ratio (z) = 0.32456 0.27495
#
# Static dielectric constant tensor:
#      x y z
#    x 3.463950 0.000000 0.000000 
#    y 0.000000 3.461710 0.000000 
#    z 0.000000 0.000000 3.020350 
# 
# 
# High freq. dielectric constant tensor:
#      x y z
#    x 1.730650 0.000000 0.000000 
#    y 0.000000 1.721710 0.000000 
#    z 0.000000 0.000000 1.686060 
# 
# From -- ./inp_files/3192.got.cif
#   From: 2010.03.12/outbox.cif.g09.slc.cpg/sg45_2_cif.got.tgz:3192.got - 2010.04.14 02:50:11.
