data_PCOD8191382
_publ_section_title
;
Structure prediction by ZEFSAII (Michael W. Deem and Ramdas Pophale) SiO2 
 PCOD8191382
Probable space group: I M A 2
;
_chemical_formula_sum "Si O2"
_cell_formula_units_Z 64
_cell_length_a 15.946936
_cell_length_b 9.479978
_cell_length_c 22.259099
_cell_angle_alpha 90.000000
_cell_angle_beta 90.000000
_cell_angle_gamma 90.000000
_cell_volume 3365.054960
_symmetry_space_group_name_H-M "I M A 2"
_symmetry_group_IT_number 46
_symmetry_cell_setting 'orthorhombic'
loop_
_space_group_symop_operation_xyz
x,y,z
-x,-y,z
1/2-x,y,z
1/2+x,-y,z
1/2+x,1/2+y,1/2+z
1/2-x,1/2-y,1/2+z
-x,1/2+y,1/2+z
x,1/2-y,1/2+z
loop_
_atom_site_type_symbol
_atom_site_label
_atom_site_fract_x
_atom_site_fract_y
_atom_site_fract_z
Si Si1 0.849080 0.628007 0.127540
Si Si2 0.081310 0.082184 0.314768
Si Si3 0.078552 0.593918 0.217706
Si Si4 0.030756 0.351986 0.683502
Si Si5 0.848473 0.107916 0.848304
Si Si6 0.344357 0.613140 0.898821
Si Si7 0.848579 0.810875 0.892332
Si Si8 0.151377 0.398267 0.992886
O O1 0.750000 0.660267 0.129882
O O2 0.868366 0.488786 0.166862
O O3 0.898525 0.768877 0.146665
O O4 0.883440 0.599091 0.060319
O O5 0.157785 0.985835 0.339004
O O6 0.077427 0.097794 0.243753
O O7 0.093357 0.236599 0.342488
O O8 0.000000 0.000000 0.340272
O O9 0.130892 0.607661 0.278070
O O10 0.000000 0.500000 0.234960
O O11 0.049009 0.748763 0.195003
O O12 0.000000 0.500000 0.652126
O O13 0.750000 0.126809 0.851083
O O14 0.891609 0.240664 0.882493
O O15 0.876895 0.972495 0.886427
O O16 0.250000 0.646554 0.917945
O O17 0.388236 0.527993 0.954060
O O18 0.750000 0.792343 0.876441
O O19 0.868419 0.749691 0.958732
O O20 0.250000 0.420122 0.995320
#
# Coordination Sequence:
#
# PCOD8191382 Si02
#       8
#     8   8   8   8   8   8   8   8
#     4  10  20  36  58  78  99 137 188 224 251 307
#     4  10  18  30  48  71  97 132 169 199 242 306
#     4  10  20  34  52  74 106 142 172 211 263 314
#     4  10  21  36  53  75 109 143 171 214 273 318
#     4  10  18  29  50  80 106 128 162 208 258 311
#     4   9  18  32  51  75 104 133 162 204 256 307
#     4   9  17  30  50  75 103 130 161 208 259 302
#     4   8  16  33  53  72  96 131 173 212 251 299
#
# _framework density 19.019006000000001
#
# number of rings (size 3 to 8) (size 9 to 14) (size 15 to 20)
#    0.000    2.500    0.000    4.500    0.000    2.000 
#    0.000   10.000    0.000    6.750    0.000    0.000 
#    0.000    0.000    0.000    0.000    0.000    0.000 
#
# Total GULP energy -396442.239124 kJ/mol
# GULP energy per Si atom -12388.819973 kJ/mol
# Density = 1.897572 g / cm^3
# Si number density = 19.019006 Si / 1000 Ang^3
#
#
#
# Elastic Constant Matrix: (Units=GPa)
#
#
# Indices 1 2 3 4 5 6 
#
# 1 35.0927 33.2624 27.5892 0.0000 0.0000 0.0000
# 2 33.2624 179.9523 78.0682 0.0000 0.0000 0.0000
# 3 27.5892 78.0682 134.4661 0.0000 0.0000 0.0000
# 4 0.0000 0.0000 0.0000 19.5484 0.0000 0.0000
# 5 0.0000 0.0000 0.0000 0.0000 13.8588 0.0000
# 6 0.0000 0.0000 0.0000 0.0000 0.0000 26.1414
#
#
#
# Elastic Compliance Matrix: (Units=1/GPa)
#
#
# Indices 1 2 3 4 5 6 
#
# 1 0.036733 -0.004705 -0.004805 0.000000 0.000000 0.000000
# 2 -0.004705 0.008031 -0.003697 0.000000 0.000000 0.000000
# 3 -0.004805 -0.003697 0.010569 0.000000 0.000000 0.000000
# 4 0.000000 0.000000 0.000000 0.051155 0.000000 0.000000
# 5 0.000000 0.000000 0.000000 0.000000 0.072156 0.000000
# 6 0.000000 0.000000 0.000000 0.000000 0.000000 0.038254
#
#
# Mechanical properties :
#
#
# Convention : Reuss Voigt Hill
#
# Bulk Modulus (GPa) = 34.57984 69.70562 52.14273
# Shear Modulus (GPa) = 19.76659 25.94914 22.85786
#
# Velocity S-wave (km/s) = 3.22733 3.69776 3.47052
# Velocity P-wave (km/s) = 5.66645 7.41359 6.59811
#
# Compressibility (1/GPa) = 0.02891858
#
# Stress axis : x y z
#
# Youngs Moduli (GPa) = 27.22312 124.52367 94.61544
#
# Poissons Ratio (x) = 0.58591 0.45463
# Poissons Ratio (y) = 0.12809 0.34979
# Poissons Ratio (z) = 0.13081 0.46036
#
# Static dielectric constant tensor:
#      x y z
#    x 3.358610 0.000000 0.000000 
#    y 0.000000 3.956600 0.000000 
#    z 0.000000 0.000000 3.544640 
# 
# 
# High freq. dielectric constant tensor:
#      x y z
#    x 1.723750 0.000000 0.000000 
#    y 0.000000 1.752020 0.000000 
#    z 0.000000 0.000000 1.720090 
# 
# From -- ./inp_files/23806.got.cif
#   From: 2010.03.12/outbox.cif.g09.slc.cpg/sg46_12_cif.got.tgz:23806.got - 2010.04.14 02:56:35.
