data_PCOD8191077
_publ_section_title
;
Structure prediction by ZEFSAII (Michael W. Deem and Ramdas Pophale) SiO2 
 PCOD8191077
Probable space group: I B A 2
;
_chemical_formula_sum "Si O2"
_cell_formula_units_Z 28
_cell_length_a 4.730379
_cell_length_b 11.072946
_cell_length_c 20.994935
_cell_angle_alpha 90.000000
_cell_angle_beta 90.000000
_cell_angle_gamma 90.000000
_cell_volume 1099.698555
_symmetry_space_group_name_H-M "I B A 2"
_symmetry_group_IT_number 45
_symmetry_cell_setting 'orthorhombic'
loop_
_space_group_symop_operation_xyz
x,y,z
-x,-y,z
-x,y,1/2+z
x,-y,1/2+z
1/2+x,1/2+y,1/2+z
1/2-x,1/2-y,1/2+z
1/2-x,1/2+y,z
1/2+x,1/2-y,z
loop_
_atom_site_type_symbol
_atom_site_label
_atom_site_fract_x
_atom_site_fract_y
_atom_site_fract_z
Si Si1 0.500000 0.000000 0.786211
Si Si2 0.000000 0.500000 0.999667
Si Si3 0.351886 0.334784 0.089032
Si Si4 0.500000 0.500000 0.700223
Si Si5 0.218572 0.329482 0.393130
O O1 0.750201 0.056597 0.743333
O O2 0.359499 0.103108 0.828741
O O3 0.752393 0.561439 0.041193
O O4 0.158281 0.597163 0.956628
O O5 0.672170 0.288396 0.079390
O O6 0.350880 0.394272 0.159040
O O7 0.050895 0.201653 0.394428
#
# Coordination Sequence:
#
# PCOD8191077 Si02
#       5
#     4   4   8   4   8
#     4  11  25  44  70 100 139 181 234 292 348 415
#     4  11  25  46  70 104 143 179 234 294 350 423
#     4  12  26  44  70 101 139 187 231 284 350 413
#     4  12  26  46  68 102 142 184 236 292 342 418
#     4  11  25  44  71 102 136 182 231 289 354 415
#
# _framework density 25.461521000000001
#
# number of rings (size 3 to 8) (size 9 to 14) (size 15 to 20)
#    0.000    0.571    0.000    7.714    0.000   14.857 
#    0.000    0.000    0.000    0.000    0.000    0.000 
#    0.000    0.000    0.000    0.000    0.000    0.000 
#
# Total GULP energy -173653.125062 kJ/mol
# GULP energy per Si atom -12403.794647 kJ/mol
# Density = 2.540357 g / cm^3
# Si number density = 25.461521 Si / 1000 Ang^3
#
#
#
# Elastic Constant Matrix: (Units=GPa)
#
#
# Indices 1 2 3 4 5 6 
#
# 1 100.6803 21.4705 46.7373 0.0000 0.0000 0.0000
# 2 21.4705 98.3488 46.4733 0.0000 0.0000 0.0000
# 3 46.7373 46.4733 160.1344 0.0000 0.0000 0.0000
# 4 0.0000 0.0000 0.0000 -21.2869 0.0000 0.0000
# 5 0.0000 0.0000 0.0000 0.0000 42.0712 0.0000
# 6 0.0000 0.0000 0.0000 0.0000 0.0000 43.5328
#
#
#
# Elastic Compliance Matrix: (Units=1/GPa)
#
#
# Indices 1 2 3 4 5 6 
#
# 1 0.011587 -0.001080 -0.003069 0.000000 0.000000 0.000000
# 2 -0.001080 0.011884 -0.003134 0.000000 0.000000 0.000000
# 3 -0.003069 -0.003134 0.008050 0.000000 0.000000 0.000000
# 4 0.000000 0.000000 0.000000 -0.046977 0.000000 0.000000
# 5 0.000000 0.000000 0.000000 0.000000 0.023769 0.000000
# 6 0.000000 0.000000 0.000000 0.000000 0.000000 0.022971
#
#
# Mechanical properties :
#
#
# Convention : Reuss Voigt Hill
#
# Bulk Modulus (GPa) = 58.97164 65.39174 62.18169
# Shear Modulus (GPa) = 97.08495 29.16224 63.12360
#
# Velocity S-wave (km/s) = 6.18165 3.38797 4.98453
# Velocity P-wave (km/s) = 8.61173 6.40646 7.58962
#
# Compressibility (1/GPa) = 0.01695730
#
# Stress axis : x y z
#
# Youngs Moduli (GPa) = 86.30277 84.14333 124.22566
#
# Poissons Ratio (x) = 0.09084 0.38119
# Poissons Ratio (y) = 0.09317 0.38932
# Poissons Ratio (z) = 0.26482 0.26370
#
# Static dielectric constant tensor:
#      x y z
#    x 4.751890 0.000000 0.000000 
#    y 0.000000 4.457790 0.000000 
#    z 0.000000 0.000000 4.760340 
# 
# 
# High freq. dielectric constant tensor:
#      x y z
#    x 2.035790 0.000000 0.000000 
#    y 0.000000 2.012470 0.000000 
#    z 0.000000 0.000000 2.031440 
# 
# From -- ./inp_files/7203.got.cif
#   From: 2010.03.12/outbox.cif.g09.slc.cpg/sg45_4_cif.got.tgz:7203.got - 2010.04.14 02:50:11.
