data_PCOD8191971
_publ_section_title
;
Structure prediction by ZEFSAII (Michael W. Deem and Ramdas Pophale) SiO2 
 PCOD8191971
Probable space group: I M A 2
;
_chemical_formula_sum "Si O2"
_cell_formula_units_Z 64
_cell_length_a 15.460710
_cell_length_b 9.447204
_cell_length_c 21.835917
_cell_angle_alpha 90.000000
_cell_angle_beta 90.000000
_cell_angle_gamma 90.000000
_cell_volume 3189.364548
_symmetry_space_group_name_H-M "I M A 2"
_symmetry_group_IT_number 46
_symmetry_cell_setting 'orthorhombic'
loop_
_space_group_symop_operation_xyz
x,y,z
-x,-y,z
1/2-x,y,z
1/2+x,-y,z
1/2+x,1/2+y,1/2+z
1/2-x,1/2-y,1/2+z
-x,1/2+y,1/2+z
x,1/2-y,1/2+z
loop_
_atom_site_type_symbol
_atom_site_label
_atom_site_fract_x
_atom_site_fract_y
_atom_site_fract_z
Si Si1 0.906263 0.558547 0.364830
Si Si2 0.649455 0.425879 0.003835
Si Si3 0.652941 0.907456 0.063865
Si Si4 0.652334 0.709222 0.951395
Si Si5 0.528116 0.844166 0.174929
Si Si6 0.850086 0.368793 0.470779
Si Si7 0.347599 0.126978 0.733440
Si Si8 0.082886 0.589522 0.137402
O O1 0.908294 0.704433 0.404068
O O2 0.860255 0.438326 0.404793
O O3 0.852519 0.579058 0.303482
O O4 0.000000 0.500000 0.347772
O O5 0.750000 0.440189 0.989460
O O6 0.640680 0.413353 0.076929
O O7 0.607538 0.558512 0.967571
O O8 0.607204 0.286349 0.972896
O O9 0.750000 0.939708 0.089524
O O10 0.588355 0.866692 0.116896
O O11 0.659269 0.778291 0.017716
O O12 0.610606 0.038357 0.026275
O O13 0.750000 0.701083 0.923349
O O14 0.585244 0.756650 0.224014
O O15 0.443612 0.749807 0.157579
O O16 0.500000 0.000000 0.200456
O O17 0.750000 0.355640 0.486241
O O18 0.250000 0.178234 0.719137
O O19 0.367917 0.989350 0.692422
O O20 0.000000 0.500000 0.119079
#
# Coordination Sequence:
#
# PCOD8191971 Si02
#       8
#     8   8   8   8   8   8   8   8
#     4  11  22  38  59  81 106 141 190 239 283 332
#     4  10  19  33  54  83 118 149 183 229 280 335
#     4   9  17  32  54  81 116 159 197 224 269 343
#     4   9  18  33  54  80 111 147 186 226 271 330
#     4  11  22  36  57  87 122 148 183 243 300 343
#     4   9  19  34  54  82 115 151 190 229 274 337
#     4  11  23  43  65  80 106 154 203 236 279 350
#     4  10  21  35  56  86 117 151 192 236 284 336
#
# _framework density 20.066693999999998
#
# number of rings (size 3 to 8) (size 9 to 14) (size 15 to 20)
#    0.000    2.000    0.000    6.000    0.000    6.000 
#    0.000    4.375    0.000    0.000    0.000    0.000 
#    0.000    0.000    0.000    0.000    0.000    0.000 
#
# Total GULP energy -396592.896485 kJ/mol
# GULP energy per Si atom -12393.528015 kJ/mol
# Density = 2.002102 g / cm^3
# Si number density = 20.066694 Si / 1000 Ang^3
#
#
#
# Elastic Constant Matrix: (Units=GPa)
#
#
# Indices 1 2 3 4 5 6 
#
# 1 54.8807 25.7386 19.4659 0.0000 0.0000 0.0000
# 2 25.7386 165.0492 52.0566 0.0000 0.0000 0.0000
# 3 19.4659 52.0566 108.7460 0.0000 0.0000 0.0000
# 4 0.0000 0.0000 0.0000 12.9549 0.0000 0.0000
# 5 0.0000 0.0000 0.0000 0.0000 16.2666 0.0000
# 6 0.0000 0.0000 0.0000 0.0000 0.0000 24.3213
#
#
#
# Elastic Compliance Matrix: (Units=1/GPa)
#
#
# Indices 1 2 3 4 5 6 
#
# 1 0.020213 -0.002369 -0.002484 0.000000 0.000000 0.000000
# 2 -0.002369 0.007414 -0.003125 0.000000 0.000000 0.000000
# 3 -0.002484 -0.003125 0.011136 0.000000 0.000000 0.000000
# 4 0.000000 0.000000 0.000000 0.077191 0.000000 0.000000
# 5 0.000000 0.000000 0.000000 0.000000 0.061476 0.000000
# 6 0.000000 0.000000 0.000000 0.000000 0.000000 0.041116
#
#
# Mechanical properties :
#
#
# Convention : Reuss Voigt Hill
#
# Bulk Modulus (GPa) = 43.84511 58.13315 50.98913
# Shear Modulus (GPa) = 20.65221 26.13621 23.39421
#
# Velocity S-wave (km/s) = 3.21156 3.61289 3.41812
# Velocity P-wave (km/s) = 5.97070 6.81445 6.40648
#
# Compressibility (1/GPa) = 0.02280756
#
# Stress axis : x y z
#
# Youngs Moduli (GPa) = 49.47215 134.88371 89.79571
#
# Poissons Ratio (x) = 0.31948 0.22309
# Poissons Ratio (y) = 0.11718 0.28061
# Poissons Ratio (z) = 0.12291 0.42151
#
# Static dielectric constant tensor:
#      x y z
#    x 3.678610 0.000000 0.000000 
#    y 0.000000 4.267480 0.000000 
#    z 0.000000 0.000000 3.363780 
# 
# 
# High freq. dielectric constant tensor:
#      x y z
#    x 1.776120 0.000000 0.000000 
#    y 0.000000 1.792760 0.000000 
#    z 0.000000 0.000000 1.761830 
# 
# From -- ./inp_files/23641.got.cif
#   From: 2010.03.12/outbox.cif.g09.slc.cpg/sg46_12_cif.got.tgz:23641.got - 2010.04.14 02:56:35.
