data_PCOD8191745
_publ_section_title
;
Structure prediction by ZEFSAII (Michael W. Deem and Ramdas Pophale) SiO2 
 PCOD8191745
Probable space group: I M A 2
;
_chemical_formula_sum "Si O2"
_cell_formula_units_Z 44
_cell_length_a 17.259067
_cell_length_b 26.137891
_cell_length_c 5.147543
_cell_angle_alpha 90.000000
_cell_angle_beta 90.000000
_cell_angle_gamma 90.000000
_cell_volume 2322.137011
_symmetry_space_group_name_H-M "I M A 2"
_symmetry_group_IT_number 46
_symmetry_cell_setting 'orthorhombic'
loop_
_space_group_symop_operation_xyz
x,y,z
-x,-y,z
1/2-x,y,z
1/2+x,-y,z
1/2+x,1/2+y,1/2+z
1/2-x,1/2-y,1/2+z
-x,1/2+y,1/2+z
x,1/2-y,1/2+z
loop_
_atom_site_type_symbol
_atom_site_label
_atom_site_fract_x
_atom_site_fract_y
_atom_site_fract_z
Si Si1 0.835047 0.466793 0.305640
Si Si2 0.162759 0.654433 0.297382
Si Si3 0.075666 0.531234 0.808533
Si Si4 0.583397 0.783989 0.259681
Si Si5 0.068397 0.847766 0.300733
Si Si6 0.250000 0.218120 0.354397
O O1 0.750000 0.490218 0.261050
O O2 0.831217 0.406145 0.283495
O O3 0.862633 0.483558 0.588851
O O4 0.892034 0.488078 0.084468
O O5 0.250000 0.677644 0.299814
O O6 0.116391 0.671895 0.552395
O O7 0.115329 0.674061 0.047652
O O8 0.058832 0.591406 0.806391
O O9 0.000000 0.500000 0.740633
O O10 0.574938 0.739131 0.472082
O O11 0.518220 0.826386 0.300524
O O12 0.668707 0.811179 0.292933
O O13 0.250000 0.233030 0.658361
#
# Coordination Sequence:
#
# PCOD8191745 Si02
#       6
#     8   8   8   8   8   4
#     4   9  17  30  49  70  94 127 171 207 231 279
#     4   9  17  30  49  73  97 127 169 202 232 282
#     4  10  19  31  49  75 100 131 161 203 249 298
#     4  10  19  33  53  75  97 126 166 208 244 296
#     4  10  19  31  51  75  98 130 163 205 250 287
#     4   8  16  30  50  72  90 118 160 200 240 286
#
# _framework density 18.948063999999999
#
# number of rings (size 3 to 8) (size 9 to 14) (size 15 to 20)
#    0.000    2.545    0.000    2.727    0.000    4.364 
#    0.000    0.000    4.000   10.909    4.727    0.000 
#    0.000    0.000    0.000    0.000    0.000    0.000 
#
# Total GULP energy -272702.782868 kJ/mol
# GULP energy per Si atom -12395.581039 kJ/mol
# Density = 1.890494 g / cm^3
# Si number density = 18.948064 Si / 1000 Ang^3
#
#
#
# Elastic Constant Matrix: (Units=GPa)
#
#
# Indices 1 2 3 4 5 6 
#
# 1 181.4864 34.3784 49.0982 0.0000 0.0000 0.0000
# 2 34.3784 19.1600 16.5700 0.0000 0.0000 0.0000
# 3 49.0982 16.5700 128.4535 0.0000 0.0002 -0.0001
# 4 0.0000 0.0000 0.0000 10.4870 0.0000 0.0000
# 5 0.0000 0.0000 0.0002 0.0000 25.7387 0.0000
# 6 0.0000 0.0000 -0.0001 0.0000 0.0000 22.2953
#
#
#
# Elastic Compliance Matrix: (Units=1/GPa)
#
#
# Indices 1 2 3 4 5 6 
#
# 1 0.008583 -0.014140 -0.001456 0.000000 0.000000 0.000000
# 2 -0.014140 0.082042 -0.005178 0.000000 0.000000 0.000000
# 3 -0.001456 -0.005178 0.009010 0.000000 0.000000 0.000000
# 4 0.000000 0.000000 0.000000 0.095356 0.000000 0.000000
# 5 0.000000 0.000000 0.000000 0.000000 0.038852 0.000000
# 6 0.000000 0.000000 0.000000 0.000000 0.000000 0.044853
#
#
# Mechanical properties :
#
#
# Convention : Reuss Voigt Hill
#
# Bulk Modulus (GPa) = 17.21642 58.79923 38.00782
# Shear Modulus (GPa) = 14.72297 26.97442 20.84870
#
# Velocity S-wave (km/s) = 2.79053 3.77715 3.32069
# Velocity P-wave (km/s) = 4.41458 7.07967 5.89959
#
# Compressibility (1/GPa) = 0.05808410
#
# Stress axis : x y z
#
# Youngs Moduli (GPa) = 116.51518 12.18893 110.99253
#
# Poissons Ratio (x) = 0.17235 0.16166
# Poissons Ratio (y) = 1.64752 0.57477
# Poissons Ratio (z) = 0.16970 0.06312
#
# Static dielectric constant tensor:
#      x y z
#    x 3.830570 0.000000 0.000000 
#    y 0.000000 2.814610 0.000000 
#    z 0.000000 0.000000 3.763640 
# 
# 
# High freq. dielectric constant tensor:
#      x y z
#    x 1.759660 0.000000 0.000000 
#    y 0.000000 1.662610 0.000000 
#    z 0.000000 0.000000 1.760840 
# 
# From -- ./inp_files/1274.got.cif
#   From: 2010.03.12/outbox.cif.g09.slc.cpg/sg46_1_cif.got.tgz:1274.got - 2010.04.14 02:56:35.
