data_PCOD8191992
_publ_section_title
;
Structure prediction by ZEFSAII (Michael W. Deem and Ramdas Pophale) SiO2 
 PCOD8191992
Probable space group: I M A 2
;
_chemical_formula_sum "Si O2"
_cell_formula_units_Z 56
_cell_length_a 8.642817
_cell_length_b 14.586290
_cell_length_c 22.122576
_cell_angle_alpha 90.000000
_cell_angle_beta 90.000000
_cell_angle_gamma 90.000000
_cell_volume 2788.918718
_symmetry_space_group_name_H-M "I M A 2"
_symmetry_group_IT_number 46
_symmetry_cell_setting 'orthorhombic'
loop_
_space_group_symop_operation_xyz
x,y,z
-x,-y,z
1/2-x,y,z
1/2+x,-y,z
1/2+x,1/2+y,1/2+z
1/2-x,1/2-y,1/2+z
-x,1/2+y,1/2+z
x,1/2-y,1/2+z
loop_
_atom_site_type_symbol
_atom_site_label
_atom_site_fract_x
_atom_site_fract_y
_atom_site_fract_z
Si Si1 0.066103 0.785449 0.515510
Si Si2 0.933168 0.783421 0.291992
Si Si3 0.566412 0.404370 0.692119
Si Si4 0.067364 0.594712 0.124574
Si Si5 0.434131 0.898492 0.401118
Si Si6 0.933718 0.402819 0.261780
Si Si7 0.931719 0.406913 0.553360
O O1 0.250000 0.788864 0.514510
O O2 0.006081 0.827952 0.578720
O O3 0.000936 0.840854 0.458297
O O4 0.008533 0.679801 0.514197
O O5 0.750000 0.785677 0.297452
O O6 0.988856 0.820015 0.227006
O O7 0.007656 0.849240 0.341379
O O8 0.994039 0.679531 0.301173
O O9 0.500000 0.500000 0.718227
O O10 0.750000 0.400674 0.700996
O O11 0.515508 0.393858 0.622614
O O12 0.250000 0.588219 0.123622
O O13 0.010729 0.614051 0.192715
O O14 0.000000 0.500000 0.099991
O O15 0.250000 0.902991 0.400389
O O16 0.500000 0.000000 0.405168
O O17 0.750000 0.402665 0.268895
O O18 0.000000 0.500000 0.285287
O O19 0.750000 0.414897 0.550199
O O20 0.000000 0.500000 0.525201
#
# Coordination Sequence:
#
# PCOD8191992 Si02
#       7
#     8   8   8   8   8   8   8
#     4   9  18  34  56  79 107 145 182 218 267 324
#     4  12  24  38  56  79 109 146 190 232 274 325
#     4  10  19  33  55  83 115 147 181 224 276 332
#     4   9  17  31  53  82 113 143 175 215 266 324
#     4  11  23  40  60  81 108 142 182 227 275 326
#     4  10  20  36  58  85 116 147 181 223 273 326
#     4   9  18  34  55  81 111 142 177 219 269 325
#
# _framework density 20.079466
#
# number of rings (size 3 to 8) (size 9 to 14) (size 15 to 20)
#    0.000    2.000    0.000    4.286    0.000    3.429 
#    0.000    3.571    0.000    1.714    0.000    0.000 
#    0.000    0.000    0.000    0.000    0.000    0.000 
#
# Total GULP energy -347209.421652 kJ/mol
# GULP energy per Si atom -12400.336488 kJ/mol
# Density = 2.003376 g / cm^3
# Si number density = 20.079466 Si / 1000 Ang^3
#
#
#
# Elastic Constant Matrix: (Units=GPa)
#
#
# Indices 1 2 3 4 5 6 
#
# 1 65.3353 40.6221 24.4241 0.0000 0.0000 0.0000
# 2 40.6221 191.9030 59.0395 0.0000 0.0000 0.0000
# 3 24.4241 59.0395 63.8741 0.0000 0.0000 0.0000
# 4 0.0000 0.0000 0.0000 34.2840 0.0000 0.0000
# 5 0.0000 0.0000 0.0000 0.0000 15.3689 0.0000
# 6 0.0000 0.0000 0.0000 0.0000 0.0000 37.8582
#
#
#
# Elastic Compliance Matrix: (Units=1/GPa)
#
#
# Indices 1 2 3 4 5 6 
#
# 1 0.018648 -0.002451 -0.004866 0.000000 0.000000 0.000000
# 2 -0.002451 0.007604 -0.006091 0.000000 0.000000 0.000000
# 3 -0.004866 -0.006091 0.023146 0.000000 0.000000 0.000000
# 4 0.000000 0.000000 0.000000 0.029168 0.000000 0.000000
# 5 0.000000 0.000000 0.000000 0.000000 0.065067 0.000000
# 6 0.000000 0.000000 0.000000 0.000000 0.000000 0.026414
#
#
# Mechanical properties :
#
#
# Convention : Reuss Voigt Hill
#
# Bulk Modulus (GPa) = 44.27974 63.25378 53.76676
# Shear Modulus (GPa) = 24.46308 30.63733 27.55021
#
# Velocity S-wave (km/s) = 3.49422 3.91039 3.70815
# Velocity P-wave (km/s) = 6.19512 7.20821 6.72078
#
# Compressibility (1/GPa) = 0.02258369
#
# Stress axis : x y z
#
# Youngs Moduli (GPa) = 53.62458 131.51603 43.20337
#
# Poissons Ratio (x) = 0.32228 0.21021
# Poissons Ratio (y) = 0.13141 0.26316
# Poissons Ratio (z) = 0.26092 0.80108
#
# Static dielectric constant tensor:
#      x y z
#    x 3.479560 0.000000 0.000000 
#    y 0.000000 3.959330 0.000000 
#    z 0.000000 0.000000 3.624220 
# 
# 
# High freq. dielectric constant tensor:
#      x y z
#    x 1.770510 0.000000 0.000000 
#    y 0.000000 1.803240 0.000000 
#    z 0.000000 0.000000 1.762440 
# 
# From -- ./inp_files/21087.got.cif
#   From: 2010.03.12/outbox.cif.g09.slc.cpg/sg46_11_cif.got.tgz:21087.got - 2010.04.14 02:56:35.
