data_PCOD8191669
_publ_section_title
;
Structure prediction by ZEFSAII (Michael W. Deem and Ramdas Pophale) SiO2 
 PCOD8191669
Probable space group: I M A 2
;
_chemical_formula_sum "Si O2"
_cell_formula_units_Z 64
_cell_length_a 9.029977
_cell_length_b 26.520349
_cell_length_c 18.202200
_cell_angle_alpha 90.000000
_cell_angle_beta 90.000000
_cell_angle_gamma 90.000000
_cell_volume 4359.029027
_symmetry_space_group_name_H-M "I M A 2"
_symmetry_group_IT_number 46
_symmetry_cell_setting 'orthorhombic'
loop_
_space_group_symop_operation_xyz
x,y,z
-x,-y,z
1/2-x,y,z
1/2+x,-y,z
1/2+x,1/2+y,1/2+z
1/2-x,1/2-y,1/2+z
-x,1/2+y,1/2+z
x,1/2-y,1/2+z
loop_
_atom_site_type_symbol
_atom_site_label
_atom_site_fract_x
_atom_site_fract_y
_atom_site_fract_z
Si Si1 0.574904 0.051627 0.232380
Si Si2 0.077084 0.550526 0.563912
Si Si3 0.421386 0.293936 0.365022
Si Si4 0.417877 0.243972 0.220127
Si Si5 0.075088 0.144604 0.309227
Si Si6 0.921937 0.198939 0.429704
Si Si7 0.925563 0.350381 0.478891
Si Si8 0.079081 0.746008 0.570121
O O1 0.750000 0.048415 0.244329
O O2 0.532220 0.062091 0.147831
O O3 0.508339 0.095902 0.280743
O O4 0.500000 0.000000 0.259334
O O5 0.250000 0.541651 0.557286
O O6 0.024461 0.597016 0.514311
O O7 0.000000 0.500000 0.534563
O O8 0.250000 0.284530 0.387713
O O9 0.434855 0.291279 0.276447
O O10 0.530111 0.251824 0.396075
O O11 0.485300 0.345414 0.401174
O O12 0.250000 0.236731 0.195617
O O13 0.471629 0.192274 0.259028
O O14 0.507167 0.257091 0.147899
O O15 0.250000 0.135735 0.309867
O O16 0.019798 0.154707 0.392983
O O17 0.750000 0.188982 0.412299
O O18 0.948976 0.205243 0.517479
O O19 0.750000 0.347925 0.464806
O O20 0.980334 0.305746 0.533351
O O21 0.250000 0.737935 0.585548
#
# Coordination Sequence:
#
# PCOD8191669 Si02
#       8
#     8   8   8   8   8   8   8   8
#     4  10  19  31  45  61  83 111 140 175 211 243
#     4   9  18  30  43  60  83 109 141 176 210 245
#     4   9  17  28  40  58  81 106 137 171 204 243
#     4   9  18  28  39  58  84 109 136 169 203 240
#     4  10  19  30  43  61  83 110 143 174 205 246
#     4   9  17  29  42  58  80 107 137 170 205 242
#     4   9  17  29  42  58  80 108 140 172 204 243
#     4   9  17  27  41  60  81 106 139 171 202 242
#
# _framework density 14.682168000000001
#
# number of rings (size 3 to 8) (size 9 to 14) (size 15 to 20)
#    0.000    2.750    0.000    3.750    0.000    7.500 
#    0.000    0.000    0.000    0.000    0.000    0.000 
#    0.000    1.000    0.000    9.000    0.000    6.750 
#
# Total GULP energy -396603.137310 kJ/mol
# GULP energy per Si atom -12393.848041 kJ/mol
# Density = 1.464875 g / cm^3
# Si number density = 14.682168 Si / 1000 Ang^3
#
#
#
# Elastic Constant Matrix: (Units=GPa)
#
#
# Indices 1 2 3 4 5 6 
#
# 1 55.6408 34.8530 43.4054 0.0000 0.0000 0.0000
# 2 34.8530 87.7058 53.0557 0.0000 0.0000 0.0000
# 3 43.4054 53.0557 92.1071 -0.0001 -0.0001 0.0000
# 4 0.0000 0.0000 -0.0001 23.4733 0.0000 0.0000
# 5 0.0000 0.0000 -0.0001 0.0000 26.7937 0.0000
# 6 0.0000 0.0000 0.0000 0.0000 0.0000 24.4287
#
#
#
# Elastic Compliance Matrix: (Units=1/GPa)
#
#
# Indices 1 2 3 4 5 6 
#
# 1 0.029861 -0.005148 -0.011107 0.000000 0.000000 0.000000
# 2 -0.005148 0.018387 -0.008165 0.000000 0.000000 0.000000
# 3 -0.011107 -0.008165 0.020795 0.000000 0.000000 0.000000
# 4 0.000000 0.000000 0.000000 0.042602 0.000000 0.000000
# 5 0.000000 0.000000 0.000000 0.000000 0.037322 0.000000
# 6 0.000000 0.000000 0.000000 0.000000 0.000000 0.040935
#
#
# Mechanical properties :
#
#
# Convention : Reuss Voigt Hill
#
# Bulk Modulus (GPa) = 49.49823 55.34244 52.42034
# Shear Modulus (GPa) = 20.36856 21.88179 21.12517
#
# Velocity S-wave (km/s) = 3.72869 3.86471 3.79731
# Velocity P-wave (km/s) = 7.23352 7.59540 7.41667
#
# Compressibility (1/GPa) = 0.02020274
#
# Stress axis : x y z
#
# Youngs Moduli (GPa) = 33.48799 54.38683 48.08934
#
# Poissons Ratio (x) = 0.27996 0.53413
# Poissons Ratio (y) = 0.17238 0.39267
# Poissons Ratio (z) = 0.37196 0.44409
#
# Static dielectric constant tensor:
#      x y z
#    x 2.918620 0.000000 0.000000 
#    y 0.000000 2.762400 0.000000 
#    z 0.000000 0.000000 2.980290 
# 
# 
# High freq. dielectric constant tensor:
#      x y z
#    x 1.573170 0.000000 0.000000 
#    y 0.000000 1.529100 0.000000 
#    z 0.000000 0.000000 1.548650 
# 
# From -- ./inp_files/18654.got.cif
#   From: 2010.03.12/outbox.cif.g09.slc.cpg/sg46_10_cif.got.tgz:18654.got - 2010.04.14 02:56:35.
