data_PCOD8191948
_publ_section_title
;
Structure prediction by ZEFSAII (Michael W. Deem and Ramdas Pophale) SiO2 
 PCOD8191948
Probable space group: I M A 2
;
_chemical_formula_sum "Si O2"
_cell_formula_units_Z 64
_cell_length_a 8.755244
_cell_length_b 33.727001
_cell_length_c 11.790542
_cell_angle_alpha 90.000000
_cell_angle_beta 90.000000
_cell_angle_gamma 90.000000
_cell_volume 3481.607018
_symmetry_space_group_name_H-M "I M A 2"
_symmetry_group_IT_number 46
_symmetry_cell_setting 'orthorhombic'
loop_
_space_group_symop_operation_xyz
x,y,z
-x,-y,z
1/2-x,y,z
1/2+x,-y,z
1/2+x,1/2+y,1/2+z
1/2-x,1/2-y,1/2+z
-x,1/2+y,1/2+z
x,1/2-y,1/2+z
loop_
_atom_site_type_symbol
_atom_site_label
_atom_site_fract_x
_atom_site_fract_y
_atom_site_fract_z
Si Si1 0.578111 0.379080 0.074520
Si Si2 0.568198 0.458191 0.745638
Si Si3 0.930361 0.181245 0.999860
Si Si4 0.575070 0.313522 0.242564
Si Si5 0.569442 0.737280 0.051563
Si Si6 0.075867 0.538142 0.002221
Si Si7 0.072746 0.169674 0.390127
Si Si8 0.432061 0.376201 0.671977
O O1 0.750000 0.372435 0.025413
O O2 0.561003 0.358403 0.195871
O O3 0.545125 0.425665 0.087824
O O4 0.456904 0.363008 0.985221
O O5 0.500000 0.500000 0.698564
O O6 0.750000 0.458481 0.730965
O O7 0.501195 0.420346 0.678612
O O8 0.512727 0.452794 0.875878
O O9 0.750000 0.175252 0.010161
O O10 0.985255 0.184925 0.870181
O O11 0.981270 0.221552 0.060523
O O12 0.014073 0.143487 0.054680
O O13 0.750000 0.298427 0.235791
O O14 0.468260 0.285124 0.168425
O O15 0.750000 0.744599 0.045479
O O16 0.509667 0.711692 0.941396
O O17 0.250000 0.527448 0.988033
O O18 0.000000 0.500000 0.058893
O O19 0.250000 0.175356 0.371768
O O20 0.003158 0.153403 0.271799
O O21 0.250000 0.379468 0.677303
#
# Coordination Sequence:
#
# PCOD8191948 Si02
#       8
#     8   8   8   8   8   8   8   8
#     4   9  16  31  53  75 101 136 174 215 264 315
#     4  10  19  33  53  81 114 150 183 225 280 335
#     4  11  24  39  55  79 107 143 187 230 275 328
#     4   9  20  38  57  77 103 139 183 226 270 324
#     4  10  21  37  57  80 107 140 177 225 279 330
#     4   9  17  27  45  75 108 139 169 208 262 320
#     4   9  19  33  51  77 106 137 174 215 268 324
#     4  11  22  36  55  82 113 148 186 230 279 332
#
# _framework density 18.382317
#
# number of rings (size 3 to 8) (size 9 to 14) (size 15 to 20)
#    0.000    2.250    1.250    1.500    1.750    3.000 
#    0.000    0.000    0.000    0.750    0.000    1.750 
#    0.000    0.000    0.000    0.000    0.000    0.000 
#
# Total GULP energy -396642.704639 kJ/mol
# GULP energy per Si atom -12395.084520 kJ/mol
# Density = 1.834048 g / cm^3
# Si number density = 18.382317 Si / 1000 Ang^3
#
#
#
# Elastic Constant Matrix: (Units=GPa)
#
#
# Indices 1 2 3 4 5 6 
#
# 1 46.0262 35.3626 21.3517 0.0031 0.0002 0.0000
# 2 35.3626 137.5667 41.4375 0.0047 0.0009 0.0005
# 3 21.3517 41.4375 78.4182 0.0021 0.0012 0.0008
# 4 0.0031 0.0047 0.0021 23.5662 0.0007 0.0006
# 5 0.0002 0.0009 0.0012 0.0007 21.0086 0.0002
# 6 0.0000 0.0005 0.0008 0.0006 0.0002 32.2951
#
#
#
# Elastic Compliance Matrix: (Units=1/GPa)
#
#
# Indices 1 2 3 4 5 6 
#
# 1 0.028409 -0.005914 -0.004610 -0.000002 0.000000 0.000000
# 2 -0.005914 0.009876 -0.003609 -0.000001 0.000000 0.000000
# 3 -0.004610 -0.003609 0.015914 0.000000 -0.000001 0.000000
# 4 -0.000002 -0.000001 0.000000 0.042434 -0.000002 -0.000001
# 5 0.000000 0.000000 -0.000001 -0.000002 0.047600 0.000000
# 6 0.000000 0.000000 0.000000 -0.000001 0.000000 0.030964
#
#
# Mechanical properties :
#
#
# Convention : Reuss Voigt Hill
#
# Bulk Modulus (GPa) = 38.55908 50.92386 44.74147
# Shear Modulus (GPa) = 23.57286 26.29792 24.93539
#
# Velocity S-wave (km/s) = 3.58490 3.78644 3.68705
# Velocity P-wave (km/s) = 6.17714 6.84682 6.52058
#
# Compressibility (1/GPa) = 0.02593423
#
# Stress axis : x y z
#
# Youngs Moduli (GPa) = 35.19964 101.25087 62.83688
#
# Poissons Ratio (x) = 0.59882 0.28969
# Poissons Ratio (y) = 0.20818 0.22675
# Poissons Ratio (z) = 0.16228 0.36537
#
# Static dielectric constant tensor:
#      x y z
#    x 3.326710 0.000000 0.000000 
#    y 0.000000 3.526840 0.000000 
#    z 0.000000 0.000000 3.263420 
# 
# 
# High freq. dielectric constant tensor:
#      x y z
#    x 1.711940 0.000000 0.000000 
#    y 0.000000 1.718830 0.000000 
#    z 0.000000 0.000000 1.681210 
# 
# From -- ./inp_files/9797.got.cif
#   From: 2010.03.12/outbox.cif.g09.slc.cpg/sg46_5_cif.got.tgz:9797.got - 2010.04.14 02:56:35.
