data_PCOD8191027
_publ_section_title
;
Structure prediction by ZEFSAII (Michael W. Deem and Ramdas Pophale) SiO2 
 PCOD8191027
Probable space group: I B A 2
;
_chemical_formula_sum "Si O2"
_cell_formula_units_Z 44
_cell_length_a 8.632700
_cell_length_b 14.075839
_cell_length_c 16.451055
_cell_angle_alpha 90.000000
_cell_angle_beta 90.000000
_cell_angle_gamma 90.000000
_cell_volume 1999.008744
_symmetry_space_group_name_H-M "I B A 2"
_symmetry_group_IT_number 45
_symmetry_cell_setting 'orthorhombic'
loop_
_space_group_symop_operation_xyz
x,y,z
-x,-y,z
-x,y,1/2+z
x,-y,1/2+z
1/2+x,1/2+y,1/2+z
1/2-x,1/2-y,1/2+z
1/2-x,1/2+y,z
1/2+x,1/2-y,z
loop_
_atom_site_type_symbol
_atom_site_label
_atom_site_fract_x
_atom_site_fract_y
_atom_site_fract_z
Si Si1 0.991319 0.824453 0.055180
Si Si2 0.728262 0.461558 0.145286
Si Si3 0.682717 0.676369 0.783159
Si Si4 0.365951 0.666796 0.711505
Si Si5 0.000000 0.500000 0.531049
Si Si6 0.698677 0.835624 0.463496
O O1 0.907918 0.917723 0.090437
O O2 0.058809 0.772276 0.136319
O O3 0.876186 0.758915 0.002731
O O4 0.136761 0.860313 0.002861
O O5 0.762201 0.402963 0.227202
O O6 0.686793 0.566983 0.174222
O O7 0.877062 0.451978 0.089521
O O8 0.496806 0.658116 0.782950
O O9 0.715901 0.780457 0.745637
O O10 0.766151 0.676146 0.869247
O O11 0.078092 0.578703 0.473557
#
# Coordination Sequence:
#
# PCOD8191027 Si02
#       6
#     8   8   8   8   4   8
#     4  11  22  46  70 100 140 187 242 286 362 423
#     4  11  26  46  74 101 140 193 248 294 349 447
#     4  11  25  44  68 102 145 184 233 297 368 415
#     4  11  23  46  72 102 134 195 241 291 357 441
#     4  12  26  44  70 108 140 190 250 290 354 438
#     4  12  25  44  70 110 145 189 233 308 368 422
#
# _framework density 22.010909999999999
#
# number of rings (size 3 to 8) (size 9 to 14) (size 15 to 20)
#    0.000    0.727    1.818    7.636    2.545    0.727 
#   13.091    0.000    0.000    0.000    0.000    0.000 
#    0.000    0.000    0.000    0.000    0.000    0.000 
#
# Total GULP energy -272661.849999 kJ/mol
# GULP energy per Si atom -12393.720454 kJ/mol
# Density = 2.196081 g / cm^3
# Si number density = 22.010910 Si / 1000 Ang^3
#
#
#
# Elastic Constant Matrix: (Units=GPa)
#
#
# Indices 1 2 3 4 5 6 
#
# 1 96.1380 36.8534 60.9402 0.0000 0.0000 0.0000
# 2 36.8534 113.3700 69.9450 -0.0001 0.0000 0.0000
# 3 60.9402 69.9450 139.8989 -0.0001 0.0000 0.0000
# 4 0.0000 -0.0001 -0.0001 -144.4538 0.0000 0.0000
# 5 0.0000 0.0000 0.0000 0.0000 32.2932 0.0000
# 6 0.0000 0.0000 0.0000 0.0000 0.0000 22.5545
#
#
#
# Elastic Compliance Matrix: (Units=1/GPa)
#
#
# Indices 1 2 3 4 5 6 
#
# 1 0.014478 -0.001179 -0.005717 0.000000 0.000000 0.000000
# 2 -0.001179 0.012851 -0.005912 0.000000 0.000000 0.000000
# 3 -0.005717 -0.005912 0.012594 0.000000 0.000000 0.000000
# 4 0.000000 0.000000 0.000000 -0.006923 0.000000 0.000000
# 5 0.000000 0.000000 0.000000 0.000000 0.030966 0.000000
# 6 0.000000 0.000000 0.000000 0.000000 0.000000 0.044337
#
#
# Mechanical properties :
#
#
# Convention : Reuss Voigt Hill
#
# Bulk Modulus (GPa) = 69.89365 76.09822 72.99593
# Shear Modulus (GPa) = 36.05221 -5.81000 15.12110
#
# Velocity S-wave (km/s) = 4.05152 -1.62645 2.62388
# Velocity P-wave (km/s) = 7.32867 5.57861 6.51269
#
# Compressibility (1/GPa) = 0.01430745
#
# Stress axis : x y z
#
# Youngs Moduli (GPa) = 69.07234 77.81394 79.40349
#
# Poissons Ratio (x) = 0.09175 0.45394
# Poissons Ratio (y) = 0.08145 0.46940
# Poissons Ratio (z) = 0.39488 0.46000
#
# Static dielectric constant tensor:
#      x y z
#    x 4.793040 0.000000 0.000000 
#    y 0.000000 3.869580 0.000000 
#    z 0.000000 0.000000 4.129750 
# 
# 
# High freq. dielectric constant tensor:
#      x y z
#    x 1.882950 0.000000 0.000000 
#    y 0.000000 1.861090 0.000000 
#    z 0.000000 0.000000 1.866280 
# 
# From -- ./inp_files/7518.got.cif
#   From: 2010.03.12/outbox.cif.g09.slc.cpg/sg45_4_cif.got.tgz:7518.got - 2010.04.14 02:50:11.
