data_PCOD8191807
_publ_section_title
;
Structure prediction by ZEFSAII (Michael W. Deem and Ramdas Pophale) SiO2 
 PCOD8191807
Probable space group: I M A 2
;
_chemical_formula_sum "Si O2"
_cell_formula_units_Z 56
_cell_length_a 8.827391
_cell_length_b 24.193635
_cell_length_c 13.784680
_cell_angle_alpha 90.000000
_cell_angle_beta 90.000000
_cell_angle_gamma 90.000000
_cell_volume 2943.948285
_symmetry_space_group_name_H-M "I M A 2"
_symmetry_group_IT_number 46
_symmetry_cell_setting 'orthorhombic'
loop_
_space_group_symop_operation_xyz
x,y,z
-x,-y,z
1/2-x,y,z
1/2+x,-y,z
1/2+x,1/2+y,1/2+z
1/2-x,1/2-y,1/2+z
-x,1/2+y,1/2+z
x,1/2-y,1/2+z
loop_
_atom_site_type_symbol
_atom_site_label
_atom_site_fract_x
_atom_site_fract_y
_atom_site_fract_z
Si Si1 0.570418 0.833635 0.355530
Si Si2 0.072865 0.941223 0.672611
Si Si3 0.429523 0.340439 0.073074
Si Si4 0.571506 0.056698 0.042309
Si Si5 0.569655 0.942038 0.247954
Si Si6 0.575219 0.373548 0.358456
Si Si7 0.428812 0.224630 0.757981
O O1 0.750000 0.832827 0.349971
O O2 0.517206 0.822445 0.465870
O O3 0.512993 0.893377 0.319190
O O4 0.504320 0.784795 0.286733
O O5 0.250000 0.945954 0.655054
O O6 0.032876 0.920965 0.781019
O O7 0.004748 0.899077 0.594767
O O8 0.000000 0.000000 0.653821
O O9 0.250000 0.347802 0.079551
O O10 0.486713 0.294520 0.151314
O O11 0.750000 0.048258 0.058629
O O12 0.536618 0.104622 0.965310
O O13 0.500000 0.000000 0.002349
O O14 0.491521 0.073585 0.141952
O O15 0.750000 0.947342 0.244705
O O16 0.500000 0.000000 0.284649
O O17 0.750000 0.357329 0.347701
O O18 0.478214 0.318898 0.339919
O O19 0.250000 0.227155 0.758805
#
# Coordination Sequence:
#
# PCOD8191807 Si02
#       7
#     8   8   8   8   8   8   8
#     4   9  19  35  55  78 102 132 168 207 251 299
#     4  10  19  32  50  74 104 136 172 210 252 300
#     4   9  18  34  53  74 103 134 167 208 251 298
#     4  10  19  32  50  74 104 136 171 209 253 301
#     4  10  20  35  53  74 102 133 169 211 253 297
#     4   9  19  33  49  73 106 138 167 207 255 302
#     4   9  18  33  54  77 100 131 171 210 248 295
#
# _framework density 19.022072999999999
#
# number of rings (size 3 to 8) (size 9 to 14) (size 15 to 20)
#    0.000    2.571    0.000    2.571    0.000    3.429 
#    0.000    7.857    0.000    3.429    0.000    0.000 
#    0.000    0.000    0.000    0.000    0.000    0.000 
#
# Total GULP energy -347158.290354 kJ/mol
# GULP energy per Si atom -12398.510370 kJ/mol
# Density = 1.897878 g / cm^3
# Si number density = 19.022073 Si / 1000 Ang^3
#
#
#
# Elastic Constant Matrix: (Units=GPa)
#
#
# Indices 1 2 3 4 5 6 
#
# 1 46.7046 32.2297 29.1566 0.0000 0.0000 0.0000
# 2 32.2297 158.8881 87.8298 0.0001 0.0000 0.0000
# 3 29.1566 87.8298 116.7783 -0.0001 0.0000 0.0000
# 4 0.0000 0.0001 -0.0001 28.5247 0.0000 0.0000
# 5 0.0000 0.0000 0.0000 0.0000 21.2198 0.0000
# 6 0.0000 0.0000 0.0000 0.0000 0.0000 26.1469
#
#
#
# Elastic Compliance Matrix: (Units=1/GPa)
#
#
# Indices 1 2 3 4 5 6 
#
# 1 0.026122 -0.002899 -0.004342 0.000000 0.000000 0.000000
# 2 -0.002899 0.011094 -0.007620 0.000000 0.000000 0.000000
# 3 -0.004342 -0.007620 0.015378 0.000000 0.000000 0.000000
# 4 0.000000 0.000000 0.000000 0.035057 0.000000 0.000000
# 5 0.000000 0.000000 0.000000 0.000000 0.047126 0.000000
# 6 0.000000 0.000000 0.000000 0.000000 0.000000 0.038245
#
#
# Mechanical properties :
#
#
# Convention : Reuss Voigt Hill
#
# Bulk Modulus (GPa) = 43.71954 68.97813 56.34883
# Shear Modulus (GPa) = 23.76778 26.72193 25.24486
#
# Velocity S-wave (km/s) = 3.53864 3.75211 3.64694
# Velocity P-wave (km/s) = 6.30313 7.42375 6.88627
#
# Compressibility (1/GPa) = 0.02287307
#
# Stress axis : x y z
#
# Youngs Moduli (GPa) = 38.28190 90.13922 65.02597
#
# Poissons Ratio (x) = 0.26128 0.28234
# Poissons Ratio (y) = 0.11096 0.49551
# Poissons Ratio (z) = 0.16622 0.68687
#
# Static dielectric constant tensor:
#      x y z
#    x 3.337240 0.000000 0.000000 
#    y 0.000000 3.597140 0.000000 
#    z 0.000000 0.000000 3.607150 
# 
# 
# High freq. dielectric constant tensor:
#      x y z
#    x 1.725740 0.000000 0.000000 
#    y 0.000000 1.739890 0.000000 
#    z 0.000000 0.000000 1.738670 
# 
# From -- ./inp_files/14206.got.cif
#   From: 2010.03.12/outbox.cif.g09.slc.cpg/sg46_8_cif.got.tgz:14206.got - 2010.04.14 02:56:35.
