data_PCOD8191465
_publ_section_title
;
Structure prediction by ZEFSAII (Michael W. Deem and Ramdas Pophale) SiO2 
 PCOD8191465
Probable space group: I M A 2
;
_chemical_formula_sum "Si O2"
_cell_formula_units_Z 48
_cell_length_a 8.542837
_cell_length_b 9.554940
_cell_length_c 30.777648
_cell_angle_alpha 90.000000
_cell_angle_beta 90.000000
_cell_angle_gamma 90.000000
_cell_volume 2512.265374
_symmetry_space_group_name_H-M "I M A 2"
_symmetry_group_IT_number 46
_symmetry_cell_setting 'orthorhombic'
loop_
_space_group_symop_operation_xyz
x,y,z
-x,-y,z
1/2-x,y,z
1/2+x,-y,z
1/2+x,1/2+y,1/2+z
1/2-x,1/2-y,1/2+z
-x,1/2+y,1/2+z
x,1/2-y,1/2+z
loop_
_atom_site_type_symbol
_atom_site_label
_atom_site_fract_x
_atom_site_fract_y
_atom_site_fract_z
Si Si1 0.063965 0.849315 0.614070
Si Si2 0.435475 0.845554 0.287980
Si Si3 0.935026 0.155746 0.465168
Si Si4 0.064624 0.343996 0.876031
Si Si5 0.435275 0.155985 0.041736
Si Si6 0.934090 0.353557 0.212618
O O1 0.250000 0.846034 0.607767
O O2 0.010811 0.820198 0.663633
O O3 0.984068 0.726620 0.586918
O O4 0.000000 0.000000 0.598454
O O5 0.250000 0.848218 0.291379
O O6 0.503518 0.770858 0.331715
O O7 0.496675 0.763076 0.245769
O O8 0.500000 0.000000 0.282604
O O9 0.750000 0.146550 0.464388
O O10 0.996309 0.224645 0.419974
O O11 0.989903 0.256121 0.503121
O O12 0.000000 0.000000 0.472661
O O13 0.250000 0.341522 0.877816
O O14 0.000000 0.500000 0.874484
O O15 0.250000 0.154006 0.036864
O O16 0.500000 0.000000 0.040435
O O17 0.750000 0.362399 0.214159
O O18 0.000000 0.500000 0.229027
#
# Coordination Sequence:
#
# PCOD8191465 Si02
#       6
#     8   8   8   8   8   8
#     4  10  20  38  60  84 110 144 186 229 272 324
#     4  10  19  33  52  79 110 144 182 225 272 323
#     4  11  21  37  60  85 111 145 185 228 271 323
#     4  10  18  31  52  80 109 142 182 227 271 319
#     4  12  25  41  58  82 113 146 180 224 277 331
#     4   9  20  36  56  80 110 143 182 225 270 320
#
# _framework density 19.106262000000001
#
# number of rings (size 3 to 8) (size 9 to 14) (size 15 to 20)
#    0.000    1.667    0.000    8.000    0.000    2.667 
#    0.000    2.500    0.000    2.000    0.000    0.000 
#    0.000    0.000    0.000    0.000    0.000    0.000 
#
# Total GULP energy -297586.956539 kJ/mol
# GULP energy per Si atom -12399.456522 kJ/mol
# Density = 1.906278 g / cm^3
# Si number density = 19.106262 Si / 1000 Ang^3
#
#
#
# Elastic Constant Matrix: (Units=GPa)
#
#
# Indices 1 2 3 4 5 6 
#
# 1 127.9633 35.7719 48.1558 0.0000 0.0000 0.0000
# 2 35.7719 99.2182 73.2251 0.0000 0.0000 0.0000
# 3 48.1558 73.2251 150.0996 0.0000 0.0000 0.0000
# 4 0.0000 0.0000 0.0000 46.5105 0.0000 0.0000
# 5 0.0000 0.0000 0.0000 0.0000 31.1624 0.0000
# 6 0.0000 0.0000 0.0000 0.0000 0.0000 29.8683
#
#
#
# Elastic Compliance Matrix: (Units=1/GPa)
#
#
# Indices 1 2 3 4 5 6 
#
# 1 0.009079 -0.001756 -0.002056 0.000000 0.000000 0.000000
# 2 -0.001756 0.016089 -0.007285 0.000000 0.000000 0.000000
# 3 -0.002056 -0.007285 0.010876 0.000000 0.000000 0.000000
# 4 0.000000 0.000000 0.000000 0.021501 0.000000 0.000000
# 5 0.000000 0.000000 0.000000 0.000000 0.032090 0.000000
# 6 0.000000 0.000000 0.000000 0.000000 0.000000 0.033480
#
#
# Mechanical properties :
#
#
# Convention : Reuss Voigt Hill
#
# Bulk Modulus (GPa) = 72.20751 76.84296 74.52523
# Shear Modulus (GPa) = 33.34967 36.18347 34.76657
#
# Velocity S-wave (km/s) = 4.18243 4.35650 4.27035
# Velocity P-wave (km/s) = 7.82293 8.10010 7.96272
#
# Compressibility (1/GPa) = 0.01384898
#
# Stress axis : x y z
#
# Youngs Moduli (GPa) = 110.13902 62.15562 91.94461
#
# Poissons Ratio (x) = 0.10914 0.18907
# Poissons Ratio (y) = 0.19339 0.66986
# Poissons Ratio (z) = 0.22648 0.45283
#
# Static dielectric constant tensor:
#      x y z
#    x 3.620990 0.000000 0.000000 
#    y 0.000000 3.277900 0.000000 
#    z 0.000000 0.000000 4.430740 
# 
# 
# High freq. dielectric constant tensor:
#      x y z
#    x 1.760320 0.000000 0.000000 
#    y 0.000000 1.713930 0.000000 
#    z 0.000000 0.000000 1.766970 
# 
# From -- ./inp_files/25013.got.cif
#   From: 2010.03.12/outbox.cif.g09.slc.cpg/sg46_13_cif.got.tgz:25013.got - 2010.04.14 02:56:35.
