data_PCOD8191573
_publ_section_title
;
Structure prediction by ZEFSAII (Michael W. Deem and Ramdas Pophale) SiO2 
 PCOD8191573
Probable space group: I M A 2
;
_chemical_formula_sum "Si O2"
_cell_formula_units_Z 64
_cell_length_a 8.454615
_cell_length_b 24.940338
_cell_length_c 15.168182
_cell_angle_alpha 90.000000
_cell_angle_beta 90.000000
_cell_angle_gamma 90.000000
_cell_volume 3198.377354
_symmetry_space_group_name_H-M "I M A 2"
_symmetry_group_IT_number 46
_symmetry_cell_setting 'orthorhombic'
loop_
_space_group_symop_operation_xyz
x,y,z
-x,-y,z
1/2-x,y,z
1/2+x,-y,z
1/2+x,1/2+y,1/2+z
1/2-x,1/2-y,1/2+z
-x,1/2+y,1/2+z
x,1/2-y,1/2+z
loop_
_atom_site_type_symbol
_atom_site_label
_atom_site_fract_x
_atom_site_fract_y
_atom_site_fract_z
Si Si1 0.564197 0.641849 0.399630
Si Si2 0.435737 0.333790 0.589564
Si Si3 0.933066 0.141628 0.276600
Si Si4 0.431753 0.605598 0.082658
Si Si5 0.934174 0.224155 0.623733
Si Si6 0.065286 0.441110 0.259169
Si Si7 0.934325 0.746012 0.308065
Si Si8 0.565873 0.557468 0.905945
O O1 0.750000 0.643036 0.381618
O O2 0.527231 0.630334 0.502723
O O3 0.488328 0.596744 0.335745
O O4 0.501442 0.701515 0.376338
O O5 0.250000 0.331177 0.610115
O O6 0.524080 0.359021 0.673122
O O7 0.500024 0.274153 0.567793
O O8 0.750000 0.127675 0.289078
O O9 0.967958 0.199287 0.320186
O O10 0.036518 0.096926 0.324543
O O11 0.250000 0.593623 0.104402
O O12 0.462090 0.669160 0.070447
O O13 0.531586 0.581947 0.162773
O O14 0.476654 0.576958 0.992792
O O15 0.750000 0.233166 0.646732
O O16 0.036170 0.220785 0.712323
O O17 0.250000 0.444165 0.273022
O O18 0.000000 0.500000 0.271499
O O19 0.750000 0.759544 0.320304
O O20 0.500000 0.500000 0.877625
O O21 0.750000 0.554171 0.927092
#
# Coordination Sequence:
#
# PCOD8191573 Si02
#       8
#     8   8   8   8   8   8   8   8
#     4   9  20  36  58  87 120 157 203 251 300 356
#     4  10  20  37  60  87 120 162 205 250 301 359
#     4  11  23  41  61  89 123 158 199 251 306 361
#     4  11  23  39  59  89 125 162 200 244 299 363
#     4  10  20  34  53  85 123 158 195 241 297 354
#     4  11  22  40  61  86 120 161 205 252 300 357
#     4  10  18  34  58  87 118 159 203 242 296 357
#     4  12  26  45  67  90 117 156 203 254 305 362
#
# _framework density 20.010145999999999
#
# number of rings (size 3 to 8) (size 9 to 14) (size 15 to 20)
#    0.000    1.500    1.250    6.000    1.750    1.500 
#    0.000    5.000    0.000    1.500    0.000    0.000 
#    0.000    0.000    0.000    0.000    0.000    0.000 
#
# Total GULP energy -396820.949566 kJ/mol
# GULP energy per Si atom -12400.654674 kJ/mol
# Density = 1.996460 g / cm^3
# Si number density = 20.010146 Si / 1000 Ang^3
#
#
#
# Elastic Constant Matrix: (Units=GPa)
#
#
# Indices 1 2 3 4 5 6 
#
# 1 59.5570 15.6477 4.4048 -0.0013 0.0000 0.0000
# 2 15.6477 110.5938 55.9838 -0.0010 0.0000 0.0000
# 3 4.4048 55.9838 99.7006 -0.0026 0.0000 0.0001
# 4 -0.0013 -0.0010 -0.0026 -69.9228 -0.0003 0.0003
# 5 0.0000 0.0000 0.0000 -0.0003 17.4530 0.0000
# 6 0.0000 0.0000 0.0001 0.0003 0.0000 29.9470
#
#
#
# Elastic Compliance Matrix: (Units=1/GPa)
#
#
# Indices 1 2 3 4 5 6 
#
# 1 0.017492 -0.002911 0.000862 0.000000 0.000000 0.000000
# 2 -0.002911 0.013118 -0.007237 0.000000 0.000000 0.000000
# 3 0.000862 -0.007237 0.014056 0.000000 0.000000 0.000000
# 4 0.000000 0.000000 0.000000 -0.014301 0.000000 0.000000
# 5 0.000000 0.000000 0.000000 0.000000 0.057297 0.000000
# 6 0.000000 0.000000 0.000000 0.000000 0.000000 0.033392
#
#
# Mechanical properties :
#
#
# Convention : Reuss Voigt Hill
#
# Bulk Modulus (GPa) = 38.32567 46.88046 42.60306
# Shear Modulus (GPa) = 33.71024 8.41643 21.06333
#
# Velocity S-wave (km/s) = 4.10891 2.05310 3.24795
# Velocity P-wave (km/s) = 6.45798 5.39439 5.95000
#
# Compressibility (1/GPa) = 0.02609217
#
# Stress axis : x y z
#
# Youngs Moduli (GPa) = 57.16982 76.23403 71.14541
#
# Poissons Ratio (x) = 0.22193 -0.06132
# Poissons Ratio (y) = 0.16643 0.51489
# Poissons Ratio (z) = -0.04927 0.55171
#
# Static dielectric constant tensor:
#      x y z
#    x 3.610220 0.000000 0.000000 
#    y 0.000000 3.888880 0.000000 
#    z 0.000000 0.000000 3.577700 
# 
# 
# High freq. dielectric constant tensor:
#      x y z
#    x 1.781860 0.000000 0.000000 
#    y 0.000000 1.777040 0.000000 
#    z 0.000000 0.000000 1.779330 
# 
# From -- ./inp_files/14463.got.cif
#   From: 2010.03.12/outbox.cif.g09.slc.cpg/sg46_8_cif.got.tgz:14463.got - 2010.04.14 02:56:35.
