data_PCOD8191266
_publ_section_title
;
Structure prediction by ZEFSAII (Michael W. Deem and Ramdas Pophale) SiO2 
 PCOD8191266
Probable space group: I M A 2
;
_chemical_formula_sum "Si O2"
_cell_formula_units_Z 64
_cell_length_a 8.855377
_cell_length_b 26.240315
_cell_length_c 18.549641
_cell_angle_alpha 90.000000
_cell_angle_beta 90.000000
_cell_angle_gamma 90.000000
_cell_volume 4310.340790
_symmetry_space_group_name_H-M "I M A 2"
_symmetry_group_IT_number 46
_symmetry_cell_setting 'orthorhombic'
loop_
_space_group_symop_operation_xyz
x,y,z
-x,-y,z
1/2-x,y,z
1/2+x,-y,z
1/2+x,1/2+y,1/2+z
1/2-x,1/2-y,1/2+z
-x,1/2+y,1/2+z
x,1/2-y,1/2+z
loop_
_atom_site_type_symbol
_atom_site_label
_atom_site_fract_x
_atom_site_fract_y
_atom_site_fract_z
Si Si1 0.572785 0.248413 0.727450
Si Si2 0.579080 0.143746 0.300031
Si Si3 0.077387 0.708125 0.927759
Si Si4 0.926345 0.699811 0.355562
Si Si5 0.071233 0.053079 0.061461
Si Si6 0.570622 0.146544 0.981039
Si Si7 0.426038 0.052126 0.225686
Si Si8 0.575732 0.255383 0.568816
O O1 0.750000 0.236587 0.730096
O O2 0.537793 0.304853 0.757194
O O3 0.489682 0.204879 0.774204
O O4 0.501544 0.244925 0.646678
O O5 0.750000 0.127129 0.282649
O O6 0.557822 0.154161 0.386542
O O7 0.470231 0.098451 0.277409
O O8 0.250000 0.728417 0.913162
O O9 0.957570 0.746840 0.894799
O O10 0.050741 0.706900 0.014480
O O11 0.750000 0.687712 0.353568
O O12 0.011480 0.655111 0.399463
O O13 0.250000 0.051037 0.052418
O O14 0.022962 0.064578 0.144020
O O15 0.002731 0.095632 0.010515
O O16 0.000000 0.000000 0.036131
O O17 0.750000 0.141691 0.980665
O O18 0.512786 0.193454 0.030968
O O19 0.250000 0.043711 0.230326
O O20 0.500000 0.000000 0.253720
O O21 0.750000 0.265000 0.584868
#
# Coordination Sequence:
#
# PCOD8191266 Si02
#       8
#     8   8   8   8   8   8   8   8
#     4   9  16  27  42  60  82 110 140 169 201 243
#     4   9  16  26  41  59  82 110 141 173 207 244
#     4   8  15  28  42  58  80 108 139 170 204 245
#     4  10  18  27  39  58  83 109 137 171 205 241
#     4  10  20  32  44  61  83 108 138 174 210 245
#     4  10  18  30  46  61  80 110 143 174 208 246
#     4  10  20  31  43  59  82 109 140 175 210 245
#     4   8  14  25  43  62  80 106 141 172 200 239
#
# _framework density 14.848013999999999
#
# number of rings (size 3 to 8) (size 9 to 14) (size 15 to 20)
#    0.000    2.750    0.000    4.500    0.000    4.500 
#    0.000    3.125    0.000    0.000    0.000    0.000 
#    0.000    1.000    0.000    5.000    0.000    3.750 
#
# Total GULP energy -396580.282085 kJ/mol
# GULP energy per Si atom -12393.133815 kJ/mol
# Density = 1.481422 g / cm^3
# Si number density = 14.848014 Si / 1000 Ang^3
#
#
#
# Elastic Constant Matrix: (Units=GPa)
#
#
# Indices 1 2 3 4 5 6 
#
# 1 58.4230 31.6821 30.9917 0.0000 0.0000 0.0000
# 2 31.6821 77.7304 53.0685 0.0000 0.0000 0.0000
# 3 30.9917 53.0685 116.9613 0.0002 0.0000 0.0000
# 4 0.0000 0.0000 0.0002 14.8287 0.0000 0.0000
# 5 0.0000 0.0000 0.0000 0.0000 17.3467 0.0000
# 6 0.0000 0.0000 0.0000 0.0000 0.0000 23.5809
#
#
#
# Elastic Compliance Matrix: (Units=1/GPa)
#
#
# Indices 1 2 3 4 5 6 
#
# 1 0.022510 -0.007393 -0.002610 0.000000 0.000000 0.000000
# 2 -0.007393 0.021067 -0.007600 0.000000 0.000000 0.000000
# 3 -0.002610 -0.007600 0.012690 0.000000 0.000000 0.000000
# 4 0.000000 0.000000 0.000000 0.067437 0.000000 0.000000
# 5 0.000000 0.000000 0.000000 0.000000 0.057648 0.000000
# 6 0.000000 0.000000 0.000000 0.000000 0.000000 0.042407
#
#
# Mechanical properties :
#
#
# Convention : Reuss Voigt Hill
#
# Bulk Modulus (GPa) = 47.48092 53.84437 50.66264
# Shear Modulus (GPa) = 18.79809 20.30941 19.55375
#
# Velocity S-wave (km/s) = 3.56200 3.70242 3.63289
# Velocity P-wave (km/s) = 6.99746 7.39051 7.19667
#
# Compressibility (1/GPa) = 0.02106109
#
# Stress axis : x y z
#
# Youngs Moduli (GPa) = 44.42420 47.46841 78.80434
#
# Poissons Ratio (x) = 0.35092 0.20570
# Poissons Ratio (y) = 0.32842 0.59888
# Poissons Ratio (z) = 0.11596 0.36074
#
# Static dielectric constant tensor:
#      x y z
#    x 2.771850 0.000000 0.000000 
#    y 0.000000 2.650240 0.000000 
#    z 0.000000 0.000000 3.163270 
# 
# 
# High freq. dielectric constant tensor:
#      x y z
#    x 1.565910 0.000000 0.000000 
#    y 0.000000 1.529750 0.000000 
#    z 0.000000 0.000000 1.563840 
# 
# From -- ./inp_files/18632.got.cif
#   From: 2010.03.12/outbox.cif.g09.slc.cpg/sg46_10_cif.got.tgz:18632.got - 2010.04.14 02:56:35.
