data_PCOD8191951
_publ_section_title
;
Structure prediction by ZEFSAII (Michael W. Deem and Ramdas Pophale) SiO2 
 PCOD8191951
Probable space group: I M A 2
;
_chemical_formula_sum "Si O2"
_cell_formula_units_Z 48
_cell_length_a 8.966552
_cell_length_b 31.348244
_cell_length_c 9.269066
_cell_angle_alpha 90.000000
_cell_angle_beta 90.000000
_cell_angle_gamma 90.000000
_cell_volume 2605.401534
_symmetry_space_group_name_H-M "I M A 2"
_symmetry_group_IT_number 46
_symmetry_cell_setting 'orthorhombic'
loop_
_space_group_symop_operation_xyz
x,y,z
-x,-y,z
1/2-x,y,z
1/2+x,-y,z
1/2+x,1/2+y,1/2+z
1/2-x,1/2-y,1/2+z
-x,1/2+y,1/2+z
x,1/2-y,1/2+z
loop_
_atom_site_type_symbol
_atom_site_label
_atom_site_fract_x
_atom_site_fract_y
_atom_site_fract_z
Si Si1 0.077413 0.460612 0.534300
Si Si2 0.077108 0.539846 0.842579
Si Si3 0.572527 0.206955 0.849097
Si Si4 0.077326 0.365976 0.523659
Si Si5 0.424489 0.866396 0.331645
Si Si6 0.073019 0.711461 0.023683
O O1 0.250000 0.471139 0.558793
O O2 0.057087 0.414242 0.461647
O O3 0.000000 0.500000 0.444954
O O4 0.992174 0.458575 0.684791
O O5 0.250000 0.529373 0.834264
O O6 0.048389 0.587203 0.907544
O O7 0.000000 0.500000 0.929185
O O8 0.750000 0.204650 0.852521
O O9 0.511670 0.211972 0.686402
O O10 0.509393 0.163560 0.913026
O O11 0.511888 0.246965 0.940930
O O12 0.250000 0.353166 0.529103
O O13 0.013315 0.360878 0.683818
O O14 0.250000 0.860143 0.295298
O O15 0.483729 0.831043 0.443121
O O16 0.250000 0.712301 0.024622
#
# Coordination Sequence:
#
# PCOD8191951 Si02
#       6
#     8   8   8   8   8   8
#     4   9  16  26  42  65  94 125 158 197 236 276
#     4   9  15  23  40  66  96 127 158 195 236 278
#     4  10  19  33  54  74  94 124 161 202 245 288
#     4  10  20  32  47  72 104 132 160 197 241 289
#     4   9  17  31  51  74  99 128 164 203 241 283
#     4   9  18  33  54  77  96 120 162 208 243 282
#
# _framework density 18.423262999999999
#
# number of rings (size 3 to 8) (size 9 to 14) (size 15 to 20)
#    0.000    2.667    0.000    3.500    0.000    5.333 
#    0.000    4.167    0.000    1.000    0.000    4.667 
#    0.000    0.000    0.000    0.000    0.000    0.000 
#
# Total GULP energy -297384.076595 kJ/mol
# GULP energy per Si atom -12391.003191 kJ/mol
# Density = 1.838133 g / cm^3
# Si number density = 18.423263 Si / 1000 Ang^3
#
#
#
# Elastic Constant Matrix: (Units=GPa)
#
#
# Indices 1 2 3 4 5 6 
#
# 1 66.7079 49.1249 24.6647 0.0005 0.0001 0.0000
# 2 49.1249 175.2016 64.8566 0.0005 0.0005 0.0002
# 3 24.6647 64.8566 92.8668 0.0016 0.0006 0.0003
# 4 0.0005 0.0005 0.0016 24.8170 0.0002 0.0001
# 5 0.0001 0.0005 0.0006 0.0002 9.0699 -0.0002
# 6 0.0000 0.0002 0.0003 0.0001 -0.0002 30.5426
#
#
#
# Elastic Compliance Matrix: (Units=1/GPa)
#
#
# Indices 1 2 3 4 5 6 
#
# 1 0.019112 -0.004693 -0.001798 0.000000 0.000000 0.000000
# 2 -0.004693 0.008850 -0.004934 0.000000 0.000000 0.000000
# 3 -0.001798 -0.004934 0.014692 -0.000001 -0.000001 0.000000
# 4 0.000000 0.000000 -0.000001 0.040295 -0.000001 0.000000
# 5 0.000000 0.000000 -0.000001 -0.000001 0.110255 0.000001
# 6 0.000000 0.000000 0.000000 0.000000 0.000001 0.032741
#
#
# Mechanical properties :
#
#
# Convention : Reuss Voigt Hill
#
# Bulk Modulus (GPa) = 50.49964 68.00764 59.25364
# Shear Modulus (GPa) = 19.57733 25.96124 22.76929
#
# Velocity S-wave (km/s) = 3.26336 3.75794 3.51935
# Velocity P-wave (km/s) = 6.45520 7.47152 6.98188
#
# Compressibility (1/GPa) = 0.01980212
#
# Stress axis : x y z
#
# Youngs Moduli (GPa) = 52.32399 112.99155 68.06488
#
# Poissons Ratio (x) = 0.53027 0.12241
# Poissons Ratio (y) = 0.24556 0.33586
# Poissons Ratio (z) = 0.09410 0.55755
#
# Static dielectric constant tensor:
#      x y z
#    x 3.273240 0.000000 0.000000 
#    y 0.000000 4.522390 0.000000 
#    z 0.000000 0.000000 3.042820 
# 
# 
# High freq. dielectric constant tensor:
#      x y z
#    x 1.702150 0.000000 0.000000 
#    y 0.000000 1.747060 0.000000 
#    z 0.000000 0.000000 1.660500 
# 
# From -- ./inp_files/3900.got.cif
#   From: 2010.03.12/outbox.cif.g09.slc.cpg/sg46_2_cif.got.tgz:3900.got - 2010.04.14 02:56:35.
