data_PCOD8191542
_publ_section_title
;
Structure prediction by ZEFSAII (Michael W. Deem and Ramdas Pophale) SiO2 
 PCOD8191542
Probable space group: I M A 2
;
_chemical_formula_sum "Si O2"
_cell_formula_units_Z 56
_cell_length_a 8.855881
_cell_length_b 15.545821
_cell_length_c 19.673101
_cell_angle_alpha 90.000000
_cell_angle_beta 90.000000
_cell_angle_gamma 90.000000
_cell_volume 2708.433997
_symmetry_space_group_name_H-M "I M A 2"
_symmetry_group_IT_number 46
_symmetry_cell_setting 'orthorhombic'
loop_
_space_group_symop_operation_xyz
x,y,z
-x,-y,z
1/2-x,y,z
1/2+x,-y,z
1/2+x,1/2+y,1/2+z
1/2-x,1/2-y,1/2+z
-x,1/2+y,1/2+z
x,1/2-y,1/2+z
loop_
_atom_site_type_symbol
_atom_site_label
_atom_site_fract_x
_atom_site_fract_y
_atom_site_fract_z
Si Si1 0.927902 0.254243 0.762050
Si Si2 0.070357 0.592967 0.173823
Si Si3 0.419556 0.231647 0.401873
Si Si4 0.580232 0.924041 0.938788
Si Si5 0.078587 0.615074 0.573737
Si Si6 0.924514 0.583189 0.702687
Si Si7 0.578091 0.190046 0.539941
O O1 0.750000 0.252226 0.762423
O O2 0.985976 0.162571 0.731069
O O3 0.982494 0.286396 0.835786
O O4 0.985337 0.329644 0.714482
O O5 0.250000 0.585837 0.176533
O O6 0.020057 0.622807 0.097514
O O7 0.000000 0.500000 0.190377
O O8 0.250000 0.196244 0.392151
O O9 0.419755 0.334343 0.401213
O O10 0.482241 0.186446 0.470084
O O11 0.750000 0.948203 0.960520
O O12 0.500000 0.000000 0.893356
O O13 0.462173 0.919931 0.000348
O O14 0.250000 0.588701 0.594278
O O15 0.063307 0.717865 0.574732
O O16 0.952073 0.572652 0.622199
O O17 0.750000 0.590198 0.723009
O O18 0.000000 0.500000 0.740036
O O19 0.750000 0.169808 0.519339
#
# Coordination Sequence:
#
# PCOD8191542 Si02
#       7
#     8   8   8   8   8   8   8
#     4  11  23  43  64  88 124 165 208 258 314 378
#     4  10  22  40  64  95 128 166 215 264 319 378
#     4  10  22  38  58  86 117 156 206 257 313 374
#     4  10  20  33  50  78 115 151 195 242 294 357
#     4  10  18  33  56  82 116 151 190 237 292 352
#     4  12  24  38  59  87 119 154 194 242 301 363
#     4   9  18  37  61  86 118 158 203 251 305 366
#
# _framework density 20.676155999999999
#
# number of rings (size 3 to 8) (size 9 to 14) (size 15 to 20)
#    0.000    1.714    1.429    3.429    0.000    4.571 
#    0.000    3.571    0.000    1.714    0.000    0.000 
#    0.000    0.000    0.000    0.000    0.000    0.000 
#
# Total GULP energy -346927.855624 kJ/mol
# GULP energy per Si atom -12390.280558 kJ/mol
# Density = 2.062910 g / cm^3
# Si number density = 20.676156 Si / 1000 Ang^3
#
#
#
# Elastic Constant Matrix: (Units=GPa)
#
#
# Indices 1 2 3 4 5 6 
#
# 1 83.1728 18.9832 34.1179 0.0000 0.0000 0.0000
# 2 18.9832 79.2876 18.4429 0.0000 0.0000 0.0000
# 3 34.1179 18.4429 82.4481 0.0000 0.0000 0.0000
# 4 0.0000 0.0000 0.0000 13.4008 0.0000 0.0000
# 5 0.0000 0.0000 0.0000 0.0000 25.7799 0.0000
# 6 0.0000 0.0000 0.0000 0.0000 0.0000 32.9349
#
#
#
# Elastic Compliance Matrix: (Units=1/GPa)
#
#
# Indices 1 2 3 4 5 6 
#
# 1 0.014850 -0.002243 -0.005643 0.000000 0.000000 0.000000
# 2 -0.002243 0.013643 -0.002124 0.000000 0.000000 0.000000
# 3 -0.005643 -0.002124 0.014939 0.000000 0.000000 0.000000
# 4 0.000000 0.000000 0.000000 0.074622 0.000000 0.000000
# 5 0.000000 0.000000 0.000000 0.000000 0.038790 0.000000
# 6 0.000000 0.000000 0.000000 0.000000 0.000000 0.030363
#
#
# Mechanical properties :
#
#
# Convention : Reuss Voigt Hill
#
# Bulk Modulus (GPa) = 42.71202 43.11072 42.91137
# Shear Modulus (GPa) = 23.25235 25.98074 24.61654
#
# Velocity S-wave (km/s) = 3.35714 3.54864 3.45422
# Velocity P-wave (km/s) = 5.97743 6.13891 6.05870
#
# Compressibility (1/GPa) = 0.02341261
#
# Stress axis : x y z
#
# Youngs Moduli (GPa) = 67.34018 73.29610 66.93788
#
# Poissons Ratio (x) = 0.16438 0.37776
# Poissons Ratio (y) = 0.15102 0.14216
# Poissons Ratio (z) = 0.38003 0.15567
#
# Static dielectric constant tensor:
#      x y z
#    x 3.785960 0.000000 0.000000 
#    y 0.000000 4.240040 0.000000 
#    z 0.000000 0.000000 3.601100 
# 
# 
# High freq. dielectric constant tensor:
#      x y z
#    x 1.810200 0.000000 0.000000 
#    y 0.000000 1.811880 0.000000 
#    z 0.000000 0.000000 1.792450 
# 
# From -- ./inp_files/21085.got.cif
#   From: 2010.03.12/outbox.cif.g09.slc.cpg/sg46_11_cif.got.tgz:21085.got - 2010.04.14 02:56:35.
