data_PCOD8191093
_publ_section_title
;
Structure prediction by ZEFSAII (Michael W. Deem and Ramdas Pophale) SiO2 
 PCOD8191093
Probable space group: I B A 2
;
_chemical_formula_sum "Si O2"
_cell_formula_units_Z 32
_cell_length_a 8.953014
_cell_length_b 9.235817
_cell_length_c 15.279160
_cell_angle_alpha 90.000000
_cell_angle_beta 90.000000
_cell_angle_gamma 90.000000
_cell_volume 1263.409277
_symmetry_space_group_name_H-M "I B A 2"
_symmetry_group_IT_number 45
_symmetry_cell_setting 'orthorhombic'
loop_
_space_group_symop_operation_xyz
x,y,z
-x,-y,z
-x,y,1/2+z
x,-y,1/2+z
1/2+x,1/2+y,1/2+z
1/2-x,1/2-y,1/2+z
1/2-x,1/2+y,z
1/2+x,1/2-y,z
loop_
_atom_site_type_symbol
_atom_site_label
_atom_site_fract_x
_atom_site_fract_y
_atom_site_fract_z
Si Si1 0.157212 0.568308 0.681040
Si Si2 0.154239 0.574029 0.880288
Si Si3 0.153588 0.151850 0.474929
Si Si4 0.137955 0.846309 0.586080
O O1 0.202533 0.539612 0.781130
O O2 0.135508 0.741371 0.670804
O O3 0.280763 0.497194 0.615485
O O4 0.000000 0.500000 0.655344
O O5 0.117117 0.745283 0.891611
O O6 0.286145 0.505967 0.942584
O O7 0.000000 0.500000 0.906380
O O8 0.279500 0.250785 0.515536
O O9 0.023517 0.121309 0.544750
#
# Coordination Sequence:
#
# PCOD8191093 Si02
#       4
#     8   8   8   8
#     4  11  25  48  74 108 152 198 247 309 378 450
#     4  11  25  48  74 108 152 198 247 309 378 450
#     4  12  25  46  75 109 146 193 251 307 372 444
#     4  12  25  46  75 109 146 193 251 307 372 444
#
# _framework density 25.328292999999999
#
# number of rings (size 3 to 8) (size 9 to 14) (size 15 to 20)
#    0.000    0.500    5.000    3.000    0.000    4.000 
#    0.000    2.500    0.000    0.000    0.000    0.000 
#    0.000    0.000    0.000    0.000    0.000    0.000 
#
# Total GULP energy -198283.123349 kJ/mol
# GULP energy per Si atom -12392.695209 kJ/mol
# Density = 2.527064 g / cm^3
# Si number density = 25.328293 Si / 1000 Ang^3
#
#
#
# Elastic Constant Matrix: (Units=GPa)
#
#
# Indices 1 2 3 4 5 6 
#
# 1 132.7861 49.6625 71.7310 0.0000 0.0000 0.0000
# 2 49.6625 205.3452 40.2862 0.0000 0.0000 0.0000
# 3 71.7310 40.2862 117.0097 0.0000 0.0000 0.0000
# 4 0.0000 0.0000 0.0000 33.1991 0.0000 0.0000
# 5 0.0000 0.0000 0.0000 0.0000 1.0449 0.0000
# 6 0.0000 0.0000 0.0000 0.0000 0.0000 42.0383
#
#
#
# Elastic Compliance Matrix: (Units=1/GPa)
#
#
# Indices 1 2 3 4 5 6 
#
# 1 0.011688 -0.001524 -0.006641 0.000000 0.000000 0.000000
# 2 -0.001524 0.005421 -0.000932 0.000000 0.000000 0.000000
# 3 -0.006641 -0.000932 0.012938 0.000000 0.000000 0.000000
# 4 0.000000 0.000000 0.000000 0.030121 0.000000 0.000000
# 5 0.000000 0.000000 0.000000 0.000000 0.956998 0.000000
# 6 0.000000 0.000000 0.000000 0.000000 0.000000 0.023788
#
#
# Mechanical properties :
#
#
# Convention : Reuss Voigt Hill
#
# Bulk Modulus (GPa) = 84.35968 86.50006 85.42987
# Shear Modulus (GPa) = 4.70323 34.82055 19.76189
#
# Velocity S-wave (km/s) = 1.36416 3.71181 2.79629
# Velocity P-wave (km/s) = 5.98833 7.25229 6.65041
#
# Compressibility (1/GPa) = 0.01185400
#
# Stress axis : x y z
#
# Youngs Moduli (GPa) = 85.55726 184.45680 77.29079
#
# Poissons Ratio (x) = 0.28110 0.51325
# Poissons Ratio (y) = 0.13039 0.07206
# Poissons Ratio (z) = 0.56814 0.17197
#
# Static dielectric constant tensor:
#      x y z
#    x 4.874060 0.000000 0.000000 
#    y 0.000000 6.239200 0.000000 
#    z 0.000000 0.000000 4.696240 
# 
# 
# High freq. dielectric constant tensor:
#      x y z
#    x 2.010910 0.000000 0.000000 
#    y 0.000000 2.047310 0.000000 
#    z 0.000000 0.000000 2.017660 
# 
# From -- ./inp_files/5366.got.cif
#   From: 2010.03.12/outbox.cif.g09.slc.cpg/sg45_3_cif.got.tgz:5366.got - 2010.04.14 02:50:11.
