data_PCOD8191210
_publ_section_title
;
Structure prediction by ZEFSAII (Michael W. Deem and Ramdas Pophale) SiO2 
 PCOD8191210
Probable space group: I M A 2
;
_chemical_formula_sum "Si O2"
_cell_formula_units_Z 56
_cell_length_a 18.485181
_cell_length_b 20.097654
_cell_length_c 9.568467
_cell_angle_alpha 90.000000
_cell_angle_beta 90.000000
_cell_angle_gamma 90.000000
_cell_volume 3554.769424
_symmetry_space_group_name_H-M "I M A 2"
_symmetry_group_IT_number 46
_symmetry_cell_setting 'orthorhombic'
loop_
_space_group_symop_operation_xyz
x,y,z
-x,-y,z
1/2-x,y,z
1/2+x,-y,z
1/2+x,1/2+y,1/2+z
1/2-x,1/2-y,1/2+z
-x,1/2+y,1/2+z
x,1/2-y,1/2+z
loop_
_atom_site_type_symbol
_atom_site_label
_atom_site_fract_x
_atom_site_fract_y
_atom_site_fract_z
Si Si1 0.898539 0.112636 0.484170
Si Si2 0.037206 0.824639 0.840528
Si Si3 0.331037 0.913450 0.895316
Si Si4 0.971122 0.571312 0.163741
Si Si5 0.330318 0.496223 0.150608
Si Si6 0.084604 0.754089 0.096691
Si Si7 0.167073 0.624164 0.694030
O O1 0.843942 0.062803 0.561165
O O2 0.881336 0.189371 0.521134
O O3 0.887134 0.102621 0.318209
O O4 0.981324 0.096640 0.531477
O O5 0.114843 0.860863 0.824577
O O6 0.036213 0.764412 0.730078
O O7 0.975780 0.877852 0.795468
O O8 0.028847 0.794250 0.994707
O O9 0.250000 0.884157 0.878304
O O10 0.337562 0.983744 0.814516
O O11 0.347300 0.924369 0.060769
O O12 0.887537 0.562601 0.116701
O O13 0.000000 0.500000 0.216179
O O14 0.250000 0.469328 0.116628
O O15 0.150858 0.800922 0.141788
O O16 0.250000 0.620463 0.745822
#
# Coordination Sequence:
#
# PCOD8191210 Si02
#       7
#     8   8   8   8   8   8   8
#     4  10  18  31  46  66  97 127 160 193 234 273
#     4  10  17  30  45  63  95 123 160 190 227 273
#     4   9  17  28  43  66  94 126 156 191 227 268
#     4   9  17  31  50  66  91 121 160 204 230 276
#     4  10  18  31  53  71  89 122 161 200 244 281
#     4  10  18  28  41  66  93 127 158 187 221 283
#     4  10  20  28  39  63  99 131 159 186 221 273
#
# _framework density 15.753482999999999
#
# number of rings (size 3 to 8) (size 9 to 14) (size 15 to 20)
#    0.000    2.286    5.714    0.429    0.000    1.714 
#    0.000    0.000   18.857    0.000    0.000    4.000 
#    0.000    0.000    0.000    0.000    0.000    0.000 
#
# Total GULP energy -346957.413055 kJ/mol
# GULP energy per Si atom -12391.336181 kJ/mol
# Density = 1.571763 g / cm^3
# Si number density = 15.753483 Si / 1000 Ang^3
#
#
#
# Elastic Constant Matrix: (Units=GPa)
#
#
# Indices 1 2 3 4 5 6 
#
# 1 98.0331 32.3976 34.6831 0.0000 0.0000 0.0000
# 2 32.3976 43.0698 27.0208 0.0000 0.0000 0.0000
# 3 34.6831 27.0208 90.4024 0.0000 0.0000 0.0000
# 4 0.0000 0.0000 0.0000 16.5713 0.0000 0.0000
# 5 0.0000 0.0000 0.0000 0.0000 15.7822 0.0000
# 6 0.0000 0.0000 0.0000 0.0000 0.0000 21.7642
#
#
#
# Elastic Compliance Matrix: (Units=1/GPa)
#
#
# Indices 1 2 3 4 5 6 
#
# 1 0.014113 -0.008885 -0.002759 0.000000 0.000000 0.000000
# 2 -0.008885 0.034171 -0.006805 0.000000 0.000000 0.000000
# 3 -0.002759 -0.006805 0.014154 0.000000 0.000000 0.000000
# 4 0.000000 0.000000 0.000000 0.060345 0.000000 0.000000
# 5 0.000000 0.000000 0.000000 0.000000 0.063362 0.000000
# 6 0.000000 0.000000 0.000000 0.000000 0.000000 0.045947
#
#
# Mechanical properties :
#
#
# Convention : Reuss Voigt Hill
#
# Bulk Modulus (GPa) = 39.15347 46.63423 42.89385
# Shear Modulus (GPa) = 18.01782 19.98380 19.00081
#
# Velocity S-wave (km/s) = 3.38559 3.56551 3.47671
# Velocity P-wave (km/s) = 6.33962 6.82768 6.58817
#
# Compressibility (1/GPa) = 0.02554052
#
# Stress axis : x y z
#
# Youngs Moduli (GPa) = 70.85674 29.26485 70.65187
#
# Poissons Ratio (x) = 0.26002 0.19491
# Poissons Ratio (y) = 0.62958 0.48076
# Poissons Ratio (z) = 0.19548 0.19914
#
# Static dielectric constant tensor:
#      x y z
#    x 2.883720 0.000000 0.000000 
#    y 0.000000 2.881010 0.000000 
#    z 0.000000 0.000000 3.180080 
# 
# 
# High freq. dielectric constant tensor:
#      x y z
#    x 1.570720 0.000000 0.000000 
#    y 0.000000 1.575520 0.000000 
#    z 0.000000 0.000000 1.611080 
# 
# From -- ./inp_files/6859.got.cif
#   From: 2010.03.12/outbox.cif.g09.slc.cpg/sg46_4_cif.got.tgz:6859.got - 2010.04.14 02:56:35.
