data_PCOD8191942
_publ_section_title
;
Structure prediction by ZEFSAII (Michael W. Deem and Ramdas Pophale) SiO2 
 PCOD8191942
Probable space group: I M A 2
;
_chemical_formula_sum "Si O2"
_cell_formula_units_Z 56
_cell_length_a 8.777644
_cell_length_b 23.698447
_cell_length_c 13.609482
_cell_angle_alpha 90.000000
_cell_angle_beta 90.000000
_cell_angle_gamma 90.000000
_cell_volume 2830.997236
_symmetry_space_group_name_H-M "I M A 2"
_symmetry_group_IT_number 46
_symmetry_cell_setting 'orthorhombic'
loop_
_space_group_symop_operation_xyz
x,y,z
-x,-y,z
1/2-x,y,z
1/2+x,-y,z
1/2+x,1/2+y,1/2+z
1/2-x,1/2-y,1/2+z
-x,1/2+y,1/2+z
x,1/2-y,1/2+z
loop_
_atom_site_type_symbol
_atom_site_label
_atom_site_fract_x
_atom_site_fract_y
_atom_site_fract_z
Si Si1 0.571553 0.838302 0.886310
Si Si2 0.426646 0.116498 0.177119
Si Si3 0.429016 0.557883 0.073823
Si Si4 0.430328 0.558708 0.850614
Si Si5 0.430260 0.559456 0.492697
Si Si6 0.928545 0.169871 0.681972
Si Si7 0.076035 0.231982 0.073048
O O1 0.750000 0.852310 0.890672
O O2 0.480173 0.894966 0.911557
O O3 0.522096 0.816048 0.780053
O O4 0.532179 0.789183 0.964159
O O5 0.250000 0.099797 0.176948
O O6 0.499688 0.108341 0.284328
O O7 0.450180 0.181566 0.149970
O O8 0.510450 0.076072 0.100094
O O9 0.500000 0.500000 0.114832
O O10 0.250000 0.550878 0.076991
O O11 0.483492 0.609340 0.141529
O O12 0.483006 0.569839 0.962371
O O13 0.500000 0.500000 0.812488
O O14 0.250000 0.557495 0.839448
O O15 0.500000 0.500000 0.460182
O O16 0.250000 0.555112 0.494706
O O17 0.750000 0.170239 0.704488
O O18 0.965428 0.216831 0.600443
O O19 0.250000 0.253092 0.076692
#
# Coordination Sequence:
#
# PCOD8191942 Si02
#       7
#     8   8   8   8   8   8   8
#     4  10  22  41  61  84 115 149 189 235 281 334
#     4  10  20  35  54  80 114 151 192 236 283 337
#     4   9  21  39  57  81 112 145 184 230 276 328
#     4  10  19  33  53  79 112 149 189 233 282 334
#     4  11  21  35  56  83 115 152 193 236 286 339
#     4  11  23  39  61  88 115 145 184 229 281 337
#     4   9  21  40  59  81 111 147 188 231 275 329
#
# _framework density 19.781013999999999
#
# number of rings (size 3 to 8) (size 9 to 14) (size 15 to 20)
#    0.000    2.000    0.000    4.286    0.000    6.857 
#    0.000    4.286    0.000    0.000    0.000    0.000 
#    0.000    0.000    0.000    0.000    0.000    0.000 
#
# Total GULP energy -347337.512385 kJ/mol
# GULP energy per Si atom -12404.911157 kJ/mol
# Density = 1.973599 g / cm^3
# Si number density = 19.781014 Si / 1000 Ang^3
#
#
#
# Elastic Constant Matrix: (Units=GPa)
#
#
# Indices 1 2 3 4 5 6 
#
# 1 99.6376 45.1757 37.7907 0.0000 0.0000 0.0000
# 2 45.1757 108.1374 54.1873 0.0000 0.0000 0.0000
# 3 37.7907 54.1873 105.2212 0.0003 0.0000 0.0000
# 4 0.0000 0.0000 0.0003 25.7823 0.0000 0.0000
# 5 0.0000 0.0000 0.0000 0.0000 31.8456 0.0000
# 6 0.0000 0.0000 0.0000 0.0000 0.0000 33.7143
#
#
#
# Elastic Compliance Matrix: (Units=1/GPa)
#
#
# Indices 1 2 3 4 5 6 
#
# 1 0.012850 -0.004118 -0.002494 0.000000 0.000000 0.000000
# 2 -0.004118 0.013784 -0.005619 0.000000 0.000000 0.000000
# 3 -0.002494 -0.005619 0.013293 0.000000 0.000000 0.000000
# 4 0.000000 0.000000 0.000000 0.038786 0.000000 0.000000
# 5 0.000000 0.000000 0.000000 0.000000 0.031401 0.000000
# 6 0.000000 0.000000 0.000000 0.000000 0.000000 0.029661
#
#
# Mechanical properties :
#
#
# Convention : Reuss Voigt Hill
#
# Bulk Modulus (GPa) = 64.66920 65.25595 64.96257
# Shear Modulus (GPa) = 29.51707 29.99128 29.75417
#
# Velocity S-wave (km/s) = 3.86708 3.89802 3.88258
# Velocity P-wave (km/s) = 7.25966 7.30207 7.28089
#
# Compressibility (1/GPa) = 0.01546331
#
# Stress axis : x y z
#
# Youngs Moduli (GPa) = 77.82356 72.54903 75.22507
#
# Poissons Ratio (x) = 0.29878 0.18762
# Poissons Ratio (y) = 0.32050 0.42272
# Poissons Ratio (z) = 0.19410 0.40768
#
# Static dielectric constant tensor:
#      x y z
#    x 3.555550 0.000000 0.000000 
#    y 0.000000 3.532250 0.000000 
#    z 0.000000 0.000000 3.622300 
# 
# 
# High freq. dielectric constant tensor:
#      x y z
#    x 1.777970 0.000000 0.000000 
#    y 0.000000 1.766890 0.000000 
#    z 0.000000 0.000000 1.770700 
# 
# From -- ./inp_files/14135.got.cif
#   From: 2010.03.12/outbox.cif.g09.slc.cpg/sg46_8_cif.got.tgz:14135.got - 2010.04.14 02:56:35.
