data_PCOD8192414
_publ_section_title
;
Structure prediction by ZEFSAII (Michael W. Deem and Ramdas Pophale) SiO2 
 PCOD8192414
Probable space group: I M A 2
;
_chemical_formula_sum "Si O2"
_cell_formula_units_Z 60
_cell_length_a 9.358806
_cell_length_b 14.929120
_cell_length_c 21.868618
_cell_angle_alpha 90.000000
_cell_angle_beta 90.000000
_cell_angle_gamma 90.000000
_cell_volume 3055.455705
_symmetry_space_group_name_H-M "I M A 2"
_symmetry_group_IT_number 46
_symmetry_cell_setting 'orthorhombic'
loop_
_space_group_symop_operation_xyz
x,y,z
-x,-y,z
1/2-x,y,z
1/2+x,-y,z
1/2+x,1/2+y,1/2+z
1/2-x,1/2-y,1/2+z
-x,1/2+y,1/2+z
x,1/2-y,1/2+z
loop_
_atom_site_type_symbol
_atom_site_label
_atom_site_fract_x
_atom_site_fract_y
_atom_site_fract_z
Si Si1 0.410850 0.248145 0.124000
Si Si2 0.088982 0.671554 0.314305
Si Si3 0.087794 0.248876 0.986165
Si Si4 0.500000 0.500000 0.789874
Si Si5 0.089192 0.581105 0.670125
Si Si6 0.585007 0.915260 0.708979
Si Si7 0.410290 0.331799 0.860910
Si Si8 0.090374 0.912707 0.944688
O O1 0.250000 0.209868 0.131514
O O2 0.517242 0.174488 0.151580
O O3 0.432945 0.337676 0.160758
O O4 0.439377 0.282192 0.054941
O O5 0.250000 0.685346 0.288342
O O6 0.093707 0.611648 0.374097
O O7 0.988515 0.614742 0.271077
O O8 0.021180 0.769227 0.325162
O O9 0.250000 0.214488 0.977782
O O10 0.056597 0.325283 0.934335
O O11 0.980401 0.167135 0.981529
O O12 0.405833 0.562907 0.744064
O O13 0.416656 0.433341 0.835726
O O14 0.250000 0.581565 0.644839
O O15 0.000000 0.500000 0.638378
O O16 0.750000 0.939901 0.721647
O O17 0.500000 0.000000 0.682371
O O18 0.250000 0.296213 0.848235
O O19 0.250000 0.927854 0.969855
O O20 0.000000 0.000000 0.957565
#
# Coordination Sequence:
#
# PCOD8192414 Si02
#       8
#     8   8   8   4   8   8   8   8
#     4  10  22  41  61  82 115 155 200 247 291 348
#     4  10  21  36  57  86 118 148 185 233 289 347
#     4   9  20  39  60  80 108 152 197 236 286 343
#     4  10  22  34  58  90 122 148 192 242 294 360
#     4  10  22  37  59  89 121 155 193 241 299 359
#     4  11  23  38  58  84 114 151 194 241 291 344
#     4  10  20  37  60  85 116 154 192 236 292 350
#     4  10  20  34  55  84 115 145 182 230 281 338
#
# _framework density 19.637006
#
# number of rings (size 3 to 8) (size 9 to 14) (size 15 to 20)
#    0.400    1.600    0.000    3.200    0.000    8.000 
#    1.200    0.000    0.000    0.000    0.000    0.000 
#    0.000    0.000    0.000    0.000    0.000    0.000 
#
# Total GULP energy -371792.172744 kJ/mol
# GULP energy per Si atom -12393.072425 kJ/mol
# Density = 1.959231 g / cm^3
# Si number density = 19.637006 Si / 1000 Ang^3
#
#
#
# Elastic Constant Matrix: (Units=GPa)
#
#
# Indices 1 2 3 4 5 6 
#
# 1 145.8164 58.1465 28.8581 0.0000 0.0000 0.0000
# 2 58.1465 87.2555 39.0970 0.0000 0.0000 0.0000
# 3 28.8581 39.0970 41.5533 0.0000 0.0000 0.0000
# 4 0.0000 0.0000 0.0000 -21.8008 0.0000 0.0000
# 5 0.0000 0.0000 0.0000 0.0000 13.1749 0.0000
# 6 0.0000 0.0000 0.0000 0.0000 0.0000 32.7104
#
#
#
# Elastic Compliance Matrix: (Units=1/GPa)
#
#
# Indices 1 2 3 4 5 6 
#
# 1 0.009368 -0.005753 -0.001093 0.000000 0.000000 0.000000
# 2 -0.005753 0.023347 -0.017971 0.000000 0.000000 0.000000
# 3 -0.001093 -0.017971 0.041734 0.000000 0.000000 0.000000
# 4 0.000000 0.000000 0.000000 -0.045870 0.000000 0.000000
# 5 0.000000 0.000000 0.000000 0.000000 0.075902 0.000000
# 6 0.000000 0.000000 0.000000 0.000000 0.000000 0.030571
#
#
# Mechanical properties :
#
#
# Convention : Reuss Voigt Hill
#
# Bulk Modulus (GPa) = 40.30031 58.53649 49.41840
# Shear Modulus (GPa) = 25.91213 14.71846 20.31529
#
# Velocity S-wave (km/s) = 3.63651 2.74072 3.21992
# Velocity P-wave (km/s) = 6.18057 6.31580 6.24855
#
# Compressibility (1/GPa) = 0.02481370
#
# Stress axis : x y z
#
# Youngs Moduli (GPa) = 106.74078 42.83172 23.96148
#
# Poissons Ratio (x) = 0.24643 0.02619
# Poissons Ratio (y) = 0.61412 0.43062
# Poissons Ratio (z) = 0.11667 0.76975
#
# Static dielectric constant tensor:
#      x y z
#    x 3.819280 0.000000 0.000000 
#    y 0.000000 3.522540 0.000000 
#    z 0.000000 0.000000 3.587990 
# 
# 
# High freq. dielectric constant tensor:
#      x y z
#    x 1.774330 0.000000 0.000000 
#    y 0.000000 1.754740 0.000000 
#    z 0.000000 0.000000 1.760110 
# 
# From -- ./inp_files/23129.got.cif
#   From: 2010.03.12/outbox.cif.g09.slc.cpg/sg46_12_cif.got.tgz:23129.got - 2010.04.14 02:56:35.
