data_PCOD8192767
_publ_section_title
;
Structure prediction by ZEFSAII (Michael W. Deem and Ramdas Pophale) SiO2 
 PCOD8192767
Probable space group: I M A 2
;
_chemical_formula_sum "Si O2"
_cell_formula_units_Z 64
_cell_length_a 15.325962
_cell_length_b 23.847654
_cell_length_c 9.195591
_cell_angle_alpha 90.000000
_cell_angle_beta 90.000000
_cell_angle_gamma 90.000000
_cell_volume 3360.880361
_symmetry_space_group_name_H-M "I M A 2"
_symmetry_group_IT_number 46
_symmetry_cell_setting 'orthorhombic'
loop_
_space_group_symop_operation_xyz
x,y,z
-x,-y,z
1/2-x,y,z
1/2+x,-y,z
1/2+x,1/2+y,1/2+z
1/2-x,1/2-y,1/2+z
-x,1/2+y,1/2+z
x,1/2-y,1/2+z
loop_
_atom_site_type_symbol
_atom_site_label
_atom_site_fract_x
_atom_site_fract_y
_atom_site_fract_z
Si Si1 0.098338 0.000003 0.570460
Si Si2 0.850490 0.892098 0.061571
Si Si3 0.000005 0.809105 0.720118
Si Si4 0.652774 0.390683 0.227133
Si Si5 0.999995 0.192180 0.060417
Si Si6 0.149509 0.607892 0.561572
Si Si7 0.652774 0.609326 0.227130
Si Si8 0.851656 0.500005 0.746965
O O1 0.147495 0.054617 0.627783
O O2 0.095885 0.000004 0.396414
O O3 0.147501 0.945391 0.627783
O O4 0.000000 0.000000 0.630391
O O5 0.750000 0.874657 0.089948
O O6 0.878139 0.945727 0.154723
O O7 0.912892 0.841047 0.108130
O O8 0.866712 0.907923 0.893410
O O9 0.085340 0.843891 0.672348
O O10 0.000014 0.751131 0.637950
O O11 0.914660 0.843881 0.672350
O O12 0.000008 0.796421 0.889847
O O13 0.750000 0.365392 0.212121
O O14 0.633285 0.407932 0.393411
O O15 0.912890 0.158944 0.108134
O O16 0.250000 0.625332 0.589947
O O17 0.121860 0.554264 0.654724
O O18 0.750000 0.634616 0.212108
O O19 0.750000 0.500004 0.783424
#
# Coordination Sequence:
#
# PCOD8192767 Si02
#       8
#     8   8   8   8   8   8   8   8
#     4  12  23  34  54  88 120 145 180 224 279 334
#     4   9  20  38  60  83 109 148 189 225 272 331
#     4  10  22  39  54  85 107 146 190 230 273 328
#     4  10  20  39  61  81 111 148 186 227 272 329
#     4  10  22  37  58  79 115 142 188 234 273 322
#     4   9  20  38  60  83 109 148 189 225 272 331
#     4  10  20  39  61  81 111 148 186 227 272 329
#     4  10  21  36  54  85 119 146 182 225 278 332
#
# _framework density 19.042629000000002
#
# number of rings (size 3 to 8) (size 9 to 14) (size 15 to 20)
#    0.000    2.000    1.250    1.875    1.750    5.000 
#    0.000    0.000    0.000    0.000    0.000    0.000 
#    0.000    0.000    0.000    0.000    0.000    0.000 
#
# Total GULP energy -396920.326664 kJ/mol
# GULP energy per Si atom -12403.760208 kJ/mol
# Density = 1.899929 g / cm^3
# Si number density = 19.042629 Si / 1000 Ang^3
#
#
#
# Elastic Constant Matrix: (Units=GPa)
#
#
# Indices 1 2 3 4 5 6 
#
# 1 129.9998 75.9126 41.6399 -0.0001 -0.0002 0.0000
# 2 75.9126 168.8266 67.9312 -0.0002 -0.0001 0.0000
# 3 41.6399 67.9312 75.3519 -0.0017 -0.0005 0.0010
# 4 -0.0001 -0.0002 -0.0017 40.0447 -0.0002 0.0002
# 5 -0.0002 -0.0001 -0.0005 -0.0002 23.3354 0.0000
# 6 0.0000 0.0000 0.0010 0.0002 0.0000 12.5962
#
#
#
# Elastic Compliance Matrix: (Units=1/GPa)
#
#
# Indices 1 2 3 4 5 6 
#
# 1 0.010718 -0.003823 -0.002476 0.000000 0.000000 0.000000
# 2 -0.003823 0.010658 -0.007496 0.000000 0.000000 0.000001
# 3 -0.002476 -0.007496 0.021398 0.000001 0.000000 -0.000002
# 4 0.000000 0.000000 0.000001 0.024972 0.000000 0.000000
# 5 0.000000 0.000000 0.000000 0.000000 0.042853 0.000000
# 6 0.000000 0.000001 -0.000002 0.000000 0.000000 0.079389
#
#
# Mechanical properties :
#
#
# Convention : Reuss Voigt Hill
#
# Bulk Modulus (GPa) = 65.86369 82.79399 74.32884
# Shear Modulus (GPa) = 22.45777 27.77491 25.11634
#
# Velocity S-wave (km/s) = 3.43788 3.82326 3.63568
# Velocity P-wave (km/s) = 7.10079 7.94118 7.53272
#
# Compressibility (1/GPa) = 0.01518287
#
# Stress axis : x y z
#
# Youngs Moduli (GPa) = 93.30240 93.82206 46.73418
#
# Poissons Ratio (x) = 0.35867 0.11573
# Poissons Ratio (y) = 0.35668 0.35033
# Poissons Ratio (z) = 0.23105 0.70332
#
# Static dielectric constant tensor:
#      x y z
#    x 3.692700 0.000000 0.000000 
#    y 0.000000 3.306410 0.000000 
#    z 0.000000 0.000000 3.378880 
# 
# 
# High freq. dielectric constant tensor:
#      x y z
#    x 1.758370 0.000000 0.000000 
#    y 0.000000 1.728010 0.000000 
#    z 0.000000 0.000000 1.734250 
# 
# From -- ./inp_files/6063.got.cif
#   From: 2010.03.12/outbox.cif.g09.slc.cpg/sg46_4_cif.got.tgz:6063.got - 2010.04.14 02:56:35.
