data_PCOD8192962
_publ_section_title
;
Structure prediction by ZEFSAII (Michael W. Deem and Ramdas Pophale) SiO2 
 PCOD8192962
Probable space group: I M A 2
;
_chemical_formula_sum "Si O2"
_cell_formula_units_Z 40
_cell_length_a 14.541623
_cell_length_b 4.971241
_cell_length_c 25.263812
_cell_angle_alpha 90.000000
_cell_angle_beta 90.000000
_cell_angle_gamma 90.000000
_cell_volume 1826.318758
_symmetry_space_group_name_H-M "I M A 2"
_symmetry_group_IT_number 46
_symmetry_cell_setting 'orthorhombic'
loop_
_space_group_symop_operation_xyz
x,y,z
-x,-y,z
1/2-x,y,z
1/2+x,-y,z
1/2+x,1/2+y,1/2+z
1/2-x,1/2-y,1/2+z
-x,1/2+y,1/2+z
x,1/2-y,1/2+z
loop_
_atom_site_type_symbol
_atom_site_label
_atom_site_fract_x
_atom_site_fract_y
_atom_site_fract_z
Si Si1 0.250000 0.812583 0.177470
Si Si2 0.250000 0.194577 0.747831
Si Si3 0.060024 0.255651 0.430695
Si Si4 0.564138 0.739285 0.312813
Si Si5 0.402891 0.893176 0.096234
Si Si6 0.648960 0.909733 0.534573
O O1 0.250000 0.612122 0.227458
O O2 0.342154 0.767043 0.143158
O O3 0.250000 0.118505 0.196524
O O4 0.157868 0.262099 0.780095
O O5 0.099387 0.330453 0.372724
O O6 0.135517 0.177015 0.473802
O O7 0.000000 0.500000 0.454429
O O8 0.000000 0.000000 0.418906
O O9 0.500000 0.500000 0.291194
O O10 0.500000 0.000000 0.307480
O O11 0.419674 0.649410 0.053731
O O12 0.500000 0.000000 0.118398
O O13 0.352847 0.144748 0.070057
O O14 0.750000 0.038139 0.539159
#
# Coordination Sequence:
#
# PCOD8192962 Si02
#       6
#     4   4   8   8   8   8
#     4  12  26  46  64 100 126 166 230 278 324 388
#     4  12  26  44  74  92 134 170 220 288 334 384
#     4  10  21  38  62  95 133 171 213 255 311 393
#     4  10  23  44  68 100 135 171 219 269 329 398
#     4  12  25  44  66  92 132 175 212 266 328 381
#     4  12  22  39  65  98 136 170 214 260 314 392
#
# _framework density 21.901979999999998
#
# number of rings (size 3 to 8) (size 9 to 14) (size 15 to 20)
#    0.000    0.800    2.000    6.000    1.400    2.400 
#    0.000    0.000    0.000    0.000    0.000    0.000 
#    0.000    0.000    0.000    0.000    0.000    0.000 
#
# Total GULP energy -247982.984161 kJ/mol
# GULP energy per Si atom -12399.149208 kJ/mol
# Density = 2.185213 g / cm^3
# Si number density = 21.901980 Si / 1000 Ang^3
#
#
#
# Elastic Constant Matrix: (Units=GPa)
#
#
# Indices 1 2 3 4 5 6 
#
# 1 138.7672 34.3662 58.5160 0.0000 0.0000 0.0000
# 2 34.3662 128.6414 24.6105 0.0000 0.0000 0.0000
# 3 58.5160 24.6105 96.2944 0.0000 0.0000 0.0000
# 4 0.0000 0.0000 0.0000 36.1614 0.0000 0.0000
# 5 0.0000 0.0000 0.0000 0.0000 22.0063 0.0000
# 6 0.0000 0.0000 0.0000 0.0000 0.0000 33.2345
#
#
#
# Elastic Compliance Matrix: (Units=1/GPa)
#
#
# Indices 1 2 3 4 5 6 
#
# 1 0.009987 -0.001584 -0.005664 0.000000 0.000000 0.000000
# 2 -0.001584 0.008425 -0.001190 0.000000 0.000000 0.000000
# 3 -0.005664 -0.001190 0.014131 0.000000 0.000000 0.000000
# 4 0.000000 0.000000 0.000000 0.027654 0.000000 0.000000
# 5 0.000000 0.000000 0.000000 0.000000 0.045442 0.000000
# 6 0.000000 0.000000 0.000000 0.000000 0.000000 0.030089
#
#
# Mechanical properties :
#
#
# Convention : Reuss Voigt Hill
#
# Bulk Modulus (GPa) = 63.83608 66.52092 65.17850
# Shear Modulus (GPa) = 31.68040 34.69447 33.18743
#
# Velocity S-wave (km/s) = 3.80737 3.98437 3.89687
# Velocity P-wave (km/s) = 6.96689 7.18366 7.07610
#
# Compressibility (1/GPa) = 0.01566512
#
# Stress axis : x y z
#
# Youngs Moduli (GPa) = 100.12885 118.70090 70.76684
#
# Poissons Ratio (x) = 0.18807 0.40082
# Poissons Ratio (y) = 0.15865 0.08423
# Poissons Ratio (z) = 0.56713 0.14129
#
# Static dielectric constant tensor:
#      x y z
#    x 3.774010 0.000000 0.000000 
#    y 0.000000 4.071990 0.000000 
#    z 0.000000 0.000000 4.006030 
# 
# 
# High freq. dielectric constant tensor:
#      x y z
#    x 1.854380 0.000000 0.000000 
#    y 0.000000 1.881400 0.000000 
#    z 0.000000 0.000000 1.860090 
# 
# From -- ./inp_files/23553.got.cif
#   From: 2010.03.12/outbox.cif.g09.slc.cpg/sg46_12_cif.got.tgz:23553.got - 2010.04.14 02:56:35.
