data_PCOD8192591
_publ_section_title
;
Structure prediction by ZEFSAII (Michael W. Deem and Ramdas Pophale) SiO2 
 PCOD8192591
Probable space group: I M A 2
;
_chemical_formula_sum "Si O2"
_cell_formula_units_Z 56
_cell_length_a 17.916610
_cell_length_b 7.424426
_cell_length_c 20.128145
_cell_angle_alpha 90.000000
_cell_angle_beta 90.000000
_cell_angle_gamma 90.000000
_cell_volume 2677.456820
_symmetry_space_group_name_H-M "I M A 2"
_symmetry_group_IT_number 46
_symmetry_cell_setting 'orthorhombic'
loop_
_space_group_symop_operation_xyz
x,y,z
-x,-y,z
1/2-x,y,z
1/2+x,-y,z
1/2+x,1/2+y,1/2+z
1/2-x,1/2-y,1/2+z
-x,1/2+y,1/2+z
x,1/2-y,1/2+z
loop_
_atom_site_type_symbol
_atom_site_label
_atom_site_fract_x
_atom_site_fract_y
_atom_site_fract_z
Si Si1 0.832690 0.643405 0.324230
Si Si2 0.337103 0.195225 0.459225
Si Si3 0.084052 0.690531 0.282035
Si Si4 0.470441 0.197760 0.181740
Si Si5 0.020784 0.293086 0.534852
Si Si6 0.333428 0.462968 0.733693
Si Si7 0.566037 0.381825 0.916146
O O1 0.750000 0.566043 0.313392
O O2 0.851040 0.653544 0.402466
O O3 0.884884 0.512640 0.280736
O O4 0.837023 0.853316 0.302730
O O5 0.250000 0.190451 0.481557
O O6 0.392180 0.256832 0.518123
O O7 0.360019 0.996143 0.433071
O O8 0.137228 0.834458 0.245187
O O9 0.079888 0.730636 0.360847
O O10 0.005344 0.683896 0.242221
O O11 0.492624 0.279323 0.110062
O O12 0.500000 0.000000 0.194606
O O13 0.381063 0.165677 0.184316
O O14 0.000000 0.500000 0.532527
O O15 0.964484 0.193723 0.485833
O O16 0.250000 0.476662 0.704657
O O17 0.500000 0.500000 0.883664
#
# Coordination Sequence:
#
# PCOD8192591 Si02
#       7
#     8   8   8   8   8   8   8
#     4  10  21  35  55  89 119 148 194 245 298 359
#     4  10  21  38  60  88 123 157 203 256 305 365
#     4  11  20  36  61  88 118 153 197 245 302 354
#     4   9  21  38  59  86 116 155 205 244 293 361
#     4  10  21  40  61  86 121 160 207 254 300 363
#     4  10  20  37  57  82 122 154 187 244 302 356
#     4  10  20  36  59  84 116 157 197 243 305 356
#
# _framework density 20.915372000000001
#
# number of rings (size 3 to 8) (size 9 to 14) (size 15 to 20)
#    0.000    2.000    1.429    2.571    2.000    1.714 
#    7.714    0.714    0.000    3.429    0.000    0.000 
#    0.000    0.000    0.000    0.000    0.000    0.000 
#
# Total GULP energy -346923.301148 kJ/mol
# GULP energy per Si atom -12390.117898 kJ/mol
# Density = 2.086777 g / cm^3
# Si number density = 20.915372 Si / 1000 Ang^3
#
#
#
# Elastic Constant Matrix: (Units=GPa)
#
#
# Indices 1 2 3 4 5 6 
#
# 1 130.4086 36.1000 35.7831 0.0000 0.0000 0.0000
# 2 36.1000 71.1468 17.0494 0.0000 0.0000 0.0000
# 3 35.7831 17.0494 101.3493 0.0000 0.0000 0.0000
# 4 0.0000 0.0000 0.0000 13.0187 0.0000 0.0000
# 5 0.0000 0.0000 0.0000 0.0000 22.5812 0.0000
# 6 0.0000 0.0000 0.0000 0.0000 0.0000 31.0779
#
#
#
# Elastic Compliance Matrix: (Units=1/GPa)
#
#
# Indices 1 2 3 4 5 6 
#
# 1 0.009567 -0.004215 -0.002669 0.000000 0.000000 0.000000
# 2 -0.004215 0.016503 -0.001288 0.000000 0.000000 0.000000
# 3 -0.002669 -0.001288 0.011026 0.000000 0.000000 0.000000
# 4 0.000000 0.000000 0.000000 0.076813 0.000000 0.000000
# 5 0.000000 0.000000 0.000000 0.000000 0.044285 0.000000
# 6 0.000000 0.000000 0.000000 0.000000 0.000000 0.032177
#
#
# Mechanical properties :
#
#
# Convention : Reuss Voigt Hill
#
# Bulk Modulus (GPa) = 48.18734 53.41884 50.80309
# Shear Modulus (GPa) = 23.40479 27.60037 25.50258
#
# Velocity S-wave (km/s) = 3.34881 3.63660 3.49567
# Velocity P-wave (km/s) = 6.16781 6.57488 6.37460
#
# Compressibility (1/GPa) = 0.02075234
#
# Stress axis : x y z
#
# Youngs Moduli (GPa) = 104.52274 60.59594 90.69616
#
# Poissons Ratio (x) = 0.25541 0.24205
# Poissons Ratio (y) = 0.44055 0.11682
# Poissons Ratio (z) = 0.27896 0.07805
#
# Static dielectric constant tensor:
#      x y z
#    x 4.409800 0.000000 0.000000 
#    y 0.000000 3.870720 0.000000 
#    z 0.000000 0.000000 3.663110 
# 
# 
# High freq. dielectric constant tensor:
#      x y z
#    x 1.820890 0.000000 0.000000 
#    y 0.000000 1.816490 0.000000 
#    z 0.000000 0.000000 1.801630 
# 
# From -- ./inp_files/22170.got.cif
#   From: 2010.03.12/outbox.cif.g09.slc.cpg/sg46_12_cif.got.tgz:22170.got - 2010.04.14 02:56:35.
