data_PCOD8192196
_publ_section_title
;
Structure prediction by ZEFSAII (Michael W. Deem and Ramdas Pophale) SiO2 
 PCOD8192196
Probable space group: I M A 2
;
_chemical_formula_sum "Si O2"
_cell_formula_units_Z 64
_cell_length_a 9.007125
_cell_length_b 30.697561
_cell_length_c 11.873058
_cell_angle_alpha 90.000000
_cell_angle_beta 90.000000
_cell_angle_gamma 90.000000
_cell_volume 3282.862177
_symmetry_space_group_name_H-M "I M A 2"
_symmetry_group_IT_number 46
_symmetry_cell_setting 'orthorhombic'
loop_
_space_group_symop_operation_xyz
x,y,z
-x,-y,z
1/2-x,y,z
1/2+x,-y,z
1/2+x,1/2+y,1/2+z
1/2-x,1/2-y,1/2+z
-x,1/2+y,1/2+z
x,1/2-y,1/2+z
loop_
_atom_site_type_symbol
_atom_site_label
_atom_site_fract_x
_atom_site_fract_y
_atom_site_fract_z
Si Si1 0.925335 0.871565 0.552530
Si Si2 0.919960 0.579038 0.434671
Si Si3 0.577288 0.200894 0.698167
Si Si4 0.424262 0.455438 0.194548
Si Si5 0.073397 0.290609 0.650524
Si Si6 0.574254 0.627735 0.794390
Si Si7 0.419213 0.457150 0.672220
Si Si8 0.421756 0.668142 0.447426
O O1 0.750000 0.863664 0.565643
O O2 0.973605 0.916587 0.611750
O O3 0.976761 0.873456 0.423404
O O4 0.010836 0.831206 0.605604
O O5 0.750000 0.595279 0.419584
O O6 0.977283 0.556113 0.321006
O O7 0.933285 0.545261 0.537045
O O8 0.021799 0.619505 0.466700
O O9 0.750000 0.208503 0.672483
O O10 0.491845 0.246153 0.697256
O O11 0.549417 0.180084 0.818993
O O12 0.500000 0.500000 0.154067
O O13 0.250000 0.463029 0.189975
O O14 0.250000 0.287638 0.646970
O O15 0.014978 0.328874 0.733050
O O16 0.013656 0.298712 0.524892
O O17 0.750000 0.627191 0.783424
O O18 0.508679 0.585365 0.730959
O O19 0.500000 0.500000 0.717165
O O20 0.250000 0.461311 0.710560
O O21 0.250000 0.671150 0.480643
#
# Coordination Sequence:
#
# PCOD8192196 Si02
#       8
#     8   8   8   8   8   8   8   8
#     4  10  21  40  63  87 115 157 206 246 290 356
#     4  10  19  36  59  85 117 156 200 245 294 353
#     4  11  25  42  60  90 126 156 192 248 305 353
#     4  10  21  35  57  86 118 154 199 247 298 358
#     4  11  23  41  65  89 118 159 203 244 291 356
#     4   9  20  39  61  86 116 151 197 249 290 338
#     4  10  20  36  57  84 118 152 193 244 294 351
#     4  11  23  39  62  91 124 156 192 246 304 354
#
# _framework density 19.495182
#
# number of rings (size 3 to 8) (size 9 to 14) (size 15 to 20)
#    0.000    1.750    2.500    1.500    1.750    3.500 
#    0.000    1.250    0.000    0.000    0.000    0.000 
#    0.000    0.000    0.000    0.000    0.000    0.000 
#
# Total GULP energy -396921.399583 kJ/mol
# GULP energy per Si atom -12403.793737 kJ/mol
# Density = 1.945081 g / cm^3
# Si number density = 19.495182 Si / 1000 Ang^3
#
#
#
# Elastic Constant Matrix: (Units=GPa)
#
#
# Indices 1 2 3 4 5 6 
#
# 1 63.6008 46.1311 32.5044 -0.0004 -0.0001 0.0000
# 2 46.1311 137.5271 38.4772 -0.0013 0.0000 0.0000
# 3 32.5044 38.4772 108.2577 -0.0023 0.0003 0.0004
# 4 -0.0004 -0.0013 -0.0023 18.1272 0.0005 0.0002
# 5 -0.0001 0.0000 0.0003 0.0005 20.0753 0.0000
# 6 0.0000 0.0000 0.0004 0.0002 0.0000 36.1911
#
#
#
# Elastic Compliance Matrix: (Units=1/GPa)
#
#
# Indices 1 2 3 4 5 6 
#
# 1 0.022631 -0.006318 -0.004549 0.000000 0.000000 0.000000
# 2 -0.006318 0.009838 -0.001600 0.000000 0.000000 0.000000
# 3 -0.004549 -0.001600 0.011172 0.000001 0.000000 0.000000
# 4 0.000000 0.000000 0.000001 0.055166 -0.000001 0.000000
# 5 0.000000 0.000000 0.000000 -0.000001 0.049812 0.000000
# 6 0.000000 0.000000 0.000000 0.000000 0.000000 0.027631
#
#
# Mechanical properties :
#
#
# Convention : Reuss Voigt Hill
#
# Bulk Modulus (GPa) = 53.45790 60.40123 56.92956
# Shear Modulus (GPa) = 24.10569 27.69693 25.90131
#
# Velocity S-wave (km/s) = 3.52020 3.77332 3.64895
# Velocity P-wave (km/s) = 6.63348 7.07346 6.85700
#
# Compressibility (1/GPa) = 0.01870631
#
# Stress axis : x y z
#
# Youngs Moduli (GPa) = 44.18742 101.64448 89.51208
#
# Poissons Ratio (x) = 0.64222 0.40721
# Poissons Ratio (y) = 0.27919 0.14319
# Poissons Ratio (z) = 0.20102 0.16259
#
# Static dielectric constant tensor:
#      x y z
#    x 3.400700 0.000000 0.000000 
#    y 0.000000 3.604580 0.000000 
#    z 0.000000 0.000000 3.677890 
# 
# 
# High freq. dielectric constant tensor:
#      x y z
#    x 1.743430 0.000000 0.000000 
#    y 0.000000 1.768200 0.000000 
#    z 0.000000 0.000000 1.765590 
# 
# From -- ./inp_files/9680.got.cif
#   From: 2010.03.12/outbox.cif.g09.slc.cpg/sg46_5_cif.got.tgz:9680.got - 2010.04.14 02:56:35.
