data_PCOD8192645
_publ_section_title
;
Structure prediction by ZEFSAII (Michael W. Deem and Ramdas Pophale) SiO2 
 PCOD8192645
Probable space group: I M A 2
;
_chemical_formula_sum "Si O2"
_cell_formula_units_Z 48
_cell_length_a 8.711780
_cell_length_b 18.979541
_cell_length_c 15.000213
_cell_angle_alpha 90.000000
_cell_angle_beta 90.000000
_cell_angle_gamma 90.000000
_cell_volume 2480.219004
_symmetry_space_group_name_H-M "I M A 2"
_symmetry_group_IT_number 46
_symmetry_cell_setting 'orthorhombic'
loop_
_space_group_symop_operation_xyz
x,y,z
-x,-y,z
1/2-x,y,z
1/2+x,-y,z
1/2+x,1/2+y,1/2+z
1/2-x,1/2-y,1/2+z
-x,1/2+y,1/2+z
x,1/2-y,1/2+z
loop_
_atom_site_type_symbol
_atom_site_label
_atom_site_fract_x
_atom_site_fract_y
_atom_site_fract_z
Si Si1 0.428331 0.169949 0.879600
Si Si2 0.428992 0.927326 0.737999
Si Si3 0.931575 0.574741 0.543991
Si Si4 0.068422 0.573902 0.033643
Si Si5 0.069757 0.333125 0.885895
Si Si6 0.431781 0.924671 0.232487
O O1 0.250000 0.158043 0.861750
O O2 0.517023 0.138549 0.795568
O O3 0.471549 0.251184 0.887837
O O4 0.479207 0.131902 0.970561
O O5 0.250000 0.936179 0.746982
O O6 0.477935 0.913407 0.636118
O O7 0.500000 0.000000 0.774418
O O8 0.750000 0.567709 0.555646
O O9 0.000000 0.500000 0.513860
O O10 0.003867 0.599768 0.637090
O O11 0.250000 0.574057 0.017897
O O12 0.000000 0.500000 0.999500
O O13 0.989275 0.635933 0.978835
O O14 0.250000 0.346826 0.874812
O O15 0.979492 0.367029 0.804141
O O16 0.250000 0.931071 0.227841
O O17 0.500000 0.000000 0.260750
#
# Coordination Sequence:
#
# PCOD8192645 Si02
#       6
#     8   8   8   8   8   8
#     4  10  23  39  57  82 115 152 188 226 277 333
#     4  10  21  37  60  86 114 147 187 232 278 327
#     4  10  20  37  59  85 112 144 186 231 276 327
#     4  10  21  38  59  85 112 144 186 232 278 329
#     4  11  23  39  57  81 114 152 187 227 278 334
#     4  11  22  38  60  85 111 145 186 232 280 330
#
# _framework density 19.35313
#
# number of rings (size 3 to 8) (size 9 to 14) (size 15 to 20)
#    0.000    1.667    0.000    5.500    0.000    7.333 
#    0.000    5.000    0.000    0.000    0.000    0.000 
#    0.000    0.000    0.000    0.000    0.000    0.000 
#
# Total GULP energy -297737.315272 kJ/mol
# GULP energy per Si atom -12405.721470 kJ/mol
# Density = 1.930908 g / cm^3
# Si number density = 19.353130 Si / 1000 Ang^3
#
#
#
# Elastic Constant Matrix: (Units=GPa)
#
#
# Indices 1 2 3 4 5 6 
#
# 1 96.3935 52.3836 53.4322 0.0000 0.0000 0.0000
# 2 52.3836 130.3613 82.3162 0.0000 0.0000 0.0000
# 3 53.4322 82.3162 122.0871 0.0000 0.0000 0.0000
# 4 0.0000 0.0000 0.0000 -34.3077 0.0000 0.0000
# 5 0.0000 0.0000 0.0000 0.0000 33.9463 0.0000
# 6 0.0000 0.0000 0.0000 0.0000 0.0000 32.9338
#
#
#
# Elastic Compliance Matrix: (Units=1/GPa)
#
#
# Indices 1 2 3 4 5 6 
#
# 1 0.014402 -0.003147 -0.004181 0.000000 0.000000 0.000000
# 2 -0.003147 0.014046 -0.008093 0.000000 0.000000 0.000000
# 3 -0.004181 -0.008093 0.015478 0.000000 0.000000 0.000000
# 4 0.000000 0.000000 0.000000 -0.029148 0.000000 0.000000
# 5 0.000000 0.000000 0.000000 0.000000 0.029458 0.000000
# 6 0.000000 0.000000 0.000000 0.000000 0.000000 0.030364
#
#
# Mechanical properties :
#
#
# Convention : Reuss Voigt Hill
#
# Bulk Modulus (GPa) = 76.43616 80.56731 78.50174
# Shear Modulus (GPa) = 45.53597 17.22847 31.38222
#
# Velocity S-wave (km/s) = 4.85593 2.98689 4.03123
# Velocity P-wave (km/s) = 8.42742 7.32228 7.89421
#
# Compressibility (1/GPa) = 0.01308281
#
# Stress axis : x y z
#
# Youngs Moduli (GPa) = 69.43435 71.19545 64.60982
#
# Poissons Ratio (x) = 0.22405 0.27016
# Poissons Ratio (y) = 0.21851 0.52289
# Poissons Ratio (z) = 0.29033 0.57619
#
# Static dielectric constant tensor:
#      x y z
#    x 3.631200 0.000000 0.000000 
#    y 0.000000 3.705180 0.000000 
#    z 0.000000 0.000000 3.654080 
# 
# 
# High freq. dielectric constant tensor:
#      x y z
#    x 1.766960 0.000000 0.000000 
#    y 0.000000 1.749630 0.000000 
#    z 0.000000 0.000000 1.765800 
# 
# From -- ./inp_files/13903.got.cif
#   From: 2010.03.12/outbox.cif.g09.slc.cpg/sg46_7_cif.got.tgz:13903.got - 2010.04.14 02:56:35.
