data_PCOD8192994
_publ_section_title
;
Structure prediction by ZEFSAII (Michael W. Deem and Ramdas Pophale) SiO2 
 PCOD8192994
Probable space group: I M A 2
;
_chemical_formula_sum "Si O2"
_cell_formula_units_Z 64
_cell_length_a 8.751892
_cell_length_b 23.925985
_cell_length_c 15.355190
_cell_angle_alpha 90.000000
_cell_angle_beta 90.000000
_cell_angle_gamma 90.000000
_cell_volume 3215.340497
_symmetry_space_group_name_H-M "I M A 2"
_symmetry_group_IT_number 46
_symmetry_cell_setting 'orthorhombic'
loop_
_space_group_symop_operation_xyz
x,y,z
-x,-y,z
1/2-x,y,z
1/2+x,-y,z
1/2+x,1/2+y,1/2+z
1/2-x,1/2-y,1/2+z
-x,1/2+y,1/2+z
x,1/2-y,1/2+z
loop_
_atom_site_type_symbol
_atom_site_label
_atom_site_fract_x
_atom_site_fract_y
_atom_site_fract_z
Si Si1 0.071554 0.134613 0.891180
Si Si2 0.928678 0.639659 0.584921
Si Si3 0.929748 0.745140 0.836791
Si Si4 0.929876 0.560799 0.741807
Si Si5 0.073255 0.632340 0.891927
Si Si6 0.576008 0.130600 0.590040
Si Si7 0.071046 0.439766 0.236433
Si Si8 0.073372 0.753007 0.151869
O O1 0.250000 0.138259 0.871425
O O2 0.005898 0.196912 0.876296
O O3 0.999758 0.091405 0.821453
O O4 0.037947 0.113715 0.989288
O O5 0.750000 0.653986 0.595853
O O6 0.984466 0.596015 0.657784
O O7 0.026545 0.696051 0.589829
O O8 0.750000 0.736974 0.851710
O O9 0.017200 0.695630 0.884751
O O10 0.964183 0.743873 0.734802
O O11 0.750000 0.554657 0.743029
O O12 0.000000 0.500000 0.735356
O O13 0.980432 0.591293 0.829609
O O14 0.250000 0.629439 0.865560
O O15 0.046547 0.612353 0.990711
O O16 0.750000 0.117399 0.617477
O O17 0.463213 0.095703 0.650381
O O18 0.541826 0.196276 0.599633
O O19 0.250000 0.447129 0.246182
O O20 0.000000 0.500000 0.227472
O O21 0.250000 0.758456 0.179991
#
# Coordination Sequence:
#
# PCOD8192994 Si02
#       8
#     8   8   8   8   8   8   8   8
#     4   9  20  38  61  89 120 156 197 241 291 351
#     4  10  21  39  62  88 120 156 197 242 292 354
#     4  11  20  35  60  90 122 159 198 235 291 355
#     4  11  24  41  62  86 116 156 203 248 297 352
#     4  11  23  40  62  89 123 156 195 247 300 355
#     4  10  23  41  61  89 122 158 197 243 299 356
#     4  11  23  41  63  87 118 157 203 250 298 350
#     4  11  21  35  59  90 124 157 194 239 294 353
#
# _framework density 19.904578999999998
#
# number of rings (size 3 to 8) (size 9 to 14) (size 15 to 20)
#    0.000    1.500    2.500    2.625    0.000    3.000 
#    0.000    1.875    0.000    0.000    0.000    0.000 
#    0.000    0.000    0.000    0.000    0.000    0.000 
#
# Total GULP energy -396907.176932 kJ/mol
# GULP energy per Si atom -12403.349279 kJ/mol
# Density = 1.985928 g / cm^3
# Si number density = 19.904579 Si / 1000 Ang^3
#
#
#
# Elastic Constant Matrix: (Units=GPa)
#
#
# Indices 1 2 3 4 5 6 
#
# 1 49.9296 39.0839 29.8760 -0.0001 0.0000 0.0000
# 2 39.0839 138.7843 53.9053 -0.0001 0.0000 0.0000
# 3 29.8760 53.9053 125.2840 -0.0003 0.0000 -0.0002
# 4 -0.0001 -0.0001 -0.0003 8.4523 0.0000 -0.0001
# 5 0.0000 0.0000 0.0000 0.0000 25.1431 0.0000
# 6 0.0000 0.0000 -0.0002 -0.0001 0.0000 20.6633
#
#
#
# Elastic Compliance Matrix: (Units=1/GPa)
#
#
# Indices 1 2 3 4 5 6 
#
# 1 0.027135 -0.006157 -0.003821 0.000000 0.000000 0.000000
# 2 -0.006157 0.010048 -0.002855 0.000000 0.000000 0.000000
# 3 -0.003821 -0.002855 0.010122 0.000000 0.000000 0.000000
# 4 0.000000 0.000000 0.000000 0.118311 0.000000 0.000000
# 5 0.000000 0.000000 0.000000 0.000000 0.039772 0.000000
# 6 0.000000 0.000000 0.000000 0.000000 0.000000 0.048395
#
#
# Mechanical properties :
#
#
# Convention : Reuss Voigt Hill
#
# Bulk Modulus (GPa) = 46.21738 62.19203 54.20471
# Shear Modulus (GPa) = 17.44212 23.59393 20.51802
#
# Velocity S-wave (km/s) = 2.96343 3.44663 3.21412
# Velocity P-wave (km/s) = 5.91431 6.86673 6.40824
#
# Compressibility (1/GPa) = 0.02163688
#
# Stress axis : x y z
#
# Youngs Moduli (GPa) = 36.85341 99.51853 98.79841
#
# Poissons Ratio (x) = 0.61276 0.37755
# Poissons Ratio (y) = 0.22692 0.28209
# Poissons Ratio (z) = 0.14083 0.28414
#
# Static dielectric constant tensor:
#      x y z
#    x 3.550440 0.000000 0.000000 
#    y 0.000000 3.681160 0.000000 
#    z 0.000000 0.000000 3.711950 
# 
# 
# High freq. dielectric constant tensor:
#      x y z
#    x 1.768960 0.000000 0.000000 
#    y 0.000000 1.775390 0.000000 
#    z 0.000000 0.000000 1.788100 
# 
# From -- ./inp_files/14536.got.cif
#   From: 2010.03.12/outbox.cif.g09.slc.cpg/sg46_8_cif.got.tgz:14536.got - 2010.04.14 02:56:35.
