data_PCOD8192209
_publ_section_title
;
Structure prediction by ZEFSAII (Michael W. Deem and Ramdas Pophale) SiO2 
 PCOD8192209
Probable space group: I M A 2
;
_chemical_formula_sum "Si O2"
_cell_formula_units_Z 64
_cell_length_a 8.795642
_cell_length_b 27.909353
_cell_length_c 12.570984
_cell_angle_alpha 90.000000
_cell_angle_beta 90.000000
_cell_angle_gamma 90.000000
_cell_volume 3085.933668
_symmetry_space_group_name_H-M "I M A 2"
_symmetry_group_IT_number 46
_symmetry_cell_setting 'orthorhombic'
loop_
_space_group_symop_operation_xyz
x,y,z
-x,-y,z
1/2-x,y,z
1/2+x,-y,z
1/2+x,1/2+y,1/2+z
1/2-x,1/2-y,1/2+z
-x,1/2+y,1/2+z
x,1/2-y,1/2+z
loop_
_atom_site_type_symbol
_atom_site_label
_atom_site_fract_x
_atom_site_fract_y
_atom_site_fract_z
Si Si1 0.917838 0.318708 0.886720
Si Si2 0.426672 0.045912 0.229934
Si Si3 0.581590 0.071846 0.443836
Si Si4 0.425363 0.201446 0.592675
Si Si5 0.072262 0.117725 0.047412
Si Si6 0.430507 0.947733 0.867327
Si Si7 0.571686 0.296574 0.652717
Si Si8 0.071630 0.093308 0.654874
O O1 0.750000 0.294257 0.895677
O O2 0.901915 0.373186 0.917168
O O3 0.982617 0.314282 0.768286
O O4 0.036742 0.294847 0.967393
O O5 0.250000 0.037731 0.242136
O O6 0.497588 0.046996 0.346736
O O7 0.463419 0.092179 0.159571
O O8 0.500000 0.000000 0.170455
O O9 0.750000 0.049515 0.459568
O O10 0.482916 0.064596 0.550447
O O11 0.250000 0.213888 0.609119
O O12 0.527709 0.240938 0.649869
O O13 0.465724 0.149798 0.642698
O O14 0.250000 0.117901 0.019127
O O15 0.013151 0.172167 0.061774
O O16 0.984872 0.090672 0.954028
O O17 0.250000 0.952172 0.871410
O O18 0.480753 0.928166 0.753216
O O19 0.500000 0.000000 0.890546
O O20 0.750000 0.303407 0.635826
O O21 0.250000 0.084710 0.671123
#
# Coordination Sequence:
#
# PCOD8192209 Si02
#       8
#     8   8   8   8   8   8   8   8
#     4   9  19  36  58  83 116 157 197 248 308 369
#     4  11  23  37  58  88 121 157 197 246 304 368
#     4  10  19  36  61  88 119 154 198 250 308 369
#     4  10  22  38  60  91 125 165 209 262 319 380
#     4  11  24  42  64  91 125 165 211 263 319 382
#     4  12  26  45  69  95 128 172 220 272 330 392
#     4  11  22  38  62  91 124 165 212 262 318 382
#     4  10  22  42  65  91 127 167 212 263 321 382
#
# _framework density 20.739266000000001
#
# number of rings (size 3 to 8) (size 9 to 14) (size 15 to 20)
#    0.000    1.500    1.250    3.750    0.000    7.000 
#    0.000    5.000    0.000    0.000    0.000    0.000 
#    0.000    0.000    0.000    0.000    0.000    0.000 
#
# Total GULP energy -396821.957707 kJ/mol
# GULP energy per Si atom -12400.686178 kJ/mol
# Density = 2.069206 g / cm^3
# Si number density = 20.739266 Si / 1000 Ang^3
#
#
#
# Elastic Constant Matrix: (Units=GPa)
#
#
# Indices 1 2 3 4 5 6 
#
# 1 98.2995 23.1374 31.2013 0.0005 0.0012 -0.0001
# 2 23.1374 45.6996 10.4917 0.0008 0.0008 -0.0001
# 3 31.2013 10.4917 84.7386 -0.0004 0.0021 -0.0001
# 4 0.0005 0.0008 -0.0004 19.5042 -0.0001 0.0000
# 5 0.0012 0.0008 0.0021 -0.0001 46.6691 0.0000
# 6 -0.0001 -0.0001 -0.0001 0.0000 0.0000 36.9759
#
#
#
# Elastic Compliance Matrix: (Units=1/GPa)
#
#
# Indices 1 2 3 4 5 6 
#
# 1 0.012748 -0.005534 -0.004009 0.000000 0.000000 0.000000
# 2 -0.005534 0.024924 -0.001048 -0.000001 0.000000 0.000000
# 3 -0.004009 -0.001048 0.013407 0.000000 0.000000 0.000000
# 4 0.000000 -0.000001 0.000000 0.051271 0.000000 0.000000
# 5 0.000000 0.000000 0.000000 0.000000 0.021427 0.000000
# 6 0.000000 0.000000 0.000000 0.000000 0.000000 0.027045
#
#
# Mechanical properties :
#
#
# Convention : Reuss Voigt Hill
#
# Bulk Modulus (GPa) = 33.44778 39.82205 36.63491
# Shear Modulus (GPa) = 27.47705 31.55698 29.51702
#
# Velocity S-wave (km/s) = 3.64384 3.90501 3.77668
# Velocity P-wave (km/s) = 5.81947 6.29087 6.05976
#
# Compressibility (1/GPa) = 0.02989735
#
# Stress axis : x y z
#
# Youngs Moduli (GPa) = 78.44403 40.12124 74.58886
#
# Poissons Ratio (x) = 0.22203 0.29900
# Poissons Ratio (y) = 0.43410 0.07820
# Poissons Ratio (z) = 0.31446 0.04206
#
# Static dielectric constant tensor:
#      x y z
#    x 3.847940 0.000000 0.000000 
#    y 0.000000 3.779780 0.000000 
#    z 0.000000 0.000000 3.867490 
# 
# 
# High freq. dielectric constant tensor:
#      x y z
#    x 1.822830 0.000000 0.000000 
#    y 0.000000 1.812060 0.000000 
#    z 0.000000 0.000000 1.811830 
# 
# From -- ./inp_files/9730.got.cif
#   From: 2010.03.12/outbox.cif.g09.slc.cpg/sg46_5_cif.got.tgz:9730.got - 2010.04.14 02:56:35.
