data_PCOD8192949
_publ_section_title
;
Structure prediction by ZEFSAII (Michael W. Deem and Ramdas Pophale) SiO2 
 PCOD8192949
Probable space group: I M A 2
;
_chemical_formula_sum "Si O2"
_cell_formula_units_Z 56
_cell_length_a 14.818115
_cell_length_b 17.955560
_cell_length_c 9.309386
_cell_angle_alpha 90.000000
_cell_angle_beta 90.000000
_cell_angle_gamma 90.000000
_cell_volume 2476.925553
_symmetry_space_group_name_H-M "I M A 2"
_symmetry_group_IT_number 46
_symmetry_cell_setting 'orthorhombic'
loop_
_space_group_symop_operation_xyz
x,y,z
-x,-y,z
1/2-x,y,z
1/2+x,-y,z
1/2+x,1/2+y,1/2+z
1/2-x,1/2-y,1/2+z
-x,1/2+y,1/2+z
x,1/2-y,1/2+z
loop_
_atom_site_type_symbol
_atom_site_label
_atom_site_fract_x
_atom_site_fract_y
_atom_site_fract_z
Si Si1 0.646170 0.284851 0.262750
Si Si2 0.646160 0.677879 0.843469
Si Si3 0.959120 0.368592 0.762213
Si Si4 0.650316 0.092244 0.998045
Si Si5 0.351976 0.593390 0.029469
Si Si6 0.851191 0.671682 0.171178
Si Si7 0.600828 0.982920 0.769364
O O1 0.750000 0.256806 0.263665
O O2 0.578002 0.215918 0.264141
O O3 0.626963 0.336824 0.399181
O O4 0.626034 0.332491 0.120164
O O5 0.750000 0.646897 0.825657
O O6 0.568965 0.627409 0.767328
O O7 0.638804 0.757281 0.769977
O O8 0.615316 0.687103 0.009064
O O9 0.925271 0.411758 0.621089
O O10 0.920941 0.412798 0.898671
O O11 0.750000 0.103018 0.066307
O O12 0.655338 0.016185 0.904744
O O13 0.250000 0.597050 0.970922
O O14 0.362926 0.518994 0.122769
O O15 0.750000 0.643804 0.158809
O O16 0.901014 0.605706 0.253770
O O17 0.500000 0.000000 0.805527
#
# Coordination Sequence:
#
# PCOD8192949 Si02
#       7
#     8   8   8   8   8   8   8
#     4   9  19  34  56  88 130 174 212 253 315 381
#     4  10  25  42  65  97 128 165 224 279 332 390
#     4  12  22  34  64  93 134 164 213 267 329 373
#     4  10  22  39  60  96 134 171 216 264 318 394
#     4  10  21  38  60  95 132 171 215 261 316 394
#     4  10  22  45  68  90 124 170 215 272 331 388
#     4  11  23  40  67  92 128 175 219 257 321 394
#
# _framework density 22.608674000000001
#
# number of rings (size 3 to 8) (size 9 to 14) (size 15 to 20)
#    0.000    1.714    0.000    5.143    8.000    2.286 
#    0.000    3.571    0.000    6.857    0.000    0.000 
#    0.000    0.000    0.000    0.000    0.000    0.000 
#
# Total GULP energy -347136.766411 kJ/mol
# GULP energy per Si atom -12397.741658 kJ/mol
# Density = 2.255722 g / cm^3
# Si number density = 22.608674 Si / 1000 Ang^3
#
#
#
# Elastic Constant Matrix: (Units=GPa)
#
#
# Indices 1 2 3 4 5 6 
#
# 1 132.5965 25.1867 52.2031 0.0000 0.0000 0.0000
# 2 25.1867 38.8876 39.8146 0.0000 0.0000 0.0000
# 3 52.2031 39.8146 133.9016 0.0000 0.0000 0.0000
# 4 0.0000 0.0000 0.0000 12.9286 0.0000 0.0000
# 5 0.0000 0.0000 0.0000 0.0000 28.9064 0.0000
# 6 0.0000 0.0000 0.0000 0.0000 0.0000 27.8214
#
#
#
# Elastic Compliance Matrix: (Units=1/GPa)
#
#
# Indices 1 2 3 4 5 6 
#
# 1 0.009192 -0.003284 -0.002607 0.000000 0.000000 0.000000
# 2 -0.003284 0.038143 -0.010061 0.000000 0.000000 0.000000
# 3 -0.002607 -0.010061 0.011476 0.000000 0.000000 0.000000
# 4 0.000000 0.000000 0.000000 0.077348 0.000000 0.000000
# 5 0.000000 0.000000 0.000000 0.000000 0.034594 0.000000
# 6 0.000000 0.000000 0.000000 0.000000 0.000000 0.035944
#
#
# Mechanical properties :
#
#
# Convention : Reuss Voigt Hill
#
# Bulk Modulus (GPa) = 37.16580 59.97716 48.57148
# Shear Modulus (GPa) = 20.19621 26.47669 23.33645
#
# Velocity S-wave (km/s) = 2.99205 3.42582 3.21626
# Velocity P-wave (km/s) = 5.33019 6.49880 5.94328
#
# Compressibility (1/GPa) = 0.02690646
#
# Stress axis : x y z
#
# Youngs Moduli (GPa) = 108.79146 26.21686 87.13688
#
# Poissons Ratio (x) = 0.08610 0.22717
# Poissons Ratio (y) = 0.35730 0.87671
# Poissons Ratio (z) = 0.28362 0.26377
#
# Static dielectric constant tensor:
#      x y z
#    x 4.376540 0.000000 0.000000 
#    y 0.000000 4.561060 0.000000 
#    z 0.000000 0.000000 4.098380 
# 
# 
# High freq. dielectric constant tensor:
#      x y z
#    x 1.902730 0.000000 0.000000 
#    y 0.000000 1.870090 0.000000 
#    z 0.000000 0.000000 1.890530 
# 
# From -- ./inp_files/5956.got.cif
#   From: 2010.03.12/outbox.cif.g09.slc.cpg/sg46_3_cif.got.tgz:5956.got - 2010.04.14 02:56:35.
