data_PCOD8192739
_publ_section_title
;
Structure prediction by ZEFSAII (Michael W. Deem and Ramdas Pophale) SiO2 
 PCOD8192739
Probable space group: I M A 2
;
_chemical_formula_sum "Si O2"
_cell_formula_units_Z 48
_cell_length_a 9.038919
_cell_length_b 27.774876
_cell_length_c 9.628219
_cell_angle_alpha 90.000000
_cell_angle_beta 90.000000
_cell_angle_gamma 90.000000
_cell_volume 2417.211119
_symmetry_space_group_name_H-M "I M A 2"
_symmetry_group_IT_number 46
_symmetry_cell_setting 'orthorhombic'
loop_
_space_group_symop_operation_xyz
x,y,z
-x,-y,z
1/2-x,y,z
1/2+x,-y,z
1/2+x,1/2+y,1/2+z
1/2-x,1/2-y,1/2+z
-x,1/2+y,1/2+z
x,1/2-y,1/2+z
loop_
_atom_site_type_symbol
_atom_site_label
_atom_site_fract_x
_atom_site_fract_y
_atom_site_fract_z
Si Si1 0.925629 0.709368 0.500000
Si Si2 0.580186 0.049603 0.681774
Si Si3 0.578935 0.104543 0.403478
Si Si4 0.926411 0.798137 0.315113
Si Si5 0.916809 0.892991 0.912189
Si Si6 0.917260 0.546166 0.679828
O O1 0.750000 0.708568 0.505099
O O2 0.983491 0.754736 0.412524
O O3 0.985001 0.711217 0.658474
O O4 0.980433 0.661325 0.419914
O O5 0.750000 0.036502 0.706581
O O6 0.559231 0.089251 0.562700
O O7 0.519156 0.072879 0.821880
O O8 0.500000 0.000000 0.643826
O O9 0.750000 0.110489 0.362251
O O10 0.494511 0.154056 0.379303
O O11 0.506459 0.062141 0.314926
O O12 0.750000 0.803076 0.318475
O O13 0.750000 0.894073 0.851413
O O14 0.917352 0.911001 0.069951
O O15 0.750000 0.532576 0.722257
O O16 0.000000 0.500000 0.615416
#
# Coordination Sequence:
#
# PCOD8192739 Si02
#       6
#     8   8   8   8   8   8
#     4   9  19  36  61  93 120 152 198 246 296 357
#     4  11  25  42  60  87 121 159 205 249 299 359
#     4  11  24  41  60  87 123 161 205 249 299 360
#     4  10  20  38  63  91 122 156 201 250 300 357
#     4  10  21  39  62  90 122 156 199 246 298 360
#     4  11  22  38  62  90 120 154 199 248 301 363
#
# _framework density 19.857595
#
# number of rings (size 3 to 8) (size 9 to 14) (size 15 to 20)
#    0.000    1.667    1.667    2.500    2.333    6.667 
#    0.000    1.667    0.000    0.000    0.000    0.000 
#    0.000    0.000    0.000    0.000    0.000    0.000 
#
# Total GULP energy -297676.746719 kJ/mol
# GULP energy per Si atom -12403.197780 kJ/mol
# Density = 1.981240 g / cm^3
# Si number density = 19.857595 Si / 1000 Ang^3
#
#
#
# Elastic Constant Matrix: (Units=GPa)
#
#
# Indices 1 2 3 4 5 6 
#
# 1 86.9235 41.6887 36.0971 -0.0015 0.0007 0.0005
# 2 41.6887 135.3760 35.2730 -0.0006 0.0015 0.0004
# 3 36.0971 35.2730 81.5895 0.0025 0.0115 0.0021
# 4 -0.0015 -0.0006 0.0025 35.8060 0.0019 0.0002
# 5 0.0007 0.0015 0.0115 0.0019 23.4297 -0.0003
# 6 0.0005 0.0004 0.0021 0.0002 -0.0003 31.3896
#
#
#
# Elastic Compliance Matrix: (Units=1/GPa)
#
#
# Indices 1 2 3 4 5 6 
#
# 1 0.015316 -0.003326 -0.005339 0.000001 0.000002 0.000000
# 2 -0.003326 0.009047 -0.002440 0.000000 0.000001 0.000000
# 3 -0.005339 -0.002440 0.015673 -0.000001 -0.000007 -0.000001
# 4 0.000001 0.000000 -0.000001 0.027928 -0.000002 0.000000
# 5 0.000002 0.000001 -0.000007 -0.000002 0.042681 0.000000
# 6 0.000000 0.000000 -0.000001 0.000000 0.000000 0.031858
#
#
# Mechanical properties :
#
#
# Convention : Reuss Voigt Hill
#
# Bulk Modulus (GPa) = 56.09072 58.88961 57.49017
# Shear Modulus (GPa) = 29.29915 30.84708 30.07312
#
# Velocity S-wave (km/s) = 3.84534 3.94561 3.89580
# Velocity P-wave (km/s) = 6.92989 7.10475 7.01787
#
# Compressibility (1/GPa) = 0.01782826
#
# Stress axis : x y z
#
# Youngs Moduli (GPa) = 65.28986 110.53833 63.80347
#
# Poissons Ratio (x) = 0.36761 0.34062
# Poissons Ratio (y) = 0.21713 0.15566
# Poissons Ratio (z) = 0.34855 0.26968
#
# Static dielectric constant tensor:
#      x y z
#    x 3.506330 0.000000 -0.000010 
#    y 0.000000 3.742170 0.000000 
#    z -0.000010 0.000000 3.597940 
# 
# 
# High freq. dielectric constant tensor:
#      x y z
#    x 1.757230 0.000000 0.000000 
#    y 0.000000 1.789800 0.000000 
#    z 0.000000 0.000000 1.777760 
# 
# From -- ./inp_files/3887.got.cif
#   From: 2010.03.12/outbox.cif.g09.slc.cpg/sg46_2_cif.got.tgz:3887.got - 2010.04.14 02:56:35.
