data_PCOD8192384
_publ_section_title
;
Structure prediction by ZEFSAII (Michael W. Deem and Ramdas Pophale) SiO2 
 PCOD8192384
Probable space group: I M A 2
;
_chemical_formula_sum "Si O2"
_cell_formula_units_Z 64
_cell_length_a 15.344920
_cell_length_b 9.198913
_cell_length_c 21.918241
_cell_angle_alpha 90.000000
_cell_angle_beta 90.000000
_cell_angle_gamma 90.000000
_cell_volume 3093.904028
_symmetry_space_group_name_H-M "I M A 2"
_symmetry_group_IT_number 46
_symmetry_cell_setting 'orthorhombic'
loop_
_space_group_symop_operation_xyz
x,y,z
-x,-y,z
1/2-x,y,z
1/2+x,-y,z
1/2+x,1/2+y,1/2+z
1/2-x,1/2-y,1/2+z
-x,1/2+y,1/2+z
x,1/2-y,1/2+z
loop_
_atom_site_type_symbol
_atom_site_label
_atom_site_fract_x
_atom_site_fract_y
_atom_site_fract_z
Si Si1 0.904471 0.561250 0.371110
Si Si2 0.590881 0.428798 0.010795
Si Si3 0.651926 0.881806 0.065996
Si Si4 0.653308 0.694683 0.949339
Si Si5 0.515014 0.838854 0.171530
Si Si6 0.847034 0.362157 0.476031
Si Si7 0.408951 0.077983 0.736625
Si Si8 0.152733 0.643885 0.141509
O O1 0.908644 0.721403 0.401691
O O2 0.849538 0.451933 0.413179
O O3 0.863065 0.572346 0.303222
O O4 0.000000 0.500000 0.366549
O O5 0.500000 0.500000 0.029335
O O6 0.645627 0.417573 0.072981
O O7 0.633132 0.524565 0.956545
O O8 0.583078 0.268690 0.980230
O O9 0.750000 0.880976 0.094950
O O10 0.574448 0.855460 0.112364
O O11 0.643832 0.754125 0.017471
O O12 0.633883 0.035295 0.033543
O O13 0.750000 0.718770 0.923564
O O14 0.571665 0.745274 0.219081
O O15 0.421913 0.763457 0.155645
O O16 0.500000 0.000000 0.199465
O O17 0.750000 0.295820 0.481321
O O18 0.500000 0.000000 0.740417
O O19 0.351305 0.995250 0.686433
O O20 0.250000 0.713024 0.148953
#
# Coordination Sequence:
#
# PCOD8192384 Si02
#       8
#     8   8   8   8   8   8   8   8
#     4  10  20  38  60  81 109 150 198 239 280 339
#     4  12  22  35  56  85 118 150 189 237 295 353
#     4   9  19  35  56  85 119 155 192 233 288 358
#     4  10  20  34  53  81 115 144 179 231 286 337
#     4  11  22  37  60  88 120 154 195 248 304 360
#     4  10  21  37  58  86 119 153 192 239 295 358
#     4   9  21  41  60  81 111 154 203 243 286 349
#     4  11  23  39  60  87 121 160 201 246 297 358
#
# _framework density 20.685836999999999
#
# number of rings (size 3 to 8) (size 9 to 14) (size 15 to 20)
#    0.000    1.750    0.000    6.375    0.000    7.000 
#    0.000    4.375    0.000    1.500    0.000    0.000 
#    0.000    0.000    0.000    0.000    0.000    0.000 
#
# Total GULP energy -396634.600106 kJ/mol
# GULP energy per Si atom -12394.831253 kJ/mol
# Density = 2.063875 g / cm^3
# Si number density = 20.685837 Si / 1000 Ang^3
#
#
#
# Elastic Constant Matrix: (Units=GPa)
#
#
# Indices 1 2 3 4 5 6 
#
# 1 100.0937 43.1062 35.8052 0.0000 0.0000 0.0000
# 2 43.1062 132.8143 51.9322 0.0000 0.0000 0.0000
# 3 35.8052 51.9322 120.1976 0.0000 0.0000 0.0000
# 4 0.0000 0.0000 0.0000 15.7665 0.0000 0.0000
# 5 0.0000 0.0000 0.0000 0.0000 10.6753 0.0000
# 6 0.0000 0.0000 0.0000 0.0000 0.0000 27.9864
#
#
#
# Elastic Compliance Matrix: (Units=1/GPa)
#
#
# Indices 1 2 3 4 5 6 
#
# 1 0.012120 -0.003035 -0.002299 0.000000 0.000000 0.000000
# 2 -0.003035 0.009820 -0.003339 0.000000 0.000000 0.000000
# 3 -0.002299 -0.003339 0.010447 0.000000 0.000000 0.000000
# 4 0.000000 0.000000 0.000000 0.063426 0.000000 0.000000
# 5 0.000000 0.000000 0.000000 0.000000 0.093675 0.000000
# 6 0.000000 0.000000 0.000000 0.000000 0.000000 0.035732
#
#
# Mechanical properties :
#
#
# Convention : Reuss Voigt Hill
#
# Bulk Modulus (GPa) = 66.48222 68.31031 67.39626
# Shear Modulus (GPa) = 20.19568 25.70309 22.94939
#
# Velocity S-wave (km/s) = 3.12798 3.52880 3.33442
# Velocity P-wave (km/s) = 6.72714 7.04966 6.89029
#
# Compressibility (1/GPa) = 0.01504162
#
# Stress axis : x y z
#
# Youngs Moduli (GPa) = 82.50821 101.83600 95.72078
#
# Poissons Ratio (x) = 0.30903 0.22009
# Poissons Ratio (y) = 0.25038 0.31958
# Poissons Ratio (z) = 0.18971 0.34000
#
# Static dielectric constant tensor:
#      x y z
#    x 3.816230 0.000000 0.000000 
#    y 0.000000 4.116800 0.000000 
#    z 0.000000 0.000000 3.876950 
# 
# 
# High freq. dielectric constant tensor:
#      x y z
#    x 1.812670 0.000000 0.000000 
#    y 0.000000 1.814420 0.000000 
#    z 0.000000 0.000000 1.784590 
# 
# From -- ./inp_files/23663.got.cif
#   From: 2010.03.12/outbox.cif.g09.slc.cpg/sg46_12_cif.got.tgz:23663.got - 2010.04.14 02:56:35.
