data_PCOD8192603
_publ_section_title
;
Structure prediction by ZEFSAII (Michael W. Deem and Ramdas Pophale) SiO2 
 PCOD8192603
Probable space group: I M A 2
;
_chemical_formula_sum "Si O2"
_cell_formula_units_Z 64
_cell_length_a 22.931051
_cell_length_b 9.766714
_cell_length_c 14.676996
_cell_angle_alpha 90.000000
_cell_angle_beta 90.000000
_cell_angle_gamma 90.000000
_cell_volume 3287.074948
_symmetry_space_group_name_H-M "I M A 2"
_symmetry_group_IT_number 46
_symmetry_cell_setting 'orthorhombic'
loop_
_space_group_symop_operation_xyz
x,y,z
-x,-y,z
1/2-x,y,z
1/2+x,-y,z
1/2+x,1/2+y,1/2+z
1/2-x,1/2-y,1/2+z
-x,1/2+y,1/2+z
x,1/2-y,1/2+z
loop_
_atom_site_type_symbol
_atom_site_label
_atom_site_fract_x
_atom_site_fract_y
_atom_site_fract_z
Si Si1 0.896131 0.693853 0.766800
Si Si2 0.622360 0.989359 0.529211
Si Si3 0.407372 0.711859 0.504133
Si Si4 0.563045 0.946828 0.090335
Si Si5 0.315008 0.674169 0.349807
Si Si6 0.181699 0.066807 0.715303
Si Si7 0.314055 0.515053 0.845543
Si Si8 0.960719 0.767372 0.449031
O O1 0.921019 0.664828 0.666839
O O2 0.849793 0.816132 0.773781
O O3 0.862716 0.554096 0.785139
O O4 0.946414 0.724142 0.841293
O O5 0.608346 0.146721 0.553296
O O6 0.670909 0.990572 0.450977
O O7 0.651795 0.924791 0.617201
O O8 0.564518 0.904353 0.498722
O O9 0.402188 0.589744 0.578459
O O10 0.362964 0.661391 0.427386
O O11 0.470376 0.743279 0.459295
O O12 0.500000 0.000000 0.115797
O O13 0.568917 0.865896 0.994594
O O14 0.250000 0.637064 0.387916
O O15 0.330241 0.576981 0.264801
O O16 0.315018 0.828453 0.313920
O O17 0.250000 0.098874 0.706209
O O18 0.250000 0.452149 0.828583
#
# Coordination Sequence:
#
# PCOD8192603 Si02
#       8
#     8   8   8   8   8   8   8   8
#     4  11  22  37  63  86 120 157 200 245 302 356
#     4  10  20  36  60  84 120 156 199 242 297 355
#     4  10  21  39  62  85 120 157 196 246 304 354
#     4  10  22  39  59  87 122 152 194 248 298 356
#     4   9  20  38  59  86 118 153 199 247 295 357
#     4  11  22  38  59  88 122 158 201 246 293 358
#     4   9  19  36  57  83 114 153 197 245 296 347
#     4  10  21  41  60  87 120 156 199 252 298 364
#
# _framework density 19.470199000000001
#
# number of rings (size 3 to 8) (size 9 to 14) (size 15 to 20)
#    0.000    2.000    1.250    1.875    1.750    3.500 
#    2.250    1.250    0.000    0.000    0.000    0.000 
#    0.000    0.000    0.000    0.000    0.000    0.000 
#
# Total GULP energy -396529.042599 kJ/mol
# GULP energy per Si atom -12391.532581 kJ/mol
# Density = 1.942588 g / cm^3
# Si number density = 19.470199 Si / 1000 Ang^3
#
#
#
# Elastic Constant Matrix: (Units=GPa)
#
#
# Indices 1 2 3 4 5 6 
#
# 1 85.0333 31.6693 36.5402 0.0000 0.0000 0.0000
# 2 31.6693 81.2634 30.0016 0.0000 0.0000 0.0000
# 3 36.5402 30.0016 78.0540 0.0000 0.0000 0.0000
# 4 0.0000 0.0000 0.0000 32.9530 0.0000 0.0000
# 5 0.0000 0.0000 0.0000 0.0000 17.2618 0.0000
# 6 0.0000 0.0000 0.0000 0.0000 0.0000 21.3548
#
#
#
# Elastic Compliance Matrix: (Units=1/GPa)
#
#
# Indices 1 2 3 4 5 6 
#
# 1 0.015755 -0.003982 -0.005845 0.000000 0.000000 0.000000
# 2 -0.003982 0.015347 -0.004035 0.000000 0.000000 0.000000
# 3 -0.005845 -0.004035 0.017099 0.000000 0.000000 0.000000
# 4 0.000000 0.000000 0.000000 0.030346 0.000000 0.000000
# 5 0.000000 0.000000 0.000000 0.000000 0.057931 0.000000
# 6 0.000000 0.000000 0.000000 0.000000 0.000000 0.046828
#
#
# Mechanical properties :
#
#
# Convention : Reuss Voigt Hill
#
# Bulk Modulus (GPa) = 48.83473 48.97475 48.90474
# Shear Modulus (GPa) = 22.95102 24.05656 23.50379
#
# Velocity S-wave (km/s) = 3.43706 3.51886 3.47820
# Velocity P-wave (km/s) = 6.39432 6.45896 6.42672
#
# Compressibility (1/GPa) = 0.02047723
#
# Stress axis : x y z
#
# Youngs Moduli (GPa) = 63.47286 65.15896 58.48379
#
# Poissons Ratio (x) = 0.25946 0.34183
# Poissons Ratio (y) = 0.25274 0.23597
# Poissons Ratio (z) = 0.37099 0.26291
#
# Static dielectric constant tensor:
#      x y z
#    x 3.606980 0.000000 0.000000 
#    y 0.000000 3.801160 0.000000 
#    z 0.000000 0.000000 3.317310 
# 
# 
# High freq. dielectric constant tensor:
#      x y z
#    x 1.759760 0.000000 0.000000 
#    y 0.000000 1.774990 0.000000 
#    z 0.000000 0.000000 1.742700 
# 
# From -- ./inp_files/17390.got.cif
#   From: 2010.03.12/outbox.cif.g09.slc.cpg/sg46_9_cif.got.tgz:17390.got - 2010.04.14 02:56:35.
