data_PCOD8192777
_publ_section_title
;
Structure prediction by ZEFSAII (Michael W. Deem and Ramdas Pophale) SiO2 
 PCOD8192777
Probable space group: I M A 2
;
_chemical_formula_sum "Si O2"
_cell_formula_units_Z 48
_cell_length_a 21.385967
_cell_length_b 21.661460
_cell_length_c 5.059880
_cell_angle_alpha 90.000000
_cell_angle_beta 90.000000
_cell_angle_gamma 90.000000
_cell_volume 2343.995830
_symmetry_space_group_name_H-M "I M A 2"
_symmetry_group_IT_number 46
_symmetry_cell_setting 'orthorhombic'
loop_
_space_group_symop_operation_xyz
x,y,z
-x,-y,z
1/2-x,y,z
1/2+x,-y,z
1/2+x,1/2+y,1/2+z
1/2-x,1/2-y,1/2+z
-x,1/2+y,1/2+z
x,1/2-y,1/2+z
loop_
_atom_site_type_symbol
_atom_site_label
_atom_site_fract_x
_atom_site_fract_y
_atom_site_fract_z
Si Si1 0.477936 0.903672 0.047950
Si Si2 0.883946 0.588978 0.545867
Si Si3 0.678257 0.210340 0.606204
Si Si4 0.446206 0.209195 0.954287
Si Si5 0.323300 0.034134 0.542887
Si Si6 0.102522 0.913274 0.554506
O O1 0.490027 0.830259 0.997088
O O2 0.451745 0.914845 0.338427
O O3 0.454898 0.061008 0.027726
O O4 0.428868 0.928719 0.835074
O O5 0.887076 0.663046 0.495934
O O6 0.839169 0.556078 0.337288
O O7 0.857214 0.579305 0.837824
O O8 0.750000 0.188762 0.581210
O O9 0.663581 0.264087 0.396657
O O10 0.634896 0.152642 0.549369
O O11 0.444061 0.265899 0.156537
O O12 0.250000 0.036921 0.496829
O O13 0.345389 0.964317 0.494919
#
# Coordination Sequence:
#
# PCOD8192777 Si02
#       6
#     8   8   8   8   8   8
#     4  10  24  37  61  97 120 163 193 259 313 373
#     4  10  24  43  63  97 123 169 206 258 323 370
#     4  10  22  39  57  81 122 169 213 260 300 348
#     4  10  20  39  64  91 126 161 197 245 318 379
#     4  12  25  43  67  88 126 171 213 264 305 376
#     4  12  23  39  60  96 125 163 215 250 313 365
#
# _framework density 20.477854000000001
#
# number of rings (size 3 to 8) (size 9 to 14) (size 15 to 20)
#    1.000    0.333    0.000    6.000    0.000    8.000 
#    0.000    5.000    0.000   10.000    0.000    0.000 
#    0.000    0.000    0.000    0.000    0.000    0.000 
#
# Total GULP energy -297657.839175 kJ/mol
# GULP energy per Si atom -12402.409966 kJ/mol
# Density = 2.043125 g / cm^3
# Si number density = 20.477854 Si / 1000 Ang^3
#
#
#
# Elastic Constant Matrix: (Units=GPa)
#
#
# Indices 1 2 3 4 5 6 
#
# 1 103.2911 21.0839 27.0900 0.0000 0.0000 0.0000
# 2 21.0839 38.7600 13.4562 0.0000 0.0000 0.0000
# 3 27.0900 13.4562 81.4225 0.0000 0.0000 0.0000
# 4 0.0000 0.0000 0.0000 29.6876 0.0000 0.0000
# 5 0.0000 0.0000 0.0000 0.0000 31.7943 0.0000
# 6 0.0000 0.0000 0.0000 0.0000 0.0000 24.8333
#
#
#
# Elastic Compliance Matrix: (Units=1/GPa)
#
#
# Indices 1 2 3 4 5 6 
#
# 1 0.011530 -0.005241 -0.002970 0.000000 0.000000 0.000000
# 2 -0.005241 0.029752 -0.003173 0.000000 0.000000 0.000000
# 3 -0.002970 -0.003173 0.013794 0.000000 0.000000 0.000000
# 4 0.000000 0.000000 0.000000 0.033684 0.000000 0.000000
# 5 0.000000 0.000000 0.000000 0.000000 0.031452 0.000000
# 6 0.000000 0.000000 0.000000 0.000000 0.000000 0.040268
#
#
# Mechanical properties :
#
#
# Convention : Reuss Voigt Hill
#
# Bulk Modulus (GPa) = 30.95186 38.52596 34.73891
# Shear Modulus (GPa) = 25.77067 28.05262 26.91164
#
# Velocity S-wave (km/s) = 3.55133 3.70523 3.62910
# Velocity P-wave (km/s) = 5.65363 6.09584 5.87890
#
# Compressibility (1/GPa) = 0.03230824
#
# Stress axis : x y z
#
# Youngs Moduli (GPa) = 86.72967 33.61086 72.49415
#
# Poissons Ratio (x) = 0.17615 0.21531
# Poissons Ratio (y) = 0.45453 0.23005
# Poissons Ratio (z) = 0.25759 0.10666
#
# Static dielectric constant tensor:
#      x y z
#    x 3.555520 0.000000 0.000000 
#    y 0.000000 3.594160 0.000000 
#    z 0.000000 0.000000 3.678890 
# 
# 
# High freq. dielectric constant tensor:
#      x y z
#    x 1.789630 0.000000 0.000000 
#    y 0.000000 1.799590 0.000000 
#    z 0.000000 0.000000 1.814890 
# 
# From -- ./inp_files/2348.got.cif
#   From: 2010.03.12/outbox.cif.g09.slc.cpg/sg46_2_cif.got.tgz:2348.got - 2010.04.14 02:56:35.
