data_PCOD8192259
_publ_section_title
;
Structure prediction by ZEFSAII (Michael W. Deem and Ramdas Pophale) SiO2 
 PCOD8192259
Probable space group: I M A 2
;
_chemical_formula_sum "Si O2"
_cell_formula_units_Z 48
_cell_length_a 16.615366
_cell_length_b 13.811956
_cell_length_c 10.121916
_cell_angle_alpha 90.000000
_cell_angle_beta 90.000000
_cell_angle_gamma 90.000000
_cell_volume 2322.885630
_symmetry_space_group_name_H-M "I M A 2"
_symmetry_group_IT_number 46
_symmetry_cell_setting 'orthorhombic'
loop_
_space_group_symop_operation_xyz
x,y,z
-x,-y,z
1/2-x,y,z
1/2+x,-y,z
1/2+x,1/2+y,1/2+z
1/2-x,1/2-y,1/2+z
-x,1/2+y,1/2+z
x,1/2-y,1/2+z
loop_
_atom_site_type_symbol
_atom_site_label
_atom_site_fract_x
_atom_site_fract_y
_atom_site_fract_z
Si Si1 0.154543 0.467270 0.114620
Si Si2 0.655037 0.662989 0.874105
Si Si3 0.908821 0.530732 0.655922
Si Si4 0.153634 0.677112 0.032913
Si Si5 0.845028 0.886203 0.892402
Si Si6 0.343255 0.830789 0.239247
O O1 0.250000 0.465172 0.113476
O O2 0.123081 0.430374 0.255247
O O3 0.122911 0.396288 0.000169
O O4 0.121614 0.574935 0.088602
O O5 0.750000 0.650686 0.851397
O O6 0.610298 0.624578 0.743976
O O7 0.631700 0.773855 0.896774
O O8 0.891544 0.555843 0.504891
O O9 0.852988 0.442528 0.702315
O O10 0.000000 0.500000 0.674655
O O11 0.250000 0.677514 0.029521
O O12 0.119497 0.691809 0.884116
O O13 0.117796 0.761328 0.127306
O O14 0.750000 0.901075 0.911851
O O15 0.250000 0.805750 0.245248
#
# Coordination Sequence:
#
# PCOD8192259 Si02
#       6
#     8   8   8   8   8   8
#     4   9  17  32  57  89 116 140 188 256 311 352
#     4  10  19  39  67  90 116 156 211 267 312 358
#     4  12  25  41  56  89 129 167 201 243 316 383
#     4   9  18  32  56  89 114 141 187 239 296 354
#     4  10  21  37  64  92 116 156 211 269 311 357
#     4  10  20  37  61  85 115 154 200 250 290 350
#
# _framework density 20.663951999999998
#
# number of rings (size 3 to 8) (size 9 to 14) (size 15 to 20)
#    0.000    2.000    1.667    2.500    2.333    2.667 
#    3.000    0.833    0.000    0.000    0.000    0.000 
#    0.000    0.000    0.000    0.000    0.000    0.000 
#
# Total GULP energy -297646.663515 kJ/mol
# GULP energy per Si atom -12401.944313 kJ/mol
# Density = 2.061692 g / cm^3
# Si number density = 20.663952 Si / 1000 Ang^3
#
#
#
# Elastic Constant Matrix: (Units=GPa)
#
#
# Indices 1 2 3 4 5 6 
#
# 1 25.7444 10.2654 16.9390 0.0000 0.0000 0.0000
# 2 10.2654 118.1450 66.2369 0.0000 0.0000 0.0000
# 3 16.9390 66.2369 176.8597 0.0000 0.0000 0.0000
# 4 0.0000 0.0000 0.0000 50.6404 0.0000 0.0000
# 5 0.0000 0.0000 0.0000 0.0000 11.4783 0.0000
# 6 0.0000 0.0000 0.0000 0.0000 0.0000 6.8841
#
#
#
# Elastic Compliance Matrix: (Units=1/GPa)
#
#
# Indices 1 2 3 4 5 6 
#
# 1 0.041741 -0.001754 -0.003341 0.000000 0.000000 0.000000
# 2 -0.001754 0.010787 -0.003872 0.000000 0.000000 0.000000
# 3 -0.003341 -0.003872 0.007424 0.000000 0.000000 0.000000
# 4 0.000000 0.000000 0.000000 0.019747 0.000000 0.000000
# 5 0.000000 0.000000 0.000000 0.000000 0.087121 0.000000
# 6 0.000000 0.000000 0.000000 0.000000 0.000000 0.145262
#
#
# Mechanical properties :
#
#
# Convention : Reuss Voigt Hill
#
# Bulk Modulus (GPa) = 23.79871 56.40353 40.10112
# Shear Modulus (GPa) = 14.53391 28.95441 21.74416
#
# Velocity S-wave (km/s) = 2.65494 3.74733 3.24740
# Velocity P-wave (km/s) = 4.57606 6.78809 5.78872
#
# Compressibility (1/GPa) = 0.04201908
#
# Stress axis : x y z
#
# Youngs Moduli (GPa) = 23.95731 92.70067 134.69186
#
# Poissons Ratio (x) = 0.16257 0.45001
# Poissons Ratio (y) = 0.04201 0.52154
# Poissons Ratio (z) = 0.08004 0.35895
#
# Static dielectric constant tensor:
#      x y z
#    x 3.128800 0.000000 0.000000 
#    y 0.000000 3.889840 0.000000 
#    z 0.000000 0.000000 4.083530 
# 
# 
# High freq. dielectric constant tensor:
#      x y z
#    x 1.752500 0.000000 0.000000 
#    y 0.000000 1.819440 0.000000 
#    z 0.000000 0.000000 1.828550 
# 
# From -- ./inp_files/6582.got.cif
#   From: 2010.03.12/outbox.cif.g09.slc.cpg/sg46_4_cif.got.tgz:6582.got - 2010.04.14 02:56:35.
