data_PCOD8192931
_publ_section_title
;
Structure prediction by ZEFSAII (Michael W. Deem and Ramdas Pophale) SiO2 
 PCOD8192931
Probable space group: I M A 2
;
_chemical_formula_sum "Si O2"
_cell_formula_units_Z 64
_cell_length_a 8.854563
_cell_length_b 24.316483
_cell_length_c 14.652313
_cell_angle_alpha 90.000000
_cell_angle_beta 90.000000
_cell_angle_gamma 90.000000
_cell_volume 3154.816335
_symmetry_space_group_name_H-M "I M A 2"
_symmetry_group_IT_number 46
_symmetry_cell_setting 'orthorhombic'
loop_
_space_group_symop_operation_xyz
x,y,z
-x,-y,z
1/2-x,y,z
1/2+x,-y,z
1/2+x,1/2+y,1/2+z
1/2-x,1/2-y,1/2+z
-x,1/2+y,1/2+z
x,1/2-y,1/2+z
loop_
_atom_site_type_symbol
_atom_site_label
_atom_site_fract_x
_atom_site_fract_y
_atom_site_fract_z
Si Si1 0.071848 0.350187 0.391680
Si Si2 0.575392 0.261458 0.701693
Si Si3 0.428184 0.441969 0.527668
Si Si4 0.074283 0.230200 0.392631
Si Si5 0.428459 0.345313 0.184481
Si Si6 0.426133 0.879674 0.398104
Si Si7 0.927605 0.556773 0.052142
Si Si8 0.078346 0.882509 0.185598
O O1 0.250000 0.356664 0.389496
O O2 0.003438 0.397785 0.455758
O O3 0.030232 0.290074 0.434371
O O4 0.013236 0.356706 0.287723
O O5 0.750000 0.253868 0.732788
O O6 0.462150 0.264577 0.786335
O O7 0.515631 0.208814 0.644234
O O8 0.559646 0.319635 0.648999
O O9 0.500000 0.500000 0.502859
O O10 0.250000 0.447112 0.520667
O O11 0.471032 0.423061 0.629597
O O12 0.250000 0.216754 0.406852
O O13 0.979963 0.180033 0.435957
O O14 0.250000 0.334611 0.179113
O O15 0.477458 0.397089 0.124361
O O16 0.250000 0.885115 0.416145
O O17 0.511474 0.927590 0.452095
O O18 0.467471 0.885884 0.291812
O O19 0.750000 0.549558 0.047258
O O20 0.000000 0.500000 0.085298
O O21 0.250000 0.902521 0.172377
#
# Coordination Sequence:
#
# PCOD8192931 Si02
#       8
#     8   8   8   8   8   8   8   8
#     4   8  17  35  57  81 110 144 179 218 267 324
#     4   9  17  31  54  85 116 144 179 223 274 330
#     4  11  23  38  56  78 106 142 186 230 270 317
#     4   9  16  31  56  84 114 145 180 222 271 331
#     4   9  19  37  59  82 112 148 184 224 273 331
#     4  10  21  38  59  83 113 146 181 226 278 333
#     4  11  24  40  58  81 109 145 190 235 279 331
#     4   9  20  38  57  80 111 144 178 220 271 325
#
# _framework density 20.286442999999998
#
# number of rings (size 3 to 8) (size 9 to 14) (size 15 to 20)
#    0.000    2.500    0.000    3.375    0.000    6.000 
#    0.000   10.000    0.000    0.000    0.000    0.000 
#    0.000    0.000    0.000    0.000    0.000    0.000 
#
# Total GULP energy -396680.728696 kJ/mol
# GULP energy per Si atom -12396.272772 kJ/mol
# Density = 2.024027 g / cm^3
# Si number density = 20.286443 Si / 1000 Ang^3
#
#
#
# Elastic Constant Matrix: (Units=GPa)
#
#
# Indices 1 2 3 4 5 6 
#
# 1 49.5051 21.4512 11.6455 0.0000 0.0000 0.0000
# 2 21.4512 95.5666 15.7729 -0.0001 0.0000 0.0000
# 3 11.6455 15.7729 45.9506 -0.0003 0.0001 0.0000
# 4 0.0000 -0.0001 -0.0003 32.2198 0.0000 0.0000
# 5 0.0000 0.0000 0.0001 0.0000 18.8577 0.0000
# 6 0.0000 0.0000 0.0000 0.0000 0.0000 38.7589
#
#
#
# Elastic Compliance Matrix: (Units=1/GPa)
#
#
# Indices 1 2 3 4 5 6 
#
# 1 0.023162 -0.004484 -0.004331 0.000000 0.000000 0.000000
# 2 -0.004484 0.011960 -0.002969 0.000000 0.000000 0.000000
# 3 -0.004331 -0.002969 0.023879 0.000000 0.000000 0.000000
# 4 0.000000 0.000000 0.000000 0.031037 0.000000 0.000000
# 5 0.000000 0.000000 0.000000 0.000000 0.053029 0.000000
# 6 0.000000 0.000000 0.000000 0.000000 0.000000 0.025801
#
#
# Mechanical properties :
#
#
# Convention : Reuss Voigt Hill
#
# Bulk Modulus (GPa) = 28.22196 32.08461 30.15328
# Shear Modulus (GPa) = 24.48018 27.44412 25.96215
#
# Velocity S-wave (km/s) = 3.47756 3.68207 3.58128
# Velocity P-wave (km/s) = 5.48330 5.82469 5.65657
#
# Compressibility (1/GPa) = 0.03543340
#
# Stress axis : x y z
#
# Youngs Moduli (GPa) = 43.17460 83.60877 41.87737
#
# Poissons Ratio (x) = 0.37492 0.18136
# Poissons Ratio (y) = 0.19360 0.12434
# Poissons Ratio (z) = 0.18698 0.24824
#
# Static dielectric constant tensor:
#      x y z
#    x 3.521210 0.000000 0.000000 
#    y 0.000000 4.027440 0.000000 
#    z 0.000000 0.000000 3.527100 
# 
# 
# High freq. dielectric constant tensor:
#      x y z
#    x 1.783090 0.000000 0.000000 
#    y 0.000000 1.802300 0.000000 
#    z 0.000000 0.000000 1.771650 
# 
# From -- ./inp_files/14470.got.cif
#   From: 2010.03.12/outbox.cif.g09.slc.cpg/sg46_8_cif.got.tgz:14470.got - 2010.04.14 02:56:35.
