data_PCOD8192477
_publ_section_title
;
Structure prediction by ZEFSAII (Michael W. Deem and Ramdas Pophale) SiO2 
 PCOD8192477
Probable space group: I M A 2
;
_chemical_formula_sum "Si O2"
_cell_formula_units_Z 40
_cell_length_a 8.366476
_cell_length_b 25.582487
_cell_length_c 9.615165
_cell_angle_alpha 90.000000
_cell_angle_beta 90.000000
_cell_angle_gamma 90.000000
_cell_volume 2057.984374
_symmetry_space_group_name_H-M "I M A 2"
_symmetry_group_IT_number 46
_symmetry_cell_setting 'orthorhombic'
loop_
_space_group_symop_operation_xyz
x,y,z
-x,-y,z
1/2-x,y,z
1/2+x,-y,z
1/2+x,1/2+y,1/2+z
1/2-x,1/2-y,1/2+z
-x,1/2+y,1/2+z
x,1/2-y,1/2+z
loop_
_atom_site_type_symbol
_atom_site_label
_atom_site_fract_x
_atom_site_fract_y
_atom_site_fract_z
Si Si1 0.935618 0.942245 0.422300
Si Si2 0.062861 0.639830 0.717628
Si Si3 0.934336 0.133684 0.638771
Si Si4 0.437751 0.164182 0.925890
Si Si5 0.562427 0.783497 0.440251
O O1 0.750000 0.942536 0.384273
O O2 0.031318 0.914081 0.298297
O O3 0.961456 0.911406 0.566312
O O4 0.000000 0.000000 0.440933
O O5 0.250000 0.650799 0.707743
O O6 0.986584 0.634469 0.565818
O O7 0.978700 0.688078 0.795895
O O8 0.750000 0.120034 0.615247
O O9 0.973558 0.134839 0.801126
O O10 0.972733 0.189628 0.569319
O O11 0.250000 0.160912 0.900271
O O12 0.496404 0.224045 0.932429
O O13 0.750000 0.787182 0.468968
#
# Coordination Sequence:
#
# PCOD8192477 Si02
#       5
#     8   8   8   8   8
#     4  11  22  41  65  85 108 141 182 227 277 332
#     4  11  22  36  56  84 114 146 187 231 276 326
#     4  11  22  36  56  84 114 146 187 231 276 326
#     4  11  22  36  54  80 116 154 188 227 277 327
#     4  10  20  35  55  79 112 155 194 226 269 327
#
# _framework density 19.436492999999999
#
# number of rings (size 3 to 8) (size 9 to 14) (size 15 to 20)
#    0.000    1.200    0.000   10.200    0.000    8.000 
#    0.000    1.000    0.000    0.000    0.000    0.000 
#    0.000    0.000    0.000    0.000    0.000    0.000 
#
# Total GULP energy -248142.248883 kJ/mol
# GULP energy per Si atom -12407.112444 kJ/mol
# Density = 1.939226 g / cm^3
# Si number density = 19.436493 Si / 1000 Ang^3
#
#
#
# Elastic Constant Matrix: (Units=GPa)
#
#
# Indices 1 2 3 4 5 6 
#
# 1 73.8180 8.4044 3.6182 0.0006 -0.0004 -0.0001
# 2 8.4044 103.7547 33.2202 0.0012 -0.0001 -0.0001
# 3 3.6182 33.2202 133.0226 0.0062 -0.0003 0.0002
# 4 0.0006 0.0012 0.0062 5.6465 -0.0005 -0.0004
# 5 -0.0004 -0.0001 -0.0003 -0.0005 35.4927 0.0005
# 6 -0.0001 -0.0001 0.0002 -0.0004 0.0005 29.3522
#
#
#
# Elastic Compliance Matrix: (Units=1/GPa)
#
#
# Indices 1 2 3 4 5 6 
#
# 1 0.013674 -0.001074 -0.000104 -0.000001 0.000000 0.000000
# 2 -0.001074 0.010560 -0.002608 0.000001 0.000000 0.000000
# 3 -0.000104 -0.002608 0.008172 -0.000008 0.000000 0.000000
# 4 -0.000001 0.000001 -0.000008 0.177100 0.000002 0.000003
# 5 0.000000 0.000000 0.000000 0.000002 0.028175 0.000000
# 6 0.000000 0.000000 0.000000 0.000003 0.000000 0.034069
#
#
# Mechanical properties :
#
#
# Convention : Reuss Voigt Hill
#
# Bulk Modulus (GPa) = 40.26755 44.56455 42.41605
# Shear Modulus (GPa) = 17.38526 31.78845 24.58686
#
# Velocity S-wave (km/s) = 2.99401 4.04852 3.56052
# Velocity P-wave (km/s) = 5.71966 6.69568 6.22682
#
# Compressibility (1/GPa) = 0.02483389
#
# Stress axis : x y z
#
# Youngs Moduli (GPa) = 73.13018 94.69531 122.37437
#
# Poissons Ratio (x) = 0.10175 0.01268
# Poissons Ratio (y) = 0.07858 0.31915
# Poissons Ratio (z) = 0.00758 0.24697
#
# Static dielectric constant tensor:
#      x y z
#    x 3.688920 0.000000 0.000000 
#    y 0.000000 3.501100 0.000000 
#    z 0.000000 0.000000 3.579440 
# 
# 
# High freq. dielectric constant tensor:
#      x y z
#    x 1.774060 0.000000 0.000000 
#    y 0.000000 1.738460 0.000000 
#    z 0.000000 0.000000 1.761590 
# 
# From -- ./inp_files/3532.got.cif
#   From: 2010.03.12/outbox.cif.g09.slc.cpg/sg46_2_cif.got.tgz:3532.got - 2010.04.14 02:56:35.
