data_PCOD8192433
_publ_section_title
;
Structure prediction by ZEFSAII (Michael W. Deem and Ramdas Pophale) SiO2 
 PCOD8192433
Probable space group: I M A 2
;
_chemical_formula_sum "Si O2"
_cell_formula_units_Z 44
_cell_length_a 9.211437
_cell_length_b 21.198583
_cell_length_c 11.374456
_cell_angle_alpha 90.000000
_cell_angle_beta 90.000000
_cell_angle_gamma 90.000000
_cell_volume 2221.083333
_symmetry_space_group_name_H-M "I M A 2"
_symmetry_group_IT_number 46
_symmetry_cell_setting 'orthorhombic'
loop_
_space_group_symop_operation_xyz
x,y,z
-x,-y,z
1/2-x,y,z
1/2+x,-y,z
1/2+x,1/2+y,1/2+z
1/2-x,1/2-y,1/2+z
-x,1/2+y,1/2+z
x,1/2-y,1/2+z
loop_
_atom_site_type_symbol
_atom_site_label
_atom_site_fract_x
_atom_site_fract_y
_atom_site_fract_z
Si Si1 0.413481 0.910178 0.733190
Si Si2 0.500000 0.500000 0.034446
Si Si3 0.423034 0.059163 0.963837
Si Si4 0.922026 0.660314 0.648987
Si Si5 0.076702 0.197217 0.613832
Si Si6 0.585764 0.619411 0.896273
O O1 0.250000 0.897806 0.777296
O O2 0.401698 0.956591 0.619605
O O3 0.511362 0.940580 0.833625
O O4 0.492480 0.844054 0.709082
O O5 0.582118 0.548188 0.947223
O O6 0.250000 0.050476 0.957266
O O7 0.500000 0.000000 0.028756
O O8 0.472186 0.120499 0.036345
O O9 0.750000 0.659122 0.653937
O O10 0.976788 0.731454 0.630332
O O11 0.990251 0.629555 0.768709
O O12 0.250000 0.188952 0.631462
O O13 0.023698 0.171147 0.487213
O O14 0.750000 0.638065 0.874790
#
# Coordination Sequence:
#
# PCOD8192433 Si02
#       6
#     8   4   8   8   8   8
#     4  11  22  37  59  86 117 151 194 242 294 348
#     4  10  20  34  58  78 116 152 196 230 292 336
#     4  11  23  38  60  87 117 153 197 242 294 348
#     4   9  20  36  58  86 114 151 195 238 285 351
#     4   9  19  36  61  87 112 147 193 239 288 342
#     4   9  18  33  55  83 112 145 188 235 281 338
#
# _framework density 19.810151000000001
#
# number of rings (size 3 to 8) (size 9 to 14) (size 15 to 20)
#    0.000    2.182    0.909    1.636    3.818    1.455 
#    0.000    1.818    0.000    2.182    0.000    0.000 
#    0.000    0.000    0.000    0.000    0.000    0.000 
#
# Total GULP energy -272587.306797 kJ/mol
# GULP energy per Si atom -12390.332127 kJ/mol
# Density = 1.976506 g / cm^3
# Si number density = 19.810151 Si / 1000 Ang^3
#
#
#
# Elastic Constant Matrix: (Units=GPa)
#
#
# Indices 1 2 3 4 5 6 
#
# 1 73.2612 32.3132 22.2610 0.0001 0.0000 0.0000
# 2 32.3132 171.7734 66.0984 0.0005 -0.0001 -0.0001
# 3 22.2610 66.0984 107.6535 0.0010 -0.0004 -0.0001
# 4 0.0001 0.0005 0.0010 26.3860 -0.0002 -0.0001
# 5 0.0000 -0.0001 -0.0004 -0.0002 14.5061 0.0001
# 6 0.0000 -0.0001 -0.0001 -0.0001 0.0001 27.2931
#
#
#
# Elastic Compliance Matrix: (Units=1/GPa)
#
#
# Indices 1 2 3 4 5 6 
#
# 1 0.015150 -0.002153 -0.001811 0.000000 0.000000 0.000000
# 2 -0.002153 0.007929 -0.004423 0.000000 0.000000 0.000000
# 3 -0.001811 -0.004423 0.012379 0.000000 0.000000 0.000000
# 4 0.000000 0.000000 0.000000 0.037899 0.000001 0.000000
# 5 0.000000 0.000000 0.000000 0.000001 0.068937 0.000000
# 6 0.000000 0.000000 0.000000 0.000000 0.000000 0.036639
#
#
# Mechanical properties :
#
#
# Convention : Reuss Voigt Hill
#
# Bulk Modulus (GPa) = 53.52182 66.00368 59.76275
# Shear Modulus (GPa) = 24.76064 29.10474 26.93269
#
# Velocity S-wave (km/s) = 3.53922 3.83715 3.69119
# Velocity P-wave (km/s) = 6.61646 7.28163 6.95700
#
# Compressibility (1/GPa) = 0.01868397
#
# Stress axis : x y z
#
# Youngs Moduli (GPa) = 66.00807 126.12610 80.78142
#
# Poissons Ratio (x) = 0.27157 0.14627
# Poissons Ratio (y) = 0.14212 0.35728
# Poissons Ratio (z) = 0.11952 0.55784
#
# Static dielectric constant tensor:
#      x y z
#    x 3.223370 0.000000 0.000000 
#    y 0.000000 4.005970 0.000000 
#    z 0.000000 0.000000 3.842620 
# 
# 
# High freq. dielectric constant tensor:
#      x y z
#    x 1.730330 0.000000 0.000000 
#    y 0.000000 1.785170 0.000000 
#    z 0.000000 0.000000 1.776380 
# 
# From -- ./inp_files/9246.got.cif
#   From: 2010.03.12/outbox.cif.g09.slc.cpg/sg46_5_cif.got.tgz:9246.got - 2010.04.14 02:56:35.
