data_PCOD8192610
_publ_section_title
;
Structure prediction by ZEFSAII (Michael W. Deem and Ramdas Pophale) SiO2 
 PCOD8192610
Probable space group: I M A 2
;
_chemical_formula_sum "Si O2"
_cell_formula_units_Z 40
_cell_length_a 8.949689
_cell_length_b 17.040222
_cell_length_c 12.668677
_cell_angle_alpha 90.000000
_cell_angle_beta 90.000000
_cell_angle_gamma 90.000000
_cell_volume 1932.032626
_symmetry_space_group_name_H-M "I M A 2"
_symmetry_group_IT_number 46
_symmetry_cell_setting 'orthorhombic'
loop_
_space_group_symop_operation_xyz
x,y,z
-x,-y,z
1/2-x,y,z
1/2+x,-y,z
1/2+x,1/2+y,1/2+z
1/2-x,1/2-y,1/2+z
-x,1/2+y,1/2+z
x,1/2-y,1/2+z
loop_
_atom_site_type_symbol
_atom_site_label
_atom_site_fract_x
_atom_site_fract_y
_atom_site_fract_z
Si Si1 0.575935 0.417214 0.250000
Si Si2 0.072027 0.087237 0.346149
Si Si3 0.915441 0.816354 0.140219
Si Si4 0.074896 0.830582 0.543803
Si Si5 0.085415 0.421753 0.439280
O O1 0.500000 0.500000 0.272147
O O2 0.750000 0.415856 0.268131
O O3 0.535188 0.394256 0.132285
O O4 0.500018 0.369273 0.347648
O O5 0.250000 0.076568 0.353046
O O6 0.023462 0.134992 0.241273
O O7 0.017559 0.142699 0.442027
O O8 0.000000 0.000000 0.349272
O O9 0.750000 0.781224 0.166042
O O10 0.028707 0.749960 0.100767
O O11 0.900694 0.874802 0.045201
O O12 0.250000 0.827231 0.515650
O O13 0.250000 0.442539 0.396102
O O14 0.000000 0.500000 0.471973
#
# Coordination Sequence:
#
# PCOD8192610 Si02
#       5
#     8   8   8   8   8
#     4  10  21  37  58  87 118 155 199 247 302 362
#     4  11  24  44  69  96 130 172 219 267 321 387
#     4  10  24  42  62  91 126 165 208 259 318 376
#     4  11  25  41  62  92 127 165 210 263 318 375
#     4  10  20  36  60  88 118 155 198 246 302 365
#
# _framework density 20.703585
#
# number of rings (size 3 to 8) (size 9 to 14) (size 15 to 20)
#    0.000    1.600    0.000    4.800    2.800    8.000 
#    0.000    0.000    0.000    0.000    0.000    0.000 
#    0.000    0.000    0.000    0.000    0.000    0.000 
#
# Total GULP energy -247781.834490 kJ/mol
# GULP energy per Si atom -12389.091725 kJ/mol
# Density = 2.065646 g / cm^3
# Si number density = 20.703585 Si / 1000 Ang^3
#
#
#
# Elastic Constant Matrix: (Units=GPa)
#
#
# Indices 1 2 3 4 5 6 
#
# 1 89.5384 44.1903 67.6368 0.0001 0.0000 0.0000
# 2 44.1903 77.6606 36.4209 0.0001 0.0000 0.0000
# 3 67.6368 36.4209 151.9757 0.0003 0.0000 0.0001
# 4 0.0001 0.0001 0.0003 31.8795 0.0000 0.0000
# 5 0.0000 0.0000 0.0000 0.0000 37.8953 0.0000
# 6 0.0000 0.0000 0.0001 0.0000 0.0000 27.4154
#
#
#
# Elastic Compliance Matrix: (Units=1/GPa)
#
#
# Indices 1 2 3 4 5 6 
#
# 1 0.020799 -0.008443 -0.007233 0.000000 0.000000 0.000000
# 2 -0.008443 0.017934 -0.000540 0.000000 0.000000 0.000000
# 3 -0.007233 -0.000540 0.009929 0.000000 0.000000 0.000000
# 4 0.000000 0.000000 0.000000 0.031368 0.000000 0.000000
# 5 0.000000 0.000000 0.000000 0.000000 0.026389 0.000000
# 6 0.000000 0.000000 0.000000 0.000000 0.000000 0.036476
#
#
# Mechanical properties :
#
#
# Convention : Reuss Voigt Hill
#
# Bulk Modulus (GPa) = 61.61889 68.40787 65.01338
# Shear Modulus (GPa) = 27.66438 30.83314 29.24876
#
# Velocity S-wave (km/s) = 3.65939 3.86329 3.76272
# Velocity P-wave (km/s) = 6.90521 7.28102 7.09560
#
# Compressibility (1/GPa) = 0.01622879
#
# Stress axis : x y z
#
# Youngs Moduli (GPa) = 48.07840 55.75950 100.71781
#
# Poissons Ratio (x) = 0.47077 0.72853
# Poissons Ratio (y) = 0.40592 0.05443
# Poissons Ratio (z) = 0.34777 0.03013
#
# Static dielectric constant tensor:
#      x y z
#    x 4.284230 0.000000 0.000000 
#    y 0.000000 3.056050 0.000000 
#    z 0.000000 0.000000 4.226900 
# 
# 
# High freq. dielectric constant tensor:
#      x y z
#    x 1.822510 0.000000 0.000000 
#    y 0.000000 1.795950 0.000000 
#    z 0.000000 0.000000 1.839120 
# 
# From -- ./inp_files/9034.got.cif
#   From: 2010.03.12/outbox.cif.g09.slc.cpg/sg46_5_cif.got.tgz:9034.got - 2010.04.14 02:56:35.
