data_PCOD8192276
_publ_section_title
;
Structure prediction by ZEFSAII (Michael W. Deem and Ramdas Pophale) SiO2 
 PCOD8192276
Probable space group: I M A 2
;
_chemical_formula_sum "Si O2"
_cell_formula_units_Z 64
_cell_length_a 8.946739
_cell_length_b 18.101959
_cell_length_c 23.099173
_cell_angle_alpha 90.000000
_cell_angle_beta 90.000000
_cell_angle_gamma 90.000000
_cell_volume 3740.991974
_symmetry_space_group_name_H-M "I M A 2"
_symmetry_group_IT_number 46
_symmetry_cell_setting 'orthorhombic'
loop_
_space_group_symop_operation_xyz
x,y,z
-x,-y,z
1/2-x,y,z
1/2+x,-y,z
1/2+x,1/2+y,1/2+z
1/2-x,1/2-y,1/2+z
-x,1/2+y,1/2+z
x,1/2-y,1/2+z
loop_
_atom_site_type_symbol
_atom_site_label
_atom_site_fract_x
_atom_site_fract_y
_atom_site_fract_z
Si Si1 0.079296 0.342337 0.152660
Si Si2 0.572929 0.774136 0.819812
Si Si3 0.573322 0.575607 0.500278
Si Si4 0.072745 0.784917 0.940820
Si Si5 0.575333 0.211547 0.215794
Si Si6 0.418960 0.073641 0.761670
Si Si7 0.583709 0.364668 0.604914
Si Si8 0.584997 0.297114 0.050582
O O1 0.250000 0.313164 0.154421
O O2 0.065591 0.416190 0.191747
O O3 0.967570 0.284441 0.180807
O O4 0.026880 0.352276 0.085647
O O5 0.750000 0.769244 0.827728
O O6 0.489198 0.759307 0.879415
O O7 0.520127 0.709899 0.775094
O O8 0.520771 0.853917 0.795082
O O9 0.500000 0.500000 0.477713
O O10 0.750000 0.572519 0.492881
O O11 0.508652 0.640417 0.460511
O O12 0.532545 0.586460 0.568383
O O13 0.250000 0.799561 0.939312
O O14 0.034194 0.716795 0.984285
O O15 0.750000 0.214322 0.231023
O O16 0.539829 0.141378 0.173374
O O17 0.250000 0.061956 0.780226
O O18 0.500000 0.000000 0.782557
O O19 0.750000 0.399274 0.598233
O O20 0.585291 0.282898 0.579484
O O21 0.750000 0.332708 0.052658
#
# Coordination Sequence:
#
# PCOD8192276 Si02
#       8
#     8   8   8   8   8   8   8   8
#     4   9  16  26  41  62  84 104 134 176 217 257
#     4  10  20  32  44  62  87 114 149 185 216 253
#     4  11  21  32  46  63  86 117 151 184 219 256
#     4  10  20  33  46  62  86 115 149 183 215 255
#     4   9  16  27  44  63  83 109 138 172 218 262
#     4   9  19  31  42  59  83 112 145 179 210 246
#     4   8  15  28  44  63  85 107 137 176 217 261
#     4   8  15  27  43  62  82 106 136 171 214 262
#
# _framework density 17.107762000000001
#
# number of rings (size 3 to 8) (size 9 to 14) (size 15 to 20)
#    0.000    2.750    0.000    4.875    0.000    9.000 
#    0.000    1.250    0.000    0.000    0.000    0.000 
#    0.000    1.000    0.000    7.000    0.000    5.625 
#
# Total GULP energy -396468.840850 kJ/mol
# GULP energy per Si atom -12389.651277 kJ/mol
# Density = 1.706882 g / cm^3
# Si number density = 17.107762 Si / 1000 Ang^3
#
#
#
# Elastic Constant Matrix: (Units=GPa)
#
#
# Indices 1 2 3 4 5 6 
#
# 1 77.8562 5.1732 36.5220 0.0000 0.0000 0.0000
# 2 5.1732 2.6814 9.1553 0.0000 0.0000 0.0000
# 3 36.5220 9.1553 114.8030 0.0000 0.0000 0.0000
# 4 0.0000 0.0000 0.0000 14.3300 0.0000 0.0000
# 5 0.0000 0.0000 0.0000 0.0000 30.4388 0.0000
# 6 0.0000 0.0000 0.0000 0.0000 0.0000 19.8235
#
#
#
# Elastic Compliance Matrix: (Units=1/GPa)
#
#
# Indices 1 2 3 4 5 6 
#
# 1 0.015719 -0.018211 -0.003548 0.000000 0.000000 0.000000
# 2 -0.018211 0.533577 -0.036758 0.000000 0.000000 0.000000
# 3 -0.003548 -0.036758 0.012771 0.000000 0.000000 0.000000
# 4 0.000000 0.000000 0.000000 0.069784 0.000000 0.000000
# 5 0.000000 0.000000 0.000000 0.000000 0.032853 0.000000
# 6 0.000000 0.000000 0.000000 0.000000 0.000000 0.050445
#
#
# Mechanical properties :
#
#
# Convention : Reuss Voigt Hill
#
# Bulk Modulus (GPa) = 2.24703 33.00464 17.62584
# Shear Modulus (GPa) = 5.09930 22.55113 13.82521
#
# Velocity S-wave (km/s) = 1.72834 3.63462 2.84584
# Velocity P-wave (km/s) = 2.30200 6.07849 4.59604
#
# Compressibility (1/GPa) = 0.44503146
#
# Stress axis : x y z
#
# Youngs Moduli (GPa) = 63.61844 1.87414 78.30374
#
# Poissons Ratio (x) = 0.03413 0.27784
# Poissons Ratio (y) = 1.15855 2.87831
# Poissons Ratio (z) = 0.22574 0.06889
#
# Static dielectric constant tensor:
#      x y z
#    x 3.264490 0.000000 0.000000 
#    y 0.000000 2.827750 0.000000 
#    z 0.000000 0.000000 3.678060 
# 
# 
# High freq. dielectric constant tensor:
#      x y z
#    x 1.670140 0.000000 0.000000 
#    y 0.000000 1.594150 0.000000 
#    z 0.000000 0.000000 1.662560 
# 
# From -- ./inp_files/21452.got.cif
#   From: 2010.03.12/outbox.cif.g09.slc.cpg/sg46_11_cif.got.tgz:21452.got - 2010.04.14 02:56:35.
