data_PCOD8192922
_publ_section_title
;
Structure prediction by ZEFSAII (Michael W. Deem and Ramdas Pophale) SiO2 
 PCOD8192922
Probable space group: I M A 2
;
_chemical_formula_sum "Si O2"
_cell_formula_units_Z 56
_cell_length_a 16.215015
_cell_length_b 20.701737
_cell_length_c 7.680427
_cell_angle_alpha 90.000000
_cell_angle_beta 90.000000
_cell_angle_gamma 90.000000
_cell_volume 2578.157870
_symmetry_space_group_name_H-M "I M A 2"
_symmetry_group_IT_number 46
_symmetry_cell_setting 'orthorhombic'
loop_
_space_group_symop_operation_xyz
x,y,z
-x,-y,z
1/2-x,y,z
1/2+x,-y,z
1/2+x,1/2+y,1/2+z
1/2-x,1/2-y,1/2+z
-x,1/2+y,1/2+z
x,1/2-y,1/2+z
loop_
_atom_site_type_symbol
_atom_site_label
_atom_site_fract_x
_atom_site_fract_y
_atom_site_fract_z
Si Si1 0.906317 0.088293 0.404970
Si Si2 0.574622 0.142067 0.788626
Si Si3 0.750000 0.186883 0.783267
Si Si4 0.971775 0.879581 0.106926
Si Si5 0.250000 0.833024 0.379161
Si Si6 0.444586 0.253598 0.235402
Si Si7 0.843712 0.951758 0.300188
Si Si8 0.157661 0.324686 0.001668
O O1 0.924073 0.102358 0.608388
O O2 0.984146 0.108221 0.291416
O O3 0.830997 0.128374 0.322820
O O4 0.889657 0.012744 0.380979
O O5 0.666990 0.155446 0.863891
O O6 0.533051 0.212318 0.759658
O O7 0.525225 0.100845 0.936311
O O8 0.750000 0.170370 0.583726
O O9 0.750000 0.263635 0.792305
O O10 0.953172 0.802890 0.086675
O O11 0.888808 0.923174 0.126317
O O12 0.375183 0.309038 0.195647
O O13 0.411979 0.214439 0.399229
O O14 0.750000 0.968268 0.245700
O O15 0.844695 0.899804 0.456650
O O16 0.250000 0.297307 0.974072
#
# Coordination Sequence:
#
# PCOD8192922 Si02
#       8
#     8   8   4   8   4   8   8   8
#     4  11  23  43  69  94 133 181 220 270 334 395
#     4  11  24  41  64 101 138 173 223 277 338 409
#     4  10  24  36  60 102 140 170 222 268 340 412
#     4  11  24  40  68  96 131 177 220 278 338 397
#     4  10  22  38  64 100 134 180 210 274 334 392
#     4  11  20  39  60  95 136 163 210 279 343 400
#     4  10  22  45  67  93 131 175 231 271 330 405
#     4  10  21  37  66  93 123 168 212 277 336 398
#
# _framework density 21.720935999999998
#
# number of rings (size 3 to 8) (size 9 to 14) (size 15 to 20)
#    0.000    1.429    2.143    3.429    6.000    0.571 
#    0.000    5.714    0.000    4.286    0.000    0.000 
#    0.000    0.000    0.000    0.000    0.000    0.000 
#
# Total GULP energy -347033.540997 kJ/mol
# GULP energy per Si atom -12394.055036 kJ/mol
# Density = 2.167150 g / cm^3
# Si number density = 21.720936 Si / 1000 Ang^3
#
#
#
# Elastic Constant Matrix: (Units=GPa)
#
#
# Indices 1 2 3 4 5 6 
#
# 1 123.0118 42.5655 28.9750 0.0000 0.0000 0.0000
# 2 42.5655 106.8076 31.8397 0.0000 0.0000 0.0000
# 3 28.9750 31.8397 56.3558 0.0000 0.0000 0.0000
# 4 0.0000 0.0000 0.0000 28.7611 0.0000 0.0000
# 5 0.0000 0.0000 0.0000 0.0000 20.8945 0.0000
# 6 0.0000 0.0000 0.0000 0.0000 0.0000 22.2295
#
#
#
# Elastic Compliance Matrix: (Units=1/GPa)
#
#
# Indices 1 2 3 4 5 6 
#
# 1 0.009961 -0.002938 -0.003462 0.000000 0.000000 0.000000
# 2 -0.002938 0.012125 -0.005340 0.000000 0.000000 0.000000
# 3 -0.003462 -0.005340 0.022541 0.000000 0.000000 0.000000
# 4 0.000000 0.000000 0.000000 0.034769 0.000000 0.000000
# 5 0.000000 0.000000 0.000000 0.000000 0.047860 0.000000
# 6 0.000000 0.000000 0.000000 0.000000 0.000000 0.044985
#
#
# Mechanical properties :
#
#
# Convention : Reuss Voigt Hill
#
# Bulk Modulus (GPa) = 47.28445 54.77061 51.02753
# Shear Modulus (GPa) = 24.65840 26.56334 25.61087
#
# Velocity S-wave (km/s) = 3.37298 3.50085 3.43751
# Velocity P-wave (km/s) = 6.08158 6.45070 6.26886
#
# Compressibility (1/GPa) = 0.02114860
#
# Stress axis : x y z
#
# Youngs Moduli (GPa) = 100.38871 82.47195 44.36318
#
# Poissons Ratio (x) = 0.24229 0.15357
# Poissons Ratio (y) = 0.29493 0.23690
# Poissons Ratio (z) = 0.34752 0.44040
#
# Static dielectric constant tensor:
#      x y z
#    x 4.413580 0.000000 0.000000 
#    y 0.000000 3.895170 0.000000 
#    z 0.000000 0.000000 3.777540 
# 
# 
# High freq. dielectric constant tensor:
#      x y z
#    x 1.873540 0.000000 0.000000 
#    y 0.000000 1.846100 0.000000 
#    z 0.000000 0.000000 1.836170 
# 
# From -- ./inp_files/5963.got.cif
#   From: 2010.03.12/outbox.cif.g09.slc.cpg/sg46_3_cif.got.tgz:5963.got - 2010.04.14 02:56:35.
