data_PCOD8192662
_publ_section_title
;
Structure prediction by ZEFSAII (Michael W. Deem and Ramdas Pophale) SiO2 
 PCOD8192662
Probable space group: I M A 2
;
_chemical_formula_sum "Si O2"
_cell_formula_units_Z 64
_cell_length_a 25.878059
_cell_length_b 11.750837
_cell_length_c 9.067454
_cell_angle_alpha 90.000000
_cell_angle_beta 90.000000
_cell_angle_gamma 90.000000
_cell_volume 2757.311688
_symmetry_space_group_name_H-M "I M A 2"
_symmetry_group_IT_number 46
_symmetry_cell_setting 'orthorhombic'
loop_
_space_group_symop_operation_xyz
x,y,z
-x,-y,z
1/2-x,y,z
1/2+x,-y,z
1/2+x,1/2+y,1/2+z
1/2-x,1/2-y,1/2+z
-x,1/2+y,1/2+z
x,1/2-y,1/2+z
loop_
_atom_site_type_symbol
_atom_site_label
_atom_site_fract_x
_atom_site_fract_y
_atom_site_fract_z
Si Si1 0.308353 0.407194 0.000000
Si Si2 0.607232 0.698313 0.521572
Si Si3 0.190758 0.209757 0.801215
Si Si4 0.566298 0.625525 0.816724
Si Si5 0.548086 0.379385 0.727152
Si Si6 0.310420 0.841328 0.531456
Si Si7 0.946219 0.015041 0.913678
Si Si8 0.870113 0.194718 0.808314
O O1 0.250000 0.426101 0.050886
O O2 0.312457 0.345952 0.840305
O O3 0.331543 0.324496 0.135240
O O4 0.331861 0.533282 0.985495
O O5 0.659695 0.653925 0.438438
O O6 0.605247 0.686341 0.698671
O O7 0.590142 0.827203 0.470632
O O8 0.564648 0.612682 0.461255
O O9 0.250000 0.168766 0.813514
O O10 0.570134 0.489086 0.815147
O O11 0.506705 0.662001 0.793620
O O12 0.540466 0.409127 0.556967
O O13 0.588385 0.278603 0.738022
O O14 0.250000 0.823606 0.495973
O O15 0.320949 0.826418 0.704188
O O16 0.345506 0.745867 0.455298
O O17 0.899028 0.074226 0.829018
O O18 0.000000 0.000000 0.820933
#
# Coordination Sequence:
#
# PCOD8192662 Si02
#       8
#     8   8   8   8   8   8   8   8
#     4   9  20  39  60  88 130 171 217 285 334 392
#     4  11  21  36  63  87 124 164 211 258 329 389
#     4  10  20  37  60  89 129 172 219 274 337 391
#     4  10  22  39  62  89 127 161 207 266 330 389
#     4  10  21  41  62  88 131 170 206 271 334 393
#     4  11  25  45  67 100 142 183 239 293 341 416
#     4  11  21  43  64  94 132 174 215 279 340 411
#     4  12  24  42  74  94 134 184 233 276 357 408
#
# _framework density 23.211013999999999
#
# number of rings (size 3 to 8) (size 9 to 14) (size 15 to 20)
#    0.000    1.500    3.750    2.625    1.750    0.000 
#    0.000    0.625    0.000    0.000    0.000    0.000 
#    0.000    0.000    0.000    0.000    0.000    0.000 
#
# Total GULP energy -396520.978198 kJ/mol
# GULP energy per Si atom -12391.280569 kJ/mol
# Density = 2.315819 g / cm^3
# Si number density = 23.211014 Si / 1000 Ang^3
#
#
#
# Elastic Constant Matrix: (Units=GPa)
#
#
# Indices 1 2 3 4 5 6 
#
# 1 88.8007 7.4059 37.9452 0.0000 0.0000 0.0000
# 2 7.4059 79.1170 15.0457 0.0000 0.0000 0.0000
# 3 37.9452 15.0457 92.2165 0.0000 0.0000 0.0000
# 4 0.0000 0.0000 0.0000 25.3186 0.0000 0.0000
# 5 0.0000 0.0000 0.0000 0.0000 30.2773 0.0000
# 6 0.0000 0.0000 0.0000 0.0000 0.0000 37.1202
#
#
#
# Elastic Compliance Matrix: (Units=1/GPa)
#
#
# Indices 1 2 3 4 5 6 
#
# 1 0.013667 -0.000217 -0.005588 0.000000 0.000000 0.000000
# 2 -0.000217 0.013048 -0.002040 0.000000 0.000000 0.000000
# 3 -0.005588 -0.002040 0.013476 0.000000 0.000000 0.000000
# 4 0.000000 0.000000 0.000000 0.039497 0.000000 0.000000
# 5 0.000000 0.000000 0.000000 0.000000 0.033028 0.000000
# 6 0.000000 0.000000 0.000000 0.000000 0.000000 0.026939
#
#
# Mechanical properties :
#
#
# Convention : Reuss Voigt Hill
#
# Bulk Modulus (GPa) = 40.81330 42.32531 41.56931
# Shear Modulus (GPa) = 30.57876 31.85905 31.21891
#
# Velocity S-wave (km/s) = 3.63357 3.70886 3.67141
# Velocity P-wave (km/s) = 5.93511 6.05107 5.99337
#
# Compressibility (1/GPa) = 0.02450181
#
# Stress axis : x y z
#
# Youngs Moduli (GPa) = 73.16778 76.64204 74.20396
#
# Poissons Ratio (x) = 0.01660 0.41468
# Poissons Ratio (y) = 0.01585 0.15135
# Poissons Ratio (z) = 0.40889 0.15633
#
# Static dielectric constant tensor:
#      x y z
#    x 4.588230 0.000000 0.000000 
#    y 0.000000 4.258230 0.000000 
#    z 0.000000 0.000000 4.044650 
# 
# 
# High freq. dielectric constant tensor:
#      x y z
#    x 1.947940 0.000000 0.000000 
#    y 0.000000 1.911900 0.000000 
#    z 0.000000 0.000000 1.899550 
# 
# From -- ./inp_files/8484.got.cif
#   From: 2010.03.12/outbox.cif.g09.slc.cpg/sg46_5_cif.got.tgz:8484.got - 2010.04.14 02:56:35.
