data_PCOD8192464
_publ_section_title
;
Structure prediction by ZEFSAII (Michael W. Deem and Ramdas Pophale) SiO2 
 PCOD8192464
Probable space group: I M A 2
;
_chemical_formula_sum "Si O2"
_cell_formula_units_Z 40
_cell_length_a 10.073103
_cell_length_b 9.034253
_cell_length_c 23.391242
_cell_angle_alpha 90.000000
_cell_angle_beta 90.000000
_cell_angle_gamma 90.000000
_cell_volume 2128.672283
_symmetry_space_group_name_H-M "I M A 2"
_symmetry_group_IT_number 46
_symmetry_cell_setting 'orthorhombic'
loop_
_space_group_symop_operation_xyz
x,y,z
-x,-y,z
1/2-x,y,z
1/2+x,-y,z
1/2+x,1/2+y,1/2+z
1/2-x,1/2-y,1/2+z
-x,1/2+y,1/2+z
x,1/2-y,1/2+z
loop_
_atom_site_type_symbol
_atom_site_label
_atom_site_fract_x
_atom_site_fract_y
_atom_site_fract_z
Si Si1 0.250000 0.665203 0.080341
Si Si2 0.250000 0.667822 0.954551
Si Si3 0.495206 0.824490 0.651877
Si Si4 0.250000 0.313943 0.950806
Si Si5 0.750000 0.813689 0.582496
Si Si6 0.005951 0.824043 0.384576
Si Si7 0.087247 0.647356 0.761213
O O1 0.122073 0.728039 0.111240
O O2 0.250000 0.489091 0.078107
O O3 0.250000 0.732607 0.017672
O O4 0.250000 0.490490 0.953804
O O5 0.377502 0.735091 0.924285
O O6 0.625052 0.760216 0.620209
O O7 0.464564 0.758223 0.713392
O O8 0.500000 0.000000 0.659354
O O9 0.373688 0.256306 0.912953
O O10 0.250000 0.251756 0.016658
O O11 0.039848 0.774321 0.320036
O O12 0.000000 0.000000 0.385093
O O13 0.250000 0.621054 0.760491
O O14 0.000000 0.500000 0.752600
#
# Coordination Sequence:
#
# PCOD8192464 Si02
#       7
#     4   4   8   4   4   8   8
#     4   9  16  29  49  73 107 137 172 219 270 320
#     4   9  14  25  44  71  99 135 166 211 272 320
#     4  10  20  35  54  78 109 143 179 222 267 317
#     4   9  16  27  44  73 107 131 162 217 272 326
#     4   9  18  29  49  79 107 137 174 217 272 326
#     4   9  17  27  45  70 105 137 169 211 270 317
#     4  11  23  37  54  79 111 145 186 225 266 320
#
# _framework density 18.791055
#
# number of rings (size 3 to 8) (size 9 to 14) (size 15 to 20)
#    0.000    2.400    2.000    1.200    5.600    4.800 
#    0.000    0.000    0.000    0.000    0.000    8.400 
#    0.000    0.000    0.000    0.000    0.000    0.000 
#
# Total GULP energy -247766.698421 kJ/mol
# GULP energy per Si atom -12388.334921 kJ/mol
# Density = 1.874829 g / cm^3
# Si number density = 18.791055 Si / 1000 Ang^3
#
#
#
# Elastic Constant Matrix: (Units=GPa)
#
#
# Indices 1 2 3 4 5 6 
#
# 1 199.9583 20.1872 106.9013 0.0000 0.0000 0.0000
# 2 20.1872 15.7900 26.8046 0.0000 0.0000 0.0000
# 3 106.9013 26.8046 209.1321 0.0000 0.0000 0.0000
# 4 0.0000 0.0000 0.0000 23.5374 0.0000 0.0000
# 5 0.0000 0.0000 0.0000 0.0000 43.8898 0.0000
# 6 0.0000 0.0000 0.0000 0.0000 0.0000 11.7085
#
#
#
# Elastic Compliance Matrix: (Units=1/GPa)
#
#
# Indices 1 2 3 4 5 6 
#
# 1 0.007047 -0.003699 -0.003128 0.000000 0.000000 0.000000
# 2 -0.003699 0.082884 -0.008732 0.000000 0.000000 0.000000
# 3 -0.003128 -0.008732 0.007500 0.000000 0.000000 0.000000
# 4 0.000000 0.000000 0.000000 0.042486 0.000000 0.000000
# 5 0.000000 0.000000 0.000000 0.000000 0.022784 0.000000
# 6 0.000000 0.000000 0.000000 0.000000 0.000000 0.085408
#
#
# Mechanical properties :
#
#
# Convention : Reuss Voigt Hill
#
# Bulk Modulus (GPa) = 15.08032 81.40740 48.24386
# Shear Modulus (GPa) = 16.59300 33.89294 25.24297
#
# Velocity S-wave (km/s) = 2.97480 4.25158 3.66915
# Velocity P-wave (km/s) = 4.45443 8.21691 6.60907
#
# Compressibility (1/GPa) = 0.06631159
#
# Stress axis : x y z
#
# Youngs Moduli (GPa) = 141.90923 12.06503 133.33709
#
# Poissons Ratio (x) = 0.04463 0.41707
# Poissons Ratio (y) = 0.52496 1.16435
# Poissons Ratio (z) = 0.44388 0.10536
#
# Static dielectric constant tensor:
#      x y z
#    x 3.883520 0.000000 0.000000 
#    y 0.000000 2.686790 0.000000 
#    z 0.000000 0.000000 3.805860 
# 
# 
# High freq. dielectric constant tensor:
#      x y z
#    x 1.753780 0.000000 0.000000 
#    y 0.000000 1.647090 0.000000 
#    z 0.000000 0.000000 1.755590 
# 
# From -- ./inp_files/20860.got.cif
#   From: 2010.03.12/outbox.cif.g09.slc.cpg/sg46_11_cif.got.tgz:20860.got - 2010.04.14 02:56:35.
