data_PCOD8192620
_publ_section_title
;
Structure prediction by ZEFSAII (Michael W. Deem and Ramdas Pophale) SiO2 
 PCOD8192620
Probable space group: I M A 2
;
_chemical_formula_sum "Si O2"
_cell_formula_units_Z 64
_cell_length_a 13.539433
_cell_length_b 12.664597
_cell_length_c 18.149518
_cell_angle_alpha 90.000000
_cell_angle_beta 90.000000
_cell_angle_gamma 90.000000
_cell_volume 3112.124396
_symmetry_space_group_name_H-M "I M A 2"
_symmetry_group_IT_number 46
_symmetry_cell_setting 'orthorhombic'
loop_
_space_group_symop_operation_xyz
x,y,z
-x,-y,z
1/2-x,y,z
1/2+x,-y,z
1/2+x,1/2+y,1/2+z
1/2-x,1/2-y,1/2+z
-x,1/2+y,1/2+z
x,1/2-y,1/2+z
loop_
_atom_site_type_symbol
_atom_site_label
_atom_site_fract_x
_atom_site_fract_y
_atom_site_fract_z
Si Si1 0.564798 0.857936 0.443480
Si Si2 0.974415 0.883155 0.738483
Si Si3 0.640038 0.285673 0.763219
Si Si4 0.445275 0.268122 0.092920
Si Si5 0.365948 0.352131 0.383285
Si Si6 0.861375 0.077326 0.403602
Si Si7 0.362071 0.663197 0.599490
Si Si8 0.134023 0.442627 0.538132
O O1 0.604567 0.834378 0.526242
O O2 0.579453 0.759262 0.390277
O O3 0.447647 0.878288 0.455695
O O4 0.625818 0.950979 0.404351
O O5 0.920732 0.823230 0.670693
O O6 0.900229 0.902392 0.806496
O O7 0.068479 0.815628 0.765744
O O8 0.000000 0.000000 0.709436
O O9 0.750000 0.239377 0.775916
O O10 0.615497 0.374673 0.823490
O O11 0.634441 0.350240 0.687371
O O12 0.564311 0.259415 0.079257
O O13 0.403194 0.149389 0.092608
O O14 0.250000 0.333463 0.382389
O O15 0.396575 0.424856 0.452803
O O16 0.750000 0.106767 0.430009
O O17 0.250000 0.688521 0.572277
O O18 0.407006 0.556949 0.562504
O O19 0.250000 0.446624 0.548003
#
# Coordination Sequence:
#
# PCOD8192620 Si02
#       8
#     8   8   8   8   8   8   8   8
#     4  10  21  37  60  87 120 153 189 243 296 349
#     4  11  24  39  58  83 114 158 200 239 285 352
#     4   9  19  39  61  87 118 146 187 245 298 344
#     4  10  22  37  58  83 122 156 193 238 289 350
#     4  10  21  39  59  84 117 152 193 242 292 348
#     4  10  20  36  61  89 115 151 193 237 294 349
#     4   9  18  35  61  90 118 150 191 243 293 342
#     4   9  19  37  60  87 116 150 193 243 296 344
#
# _framework density 20.564730999999998
#
# number of rings (size 3 to 8) (size 9 to 14) (size 15 to 20)
#    0.000    2.250    1.250    0.750    1.750    5.000 
#    2.250    1.250    0.000    0.000    0.000    0.000 
#    0.000    0.000    0.000    0.000    0.000    0.000 
#
# Total GULP energy -396638.366698 kJ/mol
# GULP energy per Si atom -12394.948959 kJ/mol
# Density = 2.051792 g / cm^3
# Si number density = 20.564731 Si / 1000 Ang^3
#
#
#
# Elastic Constant Matrix: (Units=GPa)
#
#
# Indices 1 2 3 4 5 6 
#
# 1 48.7754 23.3058 13.2086 0.0000 0.0000 0.0000
# 2 23.3058 94.9338 44.9013 0.0000 0.0000 0.0000
# 3 13.2086 44.9013 97.6504 0.0000 0.0000 0.0000
# 4 0.0000 0.0000 0.0000 28.2347 0.0000 0.0000
# 5 0.0000 0.0000 0.0000 0.0000 27.4262 0.0000
# 6 0.0000 0.0000 0.0000 0.0000 0.0000 21.8238
#
#
#
# Elastic Compliance Matrix: (Units=1/GPa)
#
#
# Indices 1 2 3 4 5 6 
#
# 1 0.023260 -0.005396 -0.000665 0.000000 0.000000 0.000000
# 2 -0.005396 0.014713 -0.006035 0.000000 0.000000 0.000000
# 3 -0.000665 -0.006035 0.013106 0.000000 0.000000 0.000000
# 4 0.000000 0.000000 0.000000 0.035417 0.000000 0.000000
# 5 0.000000 0.000000 0.000000 0.000000 0.036461 0.000000
# 6 0.000000 0.000000 0.000000 0.000000 0.000000 0.045821
#
#
# Mechanical properties :
#
#
# Convention : Reuss Voigt Hill
#
# Bulk Modulus (GPa) = 37.19349 44.91010 41.05180
# Shear Modulus (GPa) = 24.76055 26.15990 25.46023
#
# Velocity S-wave (km/s) = 3.47368 3.57049 3.52241
# Velocity P-wave (km/s) = 5.84927 6.23568 6.04556
#
# Compressibility (1/GPa) = 0.02688642
#
# Stress axis : x y z
#
# Youngs Moduli (GPa) = 42.99139 67.96780 76.30231
#
# Poissons Ratio (x) = 0.36673 0.05076
# Poissons Ratio (y) = 0.23197 0.46051
# Poissons Ratio (z) = 0.02860 0.41021
#
# Static dielectric constant tensor:
#      x y z
#    x 3.836140 0.000000 0.000000 
#    y 0.000000 3.618090 0.000000 
#    z 0.000000 0.000000 3.645580 
# 
# 
# High freq. dielectric constant tensor:
#      x y z
#    x 1.808770 0.000000 0.000000 
#    y 0.000000 1.796240 0.000000 
#    z 0.000000 0.000000 1.797110 
# 
# From -- ./inp_files/19617.got.cif
#   From: 2010.03.12/outbox.cif.g09.slc.cpg/sg46_10_cif.got.tgz:19617.got - 2010.04.14 02:56:35.
