data_PCOD8192438
_publ_section_title
;
Structure prediction by ZEFSAII (Michael W. Deem and Ramdas Pophale) SiO2 
 PCOD8192438
Probable space group: I M A 2
;
_chemical_formula_sum "Si O2"
_cell_formula_units_Z 48
_cell_length_a 15.941485
_cell_length_b 11.742784
_cell_length_c 11.937678
_cell_angle_alpha 90.000000
_cell_angle_beta 90.000000
_cell_angle_gamma 90.000000
_cell_volume 2234.702463
_symmetry_space_group_name_H-M "I M A 2"
_symmetry_group_IT_number 46
_symmetry_cell_setting 'orthorhombic'
loop_
_space_group_symop_operation_xyz
x,y,z
-x,-y,z
1/2-x,y,z
1/2+x,-y,z
1/2+x,1/2+y,1/2+z
1/2-x,1/2-y,1/2+z
-x,1/2+y,1/2+z
x,1/2-y,1/2+z
loop_
_atom_site_type_symbol
_atom_site_label
_atom_site_fract_x
_atom_site_fract_y
_atom_site_fract_z
Si Si1 0.153413 0.542165 0.099610
Si Si2 0.585529 0.435805 0.858739
Si Si3 0.849678 0.663427 0.250495
Si Si4 0.150091 0.016443 0.951541
Si Si5 0.345100 0.093974 0.187695
Si Si6 0.152143 0.696804 0.310560
O O1 0.250000 0.537234 0.062795
O O2 0.124035 0.422584 0.151939
O O3 0.139617 0.643516 0.187812
O O4 0.097663 0.562561 0.991211
O O5 0.500000 0.500000 0.824925
O O6 0.655270 0.506223 0.790554
O O7 0.591250 0.305409 0.818527
O O8 0.750000 0.669394 0.259515
O O9 0.884388 0.615790 0.368986
O O10 0.889336 0.787025 0.223649
O O11 0.250000 0.016418 0.949908
O O12 0.121891 0.892971 0.905337
O O13 0.112811 0.039766 0.075650
O O14 0.250000 0.122915 0.155819
O O15 0.250000 0.730861 0.328931
#
# Coordination Sequence:
#
# PCOD8192438 Si02
#       6
#     8   8   8   8   8   8
#     4   9  19  39  66  90 114 155 209 258 305 355
#     4  12  26  40  53  88 126 160 198 247 311 372
#     4   8  16  32  57  89 117 144 189 249 307 360
#     4   8  16  32  58  91 117 146 194 254 308 349
#     4  10  20  34  59  88 117 154 198 249 301 358
#     4   9  19  39  67  91 115 153 208 265 308 357
#
# _framework density 21.479369999999999
#
# number of rings (size 3 to 8) (size 9 to 14) (size 15 to 20)
#    0.000    2.667    0.000    3.500    4.667    0.000 
#    3.000    0.000    0.000    0.000    0.000    0.000 
#    0.000    0.000    0.000    0.000    0.000    0.000 
#
# Total GULP energy -297483.090511 kJ/mol
# GULP energy per Si atom -12395.128771 kJ/mol
# Density = 2.143048 g / cm^3
# Si number density = 21.479370 Si / 1000 Ang^3
#
#
#
# Elastic Constant Matrix: (Units=GPa)
#
#
# Indices 1 2 3 4 5 6 
#
# 1 29.3282 25.4049 18.1142 0.0000 0.0000 0.0000
# 2 25.4049 188.2424 80.7890 0.0000 0.0000 0.0000
# 3 18.1142 80.7890 133.9283 0.0000 0.0000 0.0000
# 4 0.0000 0.0000 0.0000 27.6194 0.0000 0.0000
# 5 0.0000 0.0000 0.0000 0.0000 7.8963 0.0000
# 6 0.0000 0.0000 0.0000 0.0000 0.0000 16.1370
#
#
#
# Elastic Compliance Matrix: (Units=1/GPa)
#
#
# Indices 1 2 3 4 5 6 
#
# 1 0.039408 -0.004090 -0.002863 0.000000 0.000000 0.000000
# 2 -0.004090 0.007592 -0.004027 0.000000 0.000000 0.000000
# 3 -0.002863 -0.004027 0.010283 0.000000 0.000000 0.000000
# 4 0.000000 0.000000 0.000000 0.036206 0.000000 0.000000
# 5 0.000000 0.000000 0.000000 0.000000 0.126642 0.000000
# 6 0.000000 0.000000 0.000000 0.000000 0.000000 0.061969
#
#
# Mechanical properties :
#
#
# Convention : Reuss Voigt Hill
#
# Bulk Modulus (GPa) = 28.30921 66.67944 47.49432
# Shear Modulus (GPa) = 15.83105 25.47659 20.65382
#
# Velocity S-wave (km/s) = 2.71778 3.44771 3.10428
# Velocity P-wave (km/s) = 4.80175 6.85272 5.91678
#
# Compressibility (1/GPa) = 0.03532420
#
# Stress axis : x y z
#
# Youngs Moduli (GPa) = 25.37570 131.70985 97.24795
#
# Poissons Ratio (x) = 0.53865 0.27842
# Poissons Ratio (y) = 0.10378 0.39160
# Poissons Ratio (z) = 0.07265 0.53037
#
# Static dielectric constant tensor:
#      x y z
#    x 3.274910 0.000000 0.000000 
#    y 0.000000 4.099140 0.000000 
#    z 0.000000 0.000000 4.046850 
# 
# 
# High freq. dielectric constant tensor:
#      x y z
#    x 1.790330 0.000000 0.000000 
#    y 0.000000 1.852120 0.000000 
#    z 0.000000 0.000000 1.850530 
# 
# From -- ./inp_files/11799.got.cif
#   From: 2010.03.12/outbox.cif.g09.slc.cpg/sg46_6_cif.got.tgz:11799.got - 2010.04.14 02:56:35.
