data_PCOD8192442
_publ_section_title
;
Structure prediction by ZEFSAII (Michael W. Deem and Ramdas Pophale) SiO2 
 PCOD8192442
Probable space group: I M A 2
;
_chemical_formula_sum "Si O2"
_cell_formula_units_Z 40
_cell_length_a 15.177414
_cell_length_b 15.767464
_cell_length_c 7.704331
_cell_angle_alpha 90.000000
_cell_angle_beta 90.000000
_cell_angle_gamma 90.000000
_cell_volume 1843.718281
_symmetry_space_group_name_H-M "I M A 2"
_symmetry_group_IT_number 46
_symmetry_cell_setting 'orthorhombic'
loop_
_space_group_symop_operation_xyz
x,y,z
-x,-y,z
1/2-x,y,z
1/2+x,-y,z
1/2+x,1/2+y,1/2+z
1/2-x,1/2-y,1/2+z
-x,1/2+y,1/2+z
x,1/2-y,1/2+z
loop_
_atom_site_type_symbol
_atom_site_label
_atom_site_fract_x
_atom_site_fract_y
_atom_site_fract_z
Si Si1 0.906165 0.513309 0.726320
Si Si2 0.566362 0.847492 0.946236
Si Si3 0.250000 0.286681 0.489943
Si Si4 0.149387 0.839721 0.319366
Si Si5 0.542472 0.205220 0.636233
Si Si6 0.750000 0.882149 0.349995
O O1 0.925175 0.562726 0.546139
O O2 0.864721 0.420224 0.690709
O O3 0.838768 0.562092 0.853454
O O4 0.000000 0.500000 0.822129
O O5 0.505223 0.856151 0.775659
O O6 0.663614 0.818592 0.887341
O O7 0.527491 0.775406 0.073176
O O8 0.250000 0.183844 0.508403
O O9 0.250000 0.323387 0.681458
O O10 0.250000 0.834597 0.381518
O O11 0.083285 0.851547 0.483038
O O12 0.125358 0.753410 0.221620
#
# Coordination Sequence:
#
# PCOD8192442 Si02
#       6
#     8   8   4   8   8   4
#     4  11  21  38  63  92 129 169 202 264 333 385
#     4  10  20  38  62  96 130 169 214 261 326 386
#     4  10  20  34  62  90 124 164 204 254 305 381
#     4  11  22  41  66  93 129 169 221 272 327 383
#     4  10  22  38  66  94 123 172 224 260 318 394
#     4  10  22  38  64  90 124 162 212 254 317 387
#
# _framework density 21.695287
#
# number of rings (size 3 to 8) (size 9 to 14) (size 15 to 20)
#    0.000    1.600    3.000    3.000    2.800    0.000 
#    0.000    1.000    6.600    0.000    0.000    0.000 
#    0.000    0.000    0.000    0.000    0.000    0.000 
#
# Total GULP energy -247914.808164 kJ/mol
# GULP energy per Si atom -12395.740408 kJ/mol
# Density = 2.164591 g / cm^3
# Si number density = 21.695287 Si / 1000 Ang^3
#
#
#
# Elastic Constant Matrix: (Units=GPa)
#
#
# Indices 1 2 3 4 5 6 
#
# 1 171.2150 56.5218 33.9154 0.0000 0.0000 0.0000
# 2 56.5218 105.0551 37.5894 0.0000 0.0000 0.0000
# 3 33.9154 37.5894 76.0587 0.0000 0.0000 0.0000
# 4 0.0000 0.0000 0.0000 28.1159 0.0000 0.0000
# 5 0.0000 0.0000 0.0000 0.0000 15.7255 0.0000
# 6 0.0000 0.0000 0.0000 0.0000 0.0000 37.0358
#
#
#
# Elastic Compliance Matrix: (Units=1/GPa)
#
#
# Indices 1 2 3 4 5 6 
#
# 1 0.007256 -0.003336 -0.001587 0.000000 0.000000 0.000000
# 2 -0.003336 0.013098 -0.004985 0.000000 0.000000 0.000000
# 3 -0.001587 -0.004985 0.016319 0.000000 0.000000 0.000000
# 4 0.000000 0.000000 0.000000 0.035567 0.000000 0.000000
# 5 0.000000 0.000000 0.000000 0.000000 0.063591 0.000000
# 6 0.000000 0.000000 0.000000 0.000000 0.000000 0.027001
#
#
# Mechanical properties :
#
#
# Convention : Reuss Voigt Hill
#
# Bulk Modulus (GPa) = 59.32551 67.59801 63.46176
# Shear Modulus (GPa) = 26.55796 31.12892 28.84344
#
# Velocity S-wave (km/s) = 3.50256 3.79202 3.65016
# Velocity P-wave (km/s) = 6.61525 7.09916 6.86147
#
# Compressibility (1/GPa) = 0.01685616
#
# Stress axis : x y z
#
# Youngs Moduli (GPa) = 137.81096 76.34996 61.27759
#
# Poissons Ratio (x) = 0.25472 0.09724
# Poissons Ratio (y) = 0.45977 0.30549
# Poissons Ratio (z) = 0.21868 0.38063
#
# Static dielectric constant tensor:
#      x y z
#    x 4.270290 0.000000 0.000000 
#    y 0.000000 3.917010 0.000000 
#    z 0.000000 0.000000 3.577510 
# 
# 
# High freq. dielectric constant tensor:
#      x y z
#    x 1.878340 0.000000 0.000000 
#    y 0.000000 1.843680 0.000000 
#    z 0.000000 0.000000 1.815290 
# 
# From -- ./inp_files/5431.got.cif
#   From: 2010.03.12/outbox.cif.g09.slc.cpg/sg46_3_cif.got.tgz:5431.got - 2010.04.14 02:56:35.
