data_PCOD8193141
_publ_section_title
;
Structure prediction by ZEFSAII (Michael W. Deem and Ramdas Pophale) SiO2 
 PCOD8193141
Probable space group: I M A 2
;
_chemical_formula_sum "Si O2"
_cell_formula_units_Z 40
_cell_length_a 10.127476
_cell_length_b 16.081279
_cell_length_c 12.331508
_cell_angle_alpha 90.000000
_cell_angle_beta 90.000000
_cell_angle_gamma 90.000000
_cell_volume 2008.343516
_symmetry_space_group_name_H-M "I M A 2"
_symmetry_group_IT_number 46
_symmetry_cell_setting 'orthorhombic'
loop_
_space_group_symop_operation_xyz
x,y,z
-x,-y,z
1/2-x,y,z
1/2+x,-y,z
1/2+x,1/2+y,1/2+z
1/2-x,1/2-y,1/2+z
-x,1/2+y,1/2+z
x,1/2-y,1/2+z
loop_
_atom_site_type_symbol
_atom_site_label
_atom_site_fract_x
_atom_site_fract_y
_atom_site_fract_z
Si Si1 0.750000 0.727950 0.329300
Si Si2 0.099507 0.923294 0.297317
Si Si3 0.500000 0.500000 0.438445
Si Si4 0.750000 0.860036 0.618419
Si Si5 0.972714 0.809466 0.463920
Si Si6 0.902091 0.350224 0.568057
Si Si7 0.250000 0.044882 0.821356
O O1 0.750000 0.721660 0.197678
O O2 0.882267 0.772440 0.368651
O O3 0.750000 0.635166 0.379499
O O4 0.250000 0.957682 0.300413
O O5 0.081103 0.859569 0.197281
O O6 0.073446 0.873409 0.408337
O O7 0.000000 0.000000 0.284962
O O8 0.503490 0.418605 0.513108
O O9 0.623556 0.494484 0.358856
O O10 0.881336 0.859981 0.546988
O O11 0.750000 0.944147 0.690573
O O12 0.054058 0.740695 0.529777
O O13 0.750000 0.365087 0.534328
#
# Coordination Sequence:
#
# PCOD8193141 Si02
#       7
#     4   8   4   4   8   8   4
#     4   9  19  36  61  94 124 161 214 259 310 388
#     4  11  26  44  65  95 131 168 215 269 321 385
#     4  12  20  38  64  94 134 166 202 270 314 380
#     4   9  21  40  60  92 119 168 213 254 320 379
#     4  11  21  40  66  90 127 171 212 264 318 385
#     4  11  22  38  64  96 127 168 211 261 326 378
#     4  10  22  40  59  96 125 165 215 251 326 373
#
# _framework density 19.916910000000001
#
# number of rings (size 3 to 8) (size 9 to 14) (size 15 to 20)
#    0.600    0.800    4.000    1.800    2.800    0.000 
#    5.400    0.000    2.200    0.000    0.000    0.000 
#    0.000    0.000    0.000    0.000    0.000    0.000 
#
# Total GULP energy -247970.374174 kJ/mol
# GULP energy per Si atom -12398.518709 kJ/mol
# Density = 1.987158 g / cm^3
# Si number density = 19.916910 Si / 1000 Ang^3
#
#
#
# Elastic Constant Matrix: (Units=GPa)
#
#
# Indices 1 2 3 4 5 6 
#
# 1 132.0337 36.7437 57.1118 -0.0003 0.0000 -0.0001
# 2 36.7437 65.6802 34.1565 -0.0010 -0.0001 -0.0002
# 3 57.1118 34.1565 124.6675 -0.0014 0.0000 -0.0003
# 4 -0.0003 -0.0010 -0.0014 33.1796 0.0000 -0.0001
# 5 0.0000 -0.0001 0.0000 0.0000 24.1020 0.0000
# 6 -0.0001 -0.0002 -0.0003 -0.0001 0.0000 23.8434
#
#
#
# Elastic Compliance Matrix: (Units=1/GPa)
#
#
# Indices 1 2 3 4 5 6 
#
# 1 0.010207 -0.003823 -0.003629 0.000000 0.000000 0.000000
# 2 -0.003823 0.019187 -0.003505 0.000000 0.000000 0.000000
# 3 -0.003629 -0.003505 0.010644 0.000000 0.000000 0.000000
# 4 0.000000 0.000000 0.000000 0.030139 0.000000 0.000000
# 5 0.000000 0.000000 0.000000 0.000000 0.041490 0.000000
# 6 0.000000 0.000000 0.000000 0.000000 0.000000 0.041940
#
#
# Mechanical properties :
#
#
# Convention : Reuss Voigt Hill
#
# Bulk Modulus (GPa) = 55.17569 64.26725 59.72147
# Shear Modulus (GPa) = 27.53848 29.18298 28.36073
#
# Velocity S-wave (km/s) = 3.72246 3.83199 3.77762
# Velocity P-wave (km/s) = 6.79990 7.20532 7.00554
#
# Compressibility (1/GPa) = 0.01812392
#
# Stress axis : x y z
#
# Youngs Moduli (GPa) = 97.96823 52.11830 93.94905
#
# Poissons Ratio (x) = 0.19926 0.34091
# Poissons Ratio (y) = 0.37456 0.32933
# Poissons Ratio (z) = 0.35549 0.18269
#
# Static dielectric constant tensor:
#      x y z
#    x 3.623950 0.000000 0.000000 
#    y 0.000000 3.312800 0.000000 
#    z 0.000000 0.000000 3.600820 
# 
# 
# High freq. dielectric constant tensor:
#      x y z
#    x 1.786030 0.000000 0.000000 
#    y 0.000000 1.755790 0.000000 
#    z 0.000000 0.000000 1.779680 
# 
# From -- ./inp_files/9079.got.cif
#   From: 2010.03.12/outbox.cif.g09.slc.cpg/sg46_5_cif.got.tgz:9079.got - 2010.04.14 02:56:35.
