data_PCOD8193790
_publ_section_title
;
Structure prediction by ZEFSAII (Michael W. Deem and Ramdas Pophale) SiO2 
 PCOD8193790
Probable space group: P M M M
;
_chemical_formula_sum "Si O2"
_cell_formula_units_Z 52
_cell_length_a 26.983908
_cell_length_b 13.884960
_cell_length_c 8.844741
_cell_angle_alpha 90.000000
_cell_angle_beta 90.000000
_cell_angle_gamma 90.000000
_cell_volume 3313.863384
_symmetry_space_group_name_H-M "P M M M"
_symmetry_group_IT_number 47
_symmetry_cell_setting 'orthorhombic'
loop_
_space_group_symop_operation_xyz
x,y,z
-x,-y,z
x,-y,-z
-x,y,-z
-x,-y,-z
x,y,-z
-x,y,z
x,-y,z
loop_
_atom_site_type_symbol
_atom_site_label
_atom_site_fract_x
_atom_site_fract_y
_atom_site_fract_z
Si Si1 0.445350 0.107799 0.179553
Si Si2 0.300255 0.608888 0.679278
Si Si3 0.798111 0.711300 0.677412
Si Si4 0.893861 0.608921 0.318849
Si Si5 0.350206 0.217657 0.820930
Si Si6 0.738913 0.109048 0.676620
Si Si7 0.000000 0.385613 0.665837
O O1 0.500000 0.142989 0.233306
O O2 0.403269 0.180107 0.240342
O O3 0.435213 0.000000 0.241897
O O4 0.443313 0.104901 0.000000
O O5 0.303537 0.618288 0.500000
O O6 0.309309 0.500000 0.733836
O O7 0.246428 0.643888 0.737971
O O8 0.342148 0.676680 0.751314
O O9 0.802399 0.695736 0.500000
O O10 0.850693 0.678145 0.748361
O O11 0.785780 0.822517 0.718135
O O12 0.896771 0.612926 0.500000
O O13 0.881798 0.500000 0.266837
O O14 0.947869 0.643580 0.252468
O O15 0.308908 0.141379 0.769420
O O16 0.348808 0.225371 0.000000
O O17 0.726030 0.120187 0.500000
O O18 0.753286 0.000000 0.719509
O O19 0.000000 0.500000 0.648697
O O20 0.000000 0.337612 0.500000
#
# Coordination Sequence:
#
# PCOD8193790 Si02
#       7
#     8   8   8   8   8   8   4
#     4   8  14  25  41  61  83 104 126 154 190 232
#     4   9  17  29  43  58  79 108 138 163 189 226
#     4   8  13  21  34  51  68  93 131 164 187 218
#     4   8  11  15  25  42  65  91 120 155 191 227
#     4  10  18  27  43  65  84 102 127 160 197 234
#     4   9  17  28  40  55  78 106 133 160 191 231
#     4   7  10  14  20  36  63  91 116 147 191 233
#
# _framework density 15.691655000000001
#
# number of rings (size 3 to 8) (size 9 to 14) (size 15 to 20)
#    0.000    3.462    0.000    3.692    0.000    3.077 
#    0.000    0.000    0.000    2.308    0.000    9.154 
#    0.000    4.308    0.000   11.077    0.000  110.154 
#
# Total GULP energy -644187.579144 kJ/mol
# GULP energy per Si atom -12388.222676 kJ/mol
# Density = 1.565594 g / cm^3
# Si number density = 15.691655 Si / 1000 Ang^3
#
#
#
# Elastic Constant Matrix: (Units=GPa)
#
#
# Indices 1 2 3 4 5 6 
#
# 1 153.2192 80.1045 14.8309 0.0000 0.0000 0.0000
# 2 80.1045 128.9118 17.3348 0.0000 0.0000 0.0000
# 3 14.8309 17.3348 15.6066 0.0000 0.0000 0.0000
# 4 0.0000 0.0000 0.0000 15.1368 0.0000 0.0000
# 5 0.0000 0.0000 0.0000 0.0000 0.0668 0.0000
# 6 0.0000 0.0000 0.0000 0.0000 0.0000 26.8970
#
#
#
# Elastic Compliance Matrix: (Units=1/GPa)
#
#
# Indices 1 2 3 4 5 6 
#
# 1 0.009785 -0.005678 -0.002992 0.000000 0.000000 0.000000
# 2 -0.005678 0.012414 -0.008393 0.000000 0.000000 0.000000
# 3 -0.002992 -0.008393 0.076241 0.000000 0.000000 0.000000
# 4 0.000000 0.000000 0.000000 0.066064 0.000000 0.000000
# 5 0.000000 0.000000 0.000000 0.000000 14.962428 0.000000
# 6 0.000000 0.000000 0.000000 0.000000 0.000000 0.037179
#
#
# Mechanical properties :
#
#
# Convention : Reuss Voigt Hill
#
# Bulk Modulus (GPa) = 15.54867 58.03088 36.78977
# Shear Modulus (GPa) = 0.32852 20.78463 10.55657
#
# Velocity S-wave (km/s) = 0.45806 3.64341 2.59656
# Velocity P-wave (km/s) = 3.19533 7.40010 5.69963
#
# Compressibility (1/GPa) = 0.06431418
#
# Stress axis : x y z
#
# Youngs Moduli (GPa) = 102.20193 80.55476 13.11635
#
# Poissons Ratio (x) = 0.45737 0.03924
# Poissons Ratio (y) = 0.58027 0.11009
# Poissons Ratio (z) = 0.30577 0.67610
#
# Static dielectric constant tensor:
#      x y z
#    x 3.421100 0.000000 0.000000 
#    y 0.000000 3.028370 0.000000 
#    z 0.000000 0.000000 2.530170 
# 
# 
# High freq. dielectric constant tensor:
#      x y z
#    x 1.603830 0.000000 0.000000 
#    y 0.000000 1.584980 0.000000 
#    z 0.000000 0.000000 1.553880 
# 
# From -- ./inp_files/13381.got.cif
#   From: 2010.03.12/outbox.cif.g09.slc.cpg/sg47_7_cif.got.tgz:13381.got - 2010.04.14 03:12:58.
