data_PCOD8193947
_publ_section_title
;
Structure prediction by ZEFSAII (Michael W. Deem and Ramdas Pophale) SiO2 
 PCOD8193947
Probable space group: P M M M
;
_chemical_formula_sum "Si O2"
_cell_formula_units_Z 64
_cell_length_a 9.109237
_cell_length_b 28.655176
_cell_length_c 14.290343
_cell_angle_alpha 90.000000
_cell_angle_beta 90.000000
_cell_angle_gamma 90.000000
_cell_volume 3730.162354
_symmetry_space_group_name_H-M "P M M M"
_symmetry_group_IT_number 47
_symmetry_cell_setting 'orthorhombic'
loop_
_space_group_symop_operation_xyz
x,y,z
-x,-y,z
x,-y,-z
-x,y,-z
-x,-y,-z
x,y,-z
-x,y,z
x,-y,z
loop_
_atom_site_type_symbol
_atom_site_label
_atom_site_fract_x
_atom_site_fract_y
_atom_site_fract_z
Si Si1 0.831831 0.947353 0.278568
Si Si2 0.328362 0.189986 0.102639
Si Si3 0.670007 0.084423 0.107757
Si Si4 0.325466 0.728023 0.231868
Si Si5 0.165149 0.550957 0.888922
Si Si6 0.171963 0.773294 0.608270
Si Si7 0.668226 0.868450 0.390285
Si Si8 0.673069 0.641586 0.893482
O O1 0.771858 0.947490 0.172234
O O2 0.735144 0.913843 0.342310
O O3 0.000000 0.930532 0.279978
O O4 0.818415 0.000000 0.317444
O O5 0.500000 0.199207 0.092159
O O6 0.299504 0.137787 0.139180
O O7 0.264040 0.227524 0.174271
O O8 0.255931 0.196835 0.000000
O O9 0.500000 0.071454 0.122856
O O10 0.713914 0.076545 0.000000
O O11 0.500000 0.728555 0.246655
O O12 0.245223 0.731193 0.332325
O O13 0.273284 0.682342 0.175589
O O14 0.221145 0.500000 0.852684
O O15 0.266064 0.592931 0.851709
O O16 0.000000 0.559490 0.853066
O O17 0.169400 0.550747 0.000000
O O18 0.204655 0.762430 0.500000
O O19 0.245065 0.822069 0.639234
O O20 0.000000 0.776348 0.628659
O O21 0.680254 0.877045 0.500000
O O22 0.500000 0.862303 0.357556
O O23 0.500000 0.638230 0.893791
O O24 0.729219 0.651209 0.000000
#
# Coordination Sequence:
#
# PCOD8193947 Si02
#       8
#     8   8   8   8   8   8   8   8
#     4  11  24  38  52  73 101 130 156 187 232 282
#     4   8  14  26  45  68  92 118 149 184 221 262
#     4   9  18  33  53  74  94 122 163 203 233 266
#     4  10  18  28  46  70  96 127 160 193 230 275
#     4   8  14  25  40  57  81 120 169 213 248 282
#     4  10  21  36  53  73  97 124 154 190 233 280
#     4  10  21  38  60  81  98 119 150 189 233 283
#     4   9  17  27  40  64  98 132 165 201 241 282
#
# _framework density 17.157430000000002
#
# number of rings (size 3 to 8) (size 9 to 14) (size 15 to 20)
#    0.000    2.625    0.000    3.375    0.000    6.500 
#    0.000    3.750    0.000    1.875    0.000    0.000 
#    0.000    0.500    0.000    5.500    0.000    4.250 
#
# Total GULP energy -793423.208394 kJ/mol
# GULP energy per Si atom -12397.237631 kJ/mol
# Density = 1.711838 g / cm^3
# Si number density = 17.157430 Si / 1000 Ang^3
#
#
#
# Elastic Constant Matrix: (Units=GPa)
#
#
# Indices 1 2 3 4 5 6 
#
# 1 67.0646 44.0596 37.5680 0.0000 0.0000 0.0000
# 2 44.0596 103.1670 48.4600 0.0000 0.0000 0.0000
# 3 37.5680 48.4600 62.0693 0.0000 0.0000 0.0000
# 4 0.0000 0.0000 0.0000 17.0067 0.0000 0.0000
# 5 0.0000 0.0000 0.0000 0.0000 20.8480 0.0000
# 6 0.0000 0.0000 0.0000 0.0000 0.0000 27.5031
#
#
#
# Elastic Compliance Matrix: (Units=1/GPa)
#
#
# Indices 1 2 3 4 5 6 
#
# 1 0.024387 -0.005498 -0.010468 0.000000 0.000000 0.000000
# 2 -0.005498 0.016546 -0.009590 0.000000 0.000000 0.000000
# 3 -0.010468 -0.009590 0.029934 0.000000 0.000000 0.000000
# 4 0.000000 0.000000 0.000000 0.058800 0.000000 0.000000
# 5 0.000000 0.000000 0.000000 0.000000 0.047966 0.000000
# 6 0.000000 0.000000 0.000000 0.000000 0.000000 0.036360
#
#
# Mechanical properties :
#
#
# Convention : Reuss Voigt Hill
#
# Bulk Modulus (GPa) = 50.62076 54.71957 52.67016
# Shear Modulus (GPa) = 18.40329 19.88577 19.14453
#
# Velocity S-wave (km/s) = 3.27863 3.40813 3.34401
# Velocity P-wave (km/s) = 6.62573 6.88832 6.75830
#
# Compressibility (1/GPa) = 0.01975474
#
# Stress axis : x y z
#
# Youngs Moduli (GPa) = 41.00570 60.43825 33.40637
#
# Poissons Ratio (x) = 0.33228 0.34970
# Poissons Ratio (y) = 0.22544 0.32038
# Poissons Ratio (z) = 0.42925 0.57962
#
# Static dielectric constant tensor:
#      x y z
#    x 3.086620 0.000000 0.000000 
#    y 0.000000 3.336040 0.000000 
#    z 0.000000 0.000000 3.187420 
# 
# 
# High freq. dielectric constant tensor:
#      x y z
#    x 1.650150 0.000000 0.000000 
#    y 0.000000 1.652280 0.000000 
#    z 0.000000 0.000000 1.644630 
# 
# From -- ./inp_files/8312.got.cif
#   From: 2010.03.12/outbox.cif.g09.slc.cpg/sg47_5_cif.got.tgz:8312.got - 2010.04.14 03:12:58.
