data_PCOD8193233
_publ_section_title
;
Structure prediction by ZEFSAII (Michael W. Deem and Ramdas Pophale) SiO2 
 PCOD8193233
Probable space group: I M A 2
;
_chemical_formula_sum "Si O2"
_cell_formula_units_Z 64
_cell_length_a 21.922838
_cell_length_b 11.354265
_cell_length_c 12.684478
_cell_angle_alpha 90.000000
_cell_angle_beta 90.000000
_cell_angle_gamma 90.000000
_cell_volume 3157.391244
_symmetry_space_group_name_H-M "I M A 2"
_symmetry_group_IT_number 46
_symmetry_cell_setting 'orthorhombic'
loop_
_space_group_symop_operation_xyz
x,y,z
-x,-y,z
1/2-x,y,z
1/2+x,-y,z
1/2+x,1/2+y,1/2+z
1/2-x,1/2-y,1/2+z
-x,1/2+y,1/2+z
x,1/2-y,1/2+z
loop_
_atom_site_type_symbol
_atom_site_label
_atom_site_fract_x
_atom_site_fract_y
_atom_site_fract_z
Si Si1 0.120520 0.345461 0.877250
Si Si2 0.106968 0.802923 0.243684
Si Si3 0.820329 0.888109 0.956074
Si Si4 0.984943 0.180454 0.610915
Si Si5 0.990318 0.131650 0.394196
Si Si6 0.821477 0.974857 0.183117
Si Si7 0.099470 0.042013 0.602447
Si Si8 0.179590 0.562973 0.272035
O O1 0.141258 0.213899 0.901803
O O2 0.163305 0.400909 0.787477
O O3 0.051752 0.342288 0.826574
O O4 0.123623 0.419321 0.987000
O O5 0.043365 0.782375 0.181356
O O6 0.077184 0.862778 0.346176
O O7 0.149057 0.895461 0.184319
O O8 0.143497 0.686027 0.272477
O O9 0.750000 0.848837 0.957188
O O10 0.829095 0.006576 0.887500
O O11 0.843482 0.910178 0.075988
O O12 0.994985 0.224394 0.490940
O O13 0.050241 0.133705 0.653289
O O14 0.931867 0.084064 0.599213
O O15 0.000000 0.000000 0.441775
O O16 0.750000 0.996029 0.178329
O O17 0.156190 0.028801 0.682976
O O18 0.250000 0.589768 0.247961
#
# Coordination Sequence:
#
# PCOD8193233 Si02
#       8
#     8   8   8   8   8   8   8   8
#     4  11  22  40  67  91 124 167 214 262 315 375
#     4  11  23  38  68  92 127 162 208 259 324 377
#     4  10  25  43  60  88 129 167 207 269 317 367
#     4   9  18  36  60  88 122 158 195 259 309 361
#     4  11  20  40  61  90 126 161 204 256 310 374
#     4  11  24  43  65  94 128 167 216 262 316 378
#     4   9  18  37  62  90 120 157 211 255 306 373
#     4  10  23  42  63  91 127 167 211 258 319 380
#
# _framework density 20.269898000000001
#
# number of rings (size 3 to 8) (size 9 to 14) (size 15 to 20)
#    0.000    1.750    3.750    0.750    5.250    2.000 
#    0.000    0.000    0.000    0.000    0.000    0.000 
#    0.000    0.000    0.000    0.000    0.000    0.000 
#
# Total GULP energy -396489.582380 kJ/mol
# GULP energy per Si atom -12390.299449 kJ/mol
# Density = 2.022376 g / cm^3
# Si number density = 20.269898 Si / 1000 Ang^3
#
#
#
# Elastic Constant Matrix: (Units=GPa)
#
#
# Indices 1 2 3 4 5 6 
#
# 1 100.6613 34.8516 39.9769 0.0000 0.0000 0.0000
# 2 34.8516 84.7269 35.1349 0.0000 0.0000 0.0000
# 3 39.9769 35.1349 97.1795 0.0000 0.0000 0.0000
# 4 0.0000 0.0000 0.0000 20.3527 0.0000 0.0000
# 5 0.0000 0.0000 0.0000 0.0000 35.8330 0.0000
# 6 0.0000 0.0000 0.0000 0.0000 0.0000 29.5992
#
#
#
# Elastic Compliance Matrix: (Units=1/GPa)
#
#
# Indices 1 2 3 4 5 6 
#
# 1 0.012749 -0.003611 -0.003939 0.000000 0.000000 0.000000
# 2 -0.003611 0.014907 -0.003904 0.000000 0.000000 0.000000
# 3 -0.003939 -0.003904 0.013322 0.000000 0.000000 0.000000
# 4 0.000000 0.000000 0.000000 0.049134 0.000000 0.000000
# 5 0.000000 0.000000 0.000000 0.000000 0.027907 0.000000
# 6 0.000000 0.000000 0.000000 0.000000 0.000000 0.033785
#
#
# Mechanical properties :
#
#
# Convention : Reuss Voigt Hill
#
# Bulk Modulus (GPa) = 55.34030 55.83273 55.58652
# Shear Modulus (GPa) = 27.66489 28.66392 28.16440
#
# Velocity S-wave (km/s) = 3.69836 3.76455 3.73160
# Velocity P-wave (km/s) = 6.75264 6.81911 6.78596
#
# Compressibility (1/GPa) = 0.01807001
#
# Stress axis : x y z
#
# Youngs Moduli (GPa) = 78.43895 67.08338 75.06257
#
# Poissons Ratio (x) = 0.24221 0.29568
# Poissons Ratio (y) = 0.28321 0.29306
# Poissons Ratio (z) = 0.30898 0.26191
#
# Static dielectric constant tensor:
#      x y z
#    x 3.858060 0.000000 0.000000 
#    y 0.000000 3.517840 0.000000 
#    z 0.000000 0.000000 3.828450 
# 
# 
# High freq. dielectric constant tensor:
#      x y z
#    x 1.802810 0.000000 0.000000 
#    y 0.000000 1.777330 0.000000 
#    z 0.000000 0.000000 1.793380 
# 
# From -- ./inp_files/12845.got.cif
#   From: 2010.03.12/outbox.cif.g09.slc.cpg/sg46_7_cif.got.tgz:12845.got - 2010.04.14 02:56:35.
