data_PCOD8193433
_publ_section_title
;
Structure prediction by ZEFSAII (Michael W. Deem and Ramdas Pophale) SiO2 
 PCOD8193433
Probable space group: I M A 2
;
_chemical_formula_sum "Si O2"
_cell_formula_units_Z 64
_cell_length_a 9.326578
_cell_length_b 27.879407
_cell_length_c 14.517418
_cell_angle_alpha 90.000000
_cell_angle_beta 90.000000
_cell_angle_gamma 90.000000
_cell_volume 3774.811247
_symmetry_space_group_name_H-M "I M A 2"
_symmetry_group_IT_number 46
_symmetry_cell_setting 'orthorhombic'
loop_
_space_group_symop_operation_xyz
x,y,z
-x,-y,z
1/2-x,y,z
1/2+x,-y,z
1/2+x,1/2+y,1/2+z
1/2-x,1/2-y,1/2+z
-x,1/2+y,1/2+z
x,1/2-y,1/2+z
loop_
_atom_site_type_symbol
_atom_site_label
_atom_site_fract_x
_atom_site_fract_y
_atom_site_fract_z
Si Si1 0.581807 0.857469 0.118320
Si Si2 0.583086 0.547032 0.930440
Si Si3 0.586653 0.681507 0.424439
Si Si4 0.413347 0.318493 0.225277
Si Si5 0.081807 0.357469 0.031396
Si Si6 0.416914 0.452968 0.719277
Si Si7 0.090265 0.769286 0.176965
Si Si8 0.909735 0.230714 0.472751
O O1 0.750000 0.849172 0.135356
O O2 0.534230 0.909692 0.153103
O O3 0.496715 0.818944 0.179579
O O4 0.540483 0.852725 0.009542
O O5 0.500000 0.500000 0.963932
O O6 0.750000 0.536236 0.941396
O O7 0.544403 0.559998 0.824858
O O8 0.534230 0.590309 0.996614
O O9 0.750000 0.697984 0.441456
O O10 0.571668 0.654540 0.324858
O O11 0.492100 0.729266 0.414630
O O12 0.250000 0.302015 0.208261
O O13 0.459517 0.352725 0.140174
O O14 0.507900 0.270734 0.235086
O O15 0.250000 0.349172 0.014360
O O16 0.996714 0.318944 0.970136
O O17 0.500000 0.500000 0.685785
O O18 0.250000 0.463764 0.708321
O O19 0.250000 0.777515 0.217538
O O20 0.100028 0.750000 0.074858
O O21 0.750000 0.222485 0.432178
#
# Coordination Sequence:
#
# PCOD8193433 Si02
#       8
#     8   8   8   8   8   8   8   8
#     4   9  17  30  47  66  89 117 149 184 220 261
#     4   9  18  32  49  68  88 110 139 178 224 270
#     4   9  17  29  45  64  88 121 156 184 212 252
#     4   9  17  29  45  64  88 121 156 184 212 252
#     4   9  17  30  47  66  89 117 149 184 220 261
#     4   9  18  32  49  68  88 110 139 178 224 270
#     4   9  17  28  42  63  91 120 149 182 219 257
#     4   9  17  28  42  63  91 120 149 182 219 257
#
# _framework density 16.95449
#
# number of rings (size 3 to 8) (size 9 to 14) (size 15 to 20)
#    0.000    3.000    0.000    0.750    0.000    5.500 
#    0.000    2.500    0.000    0.750    0.000    0.000 
#    0.000    0.000    0.000    0.000    0.000    0.000 
#
# Total GULP energy -396602.812754 kJ/mol
# GULP energy per Si atom -12393.837899 kJ/mol
# Density = 1.691590 g / cm^3
# Si number density = 16.954490 Si / 1000 Ang^3
#
#
#
# Elastic Constant Matrix: (Units=GPa)
#
#
# Indices 1 2 3 4 5 6 
#
# 1 64.2707 52.4465 28.3912 -0.0005 0.0000 0.0000
# 2 52.4465 136.0478 61.0915 -0.0005 0.0000 0.0000
# 3 28.3912 61.0915 91.7560 -0.0006 -0.0002 0.0000
# 4 -0.0005 -0.0005 -0.0006 22.2114 -0.0001 0.0000
# 5 0.0000 0.0000 -0.0002 -0.0001 9.2035 -0.0002
# 6 0.0000 0.0000 0.0000 0.0000 -0.0002 28.2983
#
#
#
# Elastic Compliance Matrix: (Units=1/GPa)
#
#
# Indices 1 2 3 4 5 6 
#
# 1 0.022889 -0.008050 -0.001722 0.000000 0.000000 0.000000
# 2 -0.008050 0.013317 -0.006375 0.000000 0.000000 0.000000
# 3 -0.001722 -0.006375 0.015676 0.000000 0.000000 0.000000
# 4 0.000000 0.000000 0.000000 0.045022 0.000001 0.000000
# 5 0.000000 0.000000 0.000000 0.000001 0.108654 0.000001
# 6 0.000000 0.000000 0.000000 0.000000 0.000001 0.035338
#
#
# Mechanical properties :
#
#
# Convention : Reuss Voigt Hill
#
# Bulk Modulus (GPa) = 51.05735 63.99254 57.52494
# Shear Modulus (GPa) = 17.87498 21.95235 19.91366
#
# Velocity S-wave (km/s) = 3.25051 3.60221 3.43087
# Velocity P-wave (km/s) = 6.65338 7.42475 7.04962
#
# Compressibility (1/GPa) = 0.01958582
#
# Stress axis : x y z
#
# Youngs Moduli (GPa) = 43.68836 75.09447 63.79133
#
# Poissons Ratio (x) = 0.60454 0.10988
# Poissons Ratio (y) = 0.35171 0.40669
# Poissons Ratio (z) = 0.07525 0.47875
#
# Static dielectric constant tensor:
#      x y z
#    x 3.362880 0.000000 0.000000 
#    y 0.000000 3.004820 0.000000 
#    z 0.000000 0.000000 3.217930 
# 
# 
# High freq. dielectric constant tensor:
#      x y z
#    x 1.655460 0.000000 0.000000 
#    y 0.000000 1.623260 0.000000 
#    z 0.000000 0.000000 1.652370 
# 
# From -- ./inp_files/14716.got.cif
#   From: 2010.03.12/outbox.cif.g09.slc.cpg/sg46_8_cif.got.tgz:14716.got - 2010.04.14 02:56:35.
