data_PCOD8193516
_publ_section_title
;
Structure prediction by ZEFSAII (Michael W. Deem and Ramdas Pophale) SiO2 
 PCOD8193516
Probable space group: P M M M
;
_chemical_formula_sum "Si O2"
_cell_formula_units_Z 52
_cell_length_a 9.567297
_cell_length_b 14.274813
_cell_length_c 23.610737
_cell_angle_alpha 90.000000
_cell_angle_beta 90.000000
_cell_angle_gamma 90.000000
_cell_volume 3224.550831
_symmetry_space_group_name_H-M "P M M M"
_symmetry_group_IT_number 47
_symmetry_cell_setting 'orthorhombic'
loop_
_space_group_symop_operation_xyz
x,y,z
-x,-y,z
x,-y,-z
-x,y,-z
-x,-y,-z
x,y,-z
-x,y,z
x,-y,z
loop_
_atom_site_type_symbol
_atom_site_label
_atom_site_fract_x
_atom_site_fract_y
_atom_site_fract_z
Si Si1 0.660665 0.393784 0.895160
Si Si2 0.167102 0.895054 0.378613
Si Si3 0.161011 0.770294 0.063386
Si Si4 0.660959 0.606484 0.763831
Si Si5 0.166001 0.774430 0.273042
Si Si6 0.165866 0.895278 0.165990
Si Si7 0.153014 0.111169 0.500000
O O1 0.500000 0.367316 0.905745
O O2 0.689562 0.500000 0.914631
O O3 0.756017 0.326556 0.932449
O O4 0.699288 0.381770 0.829514
O O5 0.218789 0.825557 0.329853
O O6 0.228124 0.860756 0.440342
O O7 0.000000 0.896144 0.381758
O O8 0.220476 0.000000 0.364314
O O9 0.219118 0.846193 0.108208
O O10 0.000000 0.747698 0.076784
O O11 0.179296 0.811248 0.000000
O O12 0.500000 0.633421 0.753177
O O13 0.689080 0.500000 0.744354
O O14 0.760734 0.673565 0.727606
O O15 0.218049 0.835970 0.219793
O O16 0.000000 0.760415 0.272056
O O17 0.000000 0.901784 0.166598
O O18 0.229759 0.000000 0.168863
O O19 0.000000 0.158406 0.500000
O O20 0.136560 0.000000 0.500000
#
# Coordination Sequence:
#
# PCOD8193516 Si02
#       7
#     8   8   8   8   8   8   4
#     4   9  18  33  51  67  84 110 142 175 217 270
#     4   8  13  21  36  62  95 126 152 178 211 254
#     4  10  20  32  46  66  89 113 144 179 215 256
#     4   9  18  32  48  65  87 115 143 174 219 271
#     4  10  17  26  45  71  92 112 143 183 220 253
#     4   9  17  29  44  63  88 115 142 175 214 252
#     4   7  10  18  32  54  90 129 154 174 207 251
#
# _framework density 16.126277000000002
#
# number of rings (size 3 to 8) (size 9 to 14) (size 15 to 20)
#    0.000    3.000    1.538    2.308    0.000    3.385 
#    0.000    4.615    0.000    3.231    0.000    2.154 
#    0.000    6.154    0.000    0.000    0.000    0.000 
#
# Total GULP energy -644474.783250 kJ/mol
# GULP energy per Si atom -12393.745832 kJ/mol
# Density = 1.608957 g / cm^3
# Si number density = 16.126277 Si / 1000 Ang^3
#
#
#
# Elastic Constant Matrix: (Units=GPa)
#
#
# Indices 1 2 3 4 5 6 
#
# 1 28.1304 30.4868 25.4244 0.0000 0.0000 0.0000
# 2 30.4868 97.3954 56.5100 0.0000 0.0000 0.0000
# 3 25.4244 56.5100 125.1551 0.0000 0.0000 0.0000
# 4 0.0000 0.0000 0.0000 23.6774 0.0000 0.0000
# 5 0.0000 0.0000 0.0000 0.0000 9.7019 0.0000
# 6 0.0000 0.0000 0.0000 0.0000 0.0000 4.1710
#
#
#
# Elastic Compliance Matrix: (Units=1/GPa)
#
#
# Indices 1 2 3 4 5 6 
#
# 1 0.055743 -0.014740 -0.004668 0.000000 0.000000 0.000000
# 2 -0.014740 0.017810 -0.005047 0.000000 0.000000 0.000000
# 3 -0.004668 -0.005047 0.011217 0.000000 0.000000 0.000000
# 4 0.000000 0.000000 0.000000 0.042234 0.000000 0.000000
# 5 0.000000 0.000000 0.000000 0.000000 0.103072 0.000000
# 6 0.000000 0.000000 0.000000 0.000000 0.000000 0.239753
#
#
# Mechanical properties :
#
#
# Convention : Reuss Voigt Hill
#
# Bulk Modulus (GPa) = 27.88710 52.83593 40.36151
# Shear Modulus (GPa) = 9.42164 16.72738 13.07451
#
# Velocity S-wave (km/s) = 2.41973 3.22417 2.85047
# Velocity P-wave (km/s) = 5.01371 6.83340 5.99302
#
# Compressibility (1/GPa) = 0.03585888
#
# Stress axis : x y z
#
# Youngs Moduli (GPa) = 17.93952 56.14899 89.14796
#
# Poissons Ratio (x) = 0.82764 0.41618
# Poissons Ratio (y) = 0.26443 0.44994
# Poissons Ratio (z) = 0.08375 0.28339
#
# Static dielectric constant tensor:
#      x y z
#    x 2.635920 0.000000 0.000000 
#    y 0.000000 3.024600 0.000000 
#    z 0.000000 0.000000 3.272730 
# 
# 
# High freq. dielectric constant tensor:
#      x y z
#    x 1.576020 0.000000 0.000000 
#    y 0.000000 1.608440 0.000000 
#    z 0.000000 0.000000 1.618860 
# 
# From -- ./inp_files/21737.got.cif
#   From: 2010.03.12/outbox.cif.g09.slc.cpg/sg47_11_cif.got.tgz:21737.got - 2010.04.14 03:12:58.
