data_PCOD8193855
_publ_section_title
;
Structure prediction by ZEFSAII (Michael W. Deem and Ramdas Pophale) SiO2 
 PCOD8193855
Probable space group: P M M M
;
_chemical_formula_sum "Si O2"
_cell_formula_units_Z 64
_cell_length_a 9.212736
_cell_length_b 18.177670
_cell_length_c 26.176145
_cell_angle_alpha 90.000000
_cell_angle_beta 90.000000
_cell_angle_gamma 90.000000
_cell_volume 4383.616257
_symmetry_space_group_name_H-M "P M M M"
_symmetry_group_IT_number 47
_symmetry_cell_setting 'orthorhombic'
loop_
_space_group_symop_operation_xyz
x,y,z
-x,-y,z
x,-y,-z
-x,y,-z
-x,-y,-z
x,y,-z
-x,y,z
x,-y,z
loop_
_atom_site_type_symbol
_atom_site_label
_atom_site_fract_x
_atom_site_fract_y
_atom_site_fract_z
Si Si1 0.335768 0.704629 0.806158
Si Si2 0.665929 0.915588 0.940793
Si Si3 0.169817 0.673950 0.651347
Si Si4 0.831127 0.915656 0.243518
Si Si5 0.827756 0.582173 0.443344
Si Si6 0.663724 0.796333 0.297323
Si Si7 0.831462 0.415422 0.247455
Si Si8 0.169963 0.172392 0.857933
O O1 0.500000 0.691384 0.824859
O O2 0.331178 0.750290 0.754322
O O3 0.259208 0.626361 0.796321
O O4 0.248933 0.749527 0.849327
O O5 0.500000 0.902307 0.923508
O O6 0.772380 0.862947 0.909856
O O7 0.709843 0.000000 0.930728
O O8 0.684868 0.895995 0.000000
O O9 0.232236 0.637952 0.599329
O O10 0.253343 0.750714 0.658969
O O11 0.202653 0.616964 0.696774
O O12 0.000000 0.692031 0.647897
O O13 0.743014 0.873906 0.287857
O O14 0.793885 0.883360 0.187990
O O15 0.000000 0.906118 0.255848
O O16 0.781878 0.000000 0.243907
O O17 0.781184 0.609421 0.500000
O O18 0.766007 0.500000 0.433605
O O19 0.000000 0.578955 0.438795
O O20 0.500000 0.811473 0.315400
O O21 0.783236 0.500000 0.247369
O O22 0.000000 0.405866 0.234130
O O23 0.000000 0.187543 0.862901
#
# Coordination Sequence:
#
# PCOD8193855 Si02
#       8
#     8   8   8   8   8   8   8   8
#     4   9  17  28  40  55  77 105 135 165 198 237
#     4   9  18  31  44  59  82 111 140 169 200 233
#     4   9  15  24  39  56  76 105 136 164 198 236
#     4   9  17  28  41  58  80 104 130 161 197 236
#     4   8  13  21  35  57  81 102 130 169 203 229
#     4   9  17  27  38  54  76 102 132 164 195 230
#     4   9  16  25  38  57  80 105 134 167 201 237
#     4  10  18  28  43  61  81 106 136 168 201 235
#
# _framework density 14.599817
#
# number of rings (size 3 to 8) (size 9 to 14) (size 15 to 20)
#    0.000    3.000    0.000    2.625    0.000    6.500 
#    0.000    0.625    0.000    1.500    0.000    0.875 
#    0.000    1.000    0.000   11.000    0.000    3.875 
#
# Total GULP energy -793497.518605 kJ/mol
# GULP energy per Si atom -12398.398728 kJ/mol
# Density = 1.456659 g / cm^3
# Si number density = 14.599817 Si / 1000 Ang^3
#
#
#
# Elastic Constant Matrix: (Units=GPa)
#
#
# Indices 1 2 3 4 5 6 
#
# 1 72.3046 49.0350 37.8886 0.0000 0.0000 0.0000
# 2 49.0350 95.3968 44.0396 0.0000 0.0000 0.0000
# 3 37.8886 44.0396 67.5960 0.0000 0.0000 0.0000
# 4 0.0000 0.0000 0.0000 27.6542 0.0000 0.0000
# 5 0.0000 0.0000 0.0000 0.0000 13.6745 0.0000
# 6 0.0000 0.0000 0.0000 0.0000 0.0000 19.5324
#
#
#
# Elastic Compliance Matrix: (Units=1/GPa)
#
#
# Indices 1 2 3 4 5 6 
#
# 1 0.023709 -0.008655 -0.007650 0.000000 0.000000 0.000000
# 2 -0.008655 0.018151 -0.006974 0.000000 0.000000 0.000000
# 3 -0.007650 -0.006974 0.023626 0.000000 0.000000 0.000000
# 4 0.000000 0.000000 0.000000 0.036161 0.000000 0.000000
# 5 0.000000 0.000000 0.000000 0.000000 0.073129 0.000000
# 6 0.000000 0.000000 0.000000 0.000000 0.000000 0.051197
#
#
# Mechanical properties :
#
#
# Convention : Reuss Voigt Hill
#
# Bulk Modulus (GPa) = 52.83649 55.24708 54.04178
# Shear Modulus (GPa) = 17.93142 19.12783 18.52963
#
# Velocity S-wave (km/s) = 3.50836 3.62352 3.56640
# Velocity P-wave (km/s) = 7.25809 7.44510 7.35219
#
# Compressibility (1/GPa) = 0.01892631
#
# Stress axis : x y z
#
# Youngs Moduli (GPa) = 42.17861 55.09380 42.32653
#
# Poissons Ratio (x) = 0.47682 0.32382
# Poissons Ratio (y) = 0.36504 0.29520
# Poissons Ratio (z) = 0.32268 0.38425
#
# Static dielectric constant tensor:
#      x y z
#    x 2.805250 0.000000 0.000000 
#    y 0.000000 2.838200 0.000000 
#    z 0.000000 0.000000 2.669130 
# 
# 
# High freq. dielectric constant tensor:
#      x y z
#    x 1.554830 0.000000 0.000000 
#    y 0.000000 1.546960 0.000000 
#    z 0.000000 0.000000 1.524890 
# 
# From -- ./inp_files/10238.got.cif
#   From: 2010.03.12/outbox.cif.g09.slc.cpg/sg47_6_cif.got.tgz:10238.got - 2010.04.14 03:12:58.
