data_PCOD8193240
_publ_section_title
;
Structure prediction by ZEFSAII (Michael W. Deem and Ramdas Pophale) SiO2 
 PCOD8193240
Probable space group: I M A 2
;
_chemical_formula_sum "Si O2"
_cell_formula_units_Z 48
_cell_length_a 20.770444
_cell_length_b 11.725598
_cell_length_c 9.030217
_cell_angle_alpha 90.000000
_cell_angle_beta 90.000000
_cell_angle_gamma 90.000000
_cell_volume 2199.272115
_symmetry_space_group_name_H-M "I M A 2"
_symmetry_group_IT_number 46
_symmetry_cell_setting 'orthorhombic'
loop_
_space_group_symop_operation_xyz
x,y,z
-x,-y,z
1/2-x,y,z
1/2+x,-y,z
1/2+x,1/2+y,1/2+z
1/2-x,1/2-y,1/2+z
-x,1/2+y,1/2+z
x,1/2-y,1/2+z
loop_
_atom_site_type_symbol
_atom_site_label
_atom_site_fract_x
_atom_site_fract_y
_atom_site_fract_z
Si Si1 0.625854 0.841442 0.544560
Si Si2 0.678673 0.653635 0.739489
Si Si3 0.509386 0.367605 0.907145
Si Si4 0.177332 0.563625 0.564758
Si Si5 0.324134 0.958514 0.737036
Si Si6 0.911136 0.260943 0.159543
O O1 0.630132 0.740020 0.661694
O O2 0.679357 0.835786 0.416550
O O3 0.559781 0.823689 0.457101
O O4 0.633808 0.959326 0.633305
O O5 0.750000 0.683015 0.681666
O O6 0.659593 0.525161 0.694271
O O7 0.500000 0.500000 0.863655
O O8 0.535917 0.293807 0.769260
O O9 0.556292 0.349014 0.045935
O O10 0.250000 0.612116 0.587055
O O11 0.173311 0.498347 0.406893
O O12 0.124693 0.662206 0.569792
O O13 0.250000 0.952863 0.681198
O O14 0.355812 0.832943 0.741953
#
# Coordination Sequence:
#
# PCOD8193240 Si02
#       6
#     8   8   8   8   8   8
#     4  12  24  44  67 103 141 188 239 291 358 431
#     4  11  23  41  68 101 139 182 233 297 359 427
#     4  12  26  46  69 100 144 191 242 289 358 438
#     4  10  23  42  67 102 138 180 234 298 372 427
#     4  11  23  42  70 102 139 182 234 302 369 430
#     4  12  24  46  68  99 141 183 237 295 351 437
#
# _framework density 21.825403000000001
#
# number of rings (size 3 to 8) (size 9 to 14) (size 15 to 20)
#    0.000    0.667    3.333    5.000    0.000    1.333 
#    0.000    0.833    0.000    0.000    0.000    0.000 
#    0.000    0.000    0.000    0.000    0.000    0.000 
#
# Total GULP energy -297592.982379 kJ/mol
# GULP energy per Si atom -12399.707599 kJ/mol
# Density = 2.177573 g / cm^3
# Si number density = 21.825403 Si / 1000 Ang^3
#
#
#
# Elastic Constant Matrix: (Units=GPa)
#
#
# Indices 1 2 3 4 5 6 
#
# 1 104.5976 44.0629 23.7024 0.0000 0.0000 0.0000
# 2 44.0629 78.9309 26.9236 0.0000 0.0000 0.0000
# 3 23.7024 26.9236 102.9555 0.0000 0.0000 0.0000
# 4 0.0000 0.0000 0.0000 35.1842 0.0000 0.0000
# 5 0.0000 0.0000 0.0000 0.0000 33.0329 0.0000
# 6 0.0000 0.0000 0.0000 0.0000 0.0000 39.7690
#
#
#
# Elastic Compliance Matrix: (Units=1/GPa)
#
#
# Indices 1 2 3 4 5 6 
#
# 1 0.012627 -0.006650 -0.001168 0.000000 0.000000 0.000000
# 2 -0.006650 0.017413 -0.003023 0.000000 0.000000 0.000000
# 3 -0.001168 -0.003023 0.010772 0.000000 0.000000 0.000000
# 4 0.000000 0.000000 0.000000 0.028422 0.000000 0.000000
# 5 0.000000 0.000000 0.000000 0.000000 0.030273 0.000000
# 6 0.000000 0.000000 0.000000 0.000000 0.000000 0.025145
#
#
# Mechanical properties :
#
#
# Convention : Reuss Voigt Hill
#
# Bulk Modulus (GPa) = 52.27328 52.87355 52.57342
# Shear Modulus (GPa) = 32.74181 34.38355 33.56268
#
# Velocity S-wave (km/s) = 3.87740 3.97343 3.92571
# Velocity P-wave (km/s) = 6.63689 6.73269 6.68496
#
# Compressibility (1/GPa) = 0.01913023
#
# Stress axis : x y z
#
# Youngs Moduli (GPa) = 79.19757 57.42864 92.83164
#
# Poissons Ratio (x) = 0.38193 0.10841
# Poissons Ratio (y) = 0.52670 0.28059
# Poissons Ratio (z) = 0.09248 0.17358
#
# Static dielectric constant tensor:
#      x y z
#    x 3.932690 0.000000 0.000000 
#    y 0.000000 3.734840 0.000000 
#    z 0.000000 0.000000 3.937320 
# 
# 
# High freq. dielectric constant tensor:
#      x y z
#    x 1.865330 0.000000 0.000000 
#    y 0.000000 1.853270 0.000000 
#    z 0.000000 0.000000 1.867790 
# 
# From -- ./inp_files/7833.got.cif
#   From: 2010.03.12/outbox.cif.g09.slc.cpg/sg46_4_cif.got.tgz:7833.got - 2010.04.14 02:56:35.
