data_PCOD8193054
_publ_section_title
;
Structure prediction by ZEFSAII (Michael W. Deem and Ramdas Pophale) SiO2 
 PCOD8193054
Probable space group: I M A 2
;
_chemical_formula_sum "Si O2"
_cell_formula_units_Z 32
_cell_length_a 16.056039
_cell_length_b 17.503395
_cell_length_c 5.137518
_cell_angle_alpha 90.000000
_cell_angle_beta 90.000000
_cell_angle_gamma 90.000000
_cell_volume 1443.823361
_symmetry_space_group_name_H-M "I M A 2"
_symmetry_group_IT_number 46
_symmetry_cell_setting 'orthorhombic'
loop_
_space_group_symop_operation_xyz
x,y,z
-x,-y,z
1/2-x,y,z
1/2+x,-y,z
1/2+x,1/2+y,1/2+z
1/2-x,1/2-y,1/2+z
-x,1/2+y,1/2+z
x,1/2-y,1/2+z
loop_
_atom_site_type_symbol
_atom_site_label
_atom_site_fract_x
_atom_site_fract_y
_atom_site_fract_z
Si Si1 0.844717 0.964229 0.386880
Si Si2 0.150566 0.293740 0.914727
Si Si3 0.087816 0.536160 0.379336
Si Si4 0.653568 0.200102 0.834782
O O1 0.750000 0.959726 0.293223
O O2 0.884177 0.879554 0.396945
O O3 0.847134 0.002131 0.671402
O O4 0.893686 0.013452 0.175495
O O5 0.250000 0.294270 0.921112
O O6 0.115265 0.245486 0.673857
O O7 0.092227 0.627829 0.363062
O O8 0.000000 0.500000 0.295288
O O9 0.750000 0.172986 0.851829
O O10 0.634017 0.239578 0.560878
#
# Coordination Sequence:
#
# PCOD8193054 Si02
#       4
#     8   8   8   8
#     4  11  22  39  64  89 118 166 218 260 311 387
#     4   9  17  31  52  81 115 149 195 249 289 339
#     4  12  25  42  62  94 134 165 202 267 343 400
#     4  10  21  40  67  94 122 164 220 274 318 376
#
# _framework density 22.163374000000001
#
# number of rings (size 3 to 8) (size 9 to 14) (size 15 to 20)
#    0.000    1.500    0.000    6.000    0.000    6.000 
#    0.000    7.500    0.000    0.000    0.000    0.000 
#    0.000    0.000    0.000    0.000    0.000    0.000 
#
# Total GULP energy -198464.530860 kJ/mol
# GULP energy per Si atom -12404.033179 kJ/mol
# Density = 2.211293 g / cm^3
# Si number density = 22.163374 Si / 1000 Ang^3
#
#
#
# Elastic Constant Matrix: (Units=GPa)
#
#
# Indices 1 2 3 4 5 6 
#
# 1 46.0429 27.5206 0.1384 0.0000 0.0000 0.0000
# 2 27.5206 145.4183 26.8954 0.0000 0.0000 0.0000
# 3 0.1384 26.8954 122.8723 0.0000 0.0000 0.0000
# 4 0.0000 0.0000 0.0000 43.8179 0.0000 0.0000
# 5 0.0000 0.0000 0.0000 0.0000 16.4173 0.0000
# 6 0.0000 0.0000 0.0000 0.0000 0.0000 30.7271
#
#
#
# Elastic Compliance Matrix: (Units=1/GPa)
#
#
# Indices 1 2 3 4 5 6 
#
# 1 0.024614 -0.004850 0.001034 0.000000 0.000000 0.000000
# 2 -0.004850 0.008122 -0.001772 0.000000 0.000000 0.000000
# 3 0.001034 -0.001772 0.008525 0.000000 0.000000 0.000000
# 4 0.000000 0.000000 0.000000 0.022822 0.000000 0.000000
# 5 0.000000 0.000000 0.000000 0.000000 0.060911 0.000000
# 6 0.000000 0.000000 0.000000 0.000000 0.000000 0.032545
#
#
# Mechanical properties :
#
#
# Convention : Reuss Voigt Hill
#
# Bulk Modulus (GPa) = 33.23832 47.04913 40.14372
# Shear Modulus (GPa) = 27.97290 35.51108 31.74199
#
# Velocity S-wave (km/s) = 3.55649 4.00714 3.78852
# Velocity P-wave (km/s) = 5.64751 6.53330 6.10649
#
# Compressibility (1/GPa) = 0.03008576
#
# Stress axis : x y z
#
# Youngs Moduli (GPa) = 40.62661 123.11785 117.29752
#
# Poissons Ratio (x) = 0.59706 -0.12126
# Poissons Ratio (y) = 0.19702 0.20790
# Poissons Ratio (z) = -0.04200 0.21822
#
# Static dielectric constant tensor:
#      x y z
#    x 3.577370 0.000000 0.000000 
#    y 0.000000 4.069710 0.000000 
#    z 0.000000 0.000000 4.021300 
# 
# 
# High freq. dielectric constant tensor:
#      x y z
#    x 1.835950 0.000000 0.000000 
#    y 0.000000 1.884610 0.000000 
#    z 0.000000 0.000000 1.889300 
# 
# From -- ./inp_files/1055.got.cif
#   From: 2010.03.12/outbox.cif.g09.slc.cpg/sg46_1_cif.got.tgz:1055.got - 2010.04.14 02:56:35.
