data_PCOD8193333
_publ_section_title
;
Structure prediction by ZEFSAII (Michael W. Deem and Ramdas Pophale) SiO2 
 PCOD8193333
Probable space group: I M A 2
;
_chemical_formula_sum "Si O2"
_cell_formula_units_Z 48
_cell_length_a 16.915948
_cell_length_b 11.992432
_cell_length_c 11.324200
_cell_angle_alpha 90.000000
_cell_angle_beta 90.000000
_cell_angle_gamma 90.000000
_cell_volume 2297.265217
_symmetry_space_group_name_H-M "I M A 2"
_symmetry_group_IT_number 46
_symmetry_cell_setting 'orthorhombic'
loop_
_space_group_symop_operation_xyz
x,y,z
-x,-y,z
1/2-x,y,z
1/2+x,-y,z
1/2+x,1/2+y,1/2+z
1/2-x,1/2-y,1/2+z
-x,1/2+y,1/2+z
x,1/2-y,1/2+z
loop_
_atom_site_type_symbol
_atom_site_label
_atom_site_fract_x
_atom_site_fract_y
_atom_site_fract_z
Si Si1 0.837897 0.879460 0.439690
Si Si2 0.842571 0.443739 0.363019
Si Si3 0.407948 0.347189 0.503382
Si Si4 0.433931 0.758164 0.426259
Si Si5 0.535794 0.888523 0.249189
Si Si6 0.412082 0.543261 0.105359
O O1 0.750000 0.900011 0.390684
O O2 0.848135 0.747922 0.460250
O O3 0.902923 0.924794 0.349714
O O4 0.850860 0.951085 0.557541
O O5 0.750000 0.464122 0.344502
O O6 0.876370 0.535311 0.454609
O O7 0.856598 0.318679 0.411407
O O8 0.889408 0.443020 0.240524
O O9 0.496265 0.326366 0.459560
O O10 0.413121 0.332909 0.645388
O O11 0.463910 0.816157 0.304417
O O12 0.409655 0.843065 0.529797
O O13 0.500000 0.000000 0.192964
O O14 0.500000 0.500000 0.094980
#
# Coordination Sequence:
#
# PCOD8193333 Si02
#       6
#     8   8   8   8   8   8
#     4  11  24  40  65  98 133 174 218 278 340 391
#     4  12  28  43  65 103 143 178 217 276 344 400
#     4  11  24  42  67  97 133 175 228 270 328 398
#     4  11  22  44  70  98 125 175 232 278 325 394
#     4  11  21  43  67  98 126 172 228 276 328 395
#     4  12  22  47  72  96 130 174 232 277 329 402
#
# _framework density 20.894410000000001
#
# number of rings (size 3 to 8) (size 9 to 14) (size 15 to 20)
#    0.000    0.667    5.000    4.500    4.667    2.667 
#    0.000    0.000    0.000    0.000    0.000    0.000 
#    0.000    0.000    0.000    0.000    0.000    0.000 
#
# Total GULP energy -297544.385516 kJ/mol
# GULP energy per Si atom -12397.682730 kJ/mol
# Density = 2.084685 g / cm^3
# Si number density = 20.894410 Si / 1000 Ang^3
#
#
#
# Elastic Constant Matrix: (Units=GPa)
#
#
# Indices 1 2 3 4 5 6 
#
# 1 67.1468 31.8816 -5.0463 0.0000 0.0000 0.0000
# 2 31.8816 110.3726 33.3609 0.0000 0.0000 0.0000
# 3 -5.0463 33.3609 90.0497 0.0000 0.0000 0.0000
# 4 0.0000 0.0000 0.0000 23.7715 0.0000 0.0000
# 5 0.0000 0.0000 0.0000 0.0000 15.8031 0.0000
# 6 0.0000 0.0000 0.0000 0.0000 0.0000 24.7961
#
#
#
# Elastic Compliance Matrix: (Units=1/GPa)
#
#
# Indices 1 2 3 4 5 6 
#
# 1 0.018102 -0.006234 0.003324 0.000000 0.000000 0.000000
# 2 -0.006234 0.012349 -0.004924 0.000000 0.000000 0.000000
# 3 0.003324 -0.004924 0.013116 0.000000 0.000000 0.000000
# 4 0.000000 0.000000 0.000000 0.042067 0.000000 0.000000
# 5 0.000000 0.000000 0.000000 0.000000 0.063279 0.000000
# 6 0.000000 0.000000 0.000000 0.000000 0.000000 0.040329
#
#
# Mechanical properties :
#
#
# Convention : Reuss Voigt Hill
#
# Bulk Modulus (GPa) = 35.84384 43.10684 39.47534
# Shear Modulus (GPa) = 23.34163 26.69901 25.02032
#
# Velocity S-wave (km/s) = 3.34597 3.57852 3.46419
# Velocity P-wave (km/s) = 5.66739 6.14410 5.91055
#
# Compressibility (1/GPa) = 0.02789879
#
# Stress axis : x y z
#
# Youngs Moduli (GPa) = 55.24180 80.97674 76.24521
#
# Poissons Ratio (x) = 0.50477 -0.25342
# Poissons Ratio (y) = 0.34435 0.37546
# Poissons Ratio (z) = -0.18361 0.39876
#
# Static dielectric constant tensor:
#      x y z
#    x 3.690770 0.000000 0.000000 
#    y 0.000000 4.087320 0.000000 
#    z 0.000000 0.000000 3.869510 
# 
# 
# High freq. dielectric constant tensor:
#      x y z
#    x 1.808960 0.000000 0.000000 
#    y 0.000000 1.830830 0.000000 
#    z 0.000000 0.000000 1.822150 
# 
# From -- ./inp_files/11795.got.cif
#   From: 2010.03.12/outbox.cif.g09.slc.cpg/sg46_6_cif.got.tgz:11795.got - 2010.04.14 02:56:35.
