data_PCOD8193302
_publ_section_title
;
Structure prediction by ZEFSAII (Michael W. Deem and Ramdas Pophale) SiO2 
 PCOD8193302
Probable space group: I M A 2
;
_chemical_formula_sum "Si O2"
_cell_formula_units_Z 64
_cell_length_a 14.491238
_cell_length_b 11.224028
_cell_length_c 17.228360
_cell_angle_alpha 90.000000
_cell_angle_beta 90.000000
_cell_angle_gamma 90.000000
_cell_volume 2802.193806
_symmetry_space_group_name_H-M "I M A 2"
_symmetry_group_IT_number 46
_symmetry_cell_setting 'orthorhombic'
loop_
_space_group_symop_operation_xyz
x,y,z
-x,-y,z
1/2-x,y,z
1/2+x,-y,z
1/2+x,1/2+y,1/2+z
1/2-x,1/2-y,1/2+z
-x,1/2+y,1/2+z
x,1/2-y,1/2+z
loop_
_atom_site_type_symbol
_atom_site_label
_atom_site_fract_x
_atom_site_fract_y
_atom_site_fract_z
Si Si1 0.397225 0.033201 0.333080
Si Si2 0.981428 0.378903 0.431233
Si Si3 0.901155 0.481559 0.588276
Si Si4 0.353155 0.182853 0.185425
Si Si5 0.649210 0.268324 0.825520
Si Si6 0.149429 0.745747 0.149783
Si Si7 0.356883 0.294589 0.970261
Si Si8 0.029269 0.130030 0.612394
O O1 0.395033 0.096509 0.249946
O O2 0.353385 0.123981 0.394200
O O3 0.500000 0.000000 0.357787
O O4 0.341160 0.910575 0.330495
O O5 0.918420 0.433484 0.501116
O O6 0.926964 0.279592 0.384377
O O7 0.000000 0.500000 0.380635
O O8 0.078994 0.322841 0.459126
O O9 0.852883 0.611717 0.601748
O O10 0.840817 0.386431 0.635025
O O11 0.000000 0.500000 0.629741
O O12 0.250000 0.223454 0.206712
O O13 0.416374 0.300738 0.180516
O O14 0.750000 0.216523 0.847552
O O15 0.622516 0.224859 0.739352
O O16 0.250000 0.687716 0.131106
O O17 0.068597 0.695455 0.094242
O O18 0.250000 0.260595 0.990545
O O19 0.404435 0.373808 0.037758
O O20 0.000000 0.000000 0.641422
#
# Coordination Sequence:
#
# PCOD8193302 Si02
#       8
#     8   8   8   8   8   8   8   8
#     4  12  23  44  75 106 140 180 234 303 361 420
#     4  11  25  44  69 101 146 189 230 283 362 436
#     4  11  20  40  69 101 135 174 233 291 349 413
#     4  12  24  43  75 110 140 181 241 304 360 423
#     4  11  24  43  70 106 140 177 229 292 356 426
#     4  11  23  43  69 100 136 177 231 295 353 417
#     4  12  26  47  70 101 143 186 238 299 363 434
#     4  12  27  46  67  97 140 192 234 289 358 427
#
# _framework density 22.83925
#
# number of rings (size 3 to 8) (size 9 to 14) (size 15 to 20)
#    0.000    0.500    5.000    4.125    0.000    3.000 
#    0.000    1.875    0.000    0.000    0.000    0.000 
#    0.000    0.000    0.000    0.000    0.000    0.000 
#
# Total GULP energy -396568.192914 kJ/mol
# GULP energy per Si atom -12392.756029 kJ/mol
# Density = 2.278727 g / cm^3
# Si number density = 22.839250 Si / 1000 Ang^3
#
#
#
# Elastic Constant Matrix: (Units=GPa)
#
#
# Indices 1 2 3 4 5 6 
#
# 1 150.8832 35.8910 36.4242 0.0000 0.0000 0.0000
# 2 35.8910 136.2752 33.1380 0.0000 0.0000 0.0000
# 3 36.4242 33.1380 81.7606 0.0000 0.0000 0.0000
# 4 0.0000 0.0000 0.0000 31.7663 0.0000 0.0000
# 5 0.0000 0.0000 0.0000 0.0000 28.5956 0.0000
# 6 0.0000 0.0000 0.0000 0.0000 0.0000 20.1738
#
#
#
# Elastic Compliance Matrix: (Units=1/GPa)
#
#
# Indices 1 2 3 4 5 6 
#
# 1 0.007632 -0.001313 -0.002868 0.000000 0.000000 0.000000
# 2 -0.001313 0.008366 -0.002806 0.000000 0.000000 0.000000
# 3 -0.002868 -0.002806 0.014646 0.000000 0.000000 0.000000
# 4 0.000000 0.000000 0.000000 0.031480 0.000000 0.000000
# 5 0.000000 0.000000 0.000000 0.000000 0.034970 0.000000
# 6 0.000000 0.000000 0.000000 0.000000 0.000000 0.049569
#
#
# Mechanical properties :
#
#
# Convention : Reuss Voigt Hill
#
# Bulk Modulus (GPa) = 59.98584 64.42505 62.20545
# Shear Modulus (GPa) = 30.08522 33.67152 31.87837
#
# Velocity S-wave (km/s) = 3.63334 3.84381 3.74006
# Velocity P-wave (km/s) = 6.62744 6.92597 6.77835
#
# Compressibility (1/GPa) = 0.01667060
#
# Stress axis : x y z
#
# Youngs Moduli (GPa) = 131.02245 119.52911 68.27852
#
# Poissons Ratio (x) = 0.15690 0.19583
# Poissons Ratio (y) = 0.17199 0.19159
# Poissons Ratio (z) = 0.37579 0.33540
#
# Static dielectric constant tensor:
#      x y z
#    x 4.240530 0.000000 0.000000 
#    y 0.000000 4.247460 0.000000 
#    z 0.000000 0.000000 3.853260 
# 
# 
# High freq. dielectric constant tensor:
#      x y z
#    x 1.917510 0.000000 0.000000 
#    y 0.000000 1.896660 0.000000 
#    z 0.000000 0.000000 1.885050 
# 
# From -- ./inp_files/19646.got.cif
#   From: 2010.03.12/outbox.cif.g09.slc.cpg/sg46_10_cif.got.tgz:19646.got - 2010.04.14 02:56:35.
