data_PCOD8193037
_publ_section_title
;
Structure prediction by ZEFSAII (Michael W. Deem and Ramdas Pophale) SiO2 
 PCOD8193037
Probable space group: I M A 2
;
_chemical_formula_sum "Si O2"
_cell_formula_units_Z 64
_cell_length_a 19.411254
_cell_length_b 9.846042
_cell_length_c 16.819557
_cell_angle_alpha 90.000000
_cell_angle_beta 90.000000
_cell_angle_gamma 90.000000
_cell_volume 3214.621385
_symmetry_space_group_name_H-M "I M A 2"
_symmetry_group_IT_number 46
_symmetry_cell_setting 'orthorhombic'
loop_
_space_group_symop_operation_xyz
x,y,z
-x,-y,z
1/2-x,y,z
1/2+x,-y,z
1/2+x,1/2+y,1/2+z
1/2-x,1/2-y,1/2+z
-x,1/2+y,1/2+z
x,1/2-y,1/2+z
loop_
_atom_site_type_symbol
_atom_site_label
_atom_site_fract_x
_atom_site_fract_y
_atom_site_fract_z
Si Si1 0.327601 0.766315 0.098490
Si Si2 0.461120 0.631928 0.658971
Si Si3 0.425631 0.159945 0.407220
Si Si4 0.451230 0.129520 0.584879
Si Si5 0.671810 0.902014 0.858263
Si Si6 0.671545 0.182825 0.919162
Si Si7 0.932204 0.365927 0.841159
Si Si8 0.172625 0.023719 0.678194
O O1 0.250000 0.821124 0.112078
O O2 0.381131 0.875771 0.132770
O O3 0.340136 0.626093 0.144034
O O4 0.341978 0.748522 0.004573
O O5 0.500000 0.500000 0.627690
O O6 0.498752 0.755625 0.617025
O O7 0.463468 0.640289 0.753546
O O8 0.413955 0.159236 0.501347
O O9 0.378939 0.275519 0.367521
O O10 0.506627 0.188969 0.397003
O O11 0.407358 0.016854 0.365216
O O12 0.386650 0.119679 0.644055
O O13 0.500000 0.000000 0.577967
O O14 0.750000 0.849998 0.872012
O O15 0.664184 0.972908 0.772644
O O16 0.652118 0.022283 0.920326
O O17 0.750000 0.197167 0.892241
O O18 0.630498 0.263277 0.851448
O O19 0.250000 0.072773 0.653979
#
# Coordination Sequence:
#
# PCOD8193037 Si02
#       8
#     8   8   8   8   8   8   8   8
#     4  10  21  40  64  92 126 165 213 266 317 376
#     4  12  25  40  62  94 131 165 210 266 322 383
#     4  11  23  42  62  90 131 165 202 264 318 377
#     4  12  23  41  67  94 124 170 216 262 321 381
#     4  10  23  42  63  93 129 163 210 265 315 378
#     4  10  22  40  64  93 124 164 215 264 313 377
#     4  11  22  42  62  89 130 164 208 258 315 379
#     4  10  21  40  66  94 123 163 216 263 310 383
#
# _framework density 19.909032
#
# number of rings (size 3 to 8) (size 9 to 14) (size 15 to 20)
#    0.000    1.250    3.750    3.000    1.750    3.000 
#    0.000    0.625    0.000    0.000    0.000    0.000 
#    0.000    0.000    0.000    0.000    0.000    0.000 
#
# Total GULP energy -396805.472990 kJ/mol
# GULP energy per Si atom -12400.171031 kJ/mol
# Density = 1.986372 g / cm^3
# Si number density = 19.909032 Si / 1000 Ang^3
#
#
#
# Elastic Constant Matrix: (Units=GPa)
#
#
# Indices 1 2 3 4 5 6 
#
# 1 113.7125 68.0893 19.2222 0.0000 0.0000 0.0000
# 2 68.0893 128.8330 45.2395 0.0000 0.0000 0.0000
# 3 19.2222 45.2395 71.8618 0.0000 0.0000 0.0000
# 4 0.0000 0.0000 0.0000 5.6550 0.0000 0.0000
# 5 0.0000 0.0000 0.0000 0.0000 26.1932 0.0000
# 6 0.0000 0.0000 0.0000 0.0000 0.0000 37.5475
#
#
#
# Elastic Compliance Matrix: (Units=1/GPa)
#
#
# Indices 1 2 3 4 5 6 
#
# 1 0.012931 -0.007214 0.001083 0.000000 0.000000 0.000000
# 2 -0.007214 0.013990 -0.006877 0.000000 0.000000 0.000000
# 3 0.001083 -0.006877 0.017955 0.000000 0.000000 0.000000
# 4 0.000000 0.000000 0.000000 0.176834 0.000000 0.000000
# 5 0.000000 0.000000 0.000000 0.000000 0.038178 0.000000
# 6 0.000000 0.000000 0.000000 0.000000 0.000000 0.026633
#
#
# Mechanical properties :
#
#
# Convention : Reuss Voigt Hill
#
# Bulk Modulus (GPa) = 53.02651 64.38992 58.70821
# Shear Modulus (GPa) = 15.68261 26.00291 20.84276
#
# Velocity S-wave (km/s) = 2.80967 3.61790 3.23909
# Velocity P-wave (km/s) = 6.10064 7.06148 6.59858
#
# Compressibility (1/GPa) = 0.01885849
#
# Stress axis : x y z
#
# Youngs Moduli (GPa) = 77.33428 71.48090 55.69337
#
# Poissons Ratio (x) = 0.51568 -0.06030
# Poissons Ratio (y) = 0.55791 0.38302
# Poissons Ratio (z) = -0.08374 0.49160
#
# Static dielectric constant tensor:
#      x y z
#    x 3.886730 0.000000 0.000000 
#    y 0.000000 4.071870 0.000000 
#    z 0.000000 0.000000 3.696730 
# 
# 
# High freq. dielectric constant tensor:
#      x y z
#    x 1.789420 0.000000 0.000000 
#    y 0.000000 1.762910 0.000000 
#    z 0.000000 0.000000 1.785410 
# 
# From -- ./inp_files/20247.got.cif
#   From: 2010.03.12/outbox.cif.g09.slc.cpg/sg46_11_cif.got.tgz:20247.got - 2010.04.14 02:56:35.
