data_PCOD8193017
_publ_section_title
;
Structure prediction by ZEFSAII (Michael W. Deem and Ramdas Pophale) SiO2 
 PCOD8193017
Probable space group: I M A 2
;
_chemical_formula_sum "Si O2"
_cell_formula_units_Z 64
_cell_length_a 13.477759
_cell_length_b 23.619191
_cell_length_c 9.726838
_cell_angle_alpha 90.000000
_cell_angle_beta 90.000000
_cell_angle_gamma 90.000000
_cell_volume 3096.380953
_symmetry_space_group_name_H-M "I M A 2"
_symmetry_group_IT_number 46
_symmetry_cell_setting 'orthorhombic'
loop_
_space_group_symop_operation_xyz
x,y,z
-x,-y,z
1/2-x,y,z
1/2+x,-y,z
1/2+x,1/2+y,1/2+z
1/2-x,1/2-y,1/2+z
-x,1/2+y,1/2+z
x,1/2-y,1/2+z
loop_
_atom_site_type_symbol
_atom_site_label
_atom_site_fract_x
_atom_site_fract_y
_atom_site_fract_z
Si Si1 0.133065 0.711168 0.062620
Si Si2 0.636238 0.192845 0.260691
Si Si3 0.550539 0.841490 0.645248
Si Si4 0.866191 0.963141 0.144537
Si Si5 0.867655 0.715250 0.639022
Si Si6 0.867625 0.626061 0.862159
Si Si7 0.365475 0.912008 0.091874
Si Si8 0.450612 0.375214 0.444592
O O1 0.250000 0.697834 0.074427
O O2 0.097686 0.770153 0.131967
O O3 0.069599 0.663053 0.139828
O O4 0.090619 0.711264 0.906672
O O5 0.750000 0.208403 0.275740
O O6 0.619382 0.126820 0.227789
O O7 0.601923 0.780204 0.645696
O O8 0.588124 0.876743 0.514362
O O9 0.575740 0.875266 0.783482
O O10 0.750000 0.971777 0.156969
O O11 0.905004 0.929608 0.279211
O O12 0.888993 0.926869 0.009156
O O13 0.910698 0.026642 0.132316
O O14 0.750000 0.710349 0.622912
O O15 0.904193 0.681818 0.776944
O O16 0.917062 0.684733 0.508048
O O17 0.750000 0.627351 0.872837
O O18 0.250000 0.912390 0.045091
O O19 0.431593 0.886108 0.969006
#
# Coordination Sequence:
#
# PCOD8193017 Si02
#       8
#     8   8   8   8   8   8   8   8
#     4  10  23  38  55  86 125 159 193 236 293 354
#     4   9  20  37  59  83 114 152 192 237 285 343
#     4  12  24  33  58  89 123 161 193 241 300 353
#     4   9  20  41  67  87 112 152 202 254 296 348
#     4  10  22  39  59  87 123 162 201 239 287 356
#     4   9  20  38  59  86 119 154 197 247 299 347
#     4  10  21  39  67  91 111 153 207 245 289 351
#     4  11  23  37  59  90 121 157 198 247 296 347
#
# _framework density 20.66929
#
# number of rings (size 3 to 8) (size 9 to 14) (size 15 to 20)
#    0.000    2.000    0.000    3.375    8.750    3.500 
#    0.000    0.000    5.500    0.000    0.000    0.000 
#    0.000    0.000    0.000    0.000    0.000    0.000 
#
# Total GULP energy -396665.359039 kJ/mol
# GULP energy per Si atom -12395.792470 kJ/mol
# Density = 2.062225 g / cm^3
# Si number density = 20.669290 Si / 1000 Ang^3
#
#
#
# Elastic Constant Matrix: (Units=GPa)
#
#
# Indices 1 2 3 4 5 6 
#
# 1 37.2170 17.9236 28.8292 0.0000 0.0001 0.0000
# 2 17.9236 108.4180 72.4639 0.0002 0.0000 0.0000
# 3 28.8292 72.4639 174.1147 -0.0006 0.0001 0.0008
# 4 0.0000 0.0002 -0.0006 12.2330 0.0001 0.0001
# 5 0.0001 0.0000 0.0001 0.0001 26.3112 -0.0001
# 6 0.0000 0.0000 0.0008 0.0001 -0.0001 25.0721
#
#
#
# Elastic Compliance Matrix: (Units=1/GPa)
#
#
# Indices 1 2 3 4 5 6 
#
# 1 0.031255 -0.002366 -0.004190 0.000000 0.000000 0.000000
# 2 -0.002366 0.012957 -0.005001 0.000000 0.000000 0.000000
# 3 -0.004190 -0.005001 0.008518 0.000000 0.000000 0.000000
# 4 0.000000 0.000000 0.000000 0.081746 0.000000 0.000000
# 5 0.000000 0.000000 0.000000 0.000000 0.038007 0.000000
# 6 0.000000 0.000000 0.000000 0.000000 0.000000 0.039885
#
#
# Mechanical properties :
#
#
# Convention : Reuss Voigt Hill
#
# Bulk Modulus (GPa) = 33.76583 62.02034 47.89309
# Shear Modulus (GPa) = 20.37865 26.09212 23.23538
#
# Velocity S-wave (km/s) = 3.14337 3.55683 3.35647
# Velocity P-wave (km/s) = 5.43563 6.85122 6.18406
#
# Compressibility (1/GPa) = 0.02961574
#
# Stress axis : x y z
#
# Youngs Moduli (GPa) = 31.99494 77.17744 117.39322
#
# Poissons Ratio (x) = 0.18263 0.49190
# Poissons Ratio (y) = 0.07571 0.58705
# Poissons Ratio (z) = 0.13407 0.38595
#
# Static dielectric constant tensor:
#      x y z
#    x 3.988380 0.000000 0.000000 
#    y 0.000000 3.739800 0.000000 
#    z 0.000000 0.000000 3.828010 
# 
# 
# High freq. dielectric constant tensor:
#      x y z
#    x 1.834150 0.000000 0.000000 
#    y 0.000000 1.788490 0.000000 
#    z 0.000000 0.000000 1.793300 
# 
# From -- ./inp_files/6075.got.cif
#   From: 2010.03.12/outbox.cif.g09.slc.cpg/sg46_4_cif.got.tgz:6075.got - 2010.04.14 02:56:35.
