data_PCOD8193890
_publ_section_title
;
Structure prediction by ZEFSAII (Michael W. Deem and Ramdas Pophale) SiO2 
 PCOD8193890
Probable space group: P M M M
;
_chemical_formula_sum "Si O2"
_cell_formula_units_Z 36
_cell_length_a 16.841821
_cell_length_b 9.047463
_cell_length_c 15.520524
_cell_angle_alpha 90.000000
_cell_angle_beta 90.000000
_cell_angle_gamma 90.000000
_cell_volume 2364.951521
_symmetry_space_group_name_H-M "P M M M"
_symmetry_group_IT_number 47
_symmetry_cell_setting 'orthorhombic'
loop_
_space_group_symop_operation_xyz
x,y,z
-x,-y,z
x,-y,-z
-x,y,-z
-x,-y,-z
x,y,-z
-x,y,z
x,-y,z
loop_
_atom_site_type_symbol
_atom_site_label
_atom_site_fract_x
_atom_site_fract_y
_atom_site_fract_z
Si Si1 0.090852 0.327008 0.830189
Si Si2 0.500000 0.333348 0.602225
Si Si3 0.188490 0.674682 0.662398
Si Si4 0.911681 0.324590 0.500000
Si Si5 0.658616 0.825988 0.399852
Si Si6 0.905631 0.833572 0.000000
O O1 0.095477 0.500000 0.847789
O O2 0.144823 0.279907 0.750043
O O3 0.000000 0.279494 0.810747
O O4 0.126063 0.246609 0.914304
O O5 0.500000 0.500000 0.639373
O O6 0.500000 0.335763 0.500000
O O7 0.577636 0.246983 0.634799
O O8 0.203810 0.500000 0.656196
O O9 0.133720 0.731595 0.584431
O O10 0.271592 0.759204 0.658127
O O11 0.917049 0.500000 0.500000
O O12 0.000000 0.256218 0.500000
O O13 0.673663 0.786104 0.500000
O O14 0.652832 0.000000 0.385773
O O15 0.000000 0.825883 0.000000
O O16 0.873488 0.000000 0.000000
#
# Coordination Sequence:
#
# PCOD8193890 Si02
#       6
#     8   4   8   4   8   4
#     4   9  17  29  45  65  87 113 148 190 231 266
#     4   9  17  29  47  65  81 106 145 186 223 263
#     4  10  18  28  44  64  87 116 152 188 221 258
#     4   9  16  26  41  60  83 114 153 191 218 247
#     4  10  19  30  43  61  88 118 147 180 222 265
#     4   9  17  29  45  63  83 110 143 182 231 281
#
# _framework density 15.222299
#
# number of rings (size 3 to 8) (size 9 to 14) (size 15 to 20)
#    0.000    2.556    1.111    2.000    0.000    7.111 
#    0.000    0.000    0.000    2.667    0.000    0.000 
#    0.000    0.889    0.000    9.333    0.000    4.444 
#
# Total GULP energy -446423.323781 kJ/mol
# GULP energy per Si atom -12400.647883 kJ/mol
# Density = 1.518765 g / cm^3
# Si number density = 15.222299 Si / 1000 Ang^3
#
#
#
# Elastic Constant Matrix: (Units=GPa)
#
#
# Indices 1 2 3 4 5 6 
#
# 1 119.5837 48.8209 56.1538 0.0000 0.0000 0.0000
# 2 48.8209 66.0238 46.3774 0.0000 0.0000 0.0000
# 3 56.1538 46.3774 111.5981 0.0000 0.0000 0.0000
# 4 0.0000 0.0000 0.0000 15.8803 0.0000 0.0000
# 5 0.0000 0.0000 0.0000 0.0000 8.9254 0.0000
# 6 0.0000 0.0000 0.0000 0.0000 0.0000 17.7779
#
#
#
# Elastic Compliance Matrix: (Units=1/GPa)
#
#
# Indices 1 2 3 4 5 6 
#
# 1 0.012914 -0.007040 -0.003572 0.000000 0.000000 0.000000
# 2 -0.007040 0.025228 -0.006942 0.000000 0.000000 0.000000
# 3 -0.003572 -0.006942 0.013643 0.000000 0.000000 0.000000
# 4 0.000000 0.000000 0.000000 0.062971 0.000000 0.000000
# 5 0.000000 0.000000 0.000000 0.000000 0.112040 0.000000
# 6 0.000000 0.000000 0.000000 0.000000 0.000000 0.056250
#
#
# Mechanical properties :
#
#
# Convention : Reuss Voigt Hill
#
# Bulk Modulus (GPa) = 59.96338 66.65662 63.31000
# Shear Modulus (GPa) = 15.44580 18.24027 16.84303
#
# Velocity S-wave (km/s) = 3.18886 3.46534 3.32997
# Velocity P-wave (km/s) = 7.28257 7.73921 7.51436
#
# Compressibility (1/GPa) = 0.01667684
#
# Stress axis : x y z
#
# Youngs Moduli (GPa) = 77.43599 39.63912 73.29686
#
# Poissons Ratio (x) = 0.27905 0.26185
# Poissons Ratio (y) = 0.54512 0.50881
# Poissons Ratio (z) = 0.27664 0.27516
#
# Static dielectric constant tensor:
#      x y z
#    x 2.891070 0.000000 0.000000 
#    y 0.000000 2.862230 0.000000 
#    z 0.000000 0.000000 2.788140 
# 
# 
# High freq. dielectric constant tensor:
#      x y z
#    x 1.570380 0.000000 0.000000 
#    y 0.000000 1.580470 0.000000 
#    z 0.000000 0.000000 1.556030 
# 
# From -- ./inp_files/5603.got.cif
#   From: 2010.03.12/outbox.cif.g09.slc.cpg/sg47_3_cif.got.tgz:5603.got - 2010.04.14 03:12:58.
