data_PCOD8193844
_publ_section_title
;
Structure prediction by ZEFSAII (Michael W. Deem and Ramdas Pophale) SiO2 
 PCOD8193844
Probable space group: P M M M
;
_chemical_formula_sum "Si O2"
_cell_formula_units_Z 52
_cell_length_a 9.675157
_cell_length_b 12.424513
_cell_length_c 25.485974
_cell_angle_alpha 90.000000
_cell_angle_beta 90.000000
_cell_angle_gamma 90.000000
_cell_volume 3063.646352
_symmetry_space_group_name_H-M "P M M M"
_symmetry_group_IT_number 47
_symmetry_cell_setting 'orthorhombic'
loop_
_space_group_symop_operation_xyz
x,y,z
-x,-y,z
x,-y,-z
-x,y,-z
-x,-y,-z
x,y,-z
-x,y,z
x,-y,z
loop_
_atom_site_type_symbol
_atom_site_label
_atom_site_fract_x
_atom_site_fract_y
_atom_site_fract_z
Si Si1 0.152314 0.378688 0.765525
Si Si2 0.661087 0.197402 0.266979
Si Si3 0.251349 0.874996 0.623360
Si Si4 0.659958 0.876732 0.848827
Si Si5 0.000000 0.128905 0.440440
Si Si6 0.500000 0.870957 0.441291
Si Si7 0.339353 0.500000 0.938081
Si Si8 0.162418 0.318594 0.883629
O O1 0.165102 0.500000 0.745903
O O2 0.274772 0.315675 0.737334
O O3 0.171088 0.375432 0.827784
O O4 0.000000 0.331865 0.751113
O O5 0.500000 0.205728 0.280053
O O6 0.740904 0.140187 0.314251
O O7 0.688222 0.131964 0.213526
O O8 0.122384 0.822251 0.594379
O O9 0.375392 0.821811 0.591672
O O10 0.248640 0.000000 0.611968
O O11 0.500000 0.844844 0.860607
O O12 0.764473 0.799418 0.880892
O O13 0.688614 0.000000 0.865861
O O14 0.000000 0.174249 0.500000
O O15 0.000000 0.000000 0.442778
O O16 0.500000 0.824518 0.500000
O O17 0.500000 0.000000 0.442552
O O18 0.500000 0.500000 0.916141
O O19 0.253421 0.393442 0.921764
O O20 0.347071 0.500000 0.000000
O O21 0.000000 0.307917 0.901649
#
# Coordination Sequence:
#
# PCOD8193844 Si02
#       8
#     8   8   8   8   4   4   4   8
#     4   9  18  33  50  69  97 130 162 198 242 296
#     4  10  19  29  44  70  98 128 165 201 243 293
#     4  10  18  28  42  61  90 123 154 195 239 286
#     4   9  18  32  50  73 106 146 182 212 248 306
#     4   9  18  30  42  58  83 119 161 199 238 287
#     4   9  16  26  42  60  81 117 157 191 234 285
#     4  11  23  37  57  85 113 139 175 219 264 315
#     4  10  19  34  55  79 107 139 176 218 263 305
#
# _framework density 16.973237999999998
#
# number of rings (size 3 to 8) (size 9 to 14) (size 15 to 20)
#    0.000    2.385    1.538    1.615    1.077    4.308 
#    0.000    0.000    0.000    0.462    0.000    3.231 
#    0.000    3.692    0.000    0.000    0.000    0.000 
#
# Total GULP energy -644284.466063 kJ/mol
# GULP energy per Si atom -12390.085886 kJ/mol
# Density = 1.693461 g / cm^3
# Si number density = 16.973238 Si / 1000 Ang^3
#
#
#
# Elastic Constant Matrix: (Units=GPa)
#
#
# Indices 1 2 3 4 5 6 
#
# 1 132.3765 44.8960 42.5102 0.0000 0.0000 0.0000
# 2 44.8960 69.6377 19.4989 0.0000 0.0000 0.0000
# 3 42.5102 19.4989 58.6082 0.0000 0.0000 0.0000
# 4 0.0000 0.0000 0.0000 16.2383 0.0000 0.0000
# 5 0.0000 0.0000 0.0000 0.0000 28.2247 0.0000
# 6 0.0000 0.0000 0.0000 0.0000 0.0000 98.8992
#
#
#
# Elastic Compliance Matrix: (Units=1/GPa)
#
#
# Indices 1 2 3 4 5 6 
#
# 1 0.011552 -0.005625 -0.006507 0.000000 0.000000 0.000000
# 2 -0.005625 0.018575 -0.002099 0.000000 0.000000 0.000000
# 3 -0.006507 -0.002099 0.022481 0.000000 0.000000 0.000000
# 4 0.000000 0.000000 0.000000 0.061583 0.000000 0.000000
# 5 0.000000 0.000000 0.000000 0.000000 0.035430 0.000000
# 6 0.000000 0.000000 0.000000 0.000000 0.000000 0.010111
#
#
# Mechanical properties :
#
#
# Convention : Reuss Voigt Hill
#
# Bulk Modulus (GPa) = 41.41998 52.71473 47.06736
# Shear Modulus (GPa) = 25.47858 38.92027 32.19943
#
# Velocity S-wave (km/s) = 3.87861 4.79376 4.36026
# Velocity P-wave (km/s) = 6.67190 7.85908 7.28970
#
# Compressibility (1/GPa) = 0.02414294
#
# Stress axis : x y z
#
# Youngs Moduli (GPa) = 86.56670 53.83674 44.48237
#
# Poissons Ratio (x) = 0.30286 0.28946
# Poissons Ratio (y) = 0.48698 0.09339
# Poissons Ratio (z) = 0.56331 0.11303
#
# Static dielectric constant tensor:
#      x y z
#    x 3.563520 0.000000 0.000000 
#    y 0.000000 2.889360 0.000000 
#    z 0.000000 0.000000 3.002610 
# 
# 
# High freq. dielectric constant tensor:
#      x y z
#    x 1.674040 0.000000 0.000000 
#    y 0.000000 1.615980 0.000000 
#    z 0.000000 0.000000 1.636760 
# 
# From -- ./inp_files/33259.got.cif
#   From: 2010.03.12/outbox.cif.g09.slc.cpg/sg47_17_cif.got.tgz:33259.got - 2010.04.14 03:12:58.
