data_PCOD8193165
_publ_section_title
;
Structure prediction by ZEFSAII (Michael W. Deem and Ramdas Pophale) SiO2 
 PCOD8193165
Probable space group: I M A 2
;
_chemical_formula_sum "Si O2"
_cell_formula_units_Z 64
_cell_length_a 23.336036
_cell_length_b 14.922029
_cell_length_c 8.619865
_cell_angle_alpha 90.000000
_cell_angle_beta 90.000000
_cell_angle_gamma 90.000000
_cell_volume 3001.618061
_symmetry_space_group_name_H-M "I M A 2"
_symmetry_group_IT_number 46
_symmetry_cell_setting 'orthorhombic'
loop_
_space_group_symop_operation_xyz
x,y,z
-x,-y,z
1/2-x,y,z
1/2+x,-y,z
1/2+x,1/2+y,1/2+z
1/2-x,1/2-y,1/2+z
-x,1/2+y,1/2+z
x,1/2-y,1/2+z
loop_
_atom_site_type_symbol
_atom_site_label
_atom_site_fract_x
_atom_site_fract_y
_atom_site_fract_z
Si Si1 0.861317 0.538509 0.606320
Si Si2 0.184237 0.985723 0.785541
Si Si3 0.141653 0.356173 0.122647
Si Si4 0.019309 0.165506 0.588248
Si Si5 0.907162 0.143727 0.119338
Si Si6 0.974205 0.861897 0.221020
Si Si7 0.095270 0.665430 0.259349
Si Si8 0.813933 0.815526 0.301544
O O1 0.847963 0.539840 0.423159
O O2 0.858603 0.432146 0.648164
O O3 0.922317 0.580682 0.652975
O O4 0.812873 0.596448 0.691819
O O5 0.250000 0.960024 0.825068
O O6 0.182441 0.058170 0.647516
O O7 0.150436 0.897224 0.730409
O O8 0.075570 0.381497 0.163733
O O9 0.163031 0.270314 0.214161
O O10 0.143113 0.331746 0.941836
O O11 0.023478 0.150339 0.405197
O O12 0.025354 0.269227 0.628114
O O13 0.960018 0.128310 0.663014
O O14 0.889023 0.233504 0.209148
O O15 0.964617 0.094560 0.180310
O O16 0.918045 0.168404 0.940604
O O17 0.750000 0.797526 0.362556
#
# Coordination Sequence:
#
# PCOD8193165 Si02
#       8
#     8   8   8   8   8   8   8   8
#     4  11  23  40  64  93 127 173 217 271 323 396
#     4  11  26  46  66  93 128 173 229 279 327 395
#     4  12  24  41  62  91 132 170 219 266 326 391
#     4  11  21  38  64  96 134 172 211 261 327 397
#     4  10  22  40  65  93 128 166 211 272 337 392
#     4  11  21  38  60  98 136 169 211 261 324 403
#     4  10  23  43  69  94 129 168 216 276 338 394
#     4  12  24  40  61  91 129 179 220 263 321 392
#
# _framework density 21.321833999999999
#
# number of rings (size 3 to 8) (size 9 to 14) (size 15 to 20)
#    0.000    1.000    2.500    5.625    3.500    2.500 
#    2.250    3.125    0.000    0.000    0.000    0.000 
#    0.000    0.000    0.000    0.000    0.000    0.000 
#
# Total GULP energy -396587.898872 kJ/mol
# GULP energy per Si atom -12393.371840 kJ/mol
# Density = 2.127330 g / cm^3
# Si number density = 21.321834 Si / 1000 Ang^3
#
#
#
# Elastic Constant Matrix: (Units=GPa)
#
#
# Indices 1 2 3 4 5 6 
#
# 1 121.6869 66.6554 41.4006 0.0000 0.0000 0.0000
# 2 66.6554 91.4877 47.9210 0.0000 0.0000 0.0000
# 3 41.4006 47.9210 73.7923 0.0000 0.0000 0.0000
# 4 0.0000 0.0000 0.0000 28.8198 0.0000 0.0000
# 5 0.0000 0.0000 0.0000 0.0000 23.2421 0.0000
# 6 0.0000 0.0000 0.0000 0.0000 0.0000 27.5884
#
#
#
# Elastic Compliance Matrix: (Units=1/GPa)
#
#
# Indices 1 2 3 4 5 6 
#
# 1 0.013839 -0.009117 -0.001844 0.000000 0.000000 0.000000
# 2 -0.009117 0.022571 -0.009543 0.000000 0.000000 0.000000
# 3 -0.001844 -0.009543 0.020783 0.000000 0.000000 0.000000
# 4 0.000000 0.000000 0.000000 0.034698 0.000000 0.000000
# 5 0.000000 0.000000 0.000000 0.000000 0.043025 0.000000
# 6 0.000000 0.000000 0.000000 0.000000 0.000000 0.036247
#
#
# Mechanical properties :
#
#
# Convention : Reuss Voigt Hill
#
# Bulk Modulus (GPa) = 61.78040 66.54676 64.16358
# Shear Modulus (GPa) = 22.98142 24.66271 23.82206
#
# Velocity S-wave (km/s) = 3.28660 3.40470 3.34617
# Velocity P-wave (km/s) = 6.59093 6.83625 6.71471
#
# Compressibility (1/GPa) = 0.01618636
#
# Stress axis : x y z
#
# Youngs Moduli (GPa) = 72.25943 44.30384 48.11594
#
# Poissons Ratio (x) = 0.40392 0.08871
# Poissons Ratio (y) = 0.65879 0.45917
# Poissons Ratio (z) = 0.13322 0.42279
#
# Static dielectric constant tensor:
#      x y z
#    x 4.047440 0.000000 0.000000 
#    y 0.000000 3.890080 0.000000 
#    z 0.000000 0.000000 3.907270 
# 
# 
# High freq. dielectric constant tensor:
#      x y z
#    x 1.836270 0.000000 0.000000 
#    y 0.000000 1.833850 0.000000 
#    z 0.000000 0.000000 1.842200 
# 
# From -- ./inp_files/7982.got.cif
#   From: 2010.03.12/outbox.cif.g09.slc.cpg/sg46_4_cif.got.tgz:7982.got - 2010.04.14 02:56:35.
