data_PCOD8193757
_publ_section_title
;
Structure prediction by ZEFSAII (Michael W. Deem and Ramdas Pophale) SiO2 
 PCOD8193757
Probable space group: P M M M
;
_chemical_formula_sum "Si O2"
_cell_formula_units_Z 56
_cell_length_a 21.744052
_cell_length_b 18.529211
_cell_length_c 9.091533
_cell_angle_alpha 90.000000
_cell_angle_beta 90.000000
_cell_angle_gamma 90.000000
_cell_volume 3662.979805
_symmetry_space_group_name_H-M "P M M M"
_symmetry_group_IT_number 47
_symmetry_cell_setting 'orthorhombic'
loop_
_space_group_symop_operation_xyz
x,y,z
-x,-y,z
x,-y,-z
-x,y,-z
-x,-y,-z
x,y,-z
-x,y,z
x,-y,z
loop_
_atom_site_type_symbol
_atom_site_label
_atom_site_fract_x
_atom_site_fract_y
_atom_site_fract_z
Si Si1 0.672837 0.337886 0.667544
Si Si2 0.201510 0.582335 0.327734
Si Si3 0.930834 0.180157 0.671903
Si Si4 0.178188 0.921060 0.328778
Si Si5 0.244457 0.785074 0.330637
Si Si6 0.861415 0.703427 0.826421
Si Si7 0.430850 0.580777 0.826351
O O1 0.654841 0.353444 0.500000
O O2 0.732089 0.384703 0.713448
O O3 0.688616 0.252060 0.692385
O O4 0.614667 0.359116 0.764040
O O5 0.188742 0.590360 0.500000
O O6 0.200857 0.500000 0.275533
O O7 0.147029 0.623303 0.240702
O O8 0.919882 0.194814 0.500000
O O9 0.883047 0.119409 0.730992
O O10 0.920185 0.255649 0.757253
O O11 0.000000 0.152971 0.703305
O O12 0.169035 0.933656 0.500000
O O13 0.239546 0.871470 0.300670
O O14 0.186021 0.000000 0.252318
O O15 0.223248 0.768952 0.500000
O O16 0.198559 0.748576 0.216896
O O17 0.869189 0.698140 0.000000
O O18 0.500000 0.598843 0.773289
O O19 0.412643 0.500000 0.772227
O O20 0.427180 0.584056 0.000000
#
# Coordination Sequence:
#
# PCOD8193757 Si02
#       7
#     8   8   8   8   8   8   8
#     4   9  16  26  41  60  81 106 137 169 198 233
#     4   9  17  29  44  61  82 106 131 164 208 252
#     4   9  17  29  44  60  80 108 138 165 196 238
#     4   8  13  23  42  66  87 106 131 164 199 236
#     4   8  15  28  42  58  83 110 135 165 202 243
#     4  10  18  27  41  60  81 104 133 169 204 239
#     4   9  18  30  40  53  79 113 143 172 207 241
#
# _framework density 15.288099000000001
#
# number of rings (size 3 to 8) (size 9 to 14) (size 15 to 20)
#    0.000    3.143    0.000    3.857    0.000    4.286 
#    0.000    2.143    0.000    7.286    0.000    7.000 
#    0.000    0.571    0.000    7.143    0.000    1.143 
#
# Total GULP energy -693756.465678 kJ/mol
# GULP energy per Si atom -12388.508316 kJ/mol
# Density = 1.525330 g / cm^3
# Si number density = 15.288099 Si / 1000 Ang^3
#
#
#
# Elastic Constant Matrix: (Units=GPa)
#
#
# Indices 1 2 3 4 5 6 
#
# 1 73.2852 58.2425 21.6062 0.0000 0.0000 0.0000
# 2 58.2425 129.8382 30.2263 0.0000 0.0000 0.0000
# 3 21.6062 30.2263 42.3383 0.0000 0.0000 0.0000
# 4 0.0000 0.0000 0.0000 9.6740 0.0000 0.0000
# 5 0.0000 0.0000 0.0000 0.0000 17.8003 0.0000
# 6 0.0000 0.0000 0.0000 0.0000 0.0000 19.8730
#
#
#
# Elastic Compliance Matrix: (Units=1/GPa)
#
#
# Indices 1 2 3 4 5 6 
#
# 1 0.022063 -0.008726 -0.005030 0.000000 0.000000 0.000000
# 2 -0.008726 0.012688 -0.004605 0.000000 0.000000 0.000000
# 3 -0.005030 -0.004605 0.029474 0.000000 0.000000 0.000000
# 4 0.000000 0.000000 0.000000 0.103370 0.000000 0.000000
# 5 0.000000 0.000000 0.000000 0.000000 0.056179 0.000000
# 6 0.000000 0.000000 0.000000 0.000000 0.000000 0.050320
#
#
# Mechanical properties :
#
#
# Convention : Reuss Voigt Hill
#
# Bulk Modulus (GPa) = 36.35932 51.73464 44.04698
# Shear Modulus (GPa) = 15.62581 18.49523 17.06052
#
# Velocity S-wave (km/s) = 3.20048 3.48196 3.34418
# Velocity P-wave (km/s) = 6.12306 7.07663 6.61704
#
# Compressibility (1/GPa) = 0.02750326
#
# Stress axis : x y z
#
# Youngs Moduli (GPa) = 45.32445 78.81229 33.92837
#
# Poissons Ratio (x) = 0.68773 0.17064
# Poissons Ratio (y) = 0.39551 0.15625
# Poissons Ratio (z) = 0.22796 0.36296
#
# Static dielectric constant tensor:
#      x y z
#    x 2.793310 0.000000 0.000000 
#    y 0.000000 3.273430 0.000000 
#    z 0.000000 0.000000 2.699310 
# 
# 
# High freq. dielectric constant tensor:
#      x y z
#    x 1.553050 0.000000 0.000000 
#    y 0.000000 1.579910 0.000000 
#    z 0.000000 0.000000 1.567810 
# 
# From -- ./inp_files/9854.got.cif
#   From: 2010.03.12/outbox.cif.g09.slc.cpg/sg47_5_cif.got.tgz:9854.got - 2010.04.14 03:12:58.
