data_PCOD8193023
_publ_section_title
;
Structure prediction by ZEFSAII (Michael W. Deem and Ramdas Pophale) SiO2 
 PCOD8193023
Probable space group: I M A 2
;
_chemical_formula_sum "Si O2"
_cell_formula_units_Z 64
_cell_length_a 16.489077
_cell_length_b 19.864743
_cell_length_c 9.085301
_cell_angle_alpha 90.000000
_cell_angle_beta 90.000000
_cell_angle_gamma 90.000000
_cell_volume 2975.901944
_symmetry_space_group_name_H-M "I M A 2"
_symmetry_group_IT_number 46
_symmetry_cell_setting 'orthorhombic'
loop_
_space_group_symop_operation_xyz
x,y,z
-x,-y,z
1/2-x,y,z
1/2+x,-y,z
1/2+x,1/2+y,1/2+z
1/2-x,1/2-y,1/2+z
-x,1/2+y,1/2+z
x,1/2-y,1/2+z
loop_
_atom_site_type_symbol
_atom_site_label
_atom_site_fract_x
_atom_site_fract_y
_atom_site_fract_z
Si Si1 0.161957 0.684555 0.899560
Si Si2 0.839395 0.816631 0.875203
Si Si3 0.896649 0.453051 0.862927
Si Si4 0.343806 0.462743 0.305124
Si Si5 0.929234 0.925090 0.510919
Si Si6 0.846641 0.425925 0.543025
Si Si7 0.416201 0.274294 0.087516
Si Si8 0.910835 0.214480 0.099537
O O1 0.250000 0.706577 0.842406
O O2 0.097100 0.703704 0.774114
O O3 0.163391 0.604082 0.925446
O O4 0.142482 0.721492 0.051588
O O5 0.750000 0.806141 0.808164
O O6 0.852796 0.895890 0.905934
O O7 0.904112 0.787460 0.759421
O O8 0.846684 0.774433 0.025070
O O9 0.870255 0.529255 0.906607
O O10 0.980926 0.437267 0.947839
O O11 0.897281 0.450895 0.685419
O O12 0.250000 0.469361 0.248718
O O13 0.409202 0.454632 0.173863
O O14 0.367474 0.527105 0.404178
O O15 0.912174 0.845704 0.501557
O O16 0.750000 0.425157 0.576380
O O17 0.879339 0.350715 0.508542
O O18 0.497574 0.232303 0.060748
#
# Coordination Sequence:
#
# PCOD8193023 Si02
#       8
#     8   8   8   8   8   8   8   8
#     4  11  22  39  62  91 129 170 211 257 307 375
#     4  10  22  41  64  92 124 163 211 266 319 378
#     4  10  21  40  60  89 127 162 212 259 312 374
#     4   9  21  43  65  91 127 166 214 264 319 379
#     4  10  22  41  62  89 125 165 211 264 315 378
#     4  10  22  43  67  96 131 169 216 263 315 387
#     4  11  22  40  64  91 127 165 209 260 322 380
#     4  11  22  39  62  95 130 169 208 256 312 380
#
# _framework density 21.506084999999999
#
# number of rings (size 3 to 8) (size 9 to 14) (size 15 to 20)
#    0.000    1.750    1.250    3.375    1.750    3.500 
#   13.500    2.500    0.000    0.000    0.000    0.000 
#    0.000    0.000    0.000    0.000    0.000    0.000 
#
# Total GULP energy -396457.826505 kJ/mol
# GULP energy per Si atom -12389.307078 kJ/mol
# Density = 2.145714 g / cm^3
# Si number density = 21.506085 Si / 1000 Ang^3
#
#
#
# Elastic Constant Matrix: (Units=GPa)
#
#
# Indices 1 2 3 4 5 6 
#
# 1 81.5379 46.1029 37.8897 0.0000 0.0000 0.0000
# 2 46.1029 101.5433 30.9321 0.0000 0.0000 0.0000
# 3 37.8897 30.9321 61.5240 0.0000 0.0000 0.0000
# 4 0.0000 0.0000 0.0000 43.8025 0.0000 0.0000
# 5 0.0000 0.0000 0.0000 0.0000 30.9946 0.0000
# 6 0.0000 0.0000 0.0000 0.0000 0.0000 33.3227
#
#
#
# Elastic Compliance Matrix: (Units=1/GPa)
#
#
# Indices 1 2 3 4 5 6 
#
# 1 0.020124 -0.006331 -0.009210 0.000000 0.000000 0.000000
# 2 -0.006331 0.013621 -0.002949 0.000000 0.000000 0.000000
# 3 -0.009210 -0.002949 0.023409 0.000000 0.000000 0.000000
# 4 0.000000 0.000000 0.000000 0.022830 0.000000 0.000000
# 5 0.000000 0.000000 0.000000 0.000000 0.032264 0.000000
# 6 0.000000 0.000000 0.000000 0.000000 0.000000 0.030010
#
#
# Mechanical properties :
#
#
# Convention : Reuss Voigt Hill
#
# Bulk Modulus (GPa) = 49.57240 52.71719 51.14479
# Shear Modulus (GPa) = 26.88732 30.26933 28.57832
#
# Velocity S-wave (km/s) = 3.53968 3.75571 3.64929
# Velocity P-wave (km/s) = 6.30922 6.58582 6.44900
#
# Compressibility (1/GPa) = 0.02017252
#
# Stress axis : x y z
#
# Youngs Moduli (GPa) = 49.69236 73.41726 42.71916
#
# Poissons Ratio (x) = 0.46481 0.39346
# Poissons Ratio (y) = 0.31460 0.12598
# Poissons Ratio (z) = 0.45768 0.21651
#
# Static dielectric constant tensor:
#      x y z
#    x 3.808500 0.000000 0.000000 
#    y 0.000000 4.523910 0.000000 
#    z 0.000000 0.000000 3.570530 
# 
# 
# High freq. dielectric constant tensor:
#      x y z
#    x 1.835660 0.000000 0.000000 
#    y 0.000000 1.864940 0.000000 
#    z 0.000000 0.000000 1.825740 
# 
# From -- ./inp_files/6907.got.cif
#   From: 2010.03.12/outbox.cif.g09.slc.cpg/sg46_4_cif.got.tgz:6907.got - 2010.04.14 02:56:35.
