data_PCOD8193228
_publ_section_title
;
Structure prediction by ZEFSAII (Michael W. Deem and Ramdas Pophale) SiO2 
 PCOD8193228
Probable space group: I M A 2
;
_chemical_formula_sum "Si O2"
_cell_formula_units_Z 24
_cell_length_a 12.662615
_cell_length_b 11.003908
_cell_length_c 6.740486
_cell_angle_alpha 90.000000
_cell_angle_beta 90.000000
_cell_angle_gamma 90.000000
_cell_volume 939.207527
_symmetry_space_group_name_H-M "I M A 2"
_symmetry_group_IT_number 46
_symmetry_cell_setting 'orthorhombic'
loop_
_space_group_symop_operation_xyz
x,y,z
-x,-y,z
1/2-x,y,z
1/2+x,-y,z
1/2+x,1/2+y,1/2+z
1/2-x,1/2-y,1/2+z
-x,1/2+y,1/2+z
x,1/2-y,1/2+z
loop_
_atom_site_type_symbol
_atom_site_label
_atom_site_fract_x
_atom_site_fract_y
_atom_site_fract_z
Si Si1 0.873249 0.088140 0.810880
Si Si2 0.634194 0.935522 0.171333
Si Si3 0.437349 0.651695 0.897506
O O1 0.750000 0.084871 0.753450
O O2 0.896892 0.212368 0.932351
O O3 0.945232 0.090143 0.614518
O O4 0.900470 0.967933 0.943941
O O5 0.750000 0.873568 0.177500
O O6 0.642543 0.068282 0.272702
O O7 0.551642 0.849885 0.285805
#
# Coordination Sequence:
#
# PCOD8193228 Si02
#       3
#     8   8   8
#     4  11  21  40  70  99 133 180 229 285 335 404
#     4  10  23  41  63  98 138 175 223 279 343 401
#     4  11  22  38  68  98 133 174 232 280 337 400
#
# _framework density 25.553456000000001
#
# number of rings (size 3 to 8) (size 9 to 14) (size 15 to 20)
#    0.000    1.333    3.333    3.000    0.000    5.333 
#    0.000    1.667    0.000    2.000    0.000    0.000 
#    0.000    0.000    0.000    0.000    0.000    0.000 
#
# Total GULP energy -148694.933510 kJ/mol
# GULP energy per Si atom -12391.244459 kJ/mol
# Density = 2.549530 g / cm^3
# Si number density = 25.553456 Si / 1000 Ang^3
#
#
#
# Elastic Constant Matrix: (Units=GPa)
#
#
# Indices 1 2 3 4 5 6 
#
# 1 141.3120 4.2806 37.4663 0.0000 0.0000 0.0000
# 2 4.2806 44.4414 -1.1064 0.0000 0.0000 0.0000
# 3 37.4663 -1.1064 161.5692 0.0000 0.0000 0.0000
# 4 0.0000 0.0000 0.0000 27.9764 0.0000 0.0000
# 5 0.0000 0.0000 0.0000 0.0000 35.0279 0.0000
# 6 0.0000 0.0000 0.0000 0.0000 0.0000 35.6692
#
#
#
# Elastic Compliance Matrix: (Units=1/GPa)
#
#
# Indices 1 2 3 4 5 6 
#
# 1 0.007567 -0.000773 -0.001760 0.000000 0.000000 0.000000
# 2 -0.000773 0.022584 0.000334 0.000000 0.000000 0.000000
# 3 -0.001760 0.000334 0.006600 0.000000 0.000000 0.000000
# 4 0.000000 0.000000 0.000000 0.035744 0.000000 0.000000
# 5 0.000000 0.000000 0.000000 0.000000 0.028549 0.000000
# 6 0.000000 0.000000 0.000000 0.000000 0.000000 0.028035
#
#
# Mechanical properties :
#
#
# Convention : Reuss Voigt Hill
#
# Bulk Modulus (GPa) = 30.90894 47.62263 39.26579
# Shear Modulus (GPa) = 34.65946 40.18018 37.41982
#
# Velocity S-wave (km/s) = 3.68686 3.96965 3.83087
# Velocity P-wave (km/s) = 5.49964 6.29982 5.91328
#
# Compressibility (1/GPa) = 0.03235310
#
# Stress axis : x y z
#
# Youngs Moduli (GPa) = 132.16059 44.27859 151.52234
#
# Poissons Ratio (x) = 0.03421 0.26666
# Poissons Ratio (y) = 0.10211 -0.05058
# Poissons Ratio (z) = 0.23259 -0.01478
#
# Static dielectric constant tensor:
#      x y z
#    x 4.385500 0.000000 0.000000 
#    y 0.000000 4.012970 0.000000 
#    z 0.000000 0.000000 4.851100 
# 
# 
# High freq. dielectric constant tensor:
#      x y z
#    x 2.024100 0.000000 0.000000 
#    y 0.000000 1.981530 0.000000 
#    z 0.000000 0.000000 2.040730 
# 
# From -- ./inp_files/1012.got.cif
#   From: 2010.03.12/outbox.cif.g09.slc.cpg/sg46_1_cif.got.tgz:1012.got - 2010.04.14 02:56:35.
