data_PCOD8193695
_publ_section_title
;
Structure prediction by ZEFSAII (Michael W. Deem and Ramdas Pophale) SiO2 
 PCOD8193695
Probable space group: P M M M
;
_chemical_formula_sum "Si O2"
_cell_formula_units_Z 52
_cell_length_a 19.388162
_cell_length_b 12.550146
_cell_length_c 14.299760
_cell_angle_alpha 90.000000
_cell_angle_beta 90.000000
_cell_angle_gamma 90.000000
_cell_volume 3479.478574
_symmetry_space_group_name_H-M "P M M M"
_symmetry_group_IT_number 47
_symmetry_cell_setting 'orthorhombic'
loop_
_space_group_symop_operation_xyz
x,y,z
-x,-y,z
x,-y,-z
-x,y,-z
-x,-y,-z
x,y,-z
-x,y,z
x,-y,z
loop_
_atom_site_type_symbol
_atom_site_label
_atom_site_fract_x
_atom_site_fract_y
_atom_site_fract_z
Si Si1 0.644576 0.373384 0.601406
Si Si2 0.844015 0.694444 0.796283
Si Si3 0.801329 0.374573 0.604671
Si Si4 0.290781 0.625676 0.107004
Si Si5 0.575889 0.373346 0.213713
Si Si6 0.079637 0.877046 0.107053
Si Si7 0.081638 0.500000 0.892958
O O1 0.616632 0.334071 0.500000
O O2 0.644629 0.500000 0.604255
O O3 0.722873 0.334449 0.615173
O O4 0.596658 0.327773 0.683986
O O5 0.846915 0.684307 0.683501
O O6 0.765273 0.685402 0.830426
O O7 0.873001 0.809495 0.823495
O O8 0.890806 0.604999 0.843515
O O9 0.828921 0.347404 0.500000
O O10 0.806013 0.500000 0.623570
O O11 0.281032 0.500000 0.122860
O O12 0.367289 0.662922 0.138100
O O13 0.280631 0.658369 0.000000
O O14 0.500000 0.328393 0.186596
O O15 0.573217 0.500000 0.217321
O O16 0.000000 0.855823 0.131045
O O17 0.098485 0.000000 0.122523
O O18 0.094401 0.843449 0.000000
O O19 0.000000 0.500000 0.887211
O O20 0.107779 0.500000 0.000000
#
# Coordination Sequence:
#
# PCOD8193695 Si02
#       7
#     8   8   8   8   8   8   4
#     4   8  13  22  35  51  74 107 148 188 222 255
#     4  12  18  29  49  68  90 119 150 186 225 267
#     4   9  16  27  43  64  90 121 154 185 223 271
#     4  10  18  26  37  57  85 116 150 183 220 265
#     4   9  16  24  33  48  77 116 153 185 214 254
#     4   9  19  35  52  70  93 120 148 179 221 273
#     4  11  22  30  41  69  98 116 138 175 225 273
#
# _framework density 14.944768
#
# number of rings (size 3 to 8) (size 9 to 14) (size 15 to 20)
#    0.000    2.385    3.077    3.231    0.000    1.846 
#    0.000    3.077    0.000    2.769    0.000    1.077 
#    0.000    0.615    0.000    3.231    0.000    5.077 
#
# Total GULP energy -644563.545034 kJ/mol
# GULP energy per Si atom -12395.452789 kJ/mol
# Density = 1.491075 g / cm^3
# Si number density = 14.944768 Si / 1000 Ang^3
#
#
#
# Elastic Constant Matrix: (Units=GPa)
#
#
# Indices 1 2 3 4 5 6 
#
# 1 74.0864 26.5561 46.0322 0.0000 0.0000 0.0000
# 2 26.5561 39.1957 28.3181 0.0000 0.0000 0.0000
# 3 46.0322 28.3181 111.1515 0.0000 0.0000 0.0000
# 4 0.0000 0.0000 0.0000 15.0317 0.0000 0.0000
# 5 0.0000 0.0000 0.0000 0.0000 25.1146 0.0000
# 6 0.0000 0.0000 0.0000 0.0000 0.0000 9.0238
#
#
#
# Elastic Compliance Matrix: (Units=1/GPa)
#
#
# Indices 1 2 3 4 5 6 
#
# 1 0.020770 -0.009630 -0.006148 0.000000 0.000000 0.000000
# 2 -0.009630 0.035734 -0.005116 0.000000 0.000000 0.000000
# 3 -0.006148 -0.005116 0.012846 0.000000 0.000000 0.000000
# 4 0.000000 0.000000 0.000000 0.066526 0.000000 0.000000
# 5 0.000000 0.000000 0.000000 0.000000 0.039818 0.000000
# 6 0.000000 0.000000 0.000000 0.000000 0.000000 0.110818
#
#
# Mechanical properties :
#
#
# Convention : Reuss Voigt Hill
#
# Bulk Modulus (GPa) = 36.28209 47.36071 41.82140
# Shear Modulus (GPa) = 14.81543 18.06916 16.44230
#
# Velocity S-wave (km/s) = 3.15198 3.48093 3.32053
# Velocity P-wave (km/s) = 6.12999 6.92207 6.53804
#
# Compressibility (1/GPa) = 0.02756181
#
# Stress axis : x y z
#
# Youngs Moduli (GPa) = 48.14719 27.98480 77.84406
#
# Poissons Ratio (x) = 0.26950 0.47859
# Poissons Ratio (y) = 0.46366 0.39822
# Poissons Ratio (z) = 0.29601 0.14316
#
# Static dielectric constant tensor:
#      x y z
#    x 2.984710 0.000000 0.000000 
#    y 0.000000 2.360760 0.000000 
#    z 0.000000 0.000000 3.141320 
# 
# 
# High freq. dielectric constant tensor:
#      x y z
#    x 1.572140 0.000000 0.000000 
#    y 0.000000 1.498150 0.000000 
#    z 0.000000 0.000000 1.583460 
# 
# From -- ./inp_files/18554.got.cif
#   From: 2010.03.12/outbox.cif.g09.slc.cpg/sg47_10_cif.got.tgz:18554.got - 2010.04.14 03:12:58.
