data_PCOD8193343
_publ_section_title
;
Structure prediction by ZEFSAII (Michael W. Deem and Ramdas Pophale) SiO2 
 PCOD8193343
Probable space group: I M A 2
;
_chemical_formula_sum "Si O2"
_cell_formula_units_Z 40
_cell_length_a 14.185786
_cell_length_b 15.786211
_cell_length_c 7.568458
_cell_angle_alpha 90.000000
_cell_angle_beta 90.000000
_cell_angle_gamma 90.000000
_cell_volume 1694.879054
_symmetry_space_group_name_H-M "I M A 2"
_symmetry_group_IT_number 46
_symmetry_cell_setting 'orthorhombic'
loop_
_space_group_symop_operation_xyz
x,y,z
-x,-y,z
1/2-x,y,z
1/2+x,-y,z
1/2+x,1/2+y,1/2+z
1/2-x,1/2-y,1/2+z
-x,1/2+y,1/2+z
x,1/2-y,1/2+z
loop_
_atom_site_type_symbol
_atom_site_label
_atom_site_fract_x
_atom_site_fract_y
_atom_site_fract_z
Si Si1 0.356781 0.528892 0.591590
Si Si2 0.893588 0.990023 0.467311
Si Si3 0.353496 0.670353 0.079829
Si Si4 0.544436 0.324526 0.430217
Si Si5 0.853955 0.609129 0.302706
O O1 0.250000 0.563091 0.603435
O O2 0.380250 0.467867 0.759959
O O3 0.431406 0.607397 0.585097
O O4 0.371774 0.475070 0.415111
O O5 0.852469 0.917324 0.595390
O O6 0.843765 0.081201 0.481355
O O7 0.000000 0.000000 0.527793
O O8 0.250000 0.714204 0.073592
O O9 0.381957 0.650587 0.279204
O O10 0.434146 0.729739 0.995499
O O11 0.436581 0.325399 0.357823
O O12 0.750000 0.648362 0.345190
#
# Coordination Sequence:
#
# PCOD8193343 Si02
#       5
#     8   8   8   8   8
#     4  11  22  38  65 101 139 178 231 288 349 419
#     4  12  22  41  70 103 136 179 231 287 346 419
#     4  12  24  40  66  98 139 180 224 285 356 418
#     4  12  24  43  63 101 145 187 228 291 359 421
#     4  11  23  44  69  96 135 187 239 289 340 412
#
# _framework density 23.600504000000001
#
# number of rings (size 3 to 8) (size 9 to 14) (size 15 to 20)
#    0.000    0.400    4.000    6.600    0.000    0.000 
#    0.000    1.000    0.000    0.000    0.000    0.000 
#    0.000    0.000    0.000    0.000    0.000    0.000 
#
# Total GULP energy -247974.691663 kJ/mol
# GULP energy per Si atom -12398.734583 kJ/mol
# Density = 2.354679 g / cm^3
# Si number density = 23.600504 Si / 1000 Ang^3
#
#
#
# Elastic Constant Matrix: (Units=GPa)
#
#
# Indices 1 2 3 4 5 6 
#
# 1 186.6150 38.6959 25.3178 0.0000 0.0000 0.0000
# 2 38.6959 51.8091 13.6033 0.0000 0.0000 0.0000
# 3 25.3178 13.6033 109.3513 0.0000 0.0000 0.0000
# 4 0.0000 0.0000 0.0000 27.3759 0.0000 0.0000
# 5 0.0000 0.0000 0.0000 0.0000 26.5971 0.0000
# 6 0.0000 0.0000 0.0000 0.0000 0.0000 33.0774
#
#
#
# Elastic Compliance Matrix: (Units=1/GPa)
#
#
# Indices 1 2 3 4 5 6 
#
# 1 0.006429 -0.004560 -0.000921 0.000000 0.000000 0.000000
# 2 -0.004560 0.023188 -0.001829 0.000000 0.000000 0.000000
# 3 -0.000921 -0.001829 0.009586 0.000000 0.000000 0.000000
# 4 0.000000 0.000000 0.000000 0.036528 0.000000 0.000000
# 5 0.000000 0.000000 0.000000 0.000000 0.037598 0.000000
# 6 0.000000 0.000000 0.000000 0.000000 0.000000 0.030232
#
#
# Mechanical properties :
#
#
# Convention : Reuss Voigt Hill
#
# Bulk Modulus (GPa) = 40.67963 55.88995 48.28479
# Shear Modulus (GPa) = 30.05253 35.42064 32.73659
#
# Velocity S-wave (km/s) = 3.57232 3.87827 3.72844
# Velocity P-wave (km/s) = 5.85572 6.61723 6.24809
#
# Compressibility (1/GPa) = 0.02458233
#
# Stress axis : x y z
#
# Youngs Moduli (GPa) = 155.54125 43.12645 104.32278
#
# Poissons Ratio (x) = 0.19666 0.09611
# Poissons Ratio (y) = 0.70927 0.19078
# Poissons Ratio (z) = 0.14329 0.07887
#
# Static dielectric constant tensor:
#      x y z
#    x 4.440460 0.000000 0.000000 
#    y 0.000000 3.671370 0.000000 
#    z 0.000000 0.000000 4.450040 
# 
# 
# High freq. dielectric constant tensor:
#      x y z
#    x 1.949760 0.000000 0.000000 
#    y 0.000000 1.882600 0.000000 
#    z 0.000000 0.000000 1.947230 
# 
# From -- ./inp_files/5408.got.cif
#   From: 2010.03.12/outbox.cif.g09.slc.cpg/sg46_3_cif.got.tgz:5408.got - 2010.04.14 02:56:35.
