data_PCOD8194626
_publ_section_title
;
Structure prediction by ZEFSAII (Michael W. Deem and Ramdas Pophale) SiO2 
 PCOD8194626
Probable space group: P M M M
;
_chemical_formula_sum "Si O2"
_cell_formula_units_Z 52
_cell_length_a 8.880952
_cell_length_b 11.517232
_cell_length_c 29.695267
_cell_angle_alpha 90.000000
_cell_angle_beta 90.000000
_cell_angle_gamma 90.000000
_cell_volume 3037.350231
_symmetry_space_group_name_H-M "P M M M"
_symmetry_group_IT_number 47
_symmetry_cell_setting 'orthorhombic'
loop_
_space_group_symop_operation_xyz
x,y,z
-x,-y,z
x,-y,-z
-x,y,-z
-x,-y,-z
x,y,-z
-x,y,z
x,-y,z
loop_
_atom_site_type_symbol
_atom_site_label
_atom_site_fract_x
_atom_site_fract_y
_atom_site_fract_z
Si Si1 0.325827 0.000000 0.344947
Si Si2 0.171303 0.364028 0.296887
Si Si3 0.676437 0.768964 0.781638
Si Si4 0.334155 0.750751 0.374251
Si Si5 0.500000 0.637792 0.447859
Si Si6 0.827201 0.362924 0.138136
Si Si7 0.178090 0.000000 0.247656
Si Si8 0.330961 0.362201 0.950627
O O1 0.285276 0.886442 0.374837
O O2 0.231571 0.000000 0.299191
O O3 0.500000 0.000000 0.330923
O O4 0.192742 0.500000 0.293170
O O5 0.283448 0.305146 0.262169
O O6 0.212198 0.323346 0.347097
O O7 0.000000 0.327411 0.286053
O O8 0.500000 0.792581 0.782576
O O9 0.723221 0.700207 0.826004
O O10 0.762907 0.889963 0.779733
O O11 0.500000 0.740692 0.350735
O O12 0.351055 0.696187 0.424667
O O13 0.500000 0.500000 0.439699
O O14 0.500000 0.670122 0.500000
O O15 0.800454 0.500000 0.143059
O O16 0.780589 0.317804 0.088406
O O17 0.000000 0.330206 0.146795
O O18 0.000000 0.000000 0.247635
O O19 0.500000 0.316923 0.940819
O O20 0.331045 0.500000 0.951096
O O21 0.276806 0.316952 0.000000
#
# Coordination Sequence:
#
# PCOD8194626 Si02
#       8
#     4   8   8   8   4   8   4   8
#     4  10  18  34  52  78 106 136 172 224 261 312
#     4  11  22  34  50  76 109 140 176 221 267 320
#     4  12  24  37  53  74 102 140 180 220 264 322
#     4   9  19  32  53  77 105 138 178 220 265 312
#     4   9  18  33  55  83 113 148 187 227 272 321
#     4  10  20  33  49  73 107 142 178 222 272 325
#     4  12  24  38  56  76 103 138 177 221 272 316
#     4   8  14  26  45  69  98 134 176 220 268 325
#
# _framework density 17.120186
#
# number of rings (size 3 to 8) (size 9 to 14) (size 15 to 20)
#    0.462    1.462    1.538    4.385    0.000    4.000 
#    0.000    2.308    0.000    0.462    0.000    2.692 
#    0.000    6.154    0.000    0.000    0.000    0.000 
#
# Total GULP energy -644576.056656 kJ/mol
# GULP energy per Si atom -12395.693397 kJ/mol
# Density = 1.708122 g / cm^3
# Si number density = 17.120186 Si / 1000 Ang^3
#
#
#
# Elastic Constant Matrix: (Units=GPa)
#
#
# Indices 1 2 3 4 5 6 
#
# 1 90.2424 42.6815 38.3047 0.0000 0.0000 0.0000
# 2 42.6815 61.0234 35.8001 0.0000 0.0000 0.0000
# 3 38.3047 35.8001 114.9334 0.0000 0.0000 0.0000
# 4 0.0000 0.0000 0.0000 -19.1963 0.0000 0.0000
# 5 0.0000 0.0000 0.0000 0.0000 15.7200 0.0000
# 6 0.0000 0.0000 0.0000 0.0000 0.0000 22.5228
#
#
#
# Elastic Compliance Matrix: (Units=1/GPa)
#
#
# Indices 1 2 3 4 5 6 
#
# 1 0.017089 -0.010537 -0.002413 0.000000 0.000000 0.000000
# 2 -0.010537 0.026548 -0.004758 0.000000 0.000000 0.000000
# 3 -0.002413 -0.004758 0.010987 0.000000 0.000000 0.000000
# 4 0.000000 0.000000 0.000000 -0.052093 0.000000 0.000000
# 5 0.000000 0.000000 0.000000 0.000000 0.063613 0.000000
# 6 0.000000 0.000000 0.000000 0.000000 0.000000 0.044399
#
#
# Mechanical properties :
#
#
# Convention : Reuss Voigt Hill
#
# Bulk Modulus (GPa) = 52.06032 55.53020 53.79526
# Shear Modulus (GPa) = 32.81653 13.77015 23.29334
#
# Velocity S-wave (km/s) = 4.38291 2.83913 3.69260
# Velocity P-wave (km/s) = 7.48919 6.57674 7.04775
#
# Compressibility (1/GPa) = 0.01920849
#
# Stress axis : x y z
#
# Youngs Moduli (GPa) = 58.51644 37.66753 91.01702
#
# Poissons Ratio (x) = 0.39690 0.21966
# Poissons Ratio (y) = 0.61658 0.43303
# Poissons Ratio (z) = 0.14122 0.17921
#
# Static dielectric constant tensor:
#      x y z
#    x 3.216370 0.000000 0.000000 
#    y 0.000000 3.197880 0.000000 
#    z 0.000000 0.000000 3.242430 
# 
# 
# High freq. dielectric constant tensor:
#      x y z
#    x 1.657170 0.000000 0.000000 
#    y 0.000000 1.647990 0.000000 
#    z 0.000000 0.000000 1.650150 
# 
# From -- ./inp_files/34317.got.cif
#   From: 2010.03.12/outbox.cif.g09.slc.cpg/sg47_18_cif.got.tgz:34317.got - 2010.04.14 03:12:58.
