data_PCOD8194162
_publ_section_title
;
Structure prediction by ZEFSAII (Michael W. Deem and Ramdas Pophale) SiO2 
 PCOD8194162
Probable space group: P M M M
;
_chemical_formula_sum "Si O2"
_cell_formula_units_Z 52
_cell_length_a 23.168868
_cell_length_b 8.770370
_cell_length_c 14.093822
_cell_angle_alpha 90.000000
_cell_angle_beta 90.000000
_cell_angle_gamma 90.000000
_cell_volume 2863.858215
_symmetry_space_group_name_H-M "P M M M"
_symmetry_group_IT_number 47
_symmetry_cell_setting 'orthorhombic'
loop_
_space_group_symop_operation_xyz
x,y,z
-x,-y,z
x,-y,-z
-x,y,-z
-x,-y,-z
x,y,-z
-x,y,z
x,-y,z
loop_
_atom_site_type_symbol
_atom_site_label
_atom_site_fract_x
_atom_site_fract_y
_atom_site_fract_z
Si Si1 0.271309 0.824722 0.892545
Si Si2 0.850424 0.321564 0.107431
Si Si3 0.329331 0.321966 0.724766
Si Si4 0.891937 0.821651 0.288521
Si Si5 0.000000 0.680180 0.607740
Si Si6 0.563970 0.319075 0.605966
Si Si7 0.214565 0.324032 0.389818
O O1 0.215526 0.722241 0.871762
O O2 0.321624 0.769563 0.822680
O O3 0.254806 0.000000 0.873181
O O4 0.293289 0.801713 0.000000
O O5 0.857287 0.500000 0.125846
O O6 0.892132 0.231667 0.178819
O O7 0.867734 0.276813 0.000000
O O8 0.334694 0.500000 0.748544
O O9 0.387570 0.255448 0.677231
O O10 0.277187 0.289567 0.652720
O O11 0.831538 0.781005 0.337313
O O12 0.943115 0.738924 0.341932
O O13 0.902737 0.000000 0.293094
O O14 0.000000 0.500000 0.611589
O O15 0.000000 0.739966 0.500000
O O16 0.574578 0.253966 0.500000
O O17 0.500000 0.270634 0.641653
O O18 0.569288 0.500000 0.601712
O O19 0.216009 0.280704 0.500000
O O20 0.196990 0.500000 0.374766
#
# Coordination Sequence:
#
# PCOD8194162 Si02
#       7
#     8   8   8   8   4   8   8
#     4  10  20  33  50  75 107 140 174 217 272 328
#     4  10  20  36  59  84 110 142 180 221 267 323
#     4  10  18  29  50  78 106 138 178 222 269 322
#     4  12  24  38  58  84 114 145 179 223 272 322
#     4  11  25  45  66  83 106 147 193 230 266 315
#     4   8  14  26  46  74 107 141 178 221 268 317
#     4  10  20  33  50  75 108 143 179 220 267 320
#
# _framework density 18.157323000000002
#
# number of rings (size 3 to 8) (size 9 to 14) (size 15 to 20)
#    0.000    1.923    1.538    3.923    0.000    6.462 
#    0.000    0.385    0.000    4.615    0.000    4.308 
#    0.000    0.000    0.000    0.000    0.000    0.000 
#
# Total GULP energy -644898.044255 kJ/mol
# GULP energy per Si atom -12401.885466 kJ/mol
# Density = 1.811600 g / cm^3
# Si number density = 18.157323 Si / 1000 Ang^3
#
#
#
# Elastic Constant Matrix: (Units=GPa)
#
#
# Indices 1 2 3 4 5 6 
#
# 1 98.4633 23.6834 57.1366 0.0000 0.0000 0.0000
# 2 23.6834 44.6929 34.2830 0.0000 0.0000 0.0000
# 3 57.1366 34.2830 134.5888 0.0000 0.0000 0.0000
# 4 0.0000 0.0000 0.0000 20.2601 0.0000 0.0000
# 5 0.0000 0.0000 0.0000 0.0000 112.2064 0.0000
# 6 0.0000 0.0000 0.0000 0.0000 0.0000 -26.7282
#
#
#
# Elastic Compliance Matrix: (Units=1/GPa)
#
#
# Indices 1 2 3 4 5 6 
#
# 1 0.013910 -0.003531 -0.005006 0.000000 0.000000 0.000000
# 2 -0.003531 0.028705 -0.005813 0.000000 0.000000 0.000000
# 3 -0.005006 -0.005813 0.011036 0.000000 0.000000 0.000000
# 4 0.000000 0.000000 0.000000 0.049358 0.000000 0.000000
# 5 0.000000 0.000000 0.000000 0.000000 0.008912 0.000000
# 6 0.000000 0.000000 0.000000 0.000000 0.000000 -0.037414
#
#
# Mechanical properties :
#
#
# Convention : Reuss Voigt Hill
#
# Bulk Modulus (GPa) = 40.07803 56.43902 48.25852
# Shear Modulus (GPa) = 44.83326 31.99046 38.41186
#
# Velocity S-wave (km/s) = 4.97445 4.20199 4.60445
# Velocity P-wave (km/s) = 7.42389 7.39548 7.40970
#
# Compressibility (1/GPa) = 0.02495133
#
# Stress axis : x y z
#
# Youngs Moduli (GPa) = 71.88952 34.83706 90.61474
#
# Poissons Ratio (x) = 0.12303 0.45359
# Poissons Ratio (y) = 0.25387 0.52671
# Poissons Ratio (z) = 0.35986 0.20250
#
# Static dielectric constant tensor:
#      x y z
#    x 3.444720 0.000000 0.000000 
#    y 0.000000 3.211020 0.000000 
#    z 0.000000 0.000000 3.614420 
# 
# 
# High freq. dielectric constant tensor:
#      x y z
#    x 1.686340 0.000000 0.000000 
#    y 0.000000 1.690800 0.000000 
#    z 0.000000 0.000000 1.715260 
# 
# From -- ./inp_files/25010.got.cif
#   From: 2010.03.12/outbox.cif.g09.slc.cpg/sg47_13_cif.got.tgz:25010.got - 2010.04.14 03:12:58.
