data_PCOD8194394
_publ_section_title
;
Structure prediction by ZEFSAII (Michael W. Deem and Ramdas Pophale) SiO2 
 PCOD8194394
Probable space group: P M M M
;
_chemical_formula_sum "Si O2"
_cell_formula_units_Z 52
_cell_length_a 14.423889
_cell_length_b 17.651426
_cell_length_c 11.721349
_cell_angle_alpha 90.000000
_cell_angle_beta 90.000000
_cell_angle_gamma 90.000000
_cell_volume 2984.281352
_symmetry_space_group_name_H-M "P M M M"
_symmetry_group_IT_number 47
_symmetry_cell_setting 'orthorhombic'
loop_
_space_group_symop_operation_xyz
x,y,z
-x,-y,z
x,-y,-z
-x,y,-z
-x,-y,-z
x,y,-z
-x,y,z
x,-y,z
loop_
_atom_site_type_symbol
_atom_site_label
_atom_site_fract_x
_atom_site_fract_y
_atom_site_fract_z
Si Si1 0.321696 0.415701 0.201448
Si Si2 0.893935 0.910937 0.369432
Si Si3 0.396688 0.261560 0.866773
Si Si4 0.000000 0.583701 0.635853
Si Si5 0.810324 0.651020 0.365777
Si Si6 0.212693 0.795823 0.776515
Si Si7 0.822283 0.416441 0.000000
Si Si8 0.894768 0.256168 0.000000
O O1 0.367934 0.500000 0.196535
O O2 0.394584 0.348295 0.180154
O O3 0.272100 0.403666 0.323186
O O4 0.241207 0.406853 0.109823
O O5 0.868308 0.889055 0.500000
O O6 0.822580 0.874018 0.278937
O O7 0.000000 0.884882 0.344293
O O8 0.884747 0.000000 0.351779
O O9 0.500000 0.229952 0.842645
O O10 0.322531 0.205111 0.807670
O O11 0.374071 0.264061 0.000000
O O12 0.909098 0.624344 0.683454
O O13 0.000000 0.500000 0.687003
O O14 0.000000 0.582713 0.500000
O O15 0.807494 0.648853 0.500000
O O16 0.799699 0.735669 0.323219
O O17 0.154865 0.776772 0.888810
O O18 0.870318 0.500000 0.000000
O O19 0.895292 0.347956 0.000000
O O20 0.000000 0.227629 0.000000
#
# Coordination Sequence:
#
# PCOD8194394 Si02
#       8
#     8   8   8   4   8   8   4   4
#     4  10  18  31  49  67  97 129 171 229 285 331
#     4   9  19  36  60  90 119 148 181 212 247 304
#     4  10  19  34  55  77 101 134 183 234 278 323
#     4   9  18  30  40  59  92 128 175 223 255 294
#     4  10  20  30  46  69  94 134 181 219 261 316
#     4  11  20  36  54  78 110 142 172 221 273 320
#     4  10  18  33  46  64  97 141 183 224 273 320
#     4  12  22  33  49  76 108 145 183 217 269 333
#
# _framework density 17.424630000000001
#
# number of rings (size 3 to 8) (size 9 to 14) (size 15 to 20)
#    0.000    1.923    4.615    1.846    2.154    1.385 
#    0.000    1.154    0.000   13.385    0.000    6.462 
#    0.000    0.000    0.000    0.000    0.000    0.000 
#
# Total GULP energy -644499.549960 kJ/mol
# GULP energy per Si atom -12394.222115 kJ/mol
# Density = 1.738497 g / cm^3
# Si number density = 17.424630 Si / 1000 Ang^3
#
#
#
# Elastic Constant Matrix: (Units=GPa)
#
#
# Indices 1 2 3 4 5 6 
#
# 1 109.5447 39.6033 43.9574 0.0000 0.0000 0.0000
# 2 39.6033 66.1215 34.1235 0.0000 0.0000 0.0000
# 3 43.9574 34.1235 82.2442 0.0000 0.0000 0.0000
# 4 0.0000 0.0000 0.0000 6.0584 0.0000 0.0000
# 5 0.0000 0.0000 0.0000 0.0000 23.8338 0.0000
# 6 0.0000 0.0000 0.0000 0.0000 0.0000 18.7316
#
#
#
# Elastic Compliance Matrix: (Units=1/GPa)
#
#
# Indices 1 2 3 4 5 6 
#
# 1 0.012942 -0.005321 -0.004709 0.000000 0.000000 0.000000
# 2 -0.005321 0.021432 -0.006048 0.000000 0.000000 0.000000
# 3 -0.004709 -0.006048 0.017185 0.000000 0.000000 0.000000
# 4 0.000000 0.000000 0.000000 0.165061 0.000000 0.000000
# 5 0.000000 0.000000 0.000000 0.000000 0.041957 0.000000
# 6 0.000000 0.000000 0.000000 0.000000 0.000000 0.053386
#
#
# Mechanical properties :
#
#
# Convention : Reuss Voigt Hill
#
# Bulk Modulus (GPa) = 51.54136 54.80878 53.17507
# Shear Modulus (GPa) = 14.26169 19.07317 16.66743
#
# Velocity S-wave (km/s) = 2.86401 3.31208 3.09616
# Velocity P-wave (km/s) = 6.37029 6.79335 6.58521
#
# Compressibility (1/GPa) = 0.01940189
#
# Stress axis : x y z
#
# Youngs Moduli (GPa) = 77.26618 46.65886 58.18884
#
# Poissons Ratio (x) = 0.24829 0.27404
# Poissons Ratio (y) = 0.41116 0.35194
# Poissons Ratio (z) = 0.36388 0.28220
#
# Static dielectric constant tensor:
#      x y z
#    x 3.171070 0.000000 0.000000 
#    y 0.000000 3.128690 0.000000 
#    z 0.000000 0.000000 3.384850 
# 
# 
# High freq. dielectric constant tensor:
#      x y z
#    x 1.655470 0.000000 0.000000 
#    y 0.000000 1.649960 0.000000 
#    z 0.000000 0.000000 1.678190 
# 
# From -- ./inp_files/17843.got.cif
#   From: 2010.03.12/outbox.cif.g09.slc.cpg/sg47_9_cif.got.tgz:17843.got - 2010.04.14 03:12:58.
