data_PCOD8194691
_publ_section_title
;
Structure prediction by ZEFSAII (Michael W. Deem and Ramdas Pophale) SiO2 
 PCOD8194691
Probable space group: P M M M
;
_chemical_formula_sum "Si O2"
_cell_formula_units_Z 52
_cell_length_a 12.614911
_cell_length_b 9.210517
_cell_length_c 26.794319
_cell_angle_alpha 90.000000
_cell_angle_beta 90.000000
_cell_angle_gamma 90.000000
_cell_volume 3113.227965
_symmetry_space_group_name_H-M "P M M M"
_symmetry_group_IT_number 47
_symmetry_cell_setting 'orthorhombic'
loop_
_space_group_symop_operation_xyz
x,y,z
-x,-y,z
x,-y,-z
-x,y,-z
-x,-y,-z
x,y,-z
-x,y,z
x,-y,z
loop_
_atom_site_type_symbol
_atom_site_label
_atom_site_fract_x
_atom_site_fract_y
_atom_site_fract_z
Si Si1 0.373990 0.662501 0.445050
Si Si2 0.310926 0.669139 0.259572
Si Si3 0.819785 0.830775 0.884495
Si Si4 0.620497 0.668873 0.850907
Si Si5 0.377951 0.158754 0.353826
Si Si6 0.119555 0.836505 0.772331
Si Si7 0.000000 0.333960 0.940974
O O1 0.341512 0.722671 0.500000
O O2 0.500000 0.658201 0.440333
O O3 0.329098 0.500000 0.438224
O O4 0.323480 0.761561 0.401283
O O5 0.314156 0.500000 0.270905
O O6 0.367690 0.708621 0.207492
O O7 0.371139 0.748995 0.303624
O O8 0.189750 0.722932 0.258224
O O9 0.700936 0.763728 0.884307
O O10 0.873659 0.806973 0.831116
O O11 0.893452 0.747455 0.923643
O O12 0.812705 0.000000 0.899191
O O13 0.500000 0.704355 0.867339
O O14 0.647486 0.500000 0.859232
O O15 0.500000 0.138208 0.366680
O O16 0.324585 0.000000 0.346875
O O17 0.000000 0.813018 0.754389
O O18 0.158593 0.000000 0.760886
O O19 0.000000 0.500000 0.920883
O O20 0.000000 0.331793 0.000000
#
# Coordination Sequence:
#
# PCOD8194691 Si02
#       7
#     8   8   8   8   8   8   4
#     4   8  14  25  40  56  75 104 143 185 229 275
#     4  10  19  29  43  65  91 122 159 194 228 270
#     4  10  19  33  53  77 102 129 162 199 242 286
#     4   9  18  32  49  71 100 134 169 201 235 281
#     4  10  19  28  39  57  84 118 152 188 230 273
#     4   9  17  31  48  67  94 123 151 185 228 277
#     4  11  23  37  55  79 105 131 161 199 244 291
#
# _framework density 16.702919999999999
#
# number of rings (size 3 to 8) (size 9 to 14) (size 15 to 20)
#    0.000    2.538    0.769    2.538    0.000    4.308 
#    0.000    1.538    0.000    0.462    0.000    3.231 
#    0.000    0.615    0.000    6.462    0.000    3.077 
#
# Total GULP energy -644648.284871 kJ/mol
# GULP energy per Si atom -12397.082401 kJ/mol
# Density = 1.666490 g / cm^3
# Si number density = 16.702920 Si / 1000 Ang^3
#
#
#
# Elastic Constant Matrix: (Units=GPa)
#
#
# Indices 1 2 3 4 5 6 
#
# 1 75.0925 41.9332 25.3691 0.0000 0.0000 0.0000
# 2 41.9332 112.2101 45.8568 0.0000 0.0000 0.0000
# 3 25.3691 45.8568 62.8402 0.0000 0.0000 0.0000
# 4 0.0000 0.0000 0.0000 24.7680 0.0000 0.0000
# 5 0.0000 0.0000 0.0000 0.0000 12.6979 0.0000
# 6 0.0000 0.0000 0.0000 0.0000 0.0000 26.8833
#
#
#
# Elastic Compliance Matrix: (Units=1/GPa)
#
#
# Indices 1 2 3 4 5 6 
#
# 1 0.017276 -0.005138 -0.003225 0.000000 0.000000 0.000000
# 2 -0.005138 0.014227 -0.008308 0.000000 0.000000 0.000000
# 3 -0.003225 -0.008308 0.023278 0.000000 0.000000 0.000000
# 4 0.000000 0.000000 0.000000 0.040375 0.000000 0.000000
# 5 0.000000 0.000000 0.000000 0.000000 0.078753 0.000000
# 6 0.000000 0.000000 0.000000 0.000000 0.000000 0.037198
#
#
# Mechanical properties :
#
#
# Convention : Reuss Voigt Hill
#
# Bulk Modulus (GPa) = 46.64377 52.94012 49.79195
# Shear Modulus (GPa) = 19.87329 22.00208 20.93769
#
# Velocity S-wave (km/s) = 3.45310 3.63334 3.54437
# Velocity P-wave (km/s) = 6.62455 7.02606 6.82826
#
# Compressibility (1/GPa) = 0.02143909
#
# Stress axis : x y z
#
# Youngs Moduli (GPa) = 57.88514 70.28855 42.95944
#
# Poissons Ratio (x) = 0.36114 0.13854
# Poissons Ratio (y) = 0.29742 0.35690
# Poissons Ratio (z) = 0.18667 0.58394
#
# Static dielectric constant tensor:
#      x y z
#    x 2.931400 0.000000 0.000000 
#    y 0.000000 3.404720 0.000000 
#    z 0.000000 0.000000 2.980190 
# 
# 
# High freq. dielectric constant tensor:
#      x y z
#    x 1.610660 0.000000 0.000000 
#    y 0.000000 1.656370 0.000000 
#    z 0.000000 0.000000 1.622660 
# 
# From -- ./inp_files/33255.got.cif
#   From: 2010.03.12/outbox.cif.g09.slc.cpg/sg47_17_cif.got.tgz:33255.got - 2010.04.14 03:12:58.
