data_PCOD8194015
_publ_section_title
;
Structure prediction by ZEFSAII (Michael W. Deem and Ramdas Pophale) SiO2 
 PCOD8194015
Probable space group: P M M M
;
_chemical_formula_sum "Si O2"
_cell_formula_units_Z 44
_cell_length_a 13.873307
_cell_length_b 23.123497
_cell_length_c 9.113211
_cell_angle_alpha 90.000000
_cell_angle_beta 90.000000
_cell_angle_gamma 90.000000
_cell_volume 2923.512373
_symmetry_space_group_name_H-M "P M M M"
_symmetry_group_IT_number 47
_symmetry_cell_setting 'orthorhombic'
loop_
_space_group_symop_operation_xyz
x,y,z
-x,-y,z
x,-y,-z
-x,y,-z
-x,-y,-z
x,y,-z
-x,y,z
x,-y,z
loop_
_atom_site_type_symbol
_atom_site_label
_atom_site_fract_x
_atom_site_fract_y
_atom_site_fract_z
Si Si1 0.393975 0.655113 0.836299
Si Si2 0.720826 0.235446 0.174259
Si Si3 0.500000 0.434263 0.327233
Si Si4 0.213880 0.063087 0.328723
Si Si5 0.609096 0.137147 0.669653
Si Si6 0.889909 0.823644 0.326262
O O1 0.500000 0.685790 0.838646
O O2 0.314979 0.700657 0.777832
O O3 0.403189 0.597968 0.733558
O O4 0.365591 0.634732 0.000000
O O5 0.642029 0.190293 0.231037
O O6 0.825012 0.224664 0.247151
O O7 0.728924 0.230060 0.000000
O O8 0.500000 0.500000 0.271154
O O9 0.500000 0.430585 0.500000
O O10 0.195341 0.056790 0.500000
O O11 0.324076 0.081701 0.296688
O O12 0.141491 0.112522 0.268419
O O13 0.194899 0.000000 0.254488
O O14 0.620308 0.155913 0.500000
O O15 0.500000 0.119839 0.708309
O O16 0.872988 0.818965 0.500000
O O17 0.000000 0.812505 0.282308
#
# Coordination Sequence:
#
# PCOD8194015 Si02
#       6
#     8   8   4   8   8   8
#     4   8  16  28  41  60  87 120 151 176 203 237
#     4  10  18  29  44  62  84 109 144 180 211 253
#     4   9  17  27  41  65  95 125 154 179 200 227
#     4   8  14  25  41  61  82 103 132 172 216 263
#     4   9  17  27  40  60  84 109 137 171 214 259
#     4   9  18  31  45  62  83 105 133 175 226 273
#
# _framework density 15.05039
#
# number of rings (size 3 to 8) (size 9 to 14) (size 15 to 20)
#    0.545    2.636    0.000    2.182    0.000    4.364 
#    0.000    3.636    0.000    8.727    0.000   10.182 
#    0.000    0.727    0.000    8.000    0.000    5.818 
#
# Total GULP energy -545129.379522 kJ/mol
# GULP energy per Si atom -12389.304080 kJ/mol
# Density = 1.501613 g / cm^3
# Si number density = 15.050390 Si / 1000 Ang^3
#
#
#
# Elastic Constant Matrix: (Units=GPa)
#
#
# Indices 1 2 3 4 5 6 
#
# 1 97.5276 47.4478 28.3762 0.0000 0.0000 0.0000
# 2 47.4478 116.5416 40.5382 0.0000 0.0000 0.0000
# 3 28.3762 40.5382 43.8407 0.0000 0.0000 0.0000
# 4 0.0000 0.0000 0.0000 10.8256 0.0000 0.0000
# 5 0.0000 0.0000 0.0000 0.0000 18.3888 0.0000
# 6 0.0000 0.0000 0.0000 0.0000 0.0000 15.5965
#
#
#
# Elastic Compliance Matrix: (Units=1/GPa)
#
#
# Indices 1 2 3 4 5 6 
#
# 1 0.013611 -0.003651 -0.005433 0.000000 0.000000 0.000000
# 2 -0.003651 0.013629 -0.010239 0.000000 0.000000 0.000000
# 3 -0.005433 -0.010239 0.035794 0.000000 0.000000 0.000000
# 4 0.000000 0.000000 0.000000 0.092374 0.000000 0.000000
# 5 0.000000 0.000000 0.000000 0.000000 0.054381 0.000000
# 6 0.000000 0.000000 0.000000 0.000000 0.000000 0.064117
#
#
# Mechanical properties :
#
#
# Convention : Reuss Voigt Hill
#
# Bulk Modulus (GPa) = 41.00592 54.51490 47.76041
# Shear Modulus (GPa) = 15.59183 18.39870 16.99526
#
# Velocity S-wave (km/s) = 3.22215 3.50018 3.36404
# Velocity P-wave (km/s) = 6.41466 7.25502 6.84774
#
# Compressibility (1/GPa) = 0.02438673
#
# Stress axis : x y z
#
# Youngs Moduli (GPa) = 73.47099 73.37465 27.93767
#
# Poissons Ratio (x) = 0.26792 0.15179
# Poissons Ratio (y) = 0.26828 0.28604
# Poissons Ratio (z) = 0.39919 0.75125
#
# Static dielectric constant tensor:
#      x y z
#    x 2.846670 0.000000 0.000000 
#    y 0.000000 2.858020 0.000000 
#    z 0.000000 0.000000 2.728480 
# 
# 
# High freq. dielectric constant tensor:
#      x y z
#    x 1.560060 0.000000 0.000000 
#    y 0.000000 1.555270 0.000000 
#    z 0.000000 0.000000 1.562150 
# 
# From -- ./inp_files/7966.got.cif
#   From: 2010.03.12/outbox.cif.g09.slc.cpg/sg47_4_cif.got.tgz:7966.got - 2010.04.14 03:12:58.
