data_PCOD8194092
_publ_section_title
;
Structure prediction by ZEFSAII (Michael W. Deem and Ramdas Pophale) SiO2 
 PCOD8194092
Probable space group: P M M M
;
_chemical_formula_sum "Si O2"
_cell_formula_units_Z 56
_cell_length_a 20.280590
_cell_length_b 9.493156
_cell_length_c 15.289162
_cell_angle_alpha 90.000000
_cell_angle_beta 90.000000
_cell_angle_gamma 90.000000
_cell_volume 2943.573506
_symmetry_space_group_name_H-M "P M M M"
_symmetry_group_IT_number 47
_symmetry_cell_setting 'orthorhombic'
loop_
_space_group_symop_operation_xyz
x,y,z
-x,-y,z
x,-y,-z
-x,y,-z
-x,-y,-z
x,y,-z
-x,y,z
x,-y,z
loop_
_atom_site_type_symbol
_atom_site_label
_atom_site_fract_x
_atom_site_fract_y
_atom_site_fract_z
Si Si1 0.364602 0.340451 0.596650
Si Si2 0.072923 0.664224 0.218419
Si Si3 0.882670 0.659795 0.593714
Si Si4 0.574165 0.336604 0.777244
Si Si5 0.805424 0.840569 0.827674
Si Si6 0.238298 0.161227 0.631781
Si Si7 0.670292 0.835907 0.098777
O O1 0.397728 0.323682 0.500000
O O2 0.337669 0.500000 0.608255
O O3 0.416403 0.307013 0.673725
O O4 0.305618 0.231420 0.602999
O O5 0.085588 0.500000 0.203408
O O6 0.073929 0.703030 0.322155
O O7 0.129053 0.745556 0.164013
O O8 0.000000 0.707158 0.184312
O O9 0.921596 0.671973 0.500000
O O10 0.857641 0.500000 0.607416
O O11 0.820614 0.760862 0.583415
O O12 0.500000 0.290019 0.801485
O O13 0.585400 0.500000 0.798921
O O14 0.625314 0.250092 0.835002
O O15 0.770717 0.823511 0.734807
O O16 0.747882 0.793163 0.894569
O O17 0.828626 0.000000 0.845308
O O18 0.239107 0.000000 0.601331
O O19 0.663037 0.000000 0.123208
O O20 0.646906 0.805199 0.000000
#
# Coordination Sequence:
#
# PCOD8194092 Si02
#       7
#     8   8   8   8   8   8   8
#     4  10  20  33  51  75 105 144 187 226 266 314
#     4   9  18  31  48  72 101 137 179 219 264 319
#     4   9  17  28  42  63  95 134 175 220 269 318
#     4  10  22  39  58  82 114 149 183 224 272 321
#     4   9  18  33  53  77 104 135 173 218 267 319
#     4  10  18  29  47  71 100 134 175 224 273 317
#     4  10  21  39  63  88 112 140 178 223 273 331
#
# _framework density 19.024495000000002
#
# number of rings (size 3 to 8) (size 9 to 14) (size 15 to 20)
#    0.000    2.429    1.429    0.857    0.000    5.143 
#    0.000    4.286    0.000    0.429    0.000    9.000 
#    0.000    0.000    0.000    0.000    0.000    0.000 
#
# Total GULP energy -694032.558179 kJ/mol
# GULP energy per Si atom -12393.438539 kJ/mol
# Density = 1.898119 g / cm^3
# Si number density = 19.024495 Si / 1000 Ang^3
#
#
#
# Elastic Constant Matrix: (Units=GPa)
#
#
# Indices 1 2 3 4 5 6 
#
# 1 123.3445 61.8948 42.6224 0.0000 0.0000 0.0000
# 2 61.8948 83.9154 34.3868 0.0000 0.0000 0.0000
# 3 42.6224 34.3868 73.5878 0.0000 0.0000 0.0000
# 4 0.0000 0.0000 0.0000 14.0499 0.0000 0.0000
# 5 0.0000 0.0000 0.0000 0.0000 2.1223 0.0000
# 6 0.0000 0.0000 0.0000 0.0000 0.0000 20.3616
#
#
#
# Elastic Compliance Matrix: (Units=1/GPa)
#
#
# Indices 1 2 3 4 5 6 
#
# 1 0.013758 -0.008512 -0.003991 0.000000 0.000000 0.000000
# 2 -0.008512 0.020006 -0.004418 0.000000 0.000000 0.000000
# 3 -0.003991 -0.004418 0.017965 0.000000 0.000000 0.000000
# 4 0.000000 0.000000 0.000000 0.071175 0.000000 0.000000
# 5 0.000000 0.000000 0.000000 0.000000 0.471191 0.000000
# 6 0.000000 0.000000 0.000000 0.000000 0.000000 0.049112
#
#
# Mechanical properties :
#
#
# Convention : Reuss Voigt Hill
#
# Bulk Modulus (GPa) = 55.90871 62.07287 58.99079
# Shear Modulus (GPa) = 7.32052 16.76967 12.04510
#
# Velocity S-wave (km/s) = 1.96375 2.97219 2.51895
# Velocity P-wave (km/s) = 5.88160 6.66913 6.28771
#
# Compressibility (1/GPa) = 0.01788630
#
# Stress axis : x y z
#
# Youngs Moduli (GPa) = 72.68501 49.98559 55.66272
#
# Poissons Ratio (x) = 0.42549 0.22215
# Poissons Ratio (y) = 0.61872 0.24592
# Poissons Ratio (z) = 0.29009 0.22084
#
# Static dielectric constant tensor:
#      x y z
#    x 3.383900 0.000000 0.000000 
#    y 0.000000 3.475250 0.000000 
#    z 0.000000 0.000000 3.520630 
# 
# 
# High freq. dielectric constant tensor:
#      x y z
#    x 1.722990 0.000000 0.000000 
#    y 0.000000 1.733880 0.000000 
#    z 0.000000 0.000000 1.732840 
# 
# From -- ./inp_files/7313.got.cif
#   From: 2010.03.12/outbox.cif.g09.slc.cpg/sg47_4_cif.got.tgz:7313.got - 2010.04.14 03:12:58.
