data_PCOD8194311
_publ_section_title
;
Structure prediction by ZEFSAII (Michael W. Deem and Ramdas Pophale) SiO2 
 PCOD8194311
Probable space group: P M M M
;
_chemical_formula_sum "Si O2"
_cell_formula_units_Z 64
_cell_length_a 19.344821
_cell_length_b 9.368909
_cell_length_c 20.935903
_cell_angle_alpha 90.000000
_cell_angle_beta 90.000000
_cell_angle_gamma 90.000000
_cell_volume 3794.420287
_symmetry_space_group_name_H-M "P M M M"
_symmetry_group_IT_number 47
_symmetry_cell_setting 'orthorhombic'
loop_
_space_group_symop_operation_xyz
x,y,z
-x,-y,z
x,-y,-z
-x,y,-z
-x,-y,-z
x,y,-z
-x,y,z
x,-y,z
loop_
_atom_site_type_symbol
_atom_site_label
_atom_site_fract_x
_atom_site_fract_y
_atom_site_fract_z
Si Si1 0.211758 0.667868 0.930274
Si Si2 0.923022 0.662773 0.861222
Si Si3 0.577698 0.834322 0.383051
Si Si4 0.203081 0.331965 0.686772
Si Si5 0.295113 0.668593 0.808996
Si Si6 0.921515 0.833566 0.732891
Si Si7 0.297564 0.336444 0.428789
Si Si8 0.578211 0.834607 0.235938
O O1 0.222755 0.500000 0.933105
O O2 0.131546 0.703613 0.915864
O O3 0.259912 0.728711 0.873767
O O4 0.230293 0.734469 0.000000
O O5 0.909815 0.500000 0.836960
O O6 0.911941 0.768495 0.802787
O O7 0.000000 0.678442 0.890072
O O8 0.500000 0.799282 0.406037
O O9 0.630554 0.747093 0.425948
O O10 0.586513 0.789911 0.309465
O O11 0.593783 0.000000 0.392135
O O12 0.187471 0.500000 0.685600
O O13 0.247569 0.288074 0.748879
O O14 0.130812 0.247042 0.685524
O O15 0.243062 0.279930 0.623312
O O16 0.305661 0.500000 0.810769
O O17 0.369945 0.740689 0.805815
O O18 0.000000 0.809629 0.708426
O O19 0.902915 0.000000 0.735729
O O20 0.266305 0.317382 0.500000
O O21 0.314807 0.500000 0.413547
O O22 0.500000 0.803763 0.212885
O O23 0.596493 0.000000 0.226683
#
# Coordination Sequence:
#
# PCOD8194311 Si02
#       8
#     8   8   8   8   8   8   8   8
#     4   9  17  29  45  69 101 130 159 200 243 283
#     4   9  16  28  47  70  98 132 166 196 232 281
#     4   9  18  32  49  71 100 133 167 199 234 283
#     4  10  19  33  52  74  98 126 163 203 240 284
#     4  10  18  30  50  75  97 124 163 202 242 285
#     4  10  20  32  49  75 102 127 160 202 245 286
#     4  10  21  35  50  71 100 131 162 200 245 289
#     4   9  18  32  50  73  99 126 159 201 246 287
#
# _framework density 16.866872000000001
#
# number of rings (size 3 to 8) (size 9 to 14) (size 15 to 20)
#    0.000    2.500    2.500    1.125    0.000    3.000 
#    0.000    3.750    0.000    2.250    0.000    7.000 
#    0.000    0.000    0.000    0.000    0.000    0.000 
#
# Total GULP energy -793461.589875 kJ/mol
# GULP energy per Si atom -12397.837342 kJ/mol
# Density = 1.682848 g / cm^3
# Si number density = 16.866872 Si / 1000 Ang^3
#
#
#
# Elastic Constant Matrix: (Units=GPa)
#
#
# Indices 1 2 3 4 5 6 
#
# 1 108.9834 44.4361 60.4485 0.0000 0.0000 0.0000
# 2 44.4361 48.4018 31.3737 0.0000 0.0000 0.0000
# 3 60.4485 31.3737 109.8078 0.0000 0.0000 0.0000
# 4 0.0000 0.0000 0.0000 12.4100 0.0000 0.0000
# 5 0.0000 0.0000 0.0000 0.0000 22.3884 0.0000
# 6 0.0000 0.0000 0.0000 0.0000 0.0000 30.1683
#
#
#
# Elastic Compliance Matrix: (Units=1/GPa)
#
#
# Indices 1 2 3 4 5 6 
#
# 1 0.017545 -0.012085 -0.006206 0.000000 0.000000 0.000000
# 2 -0.012085 0.033681 -0.002970 0.000000 0.000000 0.000000
# 3 -0.006206 -0.002970 0.013372 0.000000 0.000000 0.000000
# 4 0.000000 0.000000 0.000000 0.080580 0.000000 0.000000
# 5 0.000000 0.000000 0.000000 0.000000 0.044666 0.000000
# 6 0.000000 0.000000 0.000000 0.000000 0.000000 0.033147
#
#
# Mechanical properties :
#
#
# Convention : Reuss Voigt Hill
#
# Bulk Modulus (GPa) = 45.29929 59.96773 52.63351
# Shear Modulus (GPa) = 18.32360 21.72232 20.02296
#
# Velocity S-wave (km/s) = 3.29958 3.59258 3.44920
# Velocity P-wave (km/s) = 6.43674 7.26909 6.86554
#
# Compressibility (1/GPa) = 0.02207540
#
# Stress axis : x y z
#
# Youngs Moduli (GPa) = 56.99535 29.69052 74.78536
#
# Poissons Ratio (x) = 0.35882 0.46409
# Poissons Ratio (y) = 0.68881 0.22213
# Poissons Ratio (z) = 0.35369 0.08819
#
# Static dielectric constant tensor:
#      x y z
#    x 3.252320 0.000000 0.000000 
#    y 0.000000 2.991870 0.000000 
#    z 0.000000 0.000000 3.142180 
# 
# 
# High freq. dielectric constant tensor:
#      x y z
#    x 1.652420 0.000000 0.000000 
#    y 0.000000 1.634440 0.000000 
#    z 0.000000 0.000000 1.628360 
# 
# From -- ./inp_files/11790.got.cif
#   From: 2010.03.12/outbox.cif.g09.slc.cpg/sg47_6_cif.got.tgz:11790.got - 2010.04.14 03:12:58.
