data_PCOD8194885
_publ_section_title
;
Structure prediction by ZEFSAII (Michael W. Deem and Ramdas Pophale) SiO2 
 PCOD8194885
Probable space group: P M M M
;
_chemical_formula_sum "Si O2"
_cell_formula_units_Z 56
_cell_length_a 19.036420
_cell_length_b 9.607973
_cell_length_c 18.839419
_cell_angle_alpha 90.000000
_cell_angle_beta 90.000000
_cell_angle_gamma 90.000000
_cell_volume 3445.756287
_symmetry_space_group_name_H-M "P M M M"
_symmetry_group_IT_number 47
_symmetry_cell_setting 'orthorhombic'
loop_
_space_group_symop_operation_xyz
x,y,z
-x,-y,z
x,-y,-z
-x,y,-z
-x,-y,-z
x,y,-z
-x,y,z
x,-y,z
loop_
_atom_site_type_symbol
_atom_site_label
_atom_site_fract_x
_atom_site_fract_y
_atom_site_fract_z
Si Si1 0.706939 0.661294 0.697714
Si Si2 0.778769 0.837281 0.418792
Si Si3 0.920904 0.839255 0.198247
Si Si4 0.336791 0.334507 0.921403
Si Si5 0.578056 0.665615 0.789687
Si Si6 0.924169 0.164872 0.360073
Si Si7 0.203287 0.660284 0.163741
O O1 0.705064 0.500000 0.675022
O O2 0.724054 0.753743 0.629337
O O3 0.630774 0.710932 0.726845
O O4 0.764722 0.686287 0.758295
O O5 0.758271 0.810106 0.500000
O O6 0.858432 0.780803 0.406194
O O7 0.773841 0.000000 0.399125
O O8 0.914793 0.786826 0.279128
O O9 0.866790 0.750028 0.151680
O O10 0.000000 0.815191 0.169859
O O11 0.899605 0.000000 0.192088
O O12 0.341231 0.500000 0.922863
O O13 0.394647 0.276555 0.865867
O O14 0.259313 0.290889 0.895197
O O15 0.350784 0.272435 0.000000
O O16 0.500000 0.724960 0.774773
O O17 0.577633 0.500000 0.793560
O O18 0.000000 0.222014 0.388889
O O19 0.926830 0.000000 0.363163
O O20 0.183178 0.500000 0.153553
#
# Coordination Sequence:
#
# PCOD8194885 Si02
#       7
#     8   8   8   8   8   8   8
#     4   9  17  29  44  63  88 115 142 175 215 256
#     4  10  19  29  44  65  86 112 147 183 217 257
#     4   9  16  26  42  62  82 108 145 187 225 257
#     4   8  14  24  39  63  94 121 142 169 209 255
#     4   8  14  25  43  67  91 115 144 175 207 249
#     4   8  14  25  40  59  83 108 136 174 218 258
#     4   9  16  26  42  63  86 114 146 177 212 256
#
# _framework density 16.251874999999998
#
# number of rings (size 3 to 8) (size 9 to 14) (size 15 to 20)
#    0.000    3.286    1.429    2.571    0.000    1.143 
#    0.000    2.857    0.000    2.143    0.000    7.000 
#    0.000    0.000    0.000    6.286    0.000    6.286 
#
# Total GULP energy -693969.763005 kJ/mol
# GULP energy per Si atom -12392.317197 kJ/mol
# Density = 1.621488 g / cm^3
# Si number density = 16.251875 Si / 1000 Ang^3
#
#
#
# Elastic Constant Matrix: (Units=GPa)
#
#
# Indices 1 2 3 4 5 6 
#
# 1 135.1157 40.3901 58.4562 0.0000 0.0000 0.0000
# 2 40.3901 33.1337 26.0219 0.0000 0.0000 0.0000
# 3 58.4562 26.0219 85.5886 0.0000 0.0000 0.0000
# 4 0.0000 0.0000 0.0000 13.0102 0.0000 0.0000
# 5 0.0000 0.0000 0.0000 0.0000 18.1414 0.0000
# 6 0.0000 0.0000 0.0000 0.0000 0.0000 14.4215
#
#
#
# Elastic Compliance Matrix: (Units=1/GPa)
#
#
# Indices 1 2 3 4 5 6 
#
# 1 0.013350 -0.011971 -0.005478 0.000000 0.000000 0.000000
# 2 -0.011971 0.050382 -0.007142 0.000000 0.000000 0.000000
# 3 -0.005478 -0.007142 0.017597 0.000000 0.000000 0.000000
# 4 0.000000 0.000000 0.000000 0.076863 0.000000 0.000000
# 5 0.000000 0.000000 0.000000 0.000000 0.055122 0.000000
# 6 0.000000 0.000000 0.000000 0.000000 0.000000 0.069341
#
#
# Mechanical properties :
#
#
# Convention : Reuss Voigt Hill
#
# Bulk Modulus (GPa) = 31.10738 55.95271 43.53005
# Shear Modulus (GPa) = 14.59633 17.71262 16.15447
#
# Velocity S-wave (km/s) = 3.00014 3.30492 3.15621
# Velocity P-wave (km/s) = 5.58421 7.00475 6.33443
#
# Compressibility (1/GPa) = 0.03214671
#
# Stress axis : x y z
#
# Youngs Moduli (GPa) = 74.90906 19.84824 56.82904
#
# Poissons Ratio (x) = 0.23760 0.31131
# Poissons Ratio (y) = 0.89673 0.40587
# Poissons Ratio (z) = 0.41035 0.14176
#
# Static dielectric constant tensor:
#      x y z
#    x 3.358280 0.000000 0.000000 
#    y 0.000000 2.632600 0.000000 
#    z 0.000000 0.000000 2.977630 
# 
# 
# High freq. dielectric constant tensor:
#      x y z
#    x 1.627640 0.000000 0.000000 
#    y 0.000000 1.577950 0.000000 
#    z 0.000000 0.000000 1.603580 
# 
# From -- ./inp_files/9829.got.cif
#   From: 2010.03.12/outbox.cif.g09.slc.cpg/sg47_5_cif.got.tgz:9829.got - 2010.04.14 03:12:58.
