data_PCOD8194743
_publ_section_title
;
Structure prediction by ZEFSAII (Michael W. Deem and Ramdas Pophale) SiO2 
 PCOD8194743
Probable space group: P M M M
;
_chemical_formula_sum "Si O2"
_cell_formula_units_Z 52
_cell_length_a 8.726736
_cell_length_b 26.986288
_cell_length_c 13.629652
_cell_angle_alpha 90.000000
_cell_angle_beta 90.000000
_cell_angle_gamma 90.000000
_cell_volume 3209.813181
_symmetry_space_group_name_H-M "P M M M"
_symmetry_group_IT_number 47
_symmetry_cell_setting 'orthorhombic'
loop_
_space_group_symop_operation_xyz
x,y,z
-x,-y,z
x,-y,-z
-x,y,-z
-x,-y,-z
x,y,-z
-x,y,z
x,-y,z
loop_
_atom_site_type_symbol
_atom_site_label
_atom_site_fract_x
_atom_site_fract_y
_atom_site_fract_z
Si Si1 0.181194 0.000000 0.112064
Si Si2 0.319068 0.805360 0.893331
Si Si3 0.172010 0.552393 0.616487
Si Si4 0.319075 0.904384 0.211344
Si Si5 0.681143 0.244952 0.700467
Si Si6 0.182138 0.340727 0.612970
Si Si7 0.178174 0.850269 0.387425
O O1 0.238636 0.952915 0.171600
O O2 0.000000 0.000000 0.110855
O O3 0.245020 0.000000 0.000000
O O4 0.500000 0.804002 0.901593
O O5 0.267904 0.860013 0.860271
O O6 0.265046 0.765647 0.812356
O O7 0.245396 0.793302 0.000000
O O8 0.166367 0.554649 0.500000
O O9 0.255169 0.500000 0.649379
O O10 0.245041 0.604972 0.650435
O O11 0.000000 0.550296 0.657745
O O12 0.500000 0.912599 0.212828
O O13 0.264698 0.890921 0.321253
O O14 0.500000 0.239332 0.688445
O O15 0.733393 0.300233 0.677708
O O16 0.758554 0.205259 0.628491
O O17 0.226632 0.331772 0.500000
O O18 0.000000 0.337365 0.626830
O O19 0.206105 0.865228 0.500000
O O20 0.000000 0.850514 0.360220
#
# Coordination Sequence:
#
# PCOD8194743 Si02
#       7
#     4   8   8   8   8   8   8
#     4  11  23  37  54  77 104 129 153 186 226 267
#     4   8  15  29  47  65  85 110 141 176 215 259
#     4   7  10  18  33  52  73 101 141 182 213 248
#     4  10  20  34  54  77  97 119 150 188 227 269
#     4  10  19  28  42  65  89 115 148 184 219 259
#     4   9  16  25  38  57  83 115 146 177 216 258
#     4  10  20  34  51  69  93 125 155 184 221 265
#
# _framework density 16.200320999999999
#
# number of rings (size 3 to 8) (size 9 to 14) (size 15 to 20)
#    0.000    2.846    0.000    4.846    0.000    4.615 
#    0.000    0.385    0.000   12.000    0.000    2.154 
#    0.000    0.615    0.000    7.692    0.000    0.308 
#
# Total GULP energy -644253.710757 kJ/mol
# GULP energy per Si atom -12389.494438 kJ/mol
# Density = 1.616345 g / cm^3
# Si number density = 16.200321 Si / 1000 Ang^3
#
#
#
# Elastic Constant Matrix: (Units=GPa)
#
#
# Indices 1 2 3 4 5 6 
#
# 1 43.0584 27.1535 25.5441 0.0000 0.0000 0.0000
# 2 27.1535 140.8934 55.8439 0.0000 0.0000 0.0000
# 3 25.5441 55.8439 91.8824 0.0000 0.0000 0.0000
# 4 0.0000 0.0000 0.0000 13.8163 0.0000 0.0000
# 5 0.0000 0.0000 0.0000 0.0000 16.9411 0.0000
# 6 0.0000 0.0000 0.0000 0.0000 0.0000 15.2450
#
#
#
# Elastic Compliance Matrix: (Units=1/GPa)
#
#
# Indices 1 2 3 4 5 6 
#
# 1 0.028825 -0.003134 -0.006109 0.000000 0.000000 0.000000
# 2 -0.003134 0.009691 -0.005018 0.000000 0.000000 0.000000
# 3 -0.006109 -0.005018 0.015632 0.000000 0.000000 0.000000
# 4 0.000000 0.000000 0.000000 0.072378 0.000000 0.000000
# 5 0.000000 0.000000 0.000000 0.000000 0.059028 0.000000
# 6 0.000000 0.000000 0.000000 0.000000 0.000000 0.065595
#
#
# Mechanical properties :
#
#
# Convention : Reuss Voigt Hill
#
# Bulk Modulus (GPa) = 39.02479 54.76857 46.89668
# Shear Modulus (GPa) = 17.34832 20.35334 18.85083
#
# Velocity S-wave (km/s) = 3.27595 3.54835 3.41487
# Velocity P-wave (km/s) = 6.20084 7.11816 6.67528
#
# Compressibility (1/GPa) = 0.02562474
#
# Stress axis : x y z
#
# Youngs Moduli (GPa) = 34.69265 103.19231 63.97185
#
# Poissons Ratio (x) = 0.32340 0.39079
# Poissons Ratio (y) = 0.10872 0.32104
# Poissons Ratio (z) = 0.21193 0.51787
#
# Static dielectric constant tensor:
#      x y z
#    x 2.888340 0.000000 0.000000 
#    y 0.000000 3.372410 0.000000 
#    z 0.000000 0.000000 3.127690 
# 
# 
# High freq. dielectric constant tensor:
#      x y z
#    x 1.605850 0.000000 0.000000 
#    y 0.000000 1.627880 0.000000 
#    z 0.000000 0.000000 1.597330 
# 
# From -- ./inp_files/22009.got.cif
#   From: 2010.03.12/outbox.cif.g09.slc.cpg/sg47_12_cif.got.tgz:22009.got - 2010.04.14 03:12:58.
