data_PCOD8194062
_publ_section_title
;
Structure prediction by ZEFSAII (Michael W. Deem and Ramdas Pophale) SiO2 
 PCOD8194062
Probable space group: P M M M
;
_chemical_formula_sum "Si O2"
_cell_formula_units_Z 52
_cell_length_a 9.760595
_cell_length_b 25.348864
_cell_length_c 11.845620
_cell_angle_alpha 90.000000
_cell_angle_beta 90.000000
_cell_angle_gamma 90.000000
_cell_volume 2930.843244
_symmetry_space_group_name_H-M "P M M M"
_symmetry_group_IT_number 47
_symmetry_cell_setting 'orthorhombic'
loop_
_space_group_symop_operation_xyz
x,y,z
-x,-y,z
x,-y,-z
-x,y,-z
-x,-y,-z
x,y,-z
-x,y,z
x,-y,z
loop_
_atom_site_type_symbol
_atom_site_label
_atom_site_fract_x
_atom_site_fract_y
_atom_site_fract_z
Si Si1 0.159984 0.256349 0.368393
Si Si2 0.655462 0.829892 0.248740
Si Si3 0.148879 0.939765 0.000000
Si Si4 0.852885 0.704396 0.000000
Si Si5 0.845876 0.356601 0.229324
Si Si6 0.344188 0.058661 0.794682
Si Si7 0.654671 0.200695 0.000000
Si Si8 0.342074 0.561168 0.870553
O O1 0.192047 0.256760 0.500000
O O2 0.241560 0.208153 0.313162
O O3 0.207416 0.312759 0.318464
O O4 0.000000 0.247301 0.341738
O O5 0.500000 0.810170 0.270959
O O6 0.671750 0.891310 0.291321
O O7 0.688822 0.831482 0.113979
O O8 0.237551 0.927069 0.108931
O O9 0.000000 0.909448 0.000000
O O10 0.111598 0.000000 0.000000
O O11 0.840971 0.667974 0.107071
O O12 0.733877 0.745404 0.000000
O O13 0.000000 0.733971 0.000000
O O14 0.746084 0.406967 0.222731
O O15 0.000000 0.374935 0.261672
O O16 0.500000 0.059293 0.842932
O O17 0.315138 0.000000 0.740943
O O18 0.500000 0.219310 0.000000
O O19 0.500000 0.576896 0.854233
O O20 0.318669 0.500000 0.843962
O O21 0.297495 0.573281 0.000000
#
# Coordination Sequence:
#
# PCOD8194062 Si02
#       8
#     8   8   4   4   8   8   4   8
#     4  10  22  39  56  74  99 133 172 214 262 310
#     4  10  20  33  51  76 103 130 166 209 252 306
#     4   9  16  25  39  64  97 130 165 200 234 285
#     4  10  18  29  46  72 102 132 168 206 249 302
#     4  10  19  32  51  75 103 133 169 210 250 298
#     4   9  17  30  47  66  94 132 167 202 250 306
#     4  10  19  29  44  72 106 133 160 198 249 304
#     4   9  18  31  48  75 111 145 172 200 241 293
#
# _framework density 17.742335000000001
#
# number of rings (size 3 to 8) (size 9 to 14) (size 15 to 20)
#    0.000    2.385    2.308    1.154    0.000    4.615 
#    0.000    1.538    0.000    0.923    0.000    6.462 
#    0.000    0.000    0.000    0.000    0.000    0.000 
#
# Total GULP energy -644180.219390 kJ/mol
# GULP energy per Si atom -12388.081142 kJ/mol
# Density = 1.770195 g / cm^3
# Si number density = 17.742335 Si / 1000 Ang^3
#
#
#
# Elastic Constant Matrix: (Units=GPa)
#
#
# Indices 1 2 3 4 5 6 
#
# 1 84.0929 66.9917 33.5007 0.0000 0.0000 0.0000
# 2 66.9917 125.9853 42.0265 0.0000 0.0000 0.0000
# 3 33.5007 42.0265 72.3375 0.0000 0.0000 0.0000
# 4 0.0000 0.0000 0.0000 6.4917 0.0000 0.0000
# 5 0.0000 0.0000 0.0000 0.0000 19.2079 0.0000
# 6 0.0000 0.0000 0.0000 0.0000 0.0000 23.3337
#
#
#
# Elastic Compliance Matrix: (Units=1/GPa)
#
#
# Indices 1 2 3 4 5 6 
#
# 1 0.021581 -0.010099 -0.004127 0.000000 0.000000 0.000000
# 2 -0.010099 0.014571 -0.003789 0.000000 0.000000 0.000000
# 3 -0.004127 -0.003789 0.017937 0.000000 0.000000 0.000000
# 4 0.000000 0.000000 0.000000 0.154044 0.000000 0.000000
# 5 0.000000 0.000000 0.000000 0.000000 0.052062 0.000000
# 6 0.000000 0.000000 0.000000 0.000000 0.000000 0.042857
#
#
# Mechanical properties :
#
#
# Convention : Reuss Voigt Hill
#
# Bulk Modulus (GPa) = 55.37306 63.05039 59.21173
# Shear Modulus (GPa) = 14.48856 19.13310 16.81083
#
# Velocity S-wave (km/s) = 2.86074 3.28744 3.08149
# Velocity P-wave (km/s) = 6.49531 7.07273 6.79016
#
# Compressibility (1/GPa) = 0.01805932
#
# Stress axis : x y z
#
# Youngs Moduli (GPa) = 46.33750 68.62894 55.75170
#
# Poissons Ratio (x) = 0.69306 0.23011
# Poissons Ratio (y) = 0.46794 0.21122
# Poissons Ratio (z) = 0.19125 0.26001
#
# Static dielectric constant tensor:
#      x y z
#    x 3.509060 0.000000 0.000000 
#    y 0.000000 3.397410 0.000000 
#    z 0.000000 0.000000 3.046230 
# 
# 
# High freq. dielectric constant tensor:
#      x y z
#    x 1.692760 0.000000 0.000000 
#    y 0.000000 1.693950 0.000000 
#    z 0.000000 0.000000 1.636150 
# 
# From -- ./inp_files/15533.got.cif
#   From: 2010.03.12/outbox.cif.g09.slc.cpg/sg47_8_cif.got.tgz:15533.got - 2010.04.14 03:12:58.
