data_PCOD8194300
_publ_section_title
;
Structure prediction by ZEFSAII (Michael W. Deem and Ramdas Pophale) SiO2 
 PCOD8194300
Probable space group: P M M M
;
_chemical_formula_sum "Si O2"
_cell_formula_units_Z 52
_cell_length_a 14.321096
_cell_length_b 23.263065
_cell_length_c 9.155356
_cell_angle_alpha 90.000000
_cell_angle_beta 90.000000
_cell_angle_gamma 90.000000
_cell_volume 3050.130537
_symmetry_space_group_name_H-M "P M M M"
_symmetry_group_IT_number 47
_symmetry_cell_setting 'orthorhombic'
loop_
_space_group_symop_operation_xyz
x,y,z
-x,-y,z
x,-y,-z
-x,y,-z
-x,-y,-z
x,y,-z
-x,y,z
x,-y,z
loop_
_atom_site_type_symbol
_atom_site_label
_atom_site_fract_x
_atom_site_fract_y
_atom_site_fract_z
Si Si1 0.106108 0.614787 0.330211
Si Si2 0.389153 0.000000 0.835183
Si Si3 0.896026 0.731375 0.166322
Si Si4 0.270855 0.435778 0.169492
Si Si5 0.293797 0.784066 0.831103
Si Si6 0.391532 0.886683 0.671259
Si Si7 0.395959 0.332259 0.827062
O O1 0.129024 0.615430 0.500000
O O2 0.125579 0.678318 0.270471
O O3 0.172596 0.569107 0.252237
O O4 0.000000 0.595889 0.298732
O O5 0.353275 0.056360 0.751015
O O6 0.500000 0.000000 0.835747
O O7 0.349291 0.000000 0.000000
O O8 0.818166 0.780334 0.193128
O O9 0.000000 0.756817 0.196283
O O10 0.887512 0.708836 0.000000
O O11 0.311049 0.500000 0.194288
O O12 0.344113 0.389251 0.233057
O O13 0.251769 0.423654 0.000000
O O14 0.332149 0.833608 0.728651
O O15 0.339886 0.724344 0.779282
O O16 0.318659 0.797381 0.000000
O O17 0.375423 0.894545 0.500000
O O18 0.500000 0.875686 0.707977
O O19 0.500000 0.330028 0.759288
O O20 0.402098 0.335792 0.000000
#
# Coordination Sequence:
#
# PCOD8194300 Si02
#       7
#     8   4   8   8   8   8   8
#     4  10  20  33  50  71  95 122 151 191 247 305
#     4   9  17  31  51  73 100 137 178 213 245 284
#     4   9  17  31  52  75  99 126 158 199 245 293
#     4  10  20  34  51  70  92 122 162 203 245 295
#     4  10  18  30  50  74 100 130 164 202 244 292
#     4  10  20  32  47  72 107 142 173 206 244 285
#     4   9  17  30  48  71  97 123 156 202 249 289
#
# _framework density 17.048449999999999
#
# number of rings (size 3 to 8) (size 9 to 14) (size 15 to 20)
#    0.000    2.385    1.538    1.615    0.000    4.923 
#    0.000    3.077    0.000    0.462    0.000    1.615 
#    0.000    4.308    0.000    0.000    0.000    0.000 
#
# Total GULP energy -644770.911307 kJ/mol
# GULP energy per Si atom -12399.440602 kJ/mol
# Density = 1.700965 g / cm^3
# Si number density = 17.048450 Si / 1000 Ang^3
#
#
#
# Elastic Constant Matrix: (Units=GPa)
#
#
# Indices 1 2 3 4 5 6 
#
# 1 100.2994 54.6881 35.0328 0.0000 0.0000 0.0000
# 2 54.6881 121.3211 44.0247 0.0000 0.0000 0.0000
# 3 35.0328 44.0247 63.6879 0.0000 0.0000 0.0000
# 4 0.0000 0.0000 0.0000 17.2409 0.0000 0.0000
# 5 0.0000 0.0000 0.0000 0.0000 18.4347 0.0000
# 6 0.0000 0.0000 0.0000 0.0000 0.0000 20.7999
#
#
#
# Elastic Compliance Matrix: (Units=1/GPa)
#
#
# Indices 1 2 3 4 5 6 
#
# 1 0.014122 -0.004734 -0.004495 0.000000 0.000000 0.000000
# 2 -0.004734 0.012590 -0.006098 0.000000 0.000000 0.000000
# 3 -0.004495 -0.006098 0.022390 0.000000 0.000000 0.000000
# 4 0.000000 0.000000 0.000000 0.058002 0.000000 0.000000
# 5 0.000000 0.000000 0.000000 0.000000 0.054245 0.000000
# 6 0.000000 0.000000 0.000000 0.000000 0.000000 0.048077
#
#
# Mechanical properties :
#
#
# Convention : Reuss Voigt Hill
#
# Bulk Modulus (GPa) = 54.21508 61.42217 57.81863
# Shear Modulus (GPa) = 20.30621 21.39929 20.85275
#
# Velocity S-wave (km/s) = 3.45496 3.54673 3.50115
# Velocity P-wave (km/s) = 6.91269 7.27177 7.09450
#
# Compressibility (1/GPa) = 0.01844505
#
# Stress axis : x y z
#
# Youngs Moduli (GPa) = 70.81302 79.42981 44.66314
#
# Poissons Ratio (x) = 0.37606 0.20077
# Poissons Ratio (y) = 0.33526 0.27238
# Poissons Ratio (z) = 0.31832 0.48440
#
# Static dielectric constant tensor:
#      x y z
#    x 3.340390 0.000000 0.000000 
#    y 0.000000 3.079150 0.000000 
#    z 0.000000 0.000000 3.090640 
# 
# 
# High freq. dielectric constant tensor:
#      x y z
#    x 1.649250 0.000000 0.000000 
#    y 0.000000 1.643180 0.000000 
#    z 0.000000 0.000000 1.645510 
# 
# From -- ./inp_files/7082.got.cif
#   From: 2010.03.12/outbox.cif.g09.slc.cpg/sg47_4_cif.got.tgz:7082.got - 2010.04.14 03:12:58.
