data_PCOD8194261
_publ_section_title
;
Structure prediction by ZEFSAII (Michael W. Deem and Ramdas Pophale) SiO2 
 PCOD8194261
Probable space group: P M M M
;
_chemical_formula_sum "Si O2"
_cell_formula_units_Z 52
_cell_length_a 19.813349
_cell_length_b 9.355186
_cell_length_c 15.063424
_cell_angle_alpha 90.000000
_cell_angle_beta 90.000000
_cell_angle_gamma 90.000000
_cell_volume 2792.119596
_symmetry_space_group_name_H-M "P M M M"
_symmetry_group_IT_number 47
_symmetry_cell_setting 'orthorhombic'
loop_
_space_group_symop_operation_xyz
x,y,z
-x,-y,z
x,-y,-z
-x,y,-z
-x,-y,-z
x,y,-z
-x,y,z
x,-y,z
loop_
_atom_site_type_symbol
_atom_site_label
_atom_site_fract_x
_atom_site_fract_y
_atom_site_fract_z
Si Si1 0.862475 0.335465 0.325754
Si Si2 0.184290 0.330204 0.860574
Si Si3 0.372202 0.167820 0.284949
Si Si4 0.075143 0.331656 0.000000
Si Si5 0.500000 0.170144 0.396771
Si Si6 0.318803 0.165135 0.901510
Si Si7 0.000000 0.671533 0.400453
Si Si8 0.274549 0.663391 0.598049
O O1 0.878306 0.500000 0.306156
O O2 0.830801 0.269070 0.236956
O O3 0.806503 0.316795 0.402405
O O4 0.933338 0.263852 0.353236
O O5 0.196896 0.500000 0.864580
O O6 0.118149 0.283564 0.914996
O O7 0.251303 0.257584 0.897689
O O8 0.436523 0.228581 0.339450
O O9 0.371196 0.205938 0.178876
O O10 0.306179 0.235981 0.327993
O O11 0.368934 0.000000 0.299388
O O12 0.065960 0.500000 0.000000
O O13 0.000000 0.260844 0.000000
O O14 0.500000 0.226975 0.500000
O O15 0.500000 0.000000 0.398925
O O16 0.298331 0.000000 0.890064
O O17 0.351907 0.190266 0.000000
O O18 0.000000 0.500000 0.400280
O O19 0.000000 0.729383 0.500000
O O20 0.301123 0.704250 0.500000
O O21 0.293186 0.500000 0.621560
#
# Coordination Sequence:
#
# PCOD8194261 Si02
#       8
#     8   8   8   4   4   8   4   8
#     4   9  17  27  42  66  96 128 166 207 248 295
#     4  10  18  30  49  71  96 130 169 209 255 304
#     4  10  20  35  55  78 103 135 173 209 251 303
#     4   9  18  28  43  71 101 124 161 218 268 307
#     4   9  18  34  56  80 106 135 169 209 250 303
#     4  10  20  34  52  75 103 132 166 211 257 299
#     4   9  16  26  40  61  94 133 166 201 253 309
#     4  10  19  31  49  75 106 134 164 210 259 301
#
# _framework density 18.623844999999999
#
# number of rings (size 3 to 8) (size 9 to 14) (size 15 to 20)
#    0.000    2.385    2.308    0.923    1.077    2.769 
#    0.000    0.769    0.000    4.615    0.000    1.615 
#    0.000    6.154    0.000    0.000    0.000    0.000 
#
# Total GULP energy -644315.715286 kJ/mol
# GULP energy per Si atom -12390.686832 kJ/mol
# Density = 1.858146 g / cm^3
# Si number density = 18.623845 Si / 1000 Ang^3
#
#
#
# Elastic Constant Matrix: (Units=GPa)
#
#
# Indices 1 2 3 4 5 6 
#
# 1 101.2361 18.9148 59.2182 0.0000 0.0000 0.0000
# 2 18.9148 18.8811 23.1694 0.0000 0.0000 0.0000
# 3 59.2182 23.1694 155.3155 0.0000 0.0000 0.0000
# 4 0.0000 0.0000 0.0000 17.1332 0.0000 0.0000
# 5 0.0000 0.0000 0.0000 0.0000 43.3178 0.0000
# 6 0.0000 0.0000 0.0000 0.0000 0.0000 9.6464
#
#
#
# Elastic Compliance Matrix: (Units=1/GPa)
#
#
# Indices 1 2 3 4 5 6 
#
# 1 0.013876 -0.009068 -0.003938 0.000000 0.000000 0.000000
# 2 -0.009068 0.070758 -0.007098 0.000000 0.000000 0.000000
# 3 -0.003938 -0.007098 0.008999 0.000000 0.000000 0.000000
# 4 0.000000 0.000000 0.000000 0.058366 0.000000 0.000000
# 5 0.000000 0.000000 0.000000 0.000000 0.023085 0.000000
# 6 0.000000 0.000000 0.000000 0.000000 0.000000 0.103665
#
#
# Mechanical properties :
#
#
# Convention : Reuss Voigt Hill
#
# Bulk Modulus (GPa) = 18.71812 53.11528 35.91670
# Shear Modulus (GPa) = 14.84717 25.62817 20.23767
#
# Velocity S-wave (km/s) = 2.82656 3.71360 3.30002
# Velocity P-wave (km/s) = 4.55247 6.85345 5.81785
#
# Compressibility (1/GPa) = 0.05342417
#
# Stress axis : x y z
#
# Youngs Moduli (GPa) = 72.06925 14.13275 111.12773
#
# Poissons Ratio (x) = 0.12816 0.43758
# Poissons Ratio (y) = 0.65355 0.78876
# Poissons Ratio (z) = 0.28378 0.10031
#
# Static dielectric constant tensor:
#      x y z
#    x 3.473630 0.000000 0.000000 
#    y 0.000000 2.940700 0.000000 
#    z 0.000000 0.000000 3.849930 
# 
# 
# High freq. dielectric constant tensor:
#      x y z
#    x 1.713830 0.000000 0.000000 
#    y 0.000000 1.666290 0.000000 
#    z 0.000000 0.000000 1.744440 
# 
# From -- ./inp_files/24649.got.cif
#   From: 2010.03.12/outbox.cif.g09.slc.cpg/sg47_13_cif.got.tgz:24649.got - 2010.04.14 03:12:58.
