data_PCOD8194664
_publ_section_title
;
Structure prediction by ZEFSAII (Michael W. Deem and Ramdas Pophale) SiO2 
 PCOD8194664
Probable space group: P M M M
;
_chemical_formula_sum "Si O2"
_cell_formula_units_Z 64
_cell_length_a 13.889015
_cell_length_b 9.227723
_cell_length_c 34.110706
_cell_angle_alpha 90.000000
_cell_angle_beta 90.000000
_cell_angle_gamma 90.000000
_cell_volume 4371.763949
_symmetry_space_group_name_H-M "P M M M"
_symmetry_group_IT_number 47
_symmetry_cell_setting 'orthorhombic'
loop_
_space_group_symop_operation_xyz
x,y,z
-x,-y,z
x,-y,-z
-x,y,-z
-x,-y,-z
x,y,-z
-x,y,z
x,-y,z
loop_
_atom_site_type_symbol
_atom_site_label
_atom_site_fract_x
_atom_site_fract_y
_atom_site_fract_z
Si Si1 0.290004 0.328265 0.112706
Si Si2 0.393710 0.328344 0.190255
Si Si3 0.894332 0.671656 0.843499
Si Si4 0.888375 0.829334 0.306165
Si Si5 0.791581 0.671107 0.235322
Si Si6 0.390494 0.831450 0.044786
Si Si7 0.885667 0.337768 0.616537
Si Si8 0.885496 0.162759 0.456691
O O1 0.296222 0.500000 0.108082
O O2 0.359788 0.272437 0.147549
O O3 0.181366 0.277152 0.123458
O O4 0.318267 0.257117 0.071881
O O5 0.500000 0.264708 0.199779
O O6 0.396505 0.500000 0.188044
O O7 0.318044 0.284022 0.224070
O O8 0.898509 0.500000 0.844085
O O9 0.860176 0.719331 0.800377
O O10 0.000000 0.738693 0.852119
O O11 0.821987 0.761874 0.272805
O O12 0.853393 0.759567 0.346857
O O13 0.000000 0.791967 0.297698
O O14 0.871421 0.000000 0.308557
O O15 0.800530 0.500000 0.244094
O O16 0.500000 0.781627 0.052744
O O17 0.379220 0.000000 0.054100
O O18 0.362248 0.798373 0.000000
O O19 0.843968 0.500000 0.621201
O O20 0.842588 0.268196 0.576651
O O21 0.000000 0.342189 0.613971
O O22 0.852804 0.216746 0.500000
O O23 0.000000 0.161956 0.454256
O O24 0.847182 0.000000 0.449246
#
# Coordination Sequence:
#
# PCOD8194664 Si02
#       8
#     8   8   8   8   8   8   8   8
#     4   9  16  26  44  67  84 102 131 162 188 218
#     4   8  14  25  41  62  86 105 121 149 190 229
#     4   8  14  25  41  61  84 106 127 156 194 229
#     4  10  19  28  37  50  72 100 127 161 203 236
#     4   9  16  26  42  60  75  98 131 158 183 223
#     4   9  18  31  44  59  82 109 130 151 189 237
#     4   9  16  24  34  48  65  88 122 161 196 232
#     4   8  13  21  32  45  63  88 117 151 193 237
#
# _framework density 14.639398999999999
#
# number of rings (size 3 to 8) (size 9 to 14) (size 15 to 20)
#    0.000    3.250    0.000    3.750    0.000    4.000 
#    0.000    4.375    0.000    2.625    0.000    2.625 
#    0.000    0.000    0.000    0.000    0.000    0.625 
#
# Total GULP energy -793176.528645 kJ/mol
# GULP energy per Si atom -12393.383260 kJ/mol
# Density = 1.460608 g / cm^3
# Si number density = 14.639399 Si / 1000 Ang^3
#
#
#
# Elastic Constant Matrix: (Units=GPa)
#
#
# Indices 1 2 3 4 5 6 
#
# 1 88.8554 28.0965 52.2758 0.0000 0.0000 0.0000
# 2 28.0965 58.7203 51.9508 0.0000 0.0000 0.0000
# 3 52.2758 51.9508 121.1930 0.0000 0.0000 0.0000
# 4 0.0000 0.0000 0.0000 14.5644 0.0000 0.0000
# 5 0.0000 0.0000 0.0000 0.0000 12.8474 0.0000
# 6 0.0000 0.0000 0.0000 0.0000 0.0000 11.7800
#
#
#
# Elastic Compliance Matrix: (Units=1/GPa)
#
#
# Indices 1 2 3 4 5 6 
#
# 1 0.015286 -0.002385 -0.005571 0.000000 0.000000 0.000000
# 2 -0.002385 0.027806 -0.010891 0.000000 0.000000 0.000000
# 3 -0.005571 -0.010891 0.015323 0.000000 0.000000 0.000000
# 4 0.000000 0.000000 0.000000 0.068661 0.000000 0.000000
# 5 0.000000 0.000000 0.000000 0.000000 0.077837 0.000000
# 6 0.000000 0.000000 0.000000 0.000000 0.000000 0.084890
#
#
# Mechanical properties :
#
#
# Convention : Reuss Voigt Hill
#
# Bulk Modulus (GPa) = 48.25977 59.26832 53.76405
# Shear Modulus (GPa) = 14.95201 16.93472 15.94336
#
# Velocity S-wave (km/s) = 3.19933 3.40485 3.30369
# Velocity P-wave (km/s) = 6.83263 7.48537 7.16644
#
# Compressibility (1/GPa) = 0.02072119
#
# Stress axis : x y z
#
# Youngs Moduli (GPa) = 65.41898 35.96306 65.26248
#
# Poissons Ratio (x) = 0.08578 0.36358
# Poissons Ratio (y) = 0.15604 0.71075
# Poissons Ratio (z) = 0.36445 0.39166
#
# Static dielectric constant tensor:
#      x y z
#    x 2.894740 0.000000 0.000000 
#    y 0.000000 2.689030 0.000000 
#    z 0.000000 0.000000 2.883120 
# 
# 
# High freq. dielectric constant tensor:
#      x y z
#    x 1.519050 0.000000 0.000000 
#    y 0.000000 1.543520 0.000000 
#    z 0.000000 0.000000 1.560010 
# 
# From -- ./inp_files/34686.got.cif
#   From: 2010.03.12/outbox.cif.g09.slc.cpg/sg47_18_cif.got.tgz:34686.got - 2010.04.14 03:12:58.
