data_PCOD8194242
_publ_section_title
;
Structure prediction by ZEFSAII (Michael W. Deem and Ramdas Pophale) SiO2 
 PCOD8194242
Probable space group: P M M M
;
_chemical_formula_sum "Si O2"
_cell_formula_units_Z 52
_cell_length_a 9.232103
_cell_length_b 26.849355
_cell_length_c 12.275781
_cell_angle_alpha 90.000000
_cell_angle_beta 90.000000
_cell_angle_gamma 90.000000
_cell_volume 3042.871624
_symmetry_space_group_name_H-M "P M M M"
_symmetry_group_IT_number 47
_symmetry_cell_setting 'orthorhombic'
loop_
_space_group_symop_operation_xyz
x,y,z
-x,-y,z
x,-y,-z
-x,y,-z
-x,-y,-z
x,y,-z
-x,y,z
x,-y,z
loop_
_atom_site_type_symbol
_atom_site_label
_atom_site_fract_x
_atom_site_fract_y
_atom_site_fract_z
Si Si1 0.165937 0.724777 0.875710
Si Si2 0.667520 0.558205 0.122806
Si Si3 0.173531 0.211244 0.500000
Si Si4 0.171508 0.673905 0.500000
Si Si5 0.329706 0.054746 0.500000
Si Si6 0.667680 0.823922 0.881127
Si Si7 0.171658 0.366116 0.269761
Si Si8 0.669367 0.860881 0.343080
O O1 0.253854 0.773707 0.846980
O O2 0.224395 0.680830 0.800501
O O3 0.000000 0.736815 0.849116
O O4 0.188249 0.708101 0.000000
O O5 0.500000 0.572236 0.136359
O O6 0.692702 0.500000 0.140737
O O7 0.756995 0.585227 0.217591
O O8 0.719083 0.573080 0.000000
O O9 0.226146 0.268785 0.500000
O O10 0.237930 0.184222 0.393375
O O11 0.000000 0.206817 0.500000
O O12 0.225654 0.643632 0.606503
O O13 0.000000 0.676167 0.500000
O O14 0.500000 0.047021 0.500000
O O15 0.281658 0.086193 0.393571
O O16 0.254632 0.000000 0.500000
O O17 0.500000 0.810766 0.886679
O O18 0.698995 0.864335 0.786778
O O19 0.721428 0.843700 0.000000
O O20 0.000000 0.373071 0.264199
O O21 0.500000 0.850867 0.368777
#
# Coordination Sequence:
#
# PCOD8194242 Si02
#       8
#     8   8   4   4   4   8   8   8
#     4   9  17  28  43  65  92 120 151 188 224 257
#     4   9  19  36  55  73  92 112 138 180 231 273
#     4  10  18  30  49  68  89 121 157 187 219 262
#     4   9  19  32  45  66  97 128 153 180 215 255
#     4   8  14  26  45  65  83 110 149 190 234 276
#     4   9  17  28  42  62  90 123 153 179 214 264
#     4  10  19  32  49  68  92 121 152 183 216 258
#     4   9  17  29  45  66  91 117 149 190 228 262
#
# _framework density 17.089120000000001
#
# number of rings (size 3 to 8) (size 9 to 14) (size 15 to 20)
#    0.000    2.846    0.000    2.538    0.000    3.692 
#    0.000    4.615    0.000    6.462    0.000    3.231 
#    0.000    0.000    0.000    9.385    0.000   10.154 
#
# Total GULP energy -644490.194867 kJ/mol
# GULP energy per Si atom -12394.042209 kJ/mol
# Density = 1.705022 g / cm^3
# Si number density = 17.089120 Si / 1000 Ang^3
#
#
#
# Elastic Constant Matrix: (Units=GPa)
#
#
# Indices 1 2 3 4 5 6 
#
# 1 34.5609 30.4246 32.6901 0.0000 0.0000 0.0000
# 2 30.4246 100.3599 75.2850 0.0000 0.0000 0.0000
# 3 32.6901 75.2850 147.5804 0.0000 0.0000 0.0000
# 4 0.0000 0.0000 0.0000 18.6607 0.0000 0.0000
# 5 0.0000 0.0000 0.0000 0.0000 20.7326 0.0000
# 6 0.0000 0.0000 0.0000 0.0000 0.0000 37.0304
#
#
#
# Elastic Compliance Matrix: (Units=1/GPa)
#
#
# Indices 1 2 3 4 5 6 
#
# 1 0.041205 -0.009144 -0.004463 0.000000 0.000000 0.000000
# 2 -0.009144 0.018170 -0.007244 0.000000 0.000000 0.000000
# 3 -0.004463 -0.007244 0.011460 0.000000 0.000000 0.000000
# 4 0.000000 0.000000 0.000000 0.053588 0.000000 0.000000
# 5 0.000000 0.000000 0.000000 0.000000 0.048233 0.000000
# 6 0.000000 0.000000 0.000000 0.000000 0.000000 0.027005
#
#
# Mechanical properties :
#
#
# Convention : Reuss Voigt Hill
#
# Bulk Modulus (GPa) = 34.32366 62.14452 48.23409
# Shear Modulus (GPa) = 19.91456 24.89152 22.40304
#
# Velocity S-wave (km/s) = 3.41740 3.82065 3.62464
# Velocity P-wave (km/s) = 5.97497 7.47710 6.76784
#
# Compressibility (1/GPa) = 0.02913443
#
# Stress axis : x y z
#
# Youngs Moduli (GPa) = 24.26887 55.03609 87.26282
#
# Poissons Ratio (x) = 0.50324 0.38943
# Poissons Ratio (y) = 0.22191 0.63209
# Poissons Ratio (z) = 0.10830 0.39866
#
# Static dielectric constant tensor:
#      x y z
#    x 3.033640 0.000000 0.000000 
#    y 0.000000 3.107590 0.000000 
#    z 0.000000 0.000000 3.540640 
# 
# 
# High freq. dielectric constant tensor:
#      x y z
#    x 1.639660 0.000000 0.000000 
#    y 0.000000 1.635310 0.000000 
#    z 0.000000 0.000000 1.671720 
# 
# From -- ./inp_files/15576.got.cif
#   From: 2010.03.12/outbox.cif.g09.slc.cpg/sg47_8_cif.got.tgz:15576.got - 2010.04.14 03:12:58.
