data_PCOD8194695
_publ_section_title
;
Structure prediction by ZEFSAII (Michael W. Deem and Ramdas Pophale) SiO2 
 PCOD8194695
Probable space group: P M M M
;
_chemical_formula_sum "Si O2"
_cell_formula_units_Z 56
_cell_length_a 29.708420
_cell_length_b 13.642025
_cell_length_c 8.954313
_cell_angle_alpha 90.000000
_cell_angle_beta 90.000000
_cell_angle_gamma 90.000000
_cell_volume 3629.030910
_symmetry_space_group_name_H-M "P M M M"
_symmetry_group_IT_number 47
_symmetry_cell_setting 'orthorhombic'
loop_
_space_group_symop_operation_xyz
x,y,z
-x,-y,z
x,-y,-z
-x,y,-z
-x,-y,-z
x,y,-z
-x,y,z
x,-y,z
loop_
_atom_site_type_symbol
_atom_site_label
_atom_site_fract_x
_atom_site_fract_y
_atom_site_fract_z
Si Si1 0.550881 0.700148 0.176484
Si Si2 0.634352 0.387502 0.327771
Si Si3 0.143673 0.883276 0.832410
Si Si4 0.685017 0.218523 0.176434
Si Si5 0.766876 0.886585 0.674800
Si Si6 0.596886 0.893193 0.823996
Si Si7 0.047655 0.109802 0.177508
O O1 0.500000 0.672589 0.220606
O O2 0.584647 0.626920 0.258691
O O3 0.560749 0.812168 0.229038
O O4 0.559123 0.690223 0.000000
O O5 0.632714 0.356074 0.500000
O O6 0.648383 0.500000 0.308238
O O7 0.672089 0.323950 0.243899
O O8 0.183527 0.850050 0.722680
O O9 0.095204 0.840401 0.771236
O O10 0.139366 0.000000 0.834922
O O11 0.154249 0.844952 0.000000
O O12 0.731881 0.181650 0.240348
O O13 0.646726 0.140797 0.223574
O O14 0.688800 0.229977 0.000000
O O15 0.761051 0.871393 0.500000
O O16 0.759500 0.000000 0.721077
O O17 0.586765 0.000000 0.750818
O O18 0.594301 0.903488 0.000000
O O19 0.000000 0.162867 0.226781
O O20 0.045587 0.000000 0.242276
O O21 0.049980 0.105643 0.000000
#
# Coordination Sequence:
#
# PCOD8194695 Si02
#       7
#     8   8   8   8   8   8   8
#     4   9  18  31  47  69  93 115 141 171 201 235
#     4  10  21  36  52  68  86 108 134 166 207 255
#     4   8  13  21  33  49  70  99 137 177 213 250
#     4  10  19  31  48  67  85 106 137 174 209 249
#     4  10  19  28  39  58  86 116 142 172 211 251
#     4   8  14  25  42  64  87 109 134 165 198 231
#     4   7   9  14  26  44  64  88 125 175 221 251
#
# _framework density 15.431117
#
# number of rings (size 3 to 8) (size 9 to 14) (size 15 to 20)
#    0.000    3.143    0.000    3.857    0.000    3.429 
#    0.000    2.857    0.000    4.286    0.000    7.000 
#    0.000    0.000    0.000    0.000    0.000    0.714 
#
# Total GULP energy -693755.775532 kJ/mol
# GULP energy per Si atom -12388.495992 kJ/mol
# Density = 1.539600 g / cm^3
# Si number density = 15.431117 Si / 1000 Ang^3
#
#
#
# Elastic Constant Matrix: (Units=GPa)
#
#
# Indices 1 2 3 4 5 6 
#
# 1 131.4871 31.5987 44.3812 0.0000 0.0000 0.0000
# 2 31.5987 53.8013 27.0741 0.0000 0.0000 0.0000
# 3 44.3812 27.0741 57.8798 0.0000 0.0000 0.0000
# 4 0.0000 0.0000 0.0000 15.9023 0.0000 0.0000
# 5 0.0000 0.0000 0.0000 0.0000 11.3559 0.0000
# 6 0.0000 0.0000 0.0000 0.0000 0.0000 11.9867
#
#
#
# Elastic Compliance Matrix: (Units=1/GPa)
#
#
# Indices 1 2 3 4 5 6 
#
# 1 0.010571 -0.002785 -0.006803 0.000000 0.000000 0.000000
# 2 -0.002785 0.025043 -0.009579 0.000000 0.000000 0.000000
# 3 -0.006803 -0.009579 0.026974 0.000000 0.000000 0.000000
# 4 0.000000 0.000000 0.000000 0.062884 0.000000 0.000000
# 5 0.000000 0.000000 0.000000 0.000000 0.088060 0.000000
# 6 0.000000 0.000000 0.000000 0.000000 0.000000 0.083426
#
#
# Mechanical properties :
#
#
# Convention : Reuss Voigt Hill
#
# Bulk Modulus (GPa) = 41.22912 49.91960 45.57436
# Shear Modulus (GPa) = 14.56135 17.18993 15.87564
#
# Velocity S-wave (km/s) = 3.07520 3.34125 3.21098
# Velocity P-wave (km/s) = 6.27577 6.87790 6.58372
#
# Compressibility (1/GPa) = 0.02425470
#
# Stress axis : x y z
#
# Youngs Moduli (GPa) = 94.60057 39.93157 37.07299
#
# Poissons Ratio (x) = 0.11122 0.25220
# Poissons Ratio (y) = 0.26348 0.35510
# Poissons Ratio (z) = 0.64354 0.38249
#
# Static dielectric constant tensor:
#      x y z
#    x 3.316290 0.000000 0.000000 
#    y 0.000000 2.710040 0.000000 
#    z 0.000000 0.000000 2.785990 
# 
# 
# High freq. dielectric constant tensor:
#      x y z
#    x 1.601310 0.000000 0.000000 
#    y 0.000000 1.539430 0.000000 
#    z 0.000000 0.000000 1.574260 
# 
# From -- ./inp_files/14193.got.cif
#   From: 2010.03.12/outbox.cif.g09.slc.cpg/sg47_8_cif.got.tgz:14193.got - 2010.04.14 03:12:58.
