data_PCOD8194215
_publ_section_title
;
Structure prediction by ZEFSAII (Michael W. Deem and Ramdas Pophale) SiO2 
 PCOD8194215
Probable space group: P M M M
;
_chemical_formula_sum "Si O2"
_cell_formula_units_Z 40
_cell_length_a 9.599637
_cell_length_b 11.980575
_cell_length_c 22.784264
_cell_angle_alpha 90.000000
_cell_angle_beta 90.000000
_cell_angle_gamma 90.000000
_cell_volume 2620.399316
_symmetry_space_group_name_H-M "P M M M"
_symmetry_group_IT_number 47
_symmetry_cell_setting 'orthorhombic'
loop_
_space_group_symop_operation_xyz
x,y,z
-x,-y,z
x,-y,-z
-x,y,-z
-x,-y,-z
x,y,-z
-x,y,z
x,-y,z
loop_
_atom_site_type_symbol
_atom_site_label
_atom_site_fract_x
_atom_site_fract_y
_atom_site_fract_z
Si Si1 0.843054 0.632812 0.669960
Si Si2 0.150208 0.500000 0.066757
Si Si3 0.663567 0.122826 0.000000
Si Si4 0.343826 0.367255 0.434742
Si Si5 0.342845 0.628664 0.221984
Si Si6 0.340720 0.295921 0.903260
O O1 0.844235 0.500000 0.666953
O O2 0.763861 0.682236 0.612919
O O3 0.762394 0.671481 0.728313
O O4 0.000000 0.680560 0.671293
O O5 0.238018 0.607865 0.079644
O O6 0.000000 0.500000 0.101091
O O7 0.111168 0.500000 0.000000
O O8 0.707376 0.186762 0.939839
O O9 0.500000 0.107477 0.000000
O O10 0.734821 0.000000 0.000000
O O11 0.297617 0.328294 0.500000
O O12 0.500000 0.323715 0.421045
O O13 0.343475 0.500000 0.431509
O O14 0.500000 0.633034 0.247215
O O15 0.309086 0.500000 0.202445
O O16 0.328315 0.714622 0.167383
O O17 0.500000 0.326984 0.920340
#
# Coordination Sequence:
#
# PCOD8194215 Si02
#       6
#     8   4   4   8   8   8
#     4   9  16  23  31  46  69  96 123 158 201 238
#     4  11  21  29  41  65  91 107 128 163 208 251
#     4   9  18  31  49  70  86 103 134 177 212 243
#     4   8  13  21  32  44  60  88 127 166 197 226
#     4   9  16  25  37  54  74  99 129 159 196 244
#     4  10  18  30  48  64  83 109 138 167 205 256
#
# _framework density 15.264849
#
# number of rings (size 3 to 8) (size 9 to 14) (size 15 to 20)
#    0.000    2.800    2.000    1.500    0.000    4.000 
#    0.000    2.000    0.000    1.200    0.000    0.000 
#    0.000    0.000    0.000    0.000    0.000    1.000 
#
# Total GULP energy -495579.231012 kJ/mol
# GULP energy per Si atom -12389.480775 kJ/mol
# Density = 1.523011 g / cm^3
# Si number density = 15.264849 Si / 1000 Ang^3
#
#
#
# Elastic Constant Matrix: (Units=GPa)
#
#
# Indices 1 2 3 4 5 6 
#
# 1 103.9100 32.1168 64.8127 0.0000 0.0000 0.0000
# 2 32.1168 53.1056 30.8098 0.0000 0.0000 0.0000
# 3 64.8127 30.8098 125.5679 0.0000 0.0000 0.0000
# 4 0.0000 0.0000 0.0000 4.0626 0.0000 0.0000
# 5 0.0000 0.0000 0.0000 0.0000 16.0268 0.0000
# 6 0.0000 0.0000 0.0000 0.0000 0.0000 -23.7764
#
#
#
# Elastic Compliance Matrix: (Units=1/GPa)
#
#
# Indices 1 2 3 4 5 6 
#
# 1 0.015460 -0.005504 -0.006629 0.000000 0.000000 0.000000
# 2 -0.005504 0.023915 -0.003027 0.000000 0.000000 0.000000
# 3 -0.006629 -0.003027 0.012128 0.000000 0.000000 0.000000
# 4 0.000000 0.000000 0.000000 0.246150 0.000000 0.000000
# 5 0.000000 0.000000 0.000000 0.000000 0.062395 0.000000
# 6 0.000000 0.000000 0.000000 0.000000 0.000000 -0.042058
#
#
# Mechanical properties :
#
#
# Convention : Reuss Voigt Hill
#
# Bulk Modulus (GPa) = 47.20750 59.78468 53.49609
# Shear Modulus (GPa) = 14.06979 9.58554 11.82766
#
# Velocity S-wave (km/s) = 3.03926 2.50861 2.78660
# Velocity P-wave (km/s) = 6.58095 6.90223 6.74350
#
# Compressibility (1/GPa) = 0.02118308
#
# Stress axis : x y z
#
# Youngs Moduli (GPa) = 64.68438 41.81459 82.45178
#
# Poissons Ratio (x) = 0.23013 0.54659
# Poissons Ratio (y) = 0.35600 0.24960
# Poissons Ratio (z) = 0.42881 0.12658
#
# Static dielectric constant tensor:
#      x y z
#    x 3.102900 0.000000 0.000000 
#    y 0.000000 2.498890 0.000000 
#    z 0.000000 0.000000 3.213810 
# 
# 
# High freq. dielectric constant tensor:
#      x y z
#    x 1.588190 0.000000 0.000000 
#    y 0.000000 1.497290 0.000000 
#    z 0.000000 0.000000 1.597660 
# 
# From -- ./inp_files/29348.got.cif
#   From: 2010.03.12/outbox.cif.g09.slc.cpg/sg47_15_cif.got.tgz:29348.got - 2010.04.14 03:12:58.
