data_PCOD8194715
_publ_section_title
;
Structure prediction by ZEFSAII (Michael W. Deem and Ramdas Pophale) SiO2 
 PCOD8194715
Probable space group: P M M M
;
_chemical_formula_sum "Si O2"
_cell_formula_units_Z 52
_cell_length_a 9.273808
_cell_length_b 19.057662
_cell_length_c 17.863000
_cell_angle_alpha 90.000000
_cell_angle_beta 90.000000
_cell_angle_gamma 90.000000
_cell_volume 3157.054787
_symmetry_space_group_name_H-M "P M M M"
_symmetry_group_IT_number 47
_symmetry_cell_setting 'orthorhombic'
loop_
_space_group_symop_operation_xyz
x,y,z
-x,-y,z
x,-y,-z
-x,y,-z
-x,-y,-z
x,y,-z
-x,y,z
x,-y,z
loop_
_atom_site_type_symbol
_atom_site_label
_atom_site_fract_x
_atom_site_fract_y
_atom_site_fract_z
Si Si1 0.171192 0.500000 0.084409
Si Si2 0.158652 0.851514 0.198848
Si Si3 0.829206 0.644232 0.154771
Si Si4 0.665235 0.773065 0.086767
Si Si5 0.334351 0.794084 0.413446
Si Si6 0.841381 0.714316 0.700075
Si Si7 0.169150 0.078955 0.655191
O O1 0.227234 0.431457 0.128074
O O2 0.000000 0.500000 0.082335
O O3 0.233296 0.500000 0.000000
O O4 0.270704 0.840181 0.131437
O O5 0.150600 0.781902 0.247969
O O6 0.209162 0.912245 0.256560
O O7 0.000000 0.868487 0.165419
O O8 0.750796 0.702198 0.104544
O O9 0.791449 0.651890 0.243613
O O10 0.000000 0.653736 0.142034
O O11 0.500000 0.762680 0.110894
O O12 0.680372 0.791031 0.000000
O O13 0.316008 0.775462 0.500000
O O14 0.500000 0.802571 0.390186
O O15 0.268929 0.728185 0.367544
O O16 0.255826 0.867473 0.396811
O O17 0.000000 0.698114 0.666230
O O18 0.000000 0.094739 0.643943
O O19 0.208787 0.000000 0.630546
#
# Coordination Sequence:
#
# PCOD8194715 Si02
#       7
#     4   8   8   8   8   8   8
#     4   9  16  26  43  67  94 123 150 176 211 255
#     4   8  15  28  45  63  81 105 141 181 216 253
#     4   9  17  29  45  65  88 116 150 181 210 253
#     4  10  19  28  40  61  87 113 143 181 222 258
#     4  10  20  31  44  66  93 116 141 176 214 253
#     4   8  15  28  45  64  85 111 145 182 216 251
#     4   9  18  32  48  65  86 113 143 173 209 258
#
# _framework density 16.471048
#
# number of rings (size 3 to 8) (size 9 to 14) (size 15 to 20)
#    0.000    3.000    0.000    3.231    0.000    9.231 
#    0.000    1.923    0.000    1.846    0.000    3.769 
#    0.000    4.308    0.000    0.000    0.000    0.000 
#
# Total GULP energy -644481.256389 kJ/mol
# GULP energy per Si atom -12393.870315 kJ/mol
# Density = 1.643356 g / cm^3
# Si number density = 16.471048 Si / 1000 Ang^3
#
#
#
# Elastic Constant Matrix: (Units=GPa)
#
#
# Indices 1 2 3 4 5 6 
#
# 1 76.4930 22.2025 50.9557 0.0000 0.0000 0.0000
# 2 22.2025 52.7065 38.5718 0.0000 0.0000 0.0000
# 3 50.9557 38.5718 93.6552 0.0000 0.0000 0.0000
# 4 0.0000 0.0000 0.0000 22.1740 0.0000 0.0000
# 5 0.0000 0.0000 0.0000 0.0000 27.8158 0.0000
# 6 0.0000 0.0000 0.0000 0.0000 0.0000 8.5883
#
#
#
# Elastic Compliance Matrix: (Units=1/GPa)
#
#
# Indices 1 2 3 4 5 6 
#
# 1 0.020522 -0.000678 -0.010886 0.000000 0.000000 0.000000
# 2 -0.000678 0.027181 -0.010826 0.000000 0.000000 0.000000
# 3 -0.010886 -0.010826 0.021059 0.000000 0.000000 0.000000
# 4 0.000000 0.000000 0.000000 0.045098 0.000000 0.000000
# 5 0.000000 0.000000 0.000000 0.000000 0.035951 0.000000
# 6 0.000000 0.000000 0.000000 0.000000 0.000000 0.116438
#
#
# Mechanical properties :
#
#
# Convention : Reuss Voigt Hill
#
# Bulk Modulus (GPa) = 41.69774 49.59051 45.64413
# Shear Modulus (GPa) = 15.67291 19.12393 17.39842
#
# Velocity S-wave (km/s) = 3.08806 3.41113 3.25361
# Velocity P-wave (km/s) = 6.17135 6.75925 6.47198
#
# Compressibility (1/GPa) = 0.02398212
#
# Stress axis : x y z
#
# Youngs Moduli (GPa) = 48.72898 36.79038 47.48584
#
# Poissons Ratio (x) = 0.02494 0.51694
# Poissons Ratio (y) = 0.03304 0.51406
# Poissons Ratio (z) = 0.53047 0.39828
#
# Static dielectric constant tensor:
#      x y z
#    x 3.100250 0.000000 0.000000 
#    y 0.000000 3.236210 0.000000 
#    z 0.000000 0.000000 3.216870 
# 
# 
# High freq. dielectric constant tensor:
#      x y z
#    x 1.627720 0.000000 0.000000 
#    y 0.000000 1.601890 0.000000 
#    z 0.000000 0.000000 1.627190 
# 
# From -- ./inp_files/26934.got.cif
#   From: 2010.03.12/outbox.cif.g09.slc.cpg/sg47_14_cif.got.tgz:26934.got - 2010.04.14 03:12:58.
