data_PCOD8194655
_publ_section_title
;
Structure prediction by ZEFSAII (Michael W. Deem and Ramdas Pophale) SiO2 
 PCOD8194655
Probable space group: P M M M
;
_chemical_formula_sum "Si O2"
_cell_formula_units_Z 52
_cell_length_a 18.735259
_cell_length_b 15.344310
_cell_length_c 10.918309
_cell_angle_alpha 90.000000
_cell_angle_beta 90.000000
_cell_angle_gamma 90.000000
_cell_volume 3138.791344
_symmetry_space_group_name_H-M "P M M M"
_symmetry_group_IT_number 47
_symmetry_cell_setting 'orthorhombic'
loop_
_space_group_symop_operation_xyz
x,y,z
-x,-y,z
x,-y,-z
-x,y,-z
-x,-y,-z
x,y,-z
-x,y,z
x,-y,z
loop_
_atom_site_type_symbol
_atom_site_label
_atom_site_fract_x
_atom_site_fract_y
_atom_site_fract_z
Si Si1 0.579328 0.235002 0.645757
Si Si2 0.849085 0.899325 0.252251
Si Si3 0.080757 0.102569 0.000000
Si Si4 0.657449 0.403979 0.645747
Si Si5 0.696959 0.099331 0.358931
Si Si6 0.182637 0.403132 0.645462
Si Si7 0.078202 0.258472 0.358350
O O1 0.577561 0.236162 0.500000
O O2 0.500000 0.216762 0.697898
O O3 0.605556 0.328771 0.696937
O O4 0.632844 0.159459 0.690489
O O5 0.764834 0.884569 0.271824
O O6 0.891695 0.839144 0.346554
O O7 0.869407 0.000000 0.277993
O O8 0.873244 0.868114 0.117433
O O9 0.000000 0.142877 0.000000
O O10 0.072957 0.000000 0.000000
O O11 0.658217 0.401560 0.500000
O O12 0.631233 0.500000 0.689883
O O13 0.737433 0.385958 0.694953
O O14 0.717404 0.122226 0.500000
O O15 0.670580 0.000000 0.349455
O O16 0.183574 0.394882 0.500000
O O17 0.156821 0.500000 0.684311
O O18 0.130117 0.330596 0.703731
O O19 0.071241 0.280488 0.500000
O O20 0.000000 0.264779 0.296320
#
# Coordination Sequence:
#
# PCOD8194655 Si02
#       7
#     8   8   4   8   8   8   8
#     4   9  16  24  35  54  82 113 140 168 202 240
#     4  10  19  31  46  62  82 109 140 175 213 253
#     4   9  18  32  48  64  82 106 138 177 218 256
#     4   8  13  21  33  48  68 100 140 173 199 231
#     4   9  17  28  42  60  82 110 142 172 203 244
#     4   8  14  25  39  54  77 111 146 176 204 238
#     4  10  19  27  38  60  87 113 140 170 207 253
#
# _framework density 16.566887000000001
#
# number of rings (size 3 to 8) (size 9 to 14) (size 15 to 20)
#    0.000    3.000    0.000    2.769    0.000    5.231 
#    0.000    5.385    0.000    0.000    0.000    1.077 
#    0.000    4.923    0.000    0.000    0.000    9.154 
#
# Total GULP energy -644417.174032 kJ/mol
# GULP energy per Si atom -12392.637962 kJ/mol
# Density = 1.652918 g / cm^3
# Si number density = 16.566887 Si / 1000 Ang^3
#
#
#
# Elastic Constant Matrix: (Units=GPa)
#
#
# Indices 1 2 3 4 5 6 
#
# 1 135.5356 72.8323 24.4115 0.0000 0.0000 0.0000
# 2 72.8323 101.8655 17.6217 0.0000 0.0000 0.0000
# 3 24.4115 17.6217 21.8448 0.0000 0.0000 0.0000
# 4 0.0000 0.0000 0.0000 4.5066 0.0000 0.0000
# 5 0.0000 0.0000 0.0000 0.0000 10.4182 0.0000
# 6 0.0000 0.0000 0.0000 0.0000 0.0000 24.1437
#
#
#
# Elastic Compliance Matrix: (Units=1/GPa)
#
#
# Indices 1 2 3 4 5 6 
#
# 1 0.013151 -0.007973 -0.008265 0.000000 0.000000 0.000000
# 2 -0.007973 0.016243 -0.004193 0.000000 0.000000 0.000000
# 3 -0.008265 -0.004193 0.058395 0.000000 0.000000 0.000000
# 4 0.000000 0.000000 0.000000 0.221896 0.000000 0.000000
# 5 0.000000 0.000000 0.000000 0.000000 0.095985 0.000000
# 6 0.000000 0.000000 0.000000 0.000000 0.000000 0.041419
#
#
# Mechanical properties :
#
#
# Convention : Reuss Voigt Hill
#
# Bulk Modulus (GPa) = 21.30912 54.33078 37.81995
# Shear Modulus (GPa) = 9.92864 17.43908 13.68386
#
# Velocity S-wave (km/s) = 2.45073 3.24797 2.87710
# Velocity P-wave (km/s) = 4.57149 6.85068 5.82367
#
# Compressibility (1/GPa) = 0.04692826
#
# Stress axis : x y z
#
# Youngs Moduli (GPa) = 76.03838 61.56530 17.12467
#
# Poissons Ratio (x) = 0.49088 0.14153
# Poissons Ratio (y) = 0.60627 0.07180
# Poissons Ratio (z) = 0.62843 0.25812
#
# Static dielectric constant tensor:
#      x y z
#    x 3.412090 0.000000 0.000000 
#    y 0.000000 3.325060 0.000000 
#    z 0.000000 0.000000 2.540150 
# 
# 
# High freq. dielectric constant tensor:
#      x y z
#    x 1.644850 0.000000 0.000000 
#    y 0.000000 1.648030 0.000000 
#    z 0.000000 0.000000 1.551830 
# 
# From -- ./inp_files/17767.got.cif
#   From: 2010.03.12/outbox.cif.g09.slc.cpg/sg47_9_cif.got.tgz:17767.got - 2010.04.14 03:12:58.
