data_PCOD8194347
_publ_section_title
;
Structure prediction by ZEFSAII (Michael W. Deem and Ramdas Pophale) SiO2 
 PCOD8194347
Probable space group: P M M M
;
_chemical_formula_sum "Si O2"
_cell_formula_units_Z 52
_cell_length_a 13.131770
_cell_length_b 9.345272
_cell_length_c 24.160078
_cell_angle_alpha 90.000000
_cell_angle_beta 90.000000
_cell_angle_gamma 90.000000
_cell_volume 2964.923866
_symmetry_space_group_name_H-M "P M M M"
_symmetry_group_IT_number 47
_symmetry_cell_setting 'orthorhombic'
loop_
_space_group_symop_operation_xyz
x,y,z
-x,-y,z
x,-y,-z
-x,y,-z
-x,-y,-z
x,y,-z
-x,y,z
x,-y,z
loop_
_atom_site_type_symbol
_atom_site_label
_atom_site_fract_x
_atom_site_fract_y
_atom_site_fract_z
Si Si1 0.383469 0.667309 0.936125
Si Si2 0.796570 0.167614 0.121530
Si Si3 0.199295 0.166929 0.564408
Si Si4 0.000000 0.169579 0.937000
Si Si5 0.118114 0.835817 0.239377
Si Si6 0.388903 0.658694 0.565487
Si Si7 0.883603 0.342906 0.341573
O O1 0.500000 0.708505 0.920574
O O2 0.365737 0.500000 0.926021
O O3 0.305556 0.753945 0.897904
O O4 0.362553 0.706604 0.000000
O O5 0.896778 0.229960 0.090663
O O6 0.812166 0.197190 0.186455
O O7 0.783673 0.000000 0.108812
O O8 0.179136 0.202165 0.500000
O O9 0.309863 0.221139 0.585086
O O10 0.119836 0.253918 0.601265
O O11 0.189366 0.000000 0.576212
O O12 0.000000 0.000000 0.929692
O O13 0.000000 0.220035 0.000000
O O14 0.164476 0.742735 0.289877
O O15 0.000000 0.800973 0.225391
O O16 0.127967 0.000000 0.257567
O O17 0.395190 0.659359 0.500000
O O18 0.500000 0.697159 0.590170
O O19 0.355301 0.500000 0.585650
O O20 0.831907 0.500000 0.347928
O O21 0.000000 0.363666 0.326775
#
# Coordination Sequence:
#
# PCOD8194347 Si02
#       7
#     8   8   8   4   8   8   8
#     4   9  19  35  51  69 100 142 182 218 258 302
#     4  10  18  30  51  78 103 132 169 209 253 302
#     4  10  20  32  48  72 100 129 161 199 247 301
#     4   9  16  26  43  73 111 139 158 191 244 299
#     4   9  17  32  52  73  99 128 160 199 249 307
#     4   8  14  26  45  68  94 124 155 187 227 279
#     4  10  21  35  51  71  95 127 168 209 249 295
#
# _framework density 17.538392000000002
#
# number of rings (size 3 to 8) (size 9 to 14) (size 15 to 20)
#    0.000    2.692    0.769    2.308    0.000    4.308 
#    0.000    4.231    0.000    2.308    0.000    4.308 
#    0.000    0.000    0.000    0.000    0.000    0.000 
#
# Total GULP energy -644496.100555 kJ/mol
# GULP energy per Si atom -12394.155780 kJ/mol
# Density = 1.749847 g / cm^3
# Si number density = 17.538392 Si / 1000 Ang^3
#
#
#
# Elastic Constant Matrix: (Units=GPa)
#
#
# Indices 1 2 3 4 5 6 
#
# 1 81.9027 42.3764 45.3810 0.0000 0.0000 0.0000
# 2 42.3764 96.6842 62.3082 0.0000 0.0000 0.0000
# 3 45.3810 62.3082 98.3633 0.0000 0.0000 0.0000
# 4 0.0000 0.0000 0.0000 25.4389 0.0000 0.0000
# 5 0.0000 0.0000 0.0000 0.0000 20.0454 0.0000
# 6 0.0000 0.0000 0.0000 0.0000 0.0000 28.2799
#
#
#
# Elastic Compliance Matrix: (Units=1/GPa)
#
#
# Indices 1 2 3 4 5 6 
#
# 1 0.017325 -0.004127 -0.005379 0.000000 0.000000 0.000000
# 2 -0.004127 0.018461 -0.009790 0.000000 0.000000 0.000000
# 3 -0.005379 -0.009790 0.018849 0.000000 0.000000 0.000000
# 4 0.000000 0.000000 0.000000 0.039310 0.000000 0.000000
# 5 0.000000 0.000000 0.000000 0.000000 0.049887 0.000000
# 6 0.000000 0.000000 0.000000 0.000000 0.000000 0.035361
#
#
# Mechanical properties :
#
#
# Convention : Reuss Voigt Hill
#
# Bulk Modulus (GPa) = 62.32980 64.12018 63.22499
# Shear Modulus (GPa) = 22.40810 23.21181 22.80995
#
# Velocity S-wave (km/s) = 3.57831 3.64192 3.61026
# Velocity P-wave (km/s) = 7.25870 7.37048 7.31480
#
# Compressibility (1/GPa) = 0.01604369
#
# Stress axis : x y z
#
# Youngs Moduli (GPa) = 57.71876 54.16792 53.05182
#
# Poissons Ratio (x) = 0.22357 0.28536
# Poissons Ratio (y) = 0.23822 0.51938
# Poissons Ratio (z) = 0.31046 0.53031
#
# Static dielectric constant tensor:
#      x y z
#    x 3.314490 0.000000 0.000000 
#    y 0.000000 3.301430 0.000000 
#    z 0.000000 0.000000 3.112050 
# 
# 
# High freq. dielectric constant tensor:
#      x y z
#    x 1.664980 0.000000 0.000000 
#    y 0.000000 1.671770 0.000000 
#    z 0.000000 0.000000 1.662210 
# 
# From -- ./inp_files/33598.got.cif
#   From: 2010.03.12/outbox.cif.g09.slc.cpg/sg47_17_cif.got.tgz:33598.got - 2010.04.14 03:12:58.
