data_PCOD8194961
_publ_section_title
;
Structure prediction by ZEFSAII (Michael W. Deem and Ramdas Pophale) SiO2 
 PCOD8194961
Probable space group: P M M M
;
_chemical_formula_sum "Si O2"
_cell_formula_units_Z 48
_cell_length_a 7.973520
_cell_length_b 24.803670
_cell_length_c 19.402766
_cell_angle_alpha 90.000000
_cell_angle_beta 90.000000
_cell_angle_gamma 90.000000
_cell_volume 3837.334680
_symmetry_space_group_name_H-M "P M M M"
_symmetry_group_IT_number 47
_symmetry_cell_setting 'orthorhombic'
loop_
_space_group_symop_operation_xyz
x,y,z
-x,-y,z
x,-y,-z
-x,y,-z
-x,-y,-z
x,y,-z
-x,y,z
x,-y,z
loop_
_atom_site_type_symbol
_atom_site_label
_atom_site_fract_x
_atom_site_fract_y
_atom_site_fract_z
Si Si1 0.192795 0.439593 0.691238
Si Si2 0.183662 0.127825 0.418019
Si Si3 0.685219 0.435948 0.836155
Si Si4 0.000000 0.435621 0.921989
Si Si5 0.500000 0.061006 0.417736
Si Si6 0.699270 0.642321 0.578153
Si Si7 0.314025 0.239633 0.418134
O O1 0.254958 0.500000 0.672386
O O2 0.292081 0.416260 0.757266
O O3 0.217547 0.402445 0.625297
O O4 0.000000 0.440931 0.713051
O O5 0.194054 0.126779 0.500000
O O6 0.332688 0.090294 0.388517
O O7 0.202668 0.189592 0.391546
O O8 0.000000 0.106838 0.393464
O O9 0.500000 0.417249 0.862012
O O10 0.699162 0.500000 0.836923
O O11 0.831871 0.412473 0.885151
O O12 0.000000 0.500000 0.920050
O O13 0.000000 0.414118 0.000000
O O14 0.500000 0.062572 0.500000
O O15 0.500000 0.000000 0.390165
O O16 0.759421 0.631576 0.500000
O O17 0.500000 0.639137 0.582851
O O18 0.759641 0.701894 0.603751
O O19 0.325775 0.239130 0.500000
O O20 0.500000 0.231657 0.387299
#
# Coordination Sequence:
#
# PCOD8194961 Si02
#       7
#     8   8   8   4   4   8   8
#     4  10  19  30  41  51  68  93 118 143 175 218
#     4   9  15  22  34  48  60  80 104 123 153 195
#     4   9  16  27  42  56  72  96 118 133 158 199
#     4   9  16  26  40  60  81  93 109 137 160 186
#     4   9  16  24  32  44  64  84 101 125 151 183
#     4   9  18  29  40  54  68  84 111 150 187 217
#     4   8  13  24  38  48  62  80  99 130 172 208
#
# _framework density 12.508682
#
# number of rings (size 3 to 8) (size 9 to 14) (size 15 to 20)
#    0.000    3.000    1.667    1.500    0.000    3.000 
#    0.000    6.667    0.000    0.000    0.000    0.000 
#    0.000    0.000    0.000    0.000    0.000    0.000 
#
# Total GULP energy -594750.258729 kJ/mol
# GULP energy per Si atom -12390.630390 kJ/mol
# Density = 1.248021 g / cm^3
# Si number density = 12.508682 Si / 1000 Ang^3
#
#
#
# Elastic Constant Matrix: (Units=GPa)
#
#
# Indices 1 2 3 4 5 6 
#
# 1 89.0478 31.9688 27.3230 0.0000 0.0000 0.0000
# 2 31.9688 65.7514 20.2572 0.0000 0.0000 0.0000
# 3 27.3230 20.2572 41.9210 0.0000 0.0000 0.0000
# 4 0.0000 0.0000 0.0000 -0.0969 0.0000 0.0000
# 5 0.0000 0.0000 0.0000 0.0000 11.3367 0.0000
# 6 0.0000 0.0000 0.0000 0.0000 0.0000 10.5373
#
#
#
# Elastic Compliance Matrix: (Units=1/GPa)
#
#
# Indices 1 2 3 4 5 6 
#
# 1 0.015397 -0.005163 -0.007541 0.000000 0.000000 0.000000
# 2 -0.005163 0.019600 -0.006106 0.000000 0.000000 0.000000
# 3 -0.007541 -0.006106 0.031720 0.000000 0.000000 0.000000
# 4 0.000000 0.000000 0.000000-10.322544 0.000000 0.000000
# 5 0.000000 0.000000 0.000000 0.000000 0.088209 0.000000
# 6 0.000000 0.000000 0.000000 0.000000 0.000000 0.094901
#
#
# Mechanical properties :
#
#
# Convention : Reuss Voigt Hill
#
# Bulk Modulus (GPa) = 34.36701 39.53535 36.95118
# Shear Modulus (GPa) = -0.49873 12.16686 5.83406
#
# Velocity S-wave (km/s) = -0.63212 3.12215 2.16197
# Velocity P-wave (km/s) = 5.19629 6.68372 5.98638
#
# Compressibility (1/GPa) = 0.02909767
#
# Stress axis : x y z
#
# Youngs Moduli (GPa) = 64.94682 51.01942 31.52610
#
# Poissons Ratio (x) = 0.26342 0.23772
# Poissons Ratio (y) = 0.33533 0.19250
# Poissons Ratio (z) = 0.48974 0.31153
#
# Static dielectric constant tensor:
#      x y z
#    x 2.757330 0.000000 0.000000 
#    y 0.000000 2.518630 0.000000 
#    z 0.000000 0.000000 2.195840 
# 
# 
# High freq. dielectric constant tensor:
#      x y z
#    x 1.492240 0.000000 0.000000 
#    y 0.000000 1.445510 0.000000 
#    z 0.000000 0.000000 1.411860 
# 
# From -- ./inp_files/30036.got.cif
#   From: 2010.03.12/outbox.cif.g09.slc.cpg/sg47_16_cif.got.tgz:30036.got - 2010.04.14 03:12:58.
