data_PCOD8194794
_publ_section_title
;
Structure prediction by ZEFSAII (Michael W. Deem and Ramdas Pophale) SiO2 
 PCOD8194794
Probable space group: P M M M
;
_chemical_formula_sum "Si O2"
_cell_formula_units_Z 52
_cell_length_a 26.647944
_cell_length_b 9.045852
_cell_length_c 13.622792
_cell_angle_alpha 90.000000
_cell_angle_beta 90.000000
_cell_angle_gamma 90.000000
_cell_volume 3283.819751
_symmetry_space_group_name_H-M "P M M M"
_symmetry_group_IT_number 47
_symmetry_cell_setting 'orthorhombic'
loop_
_space_group_symop_operation_xyz
x,y,z
-x,-y,z
x,-y,-z
-x,y,-z
-x,-y,-z
x,y,-z
-x,y,z
x,-y,z
loop_
_atom_site_type_symbol
_atom_site_label
_atom_site_fract_x
_atom_site_fract_y
_atom_site_fract_z
Si Si1 0.199057 0.325769 0.113654
Si Si2 0.097983 0.833601 0.883508
Si Si3 0.292824 0.826138 0.203553
Si Si4 0.556003 0.673100 0.704695
Si Si5 0.381974 0.330757 0.890287
Si Si6 0.354373 0.171048 0.609781
Si Si7 0.000000 0.332759 0.117191
O O1 0.196041 0.500000 0.128841
O O2 0.146989 0.255646 0.150017
O O3 0.241630 0.258946 0.182901
O O4 0.210049 0.285599 0.000000
O O5 0.049004 0.750925 0.841455
O O6 0.100031 0.000000 0.841029
O O7 0.094864 0.837821 0.000000
O O8 0.334456 0.774957 0.125641
O O9 0.311498 0.780869 0.312925
O O10 0.283593 0.000000 0.192423
O O11 0.500000 0.737800 0.690769
O O12 0.556119 0.500000 0.684976
O O13 0.573564 0.710065 0.815546
O O14 0.593461 0.744843 0.626689
O O15 0.364116 0.500000 0.874606
O O16 0.402729 0.306106 0.000000
O O17 0.334824 0.206011 0.500000
O O18 0.366696 0.000000 0.624448
O O19 0.000000 0.500000 0.157287
O O20 0.000000 0.332884 0.000000
#
# Coordination Sequence:
#
# PCOD8194794 Si02
#       7
#     8   8   8   8   8   8   4
#     4  10  19  29  41  59  85 115 144 174 210 251
#     4   9  16  25  37  54  77 108 148 188 219 247
#     4  10  19  30  45  63  82 105 135 172 210 248
#     4   9  18  31  46  66  89 109 133 167 203 240
#     4   9  17  29  44  61  83 112 141 166 197 240
#     4   9  19  35  51  65  82 106 135 166 205 254
#     4   9  15  23  35  51  75 109 148 187 224 257
#
# _framework density 15.835217
#
# number of rings (size 3 to 8) (size 9 to 14) (size 15 to 20)
#    0.000    2.692    0.000    2.077    0.000    7.692 
#    0.000    3.077    0.000    0.000    0.000    4.308 
#    0.000    0.000    0.000    0.692    0.000   14.385 
#
# Total GULP energy -644760.380358 kJ/mol
# GULP energy per Si atom -12399.238084 kJ/mol
# Density = 1.579918 g / cm^3
# Si number density = 15.835217 Si / 1000 Ang^3
#
#
#
# Elastic Constant Matrix: (Units=GPa)
#
#
# Indices 1 2 3 4 5 6 
#
# 1 136.3118 58.1376 35.1439 0.0000 0.0000 0.0000
# 2 58.1376 82.2595 24.9901 0.0000 0.0000 0.0000
# 3 35.1439 24.9901 64.5870 0.0000 0.0000 0.0000
# 4 0.0000 0.0000 0.0000 16.8434 0.0000 0.0000
# 5 0.0000 0.0000 0.0000 0.0000 12.3962 0.0000
# 6 0.0000 0.0000 0.0000 0.0000 0.0000 28.1927
#
#
#
# Elastic Compliance Matrix: (Units=1/GPa)
#
#
# Indices 1 2 3 4 5 6 
#
# 1 0.011128 -0.006828 -0.003413 0.000000 0.000000 0.000000
# 2 -0.006828 0.017966 -0.003236 0.000000 0.000000 0.000000
# 3 -0.003413 -0.003236 0.018592 0.000000 0.000000 0.000000
# 4 0.000000 0.000000 0.000000 0.059370 0.000000 0.000000
# 5 0.000000 0.000000 0.000000 0.000000 0.080670 0.000000
# 6 0.000000 0.000000 0.000000 0.000000 0.000000 0.035470
#
#
# Mechanical properties :
#
#
# Convention : Reuss Voigt Hill
#
# Bulk Modulus (GPa) = 48.23560 57.74461 52.99011
# Shear Modulus (GPa) = 19.45060 22.47892 20.96476
#
# Velocity S-wave (km/s) = 3.50853 3.77178 3.64254
# Velocity P-wave (km/s) = 6.85129 7.45074 7.15729
#
# Compressibility (1/GPa) = 0.02073157
#
# Stress axis : x y z
#
# Youngs Moduli (GPa) = 89.86036 55.66222 53.78563
#
# Poissons Ratio (x) = 0.38007 0.18359
# Poissons Ratio (y) = 0.61358 0.17404
# Poissons Ratio (z) = 0.30673 0.18011
#
# Static dielectric constant tensor:
#      x y z
#    x 3.076250 0.000000 0.000000 
#    y 0.000000 3.122450 0.000000 
#    z 0.000000 0.000000 2.772010 
# 
# 
# High freq. dielectric constant tensor:
#      x y z
#    x 1.605940 0.000000 0.000000 
#    y 0.000000 1.619190 0.000000 
#    z 0.000000 0.000000 1.563090 
# 
# From -- ./inp_files/7616.got.cif
#   From: 2010.03.12/outbox.cif.g09.slc.cpg/sg47_4_cif.got.tgz:7616.got - 2010.04.14 03:12:58.
