data_PCOD8194846
_publ_section_title
;
Structure prediction by ZEFSAII (Michael W. Deem and Ramdas Pophale) SiO2 
 PCOD8194846
Probable space group: P M M M
;
_chemical_formula_sum "Si O2"
_cell_formula_units_Z 52
_cell_length_a 9.412833
_cell_length_b 13.583613
_cell_length_c 26.480669
_cell_angle_alpha 90.000000
_cell_angle_beta 90.000000
_cell_angle_gamma 90.000000
_cell_volume 3385.825772
_symmetry_space_group_name_H-M "P M M M"
_symmetry_group_IT_number 47
_symmetry_cell_setting 'orthorhombic'
loop_
_space_group_symop_operation_xyz
x,y,z
-x,-y,z
x,-y,-z
-x,y,-z
-x,-y,-z
x,y,-z
-x,y,z
x,-y,z
loop_
_atom_site_type_symbol
_atom_site_label
_atom_site_fract_x
_atom_site_fract_y
_atom_site_fract_z
Si Si1 0.166663 0.113871 0.705405
Si Si2 0.662957 0.389650 0.143304
Si Si3 0.667306 0.202386 0.205802
Si Si4 0.834554 0.296922 0.056939
Si Si5 0.341057 0.882344 0.500000
Si Si6 0.156997 0.116652 0.591990
Si Si7 0.161684 0.889935 0.880681
O O1 0.259138 0.185063 0.740501
O O2 0.207718 0.144642 0.648286
O O3 0.000000 0.130640 0.715231
O O4 0.206161 0.000000 0.715735
O O5 0.500000 0.374292 0.127616
O O6 0.691634 0.500000 0.163453
O O7 0.703615 0.313544 0.187754
O O8 0.754043 0.372679 0.093013
O O9 0.500000 0.183664 0.210516
O O10 0.732456 0.126012 0.165877
O O11 0.803784 0.184826 0.074011
O O12 0.000000 0.322165 0.060141
O O13 0.777826 0.309241 0.000000
O O14 0.500000 0.840521 0.500000
O O15 0.264021 0.840594 0.449901
O O16 0.340397 0.000000 0.500000
O O17 0.000000 0.160224 0.581560
O O18 0.149040 0.000000 0.587624
O O19 0.000000 0.874664 0.861209
O O20 0.183843 0.000000 0.901781
#
# Coordination Sequence:
#
# PCOD8194846 Si02
#       7
#     8   8   8   8   4   8   8
#     4   9  17  28  41  58  82 112 142 169 200 240
#     4   9  19  35  50  62  79 105 134 161 196 247
#     4  10  19  29  43  62  81 102 131 169 207 239
#     4   9  18  31  46  66  88 105 127 163 200 232
#     4   9  15  21  31  49  73 101 136 179 216 235
#     4   8  14  24  36  49  69 103 143 173 197 232
#     4   9  17  29  44  60  81 111 139 159 187 233
#
# _framework density 15.358143
#
# number of rings (size 3 to 8) (size 9 to 14) (size 15 to 20)
#    0.000    3.000    0.000    2.077    0.000    5.846 
#    0.000    4.615    0.000    0.000    0.000    4.308 
#    0.000    0.000    0.000    0.692    0.000   14.077 
#
# Total GULP energy -644654.644320 kJ/mol
# GULP energy per Si atom -12397.204698 kJ/mol
# Density = 1.532319 g / cm^3
# Si number density = 15.358143 Si / 1000 Ang^3
#
#
#
# Elastic Constant Matrix: (Units=GPa)
#
#
# Indices 1 2 3 4 5 6 
#
# 1 77.2369 29.4395 63.8694 0.0000 0.0000 0.0000
# 2 29.4395 64.9642 34.0985 0.0000 0.0000 0.0000
# 3 63.8694 34.0985 124.0185 0.0000 0.0000 0.0000
# 4 0.0000 0.0000 0.0000 11.8781 0.0000 0.0000
# 5 0.0000 0.0000 0.0000 0.0000 18.8244 0.0000
# 6 0.0000 0.0000 0.0000 0.0000 0.0000 17.2108
#
#
#
# Elastic Compliance Matrix: (Units=1/GPa)
#
#
# Indices 1 2 3 4 5 6 
#
# 1 0.023920 -0.005111 -0.010913 0.000000 0.000000 0.000000
# 2 -0.005111 0.019081 -0.002614 0.000000 0.000000 0.000000
# 3 -0.010913 -0.002614 0.014402 0.000000 0.000000 0.000000
# 4 0.000000 0.000000 0.000000 0.084188 0.000000 0.000000
# 5 0.000000 0.000000 0.000000 0.000000 0.053123 0.000000
# 6 0.000000 0.000000 0.000000 0.000000 0.000000 0.058103
#
#
# Mechanical properties :
#
#
# Convention : Reuss Voigt Hill
#
# Bulk Modulus (GPa) = 49.68649 57.89270 53.78959
# Shear Modulus (GPa) = 16.84611 18.83681 17.84146
#
# Velocity S-wave (km/s) = 3.31552 3.50595 3.41206
# Velocity P-wave (km/s) = 6.86141 7.35974 7.11494
#
# Compressibility (1/GPa) = 0.02012619
#
# Stress axis : x y z
#
# Youngs Moduli (GPa) = 41.80582 52.40683 69.43278
#
# Poissons Ratio (x) = 0.26788 0.75775
# Poissons Ratio (y) = 0.21369 0.18150
# Poissons Ratio (z) = 0.45625 0.13699
#
# Static dielectric constant tensor:
#      x y z
#    x 3.043800 0.000000 0.000000 
#    y 0.000000 2.687300 0.000000 
#    z 0.000000 0.000000 3.006370 
# 
# 
# High freq. dielectric constant tensor:
#      x y z
#    x 1.593800 0.000000 0.000000 
#    y 0.000000 1.546160 0.000000 
#    z 0.000000 0.000000 1.584620 
# 
# From -- ./inp_files/12502.got.cif
#   From: 2010.03.12/outbox.cif.g09.slc.cpg/sg47_7_cif.got.tgz:12502.got - 2010.04.14 03:12:58.
