data_PCOD8194777
_publ_section_title
;
Structure prediction by ZEFSAII (Michael W. Deem and Ramdas Pophale) SiO2 
 PCOD8194777
Probable space group: P M M M
;
_chemical_formula_sum "Si O2"
_cell_formula_units_Z 52
_cell_length_a 23.291697
_cell_length_b 19.466113
_cell_length_c 9.034752
_cell_angle_alpha 90.000000
_cell_angle_beta 90.000000
_cell_angle_gamma 90.000000
_cell_volume 4096.345767
_symmetry_space_group_name_H-M "P M M M"
_symmetry_group_IT_number 47
_symmetry_cell_setting 'orthorhombic'
loop_
_space_group_symop_operation_xyz
x,y,z
-x,-y,z
x,-y,-z
-x,y,-z
-x,-y,-z
x,y,-z
-x,y,z
x,-y,z
loop_
_atom_site_type_symbol
_atom_site_label
_atom_site_fract_x
_atom_site_fract_y
_atom_site_fract_z
Si Si1 0.563177 0.581690 0.333645
Si Si2 0.000000 0.423293 0.824178
Si Si3 0.672600 0.581520 0.834959
Si Si4 0.931898 0.924623 0.166136
Si Si5 0.889570 0.659073 0.176141
Si Si6 0.067108 0.790518 0.327378
Si Si7 0.787199 0.580200 0.672976
O O1 0.572571 0.609284 0.500000
O O2 0.500000 0.604667 0.275252
O O3 0.566941 0.500000 0.334703
O O4 0.613177 0.612501 0.229817
O O5 0.943781 0.384590 0.765523
O O6 0.000000 0.500000 0.757825
O O7 0.000000 0.425405 0.000000
O O8 0.668447 0.500000 0.840095
O O9 0.724877 0.603900 0.729918
O O10 0.681928 0.611110 0.000000
O O11 0.910311 0.865635 0.277598
O O12 0.000000 0.926404 0.167537
O O13 0.908772 0.000000 0.216693
O O14 0.910152 0.908155 0.000000
O O15 0.895407 0.735661 0.238141
O O16 0.832898 0.624177 0.237802
O O17 0.886622 0.661380 0.000000
O O18 0.078647 0.781541 0.500000
O O19 0.000000 0.780918 0.287924
O O20 0.791668 0.596385 0.500000
O O21 0.797928 0.500000 0.706420
#
# Coordination Sequence:
#
# PCOD8194777 Si02
#       7
#     8   4   8   8   8   8   8
#     4   8  13  21  33  49  69  91 111 132 164 206
#     4   9  18  30  43  57  68  81 106 143 185 226
#     4   9  16  25  37  52  68  87 112 141 172 208
#     4   8  14  25  41  59  77  96 117 137 159 195
#     4  11  20  31  45  57  71  90 115 147 182 222
#     4  10  19  29  41  57  78  97 114 138 171 213
#     4  10  20  32  43  54  69  89 114 147 187 227
#
# _framework density 12.694241
#
# number of rings (size 3 to 8) (size 9 to 14) (size 15 to 20)
#    0.000    2.692    0.769    3.231    0.000    4.615 
#    0.000    3.077    0.000    1.846    0.000    0.000 
#    0.000    0.000    0.000    0.000    0.000    0.000 
#
# Total GULP energy -644588.279426 kJ/mol
# GULP energy per Si atom -12395.928451 kJ/mol
# Density = 1.266535 g / cm^3
# Si number density = 12.694241 Si / 1000 Ang^3
#
#
#
# Elastic Constant Matrix: (Units=GPa)
#
#
# Indices 1 2 3 4 5 6 
#
# 1 77.1172 29.5538 36.0764 0.0000 0.0000 0.0000
# 2 29.5538 62.8638 32.7130 0.0000 0.0000 0.0000
# 3 36.0764 32.7130 73.5704 0.0000 0.0000 0.0000
# 4 0.0000 0.0000 0.0000 16.4308 0.0000 0.0000
# 5 0.0000 0.0000 0.0000 0.0000 21.5434 0.0000
# 6 0.0000 0.0000 0.0000 0.0000 0.0000 1.1111
#
#
#
# Elastic Compliance Matrix: (Units=1/GPa)
#
#
# Indices 1 2 3 4 5 6 
#
# 1 0.017970 -0.005025 -0.006577 0.000000 0.000000 0.000000
# 2 -0.005025 0.022102 -0.007363 0.000000 0.000000 0.000000
# 3 -0.006577 -0.007363 0.020092 0.000000 0.000000 0.000000
# 4 0.000000 0.000000 0.000000 0.060861 0.000000 0.000000
# 5 0.000000 0.000000 0.000000 0.000000 0.046418 0.000000
# 6 0.000000 0.000000 0.000000 0.000000 0.000000 0.900042
#
#
# Mechanical properties :
#
#
# Convention : Reuss Voigt Hill
#
# Bulk Modulus (GPa) = 44.98110 45.58196 45.28153
# Shear Modulus (GPa) = 4.49306 15.49759 9.99533
#
# Velocity S-wave (km/s) = 1.88338 3.49784 2.80909
# Velocity P-wave (km/s) = 6.34355 7.23178 6.80218
#
# Compressibility (1/GPa) = 0.02223156
#
# Stress axis : x y z
#
# Youngs Moduli (GPa) = 55.64774 45.24549 49.77161
#
# Poissons Ratio (x) = 0.22738 0.32737
# Poissons Ratio (y) = 0.27966 0.36648
# Poissons Ratio (z) = 0.36602 0.33315
#
# Static dielectric constant tensor:
#      x y z
#    x 2.534710 0.000000 0.000000 
#    y 0.000000 2.448420 0.000000 
#    z 0.000000 0.000000 2.667180 
# 
# 
# High freq. dielectric constant tensor:
#      x y z
#    x 1.458870 0.000000 0.000000 
#    y 0.000000 1.439960 0.000000 
#    z 0.000000 0.000000 1.492230 
# 
# From -- ./inp_files/12798.got.cif
#   From: 2010.03.12/outbox.cif.g09.slc.cpg/sg47_7_cif.got.tgz:12798.got - 2010.04.14 03:12:58.
