data_PCOD8194022
_publ_section_title
;
Structure prediction by ZEFSAII (Michael W. Deem and Ramdas Pophale) SiO2 
 PCOD8194022
Probable space group: P M M M
;
_chemical_formula_sum "Si O2"
_cell_formula_units_Z 64
_cell_length_a 9.393460
_cell_length_b 30.772709
_cell_length_c 14.095220
_cell_angle_alpha 90.000000
_cell_angle_beta 90.000000
_cell_angle_gamma 90.000000
_cell_volume 4074.395459
_symmetry_space_group_name_H-M "P M M M"
_symmetry_group_IT_number 47
_symmetry_cell_setting 'orthorhombic'
loop_
_space_group_symop_operation_xyz
x,y,z
-x,-y,z
x,-y,-z
-x,y,-z
-x,-y,-z
x,y,-z
-x,y,z
x,-y,z
loop_
_atom_site_type_symbol
_atom_site_label
_atom_site_fract_x
_atom_site_fract_y
_atom_site_fract_z
Si Si1 0.168603 0.286077 0.221783
Si Si2 0.336089 0.154281 0.391452
Si Si3 0.830770 0.880639 0.223143
Si Si4 0.833453 0.628955 0.890859
Si Si5 0.664604 0.745448 0.392160
Si Si6 0.337477 0.050580 0.890979
Si Si7 0.339685 0.547673 0.112715
Si Si8 0.168917 0.796968 0.106090
O O1 0.217507 0.329785 0.169313
O O2 0.240357 0.284808 0.324899
O O3 0.225798 0.245574 0.160070
O O4 0.000000 0.284075 0.234715
O O5 0.312929 0.140038 0.500000
O O6 0.500000 0.147385 0.361795
O O7 0.234602 0.124306 0.327843
O O8 0.291983 0.204408 0.378062
O O9 0.771177 0.924091 0.175959
O O10 0.779175 0.839841 0.160379
O O11 0.000000 0.883829 0.230769
O O12 0.759655 0.585986 0.847342
O O13 0.000000 0.621474 0.881587
O O14 0.789514 0.637195 0.000000
O O15 0.694872 0.731100 0.500000
O O16 0.500000 0.738719 0.366659
O O17 0.500000 0.064327 0.869088
O O18 0.316086 0.000000 0.869723
O O19 0.300183 0.060966 0.000000
O O20 0.500000 0.556289 0.147877
O O21 0.288069 0.500000 0.149162
O O22 0.333066 0.547956 0.000000
O O23 0.000000 0.795562 0.101272
O O24 0.233254 0.797533 0.000000
#
# Coordination Sequence:
#
# PCOD8194022 Si02
#       8
#     8   8   8   8   8   8   8   8
#     4  10  18  29  44  63  89 122 156 187 220 264
#     4   9  18  33  51  69  92 123 157 193 233 277
#     4  11  20  30  49  76 100 123 153 192 235 275
#     4   9  17  27  40  60  87 121 156 187 222 264
#     4   9  18  32  48  65  87 116 151 193 235 269
#     4   9  19  36  55  73  96 128 161 191 226 270
#     4   8  14  25  40  57  79 110 149 192 233 268
#     4   9  17  28  41  61  92 126 154 180 214 259
#
# _framework density 15.707852000000001
#
# number of rings (size 3 to 8) (size 9 to 14) (size 15 to 20)
#    0.000    2.750    1.250    2.625    0.000    3.750 
#    0.000    3.125    0.000    2.250    0.000    2.625 
#    0.000    0.500    0.000    5.500    0.000    4.250 
#
# Total GULP energy -793529.024605 kJ/mol
# GULP energy per Si atom -12398.891009 kJ/mol
# Density = 1.567210 g / cm^3
# Si number density = 15.707852 Si / 1000 Ang^3
#
#
#
# Elastic Constant Matrix: (Units=GPa)
#
#
# Indices 1 2 3 4 5 6 
#
# 1 58.2830 46.8762 43.6814 0.0000 0.0000 0.0000
# 2 46.8762 99.9022 48.6999 0.0000 0.0000 0.0000
# 3 43.6814 48.6999 88.6058 0.0000 0.0000 0.0000
# 4 0.0000 0.0000 0.0000 12.3976 0.0000 0.0000
# 5 0.0000 0.0000 0.0000 0.0000 24.6826 0.0000
# 6 0.0000 0.0000 0.0000 0.0000 0.0000 27.2163
#
#
#
# Elastic Compliance Matrix: (Units=1/GPa)
#
#
# Indices 1 2 3 4 5 6 
#
# 1 0.033786 -0.010564 -0.010850 0.000000 0.000000 0.000000
# 2 -0.010564 0.016976 -0.004123 0.000000 0.000000 0.000000
# 3 -0.010850 -0.004123 0.018901 0.000000 0.000000 0.000000
# 4 0.000000 0.000000 0.000000 0.080661 0.000000 0.000000
# 5 0.000000 0.000000 0.000000 0.000000 0.040514 0.000000
# 6 0.000000 0.000000 0.000000 0.000000 0.000000 0.036743
#
#
# Mechanical properties :
#
#
# Convention : Reuss Voigt Hill
#
# Bulk Modulus (GPa) = 53.79257 58.36733 56.07995
# Shear Modulus (GPa) = 17.55312 20.02820 18.79066
#
# Velocity S-wave (km/s) = 3.34649 3.57465 3.46245
# Velocity P-wave (km/s) = 7.01798 7.36724 7.19473
#
# Compressibility (1/GPa) = 0.01858993
#
# Stress axis : x y z
#
# Youngs Moduli (GPa) = 29.59847 58.90539 52.90844
#
# Poissons Ratio (x) = 0.62228 0.57403
# Poissons Ratio (y) = 0.31268 0.21813
# Poissons Ratio (z) = 0.32113 0.24285
#
# Static dielectric constant tensor:
#      x y z
#    x 2.855630 0.000000 0.000000 
#    y 0.000000 3.032190 0.000000 
#    z 0.000000 0.000000 2.865320 
# 
# 
# High freq. dielectric constant tensor:
#      x y z
#    x 1.594160 0.000000 0.000000 
#    y 0.000000 1.593060 0.000000 
#    z 0.000000 0.000000 1.583570 
# 
# From -- ./inp_files/8348.got.cif
#   From: 2010.03.12/outbox.cif.g09.slc.cpg/sg47_5_cif.got.tgz:8348.got - 2010.04.14 03:12:58.
