data_PCOD8194578
_publ_section_title
;
Structure prediction by ZEFSAII (Michael W. Deem and Ramdas Pophale) SiO2 
 PCOD8194578
Probable space group: P M M M
;
_chemical_formula_sum "Si O2"
_cell_formula_units_Z 56
_cell_length_a 21.114450
_cell_length_b 9.032419
_cell_length_c 15.226541
_cell_angle_alpha 90.000000
_cell_angle_beta 90.000000
_cell_angle_gamma 90.000000
_cell_volume 2903.923057
_symmetry_space_group_name_H-M "P M M M"
_symmetry_group_IT_number 47
_symmetry_cell_setting 'orthorhombic'
loop_
_space_group_symop_operation_xyz
x,y,z
-x,-y,z
x,-y,-z
-x,y,-z
-x,-y,-z
x,y,-z
-x,y,z
x,-y,z
loop_
_atom_site_type_symbol
_atom_site_label
_atom_site_fract_x
_atom_site_fract_y
_atom_site_fract_z
Si Si1 0.570905 0.329850 0.345603
Si Si2 0.690824 0.170892 0.403906
Si Si3 0.247072 0.175625 0.227259
Si Si4 0.071138 0.675613 0.595088
Si Si5 0.000000 0.324379 0.899274
Si Si6 0.881895 0.676388 0.219365
Si Si7 0.425955 0.164933 0.000000
Si Si8 0.367337 0.671189 0.160224
O O1 0.500000 0.266191 0.361349
O O2 0.573090 0.500000 0.373621
O O3 0.622105 0.246260 0.404456
O O4 0.588678 0.309177 0.244478
O O5 0.721919 0.199009 0.500000
O O6 0.738163 0.229380 0.327903
O O7 0.677872 0.000000 0.385913
O O8 0.183211 0.248595 0.190009
O O9 0.302748 0.236224 0.166496
O O10 0.241642 0.000000 0.219410
O O11 0.101211 0.724715 0.500000
O O12 0.069568 0.500000 0.600660
O O13 0.107268 0.735949 0.680775
O O14 0.000000 0.737545 0.599688
O O15 0.062239 0.269708 0.846169
O O16 0.000000 0.500000 0.901571
O O17 0.000000 0.262630 0.000000
O O18 0.875655 0.500000 0.216166
O O19 0.406895 0.260101 0.082909
O O20 0.500000 0.146106 0.000000
O O21 0.394957 0.000000 0.000000
O O22 0.350657 0.500000 0.142711
#
# Coordination Sequence:
#
# PCOD8194578 Si02
#       8
#     8   8   8   8   4   8   4   8
#     4   9  18  32  51  76 105 136 173 223 278 321
#     4   9  19  35  52  71 100 141 185 222 259 316
#     4  10  21  37  55  76 107 145 180 222 277 328
#     4   8  13  23  43  73 105 133 165 213 271 322
#     4   9  18  34  56  82 108 135 171 219 264 312
#     4  10  18  32  55  80 105 137 178 221 266 322
#     4  11  23  37  57  87 119 146 173 214 273 335
#     4  10  20  37  58  79 105 141 186 230 269 318
#
# _framework density 19.284255999999999
#
# number of rings (size 3 to 8) (size 9 to 14) (size 15 to 20)
#    0.000    2.571    0.714    1.929    0.000    3.714 
#    1.286    1.786    0.000    0.429    0.000    1.000 
#    0.000    0.000    0.000    0.000    0.000    0.000 
#
# Total GULP energy -694070.324310 kJ/mol
# GULP energy per Si atom -12394.112934 kJ/mol
# Density = 1.924036 g / cm^3
# Si number density = 19.284256 Si / 1000 Ang^3
#
#
#
# Elastic Constant Matrix: (Units=GPa)
#
#
# Indices 1 2 3 4 5 6 
#
# 1 113.7270 26.1586 29.3993 0.0000 0.0000 0.0000
# 2 26.1586 44.3462 24.5356 0.0000 0.0000 0.0000
# 3 29.3993 24.5356 95.5046 0.0000 0.0000 0.0000
# 4 0.0000 0.0000 0.0000 23.1160 0.0000 0.0000
# 5 0.0000 0.0000 0.0000 0.0000 19.5241 0.0000
# 6 0.0000 0.0000 0.0000 0.0000 0.0000 16.9744
#
#
#
# Elastic Compliance Matrix: (Units=1/GPa)
#
#
# Indices 1 2 3 4 5 6 
#
# 1 0.010463 -0.005117 -0.001906 0.000000 0.000000 0.000000
# 2 -0.005117 0.028789 -0.005821 0.000000 0.000000 0.000000
# 3 -0.001906 -0.005821 0.012553 0.000000 0.000000 0.000000
# 4 0.000000 0.000000 0.000000 0.043260 0.000000 0.000000
# 5 0.000000 0.000000 0.000000 0.000000 0.051219 0.000000
# 6 0.000000 0.000000 0.000000 0.000000 0.000000 0.058912
#
#
# Mechanical properties :
#
#
# Convention : Reuss Voigt Hill
#
# Bulk Modulus (GPa) = 38.29016 45.97384 42.13200
# Shear Modulus (GPa) = 20.86909 23.48853 22.17881
#
# Velocity S-wave (km/s) = 3.29322 3.49379 3.39499
# Velocity P-wave (km/s) = 5.86167 6.33777 6.10436
#
# Compressibility (1/GPa) = 0.02611637
#
# Stress axis : x y z
#
# Youngs Moduli (GPa) = 95.57737 34.73578 79.66311
#
# Poissons Ratio (x) = 0.17774 0.15185
# Poissons Ratio (y) = 0.48907 0.46370
# Poissons Ratio (z) = 0.18219 0.20219
#
# Static dielectric constant tensor:
#      x y z
#    x 3.481180 0.000000 0.000000 
#    y 0.000000 3.274250 0.000000 
#    z 0.000000 0.000000 3.685020 
# 
# 
# High freq. dielectric constant tensor:
#      x y z
#    x 1.745520 0.000000 0.000000 
#    y 0.000000 1.723940 0.000000 
#    z 0.000000 0.000000 1.752450 
# 
# From -- ./inp_files/25256.got.cif
#   From: 2010.03.12/outbox.cif.g09.slc.cpg/sg47_13_cif.got.tgz:25256.got - 2010.04.14 03:12:58.
