data_PCOD8194734
_publ_section_title
;
Structure prediction by ZEFSAII (Michael W. Deem and Ramdas Pophale) SiO2 
 PCOD8194734
Probable space group: P M M M
;
_chemical_formula_sum "Si O2"
_cell_formula_units_Z 56
_cell_length_a 30.480775
_cell_length_b 8.312143
_cell_length_c 13.668520
_cell_angle_alpha 90.000000
_cell_angle_beta 90.000000
_cell_angle_gamma 90.000000
_cell_volume 3463.063889
_symmetry_space_group_name_H-M "P M M M"
_symmetry_group_IT_number 47
_symmetry_cell_setting 'orthorhombic'
loop_
_space_group_symop_operation_xyz
x,y,z
-x,-y,z
x,-y,-z
-x,y,-z
-x,-y,-z
x,y,-z
-x,y,z
x,-y,z
loop_
_atom_site_type_symbol
_atom_site_label
_atom_site_fract_x
_atom_site_fract_y
_atom_site_fract_z
Si Si1 0.910416 0.311898 0.611900
Si Si2 0.000000 0.811521 0.389015
Si Si3 0.351831 0.685944 0.390386
Si Si4 0.820203 0.809970 0.610121
Si Si5 0.733729 0.185746 0.293995
Si Si6 0.307486 0.314772 0.107684
Si Si7 0.598390 0.687647 0.200073
Si Si8 0.448231 0.000000 0.887144
O O1 0.911154 0.249801 0.500000
O O2 0.908474 0.500000 0.620679
O O3 0.866201 0.241175 0.661395
O O4 0.955405 0.250882 0.663795
O O5 0.000000 0.743010 0.500000
O O6 0.000000 0.000000 0.386126
O O7 0.366926 0.735722 0.500000
O O8 0.339687 0.500000 0.383333
O O9 0.307371 0.775721 0.362947
O O10 0.391346 0.722770 0.314699
O O11 0.818169 0.739868 0.500000
O O12 0.778776 0.732299 0.668069
O O13 0.817254 0.000000 0.608737
O O14 0.725508 0.230603 0.181779
O O15 0.741855 0.000000 0.300227
O O16 0.295006 0.500000 0.106865
O O17 0.357548 0.291248 0.138823
O O18 0.301349 0.238577 0.000000
O O19 0.580582 0.500000 0.186800
O O20 0.566651 0.831407 0.163963
O O21 0.500000 0.000000 0.880056
O O22 0.432350 0.000000 0.000000
#
# Coordination Sequence:
#
# PCOD8194734 Si02
#       8
#     8   4   8   8   8   8   8   4
#     4   9  16  24  35  51  69  95 136 181 219 256
#     4   9  15  23  35  49  67  93 128 173 222 267
#     4   9  18  32  50  72  97 126 160 195 232 274
#     4   9  17  28  38  51  79 116 147 175 215 267
#     4  10  19  28  41  66  94 119 151 189 228 271
#     4   9  18  32  49  68  90 120 156 190 228 273
#     4   9  19  36  55  77 104 132 162 198 239 283
#     4  11  24  38  55  81 105 129 164 200 243 296
#
# _framework density 16.170650999999999
#
# number of rings (size 3 to 8) (size 9 to 14) (size 15 to 20)
#    0.000    2.714    0.000    2.786    4.000    6.000 
#    0.000    2.143    0.000    0.857    0.000    2.000 
#    0.000    0.000    0.000    0.643    0.000   12.071 
#
# Total GULP energy -693831.671741 kJ/mol
# GULP energy per Si atom -12389.851281 kJ/mol
# Density = 1.613385 g / cm^3
# Si number density = 16.170651 Si / 1000 Ang^3
#
#
#
# Elastic Constant Matrix: (Units=GPa)
#
#
# Indices 1 2 3 4 5 6 
#
# 1 93.5956 37.7859 41.8292 0.0000 0.0000 0.0000
# 2 37.7859 55.3933 31.8049 0.0000 0.0000 0.0000
# 3 41.8292 31.8049 97.3287 0.0000 0.0000 0.0000
# 4 0.0000 0.0000 0.0000 18.0447 0.0000 0.0000
# 5 0.0000 0.0000 0.0000 0.0000 13.4380 0.0000
# 6 0.0000 0.0000 0.0000 0.0000 0.0000 12.7315
#
#
#
# Elastic Compliance Matrix: (Units=1/GPa)
#
#
# Indices 1 2 3 4 5 6 
#
# 1 0.015951 -0.008548 -0.004062 0.000000 0.000000 0.000000
# 2 -0.008548 0.026804 -0.005085 0.000000 0.000000 0.000000
# 3 -0.004062 -0.005085 0.013682 0.000000 0.000000 0.000000
# 4 0.000000 0.000000 0.000000 0.055418 0.000000 0.000000
# 5 0.000000 0.000000 0.000000 0.000000 0.074416 0.000000
# 6 0.000000 0.000000 0.000000 0.000000 0.000000 0.078545
#
#
# Mechanical properties :
#
#
# Convention : Reuss Voigt Hill
#
# Bulk Modulus (GPa) = 47.51555 52.12862 49.82209
# Shear Modulus (GPa) = 16.27496 17.83602 17.05549
#
# Velocity S-wave (km/s) = 3.17590 3.32473 3.25117
# Velocity P-wave (km/s) = 6.54951 6.85893 6.70601
#
# Compressibility (1/GPa) = 0.02104574
#
# Stress axis : x y z
#
# Youngs Moduli (GPa) = 62.69348 37.30844 73.09032
#
# Poissons Ratio (x) = 0.31893 0.29687
# Poissons Ratio (y) = 0.53593 0.37166
# Poissons Ratio (z) = 0.25464 0.18971
#
# Static dielectric constant tensor:
#      x y z
#    x 4.562710 0.000000 0.000000 
#    y 0.000000 3.054800 0.000000 
#    z 0.000000 0.000000 3.205280 
# 
# 
# High freq. dielectric constant tensor:
#      x y z
#    x 1.614130 0.000000 0.000000 
#    y 0.000000 1.628860 0.000000 
#    z 0.000000 0.000000 1.582330 
# 
# From -- ./inp_files/25831.got.cif
#   From: 2010.03.12/outbox.cif.g09.slc.cpg/sg47_13_cif.got.tgz:25831.got - 2010.04.14 03:12:58.
