data_PCOD8194781
_publ_section_title
;
Structure prediction by ZEFSAII (Michael W. Deem and Ramdas Pophale) SiO2 
 PCOD8194781
Probable space group: P M M M
;
_chemical_formula_sum "Si O2"
_cell_formula_units_Z 44
_cell_length_a 9.028627
_cell_length_b 19.462211
_cell_length_c 18.043063
_cell_angle_alpha 90.000000
_cell_angle_beta 90.000000
_cell_angle_gamma 90.000000
_cell_volume 3170.473690
_symmetry_space_group_name_H-M "P M M M"
_symmetry_group_IT_number 47
_symmetry_cell_setting 'orthorhombic'
loop_
_space_group_symop_operation_xyz
x,y,z
-x,-y,z
x,-y,-z
-x,y,-z
-x,-y,-z
x,y,-z
-x,y,z
x,-y,z
loop_
_atom_site_type_symbol
_atom_site_label
_atom_site_fract_x
_atom_site_fract_y
_atom_site_fract_z
Si Si1 0.676002 0.923319 0.000000
Si Si2 0.666296 0.424655 0.087909
Si Si3 0.828420 0.919268 0.726069
Si Si4 0.334088 0.918533 0.581386
Si Si5 0.675997 0.840979 0.857637
Si Si6 0.173126 0.709644 0.913647
O O1 0.735048 0.884670 0.072546
O O2 0.500000 0.925544 0.000000
O O3 0.742494 0.000000 0.000000
O O4 0.500000 0.408386 0.115929
O O5 0.717224 0.500000 0.117830
O O6 0.777019 0.365374 0.115836
O O7 0.668100 0.426538 0.000000
O O8 0.779315 0.893378 0.644474
O O9 0.731936 0.877400 0.784082
O O10 0.000000 0.902079 0.737062
O O11 0.796009 0.000000 0.736675
O O12 0.283675 0.890999 0.500000
O O13 0.500000 0.891829 0.599468
O O14 0.335059 0.000000 0.579485
O O15 0.500000 0.836625 0.855950
O O16 0.741449 0.764878 0.864000
O O17 0.000000 0.717858 0.900502
O O18 0.215774 0.719522 0.000000
#
# Coordination Sequence:
#
# PCOD8194781 Si02
#       6
#     4   8   8   8   8   8
#     4   9  18  30  43  57  68  87 128 177 215 244
#     4   8  14  25  41  59  77  97 124 157 191 231
#     4  10  20  31  42  59  82 104 128 163 208 251
#     4   8  14  26  44  63  80  99 125 156 191 235
#     4  11  20  31  45  57  74 101 136 174 207 243
#     4  10  19  29  41  57  79 102 127 162 204 247
#
# _framework density 13.878052
#
# number of rings (size 3 to 8) (size 9 to 14) (size 15 to 20)
#    0.000    2.636    0.909    3.273    0.000    3.273 
#    0.000    3.636    0.000    2.182    0.000    0.000 
#    0.000    0.000    0.000    0.000    0.000    0.909 
#
# Total GULP energy -545419.124675 kJ/mol
# GULP energy per Si atom -12395.889197 kJ/mol
# Density = 1.384646 g / cm^3
# Si number density = 13.878052 Si / 1000 Ang^3
#
#
#
# Elastic Constant Matrix: (Units=GPa)
#
#
# Indices 1 2 3 4 5 6 
#
# 1 69.6253 39.1091 32.2577 0.0000 0.0000 0.0000
# 2 39.1091 82.2572 33.0502 0.0000 0.0000 0.0000
# 3 32.2577 33.0502 72.3123 0.0000 0.0000 0.0000
# 4 0.0000 0.0000 0.0000 2.4506 0.0000 0.0000
# 5 0.0000 0.0000 0.0000 0.0000 18.4354 0.0000
# 6 0.0000 0.0000 0.0000 0.0000 0.0000 20.6601
#
#
#
# Elastic Compliance Matrix: (Units=1/GPa)
#
#
# Indices 1 2 3 4 5 6 
#
# 1 0.021554 -0.007821 -0.006041 0.000000 0.000000 0.000000
# 2 -0.007821 0.017729 -0.004614 0.000000 0.000000 0.000000
# 3 -0.006041 -0.004614 0.018633 0.000000 0.000000 0.000000
# 4 0.000000 0.000000 0.000000 0.408057 0.000000 0.000000
# 5 0.000000 0.000000 0.000000 0.000000 0.054243 0.000000
# 6 0.000000 0.000000 0.000000 0.000000 0.000000 0.048402
#
#
# Mechanical properties :
#
#
# Convention : Reuss Voigt Hill
#
# Bulk Modulus (GPa) = 47.69968 48.11430 47.90699
# Shear Modulus (GPa) = 8.16248 16.29442 12.22845
#
# Velocity S-wave (km/s) = 2.42783 3.43025 2.97161
# Velocity P-wave (km/s) = 6.50418 7.10165 6.80947
#
# Compressibility (1/GPa) = 0.02096450
#
# Stress axis : x y z
#
# Youngs Moduli (GPa) = 46.39444 56.40335 53.66953
#
# Poissons Ratio (x) = 0.44113 0.32420
# Poissons Ratio (y) = 0.36285 0.24765
# Poissons Ratio (z) = 0.28025 0.26027
#
# Static dielectric constant tensor:
#      x y z
#    x 2.742810 0.000000 0.000000 
#    y 0.000000 2.766850 0.000000 
#    z 0.000000 0.000000 2.680550 
# 
# 
# High freq. dielectric constant tensor:
#      x y z
#    x 1.534130 0.000000 0.000000 
#    y 0.000000 1.507160 0.000000 
#    z 0.000000 0.000000 1.495480 
# 
# From -- ./inp_files/6807.got.cif
#   From: 2010.03.12/outbox.cif.g09.slc.cpg/sg47_4_cif.got.tgz:6807.got - 2010.04.14 03:12:58.
