data_PCOD8195052
_publ_section_title
;
Structure prediction by ZEFSAII (Michael W. Deem and Ramdas Pophale) SiO2 
 PCOD8195052
Probable space group: P M M M
;
_chemical_formula_sum "Si O2"
_cell_formula_units_Z 52
_cell_length_a 13.751394
_cell_length_b 8.779881
_cell_length_c 26.753722
_cell_angle_alpha 90.000000
_cell_angle_beta 90.000000
_cell_angle_gamma 90.000000
_cell_volume 3230.126756
_symmetry_space_group_name_H-M "P M M M"
_symmetry_group_IT_number 47
_symmetry_cell_setting 'orthorhombic'
loop_
_space_group_symop_operation_xyz
x,y,z
-x,-y,z
x,-y,-z
-x,y,-z
-x,-y,-z
x,y,-z
-x,y,z
x,-y,z
loop_
_atom_site_type_symbol
_atom_site_label
_atom_site_fract_x
_atom_site_fract_y
_atom_site_fract_z
Si Si1 0.611573 0.320097 0.601978
Si Si2 0.112081 0.322880 0.751178
Si Si3 0.282219 0.819646 0.305275
Si Si4 0.794502 0.818718 0.845797
Si Si5 0.615283 0.170926 0.500000
Si Si6 0.393601 0.819922 0.792481
Si Si7 0.109386 0.819044 0.054700
O O1 0.500000 0.267736 0.611337
O O2 0.619845 0.500000 0.602101
O O3 0.681431 0.251646 0.643585
O O4 0.651620 0.258890 0.549156
O O5 0.138753 0.500000 0.752449
O O6 0.175117 0.241301 0.708184
O O7 0.132806 0.252843 0.805604
O O8 0.000000 0.295079 0.737660
O O9 0.356115 0.766973 0.261707
O O10 0.277882 0.000000 0.310515
O O11 0.683481 0.766760 0.834604
O O12 0.821589 0.757166 0.901054
O O13 0.805325 0.000000 0.841513
O O14 0.500000 0.168301 0.500000
O O15 0.657892 0.000000 0.500000
O O16 0.500000 0.746828 0.802913
O O17 0.402039 0.000000 0.793189
O O18 0.000000 0.758828 0.063772
O O19 0.109144 0.000000 0.055641
O O20 0.146739 0.762455 0.000000
#
# Coordination Sequence:
#
# PCOD8195052 Si02
#       7
#     8   8   8   8   4   8   8
#     4  10  19  30  45  67  97 128 155 187 228 270
#     4  10  20  32  45  63  89 116 140 174 224 275
#     4  10  19  30  46  66  87 116 153 187 218 259
#     4   9  16  26  43  63  81 108 145 179 211 257
#     4   9  17  29  45  65  90 123 162 197 227 263
#     4   8  14  24  38  58  83 109 138 173 212 251
#     4   8  13  21  35  57  82 105 134 177 223 262
#
# _framework density 16.098438999999999
#
# number of rings (size 3 to 8) (size 9 to 14) (size 15 to 20)
#    0.000    2.846    0.000    3.923    0.000    4.308 
#    0.000    0.000    0.000    5.077    0.000    5.923 
#    0.000    4.308    0.000    5.538    0.000    6.769 
#
# Total GULP energy -644558.344870 kJ/mol
# GULP energy per Si atom -12395.352786 kJ/mol
# Density = 1.606180 g / cm^3
# Si number density = 16.098439 Si / 1000 Ang^3
#
#
#
# Elastic Constant Matrix: (Units=GPa)
#
#
# Indices 1 2 3 4 5 6 
#
# 1 98.2096 27.7548 70.1749 0.0000 0.0000 0.0000
# 2 27.7548 52.3712 36.5359 0.0000 0.0000 0.0000
# 3 70.1749 36.5359 156.1739 0.0000 0.0000 0.0000
# 4 0.0000 0.0000 0.0000 11.0737 0.0000 0.0000
# 5 0.0000 0.0000 0.0000 0.0000 27.2761 0.0000
# 6 0.0000 0.0000 0.0000 0.0000 0.0000 17.0523
#
#
#
# Elastic Compliance Matrix: (Units=1/GPa)
#
#
# Indices 1 2 3 4 5 6 
#
# 1 0.015688 -0.004059 -0.006100 0.000000 0.000000 0.000000
# 2 -0.004059 0.023869 -0.003760 0.000000 0.000000 0.000000
# 3 -0.006100 -0.003760 0.010024 0.000000 0.000000 0.000000
# 4 0.000000 0.000000 0.000000 0.090304 0.000000 0.000000
# 5 0.000000 0.000000 0.000000 0.000000 0.036662 0.000000
# 6 0.000000 0.000000 0.000000 0.000000 0.000000 0.058643
#
#
# Mechanical properties :
#
#
# Convention : Reuss Voigt Hill
#
# Bulk Modulus (GPa) = 45.99170 63.96507 54.97839
# Shear Modulus (GPa) = 18.49978 22.56637 20.53307
#
# Velocity S-wave (km/s) = 3.39361 3.74809 3.57525
# Velocity P-wave (km/s) = 6.63223 7.65185 7.16022
#
# Compressibility (1/GPa) = 0.02174305
#
# Stress axis : x y z
#
# Youngs Moduli (GPa) = 63.74406 41.89596 99.76472
#
# Poissons Ratio (x) = 0.17004 0.60853
# Poissons Ratio (y) = 0.25871 0.37514
# Poissons Ratio (z) = 0.38881 0.15754
#
# Static dielectric constant tensor:
#      x y z
#    x 3.140910 0.000000 0.000000 
#    y 0.000000 2.889400 0.000000 
#    z 0.000000 0.000000 3.246100 
# 
# 
# High freq. dielectric constant tensor:
#      x y z
#    x 1.599420 0.000000 0.000000 
#    y 0.000000 1.603250 0.000000 
#    z 0.000000 0.000000 1.616310 
# 
# From -- ./inp_files/33790.got.cif
#   From: 2010.03.12/outbox.cif.g09.slc.cpg/sg47_17_cif.got.tgz:33790.got - 2010.04.14 03:12:58.
