data_PCOD8195643
_publ_section_title
;
Structure prediction by ZEFSAII (Michael W. Deem and Ramdas Pophale) SiO2 
 PCOD8195643
Probable space group: P M M M
;
_chemical_formula_sum "Si O2"
_cell_formula_units_Z 52
_cell_length_a 18.395602
_cell_length_b 18.705138
_cell_length_c 9.126269
_cell_angle_alpha 90.000000
_cell_angle_beta 90.000000
_cell_angle_gamma 90.000000
_cell_volume 3140.278653
_symmetry_space_group_name_H-M "P M M M"
_symmetry_group_IT_number 47
_symmetry_cell_setting 'orthorhombic'
loop_
_space_group_symop_operation_xyz
x,y,z
-x,-y,z
x,-y,-z
-x,y,-z
-x,-y,-z
x,y,-z
-x,y,z
x,-y,z
loop_
_atom_site_type_symbol
_atom_site_label
_atom_site_fract_x
_atom_site_fract_y
_atom_site_fract_z
Si Si1 0.084666 0.081525 0.168137
Si Si2 0.342211 0.080447 0.328446
Si Si3 0.718510 0.709698 0.827164
Si Si4 0.500000 0.418122 0.328279
Si Si5 0.201444 0.829897 0.672036
Si Si6 0.580796 0.801237 0.829920
Si Si7 0.342250 0.416629 0.326766
O O1 0.126559 0.136617 0.271765
O O2 0.000000 0.097767 0.188159
O O3 0.101812 0.000000 0.215403
O O4 0.108209 0.093420 0.000000
O O5 0.356202 0.082343 0.500000
O O6 0.264655 0.114346 0.287832
O O7 0.406923 0.124238 0.253371
O O8 0.343022 0.000000 0.267387
O O9 0.783464 0.754976 0.754285
O O10 0.641206 0.744251 0.781578
O O11 0.717817 0.629837 0.759436
O O12 0.731187 0.705973 0.000000
O O13 0.500000 0.500000 0.285385
O O14 0.500000 0.407796 0.500000
O O15 0.422447 0.388602 0.269616
O O16 0.195993 0.814794 0.500000
O O17 0.500000 0.771876 0.790908
O O18 0.588192 0.818265 0.000000
O O19 0.334212 0.404181 0.500000
O O20 0.330298 0.500000 0.288966
#
# Coordination Sequence:
#
# PCOD8195643 Si02
#       7
#     8   8   8   4   8   8   8
#     4   9  18  32  50  74 104 134 160 188 227 275
#     4   9  18  31  45  62  83 108 143 188 234 274
#     4  10  20  32  47  65  89 121 155 193 238 286
#     4   7  12  24  41  61  85 113 144 181 230 285
#     4  10  19  32  49  68  93 123 158 195 230 273
#     4   9  19  33  44  57  80 110 146 188 233 279
#     4   9  17  30  47  67  91 118 151 192 237 287
#
# _framework density 16.55904
#
# number of rings (size 3 to 8) (size 9 to 14) (size 15 to 20)
#    0.000    2.846    0.000    2.769    1.077    3.692 
#    0.000    2.308    0.000    1.385    0.000    0.000 
#    0.000    0.615    0.000    6.462    0.000    2.769 
#
# Total GULP energy -644537.066036 kJ/mol
# GULP energy per Si atom -12394.943578 kJ/mol
# Density = 1.652135 g / cm^3
# Si number density = 16.559040 Si / 1000 Ang^3
#
#
#
# Elastic Constant Matrix: (Units=GPa)
#
#
# Indices 1 2 3 4 5 6 
#
# 1 59.3642 32.7866 30.8837 0.0000 0.0000 0.0000
# 2 32.7866 92.0280 42.6724 0.0000 0.0000 0.0000
# 3 30.8837 42.6724 60.4246 0.0000 0.0000 0.0000
# 4 0.0000 0.0000 0.0000 27.5932 0.0000 0.0000
# 5 0.0000 0.0000 0.0000 0.0000 25.2156 0.0000
# 6 0.0000 0.0000 0.0000 0.0000 0.0000 25.0748
#
#
#
# Elastic Compliance Matrix: (Units=1/GPa)
#
#
# Indices 1 2 3 4 5 6 
#
# 1 0.024020 -0.004260 -0.009268 0.000000 0.000000 0.000000
# 2 -0.004260 0.016913 -0.009767 0.000000 0.000000 0.000000
# 3 -0.009268 -0.009767 0.028184 0.000000 0.000000 0.000000
# 4 0.000000 0.000000 0.000000 0.036241 0.000000 0.000000
# 5 0.000000 0.000000 0.000000 0.000000 0.039658 0.000000
# 6 0.000000 0.000000 0.000000 0.000000 0.000000 0.039881
#
#
# Mechanical properties :
#
#
# Convention : Reuss Voigt Hill
#
# Bulk Modulus (GPa) = 44.39187 47.16690 45.77939
# Shear Modulus (GPa) = 20.92103 22.60833 21.76468
#
# Velocity S-wave (km/s) = 3.55832 3.69903 3.62936
# Velocity P-wave (km/s) = 6.61427 6.84030 6.72823
#
# Compressibility (1/GPa) = 0.02252665
#
# Stress axis : x y z
#
# Youngs Moduli (GPa) = 41.63257 59.12783 35.48112
#
# Poissons Ratio (x) = 0.25187 0.32886
# Poissons Ratio (y) = 0.17734 0.34653
# Poissons Ratio (z) = 0.38587 0.57748
#
# Static dielectric constant tensor:
#      x y z
#    x 2.934270 0.000000 0.000000 
#    y 0.000000 3.054410 0.000000 
#    z 0.000000 0.000000 2.982520 
# 
# 
# High freq. dielectric constant tensor:
#      x y z
#    x 1.606630 0.000000 0.000000 
#    y 0.000000 1.629050 0.000000 
#    z 0.000000 0.000000 1.634340 
# 
# From -- ./inp_files/9586.got.cif
#   From: 2010.03.12/outbox.cif.g09.slc.cpg/sg47_5_cif.got.tgz:9586.got - 2010.04.14 03:12:58.
