data_PCOD8195006
_publ_section_title
;
Structure prediction by ZEFSAII (Michael W. Deem and Ramdas Pophale) SiO2 
 PCOD8195006
Probable space group: P M M M
;
_chemical_formula_sum "Si O2"
_cell_formula_units_Z 60
_cell_length_a 9.492281
_cell_length_b 22.720049
_cell_length_c 15.169588
_cell_angle_alpha 90.000000
_cell_angle_beta 90.000000
_cell_angle_gamma 90.000000
_cell_volume 3271.550553
_symmetry_space_group_name_H-M "P M M M"
_symmetry_group_IT_number 47
_symmetry_cell_setting 'orthorhombic'
loop_
_space_group_symop_operation_xyz
x,y,z
-x,-y,z
x,-y,-z
-x,y,-z
-x,-y,-z
x,y,-z
-x,y,z
x,-y,z
loop_
_atom_site_type_symbol
_atom_site_label
_atom_site_fract_x
_atom_site_fract_y
_atom_site_fract_z
Si Si1 0.343079 0.174980 0.857043
Si Si2 0.840284 0.933630 0.895786
Si Si3 0.156322 0.000000 0.394433
Si Si4 0.344440 0.224544 0.663634
Si Si5 0.837944 0.281686 0.096113
Si Si6 0.833999 0.329282 0.282315
Si Si7 0.344415 0.103310 0.600216
Si Si8 0.167253 0.434527 0.598727
O O1 0.500000 0.168899 0.898710
O O2 0.268089 0.111784 0.852184
O O3 0.355548 0.199219 0.760245
O O4 0.251500 0.221985 0.911464
O O5 0.000000 0.918153 0.867214
O O6 0.802335 0.000000 0.865008
O O7 0.825255 0.928504 0.000000
O O8 0.235737 0.942383 0.355756
O O9 0.147781 0.000000 0.500000
O O10 0.000000 0.000000 0.353886
O O11 0.500000 0.245769 0.632048
O O12 0.235713 0.278048 0.659245
O O13 0.288000 0.170476 0.604128
O O14 0.790818 0.323944 0.178159
O O15 0.000000 0.263462 0.111463
O O16 0.820500 0.313893 0.000000
O O17 0.777723 0.390298 0.324850
O O18 0.000000 0.323477 0.294331
O O19 0.359688 0.083612 0.500000
O O20 0.500000 0.099617 0.645682
O O21 0.217921 0.415596 0.500000
O O22 0.225015 0.500000 0.620621
O O23 0.000000 0.435427 0.599959
#
# Coordination Sequence:
#
# PCOD8195006 Si02
#       8
#     8   8   4   8   8   8   8   8
#     4  10  19  30  44  63  87 112 142 184 230 274
#     4   9  18  32  47  61  80 108 140 175 219 273
#     4   9  17  29  45  65  85 103 134 187 238 271
#     4   9  19  33  45  63  92 120 145 182 232 277
#     4   9  17  29  45  64  88 120 154 188 229 276
#     4   9  17  29  47  70  94 122 157 194 228 269
#     4   9  17  31  49  63  79 112 152 181 217 279
#     4   8  14  26  46  73 103 132 161 192 227 269
#
# _framework density 18.339928
#
# number of rings (size 3 to 8) (size 9 to 14) (size 15 to 20)
#    0.000    3.000    0.000    1.800    0.000    4.800 
#    1.200    0.667    0.000    0.800    0.000    3.733 
#    0.000    0.000    0.000    6.667    0.000    6.933 
#
# Total GULP energy -743396.232941 kJ/mol
# GULP energy per Si atom -12389.937216 kJ/mol
# Density = 1.829819 g / cm^3
# Si number density = 18.339928 Si / 1000 Ang^3
#
#
#
# Elastic Constant Matrix: (Units=GPa)
#
#
# Indices 1 2 3 4 5 6 
#
# 1 71.7204 53.1236 22.5709 0.0000 0.0000 0.0000
# 2 53.1236 134.3835 49.3567 0.0000 0.0000 0.0000
# 3 22.5709 49.3567 51.6910 0.0000 0.0000 0.0000
# 4 0.0000 0.0000 0.0000 -116.7553 0.0000 0.0000
# 5 0.0000 0.0000 0.0000 0.0000 11.2423 0.0000
# 6 0.0000 0.0000 0.0000 0.0000 0.0000 12.0514
#
#
#
# Elastic Compliance Matrix: (Units=1/GPa)
#
#
# Indices 1 2 3 4 5 6 
#
# 1 0.019825 -0.007173 -0.001807 0.000000 0.000000 0.000000
# 2 -0.007173 0.014056 -0.010289 0.000000 0.000000 0.000000
# 3 -0.001807 -0.010289 0.029959 0.000000 0.000000 0.000000
# 4 0.000000 0.000000 0.000000 -0.008565 0.000000 0.000000
# 5 0.000000 0.000000 0.000000 0.000000 0.088950 0.000000
# 6 0.000000 0.000000 0.000000 0.000000 0.000000 0.082978
#
#
# Mechanical properties :
#
#
# Convention : Reuss Voigt Hill
#
# Bulk Modulus (GPa) = 39.52388 56.43305 47.97847
# Shear Modulus (GPa) = 18.23642 -9.84276 4.19683
#
# Velocity S-wave (km/s) = 3.15676 -2.31916 1.51437
# Velocity P-wave (km/s) = 5.90630 4.86478 5.41066
#
# Compressibility (1/GPa) = 0.02530116
#
# Stress axis : x y z
#
# Youngs Moduli (GPa) = 50.44101 71.14322 33.37854
#
# Poissons Ratio (x) = 0.51034 0.06032
# Poissons Ratio (y) = 0.36183 0.34344
# Poissons Ratio (z) = 0.09116 0.73200
#
# Static dielectric constant tensor:
#      x y z
#    x 3.532760 0.000000 0.000000 
#    y 0.000000 3.662040 0.000000 
#    z 0.000000 0.000000 3.352780 
# 
# 
# High freq. dielectric constant tensor:
#      x y z
#    x 1.695840 0.000000 0.000000 
#    y 0.000000 1.688410 0.000000 
#    z 0.000000 0.000000 1.703270 
# 
# From -- ./inp_files/26986.got.cif
#   From: 2010.03.12/outbox.cif.g09.slc.cpg/sg47_14_cif.got.tgz:26986.got - 2010.04.14 03:12:58.
