data_PCOD8195510
_publ_section_title
;
Structure prediction by ZEFSAII (Michael W. Deem and Ramdas Pophale) SiO2 
 PCOD8195510
Probable space group: P M M M
;
_chemical_formula_sum "Si O2"
_cell_formula_units_Z 64
_cell_length_a 18.371984
_cell_length_b 9.289618
_cell_length_c 20.633947
_cell_angle_alpha 90.000000
_cell_angle_beta 90.000000
_cell_angle_gamma 90.000000
_cell_volume 3521.569184
_symmetry_space_group_name_H-M "P M M M"
_symmetry_group_IT_number 47
_symmetry_cell_setting 'orthorhombic'
loop_
_space_group_symop_operation_xyz
x,y,z
-x,-y,z
x,-y,-z
-x,y,-z
-x,-y,-z
x,y,-z
-x,y,z
x,-y,z
loop_
_atom_site_type_symbol
_atom_site_label
_atom_site_fract_x
_atom_site_fract_y
_atom_site_fract_z
Si Si1 0.664562 0.838590 0.929423
Si Si2 0.084624 0.834327 0.689854
Si Si3 0.315037 0.329251 0.571166
Si Si4 0.582159 0.671922 0.682659
Si Si5 0.837515 0.837805 0.928244
Si Si6 0.149906 0.667371 0.424789
Si Si7 0.835526 0.668318 0.803895
Si Si8 0.335114 0.666502 0.191961
O O1 0.751124 0.834808 0.928085
O O2 0.633098 0.739735 0.872659
O O3 0.636370 0.000000 0.917927
O O4 0.637598 0.782731 0.000000
O O5 0.098482 0.765355 0.619367
O O6 0.127558 0.746701 0.744031
O O7 0.000000 0.822934 0.705997
O O8 0.110581 0.000000 0.689702
O O9 0.333718 0.266492 0.500000
O O10 0.321018 0.500000 0.569097
O O11 0.372372 0.264431 0.622188
O O12 0.232991 0.287908 0.590946
O O13 0.500000 0.730449 0.678572
O O14 0.584015 0.500000 0.681466
O O15 0.620152 0.730074 0.747658
O O16 0.866461 0.731977 0.871867
O O17 0.865181 0.000000 0.913811
O O18 0.865395 0.788501 0.000000
O O19 0.131482 0.696808 0.500000
O O20 0.136839 0.500000 0.408053
O O21 0.854274 0.500000 0.801775
O O22 0.749793 0.697224 0.797132
O O23 0.350850 0.500000 0.183342
#
# Coordination Sequence:
#
# PCOD8195510 Si02
#       8
#     8   8   8   8   8   8   8   8
#     4   8  14  25  42  65  91 118 151 193 239 285
#     4  11  24  38  51  70  98 130 162 198 239 284
#     4   8  14  26  45  69  96 124 155 192 232 275
#     4   9  16  25  39  62  94 129 161 194 232 274
#     4   8  14  26  45  70 100 129 156 193 243 294
#     4   9  18  34  56  78  99 125 157 195 240 289
#     4  10  19  31  50  73  97 127 163 204 245 286
#     4   9  17  28  44  68  95 123 157 197 239 281
#
# _framework density 18.173717
#
# number of rings (size 3 to 8) (size 9 to 14) (size 15 to 20)
#    0.000    3.000    0.000    3.000    0.000    4.750 
#    0.000    5.000    0.000    1.125    0.000    5.250 
#    0.000    0.000    0.000    7.625    0.000    7.500 
#
# Total GULP energy -793299.572822 kJ/mol
# GULP energy per Si atom -12395.305825 kJ/mol
# Density = 1.813235 g / cm^3
# Si number density = 18.173717 Si / 1000 Ang^3
#
#
#
# Elastic Constant Matrix: (Units=GPa)
#
#
# Indices 1 2 3 4 5 6 
#
# 1 39.4177 26.2649 33.5065 0.0000 0.0000 0.0000
# 2 26.2649 71.4107 54.4954 0.0000 0.0000 0.0000
# 3 33.5065 54.4954 135.9411 0.0000 0.0000 0.0000
# 4 0.0000 0.0000 0.0000 24.8344 0.0000 0.0000
# 5 0.0000 0.0000 0.0000 0.0000 4.0915 0.0000
# 6 0.0000 0.0000 0.0000 0.0000 0.0000 11.3386
#
#
#
# Elastic Compliance Matrix: (Units=1/GPa)
#
#
# Indices 1 2 3 4 5 6 
#
# 1 0.035924 -0.009301 -0.005126 0.000000 0.000000 0.000000
# 2 -0.009301 0.022584 -0.006761 0.000000 0.000000 0.000000
# 3 -0.005126 -0.006761 0.011330 0.000000 0.000000 0.000000
# 4 0.000000 0.000000 0.000000 0.040267 0.000000 0.000000
# 5 0.000000 0.000000 0.000000 0.000000 0.244406 0.000000
# 6 0.000000 0.000000 0.000000 0.000000 0.000000 0.088195
#
#
# Mechanical properties :
#
#
# Convention : Reuss Voigt Hill
#
# Bulk Modulus (GPa) = 36.41393 52.81144 44.61269
# Shear Modulus (GPa) = 10.11664 16.88640 13.50152
#
# Velocity S-wave (km/s) = 2.36193 3.05153 2.72860
# Velocity P-wave (km/s) = 5.24580 6.44501 5.87607
#
# Compressibility (1/GPa) = 0.02746201
#
# Stress axis : x y z
#
# Youngs Moduli (GPa) = 27.83641 44.27947 88.26313
#
# Poissons Ratio (x) = 0.41185 0.45243
# Poissons Ratio (y) = 0.25891 0.59672
# Poissons Ratio (z) = 0.14269 0.29936
#
# Static dielectric constant tensor:
#      x y z
#    x 3.089990 0.000000 0.000000 
#    y 0.000000 3.158880 0.000000 
#    z 0.000000 0.000000 3.832420 
# 
# 
# High freq. dielectric constant tensor:
#      x y z
#    x 1.670120 0.000000 0.000000 
#    y 0.000000 1.673260 0.000000 
#    z 0.000000 0.000000 1.724480 
# 
# From -- ./inp_files/31345.got.cif
#   From: 2010.03.12/outbox.cif.g09.slc.cpg/sg47_16_cif.got.tgz:31345.got - 2010.04.14 03:12:58.
