data_PCOD8195941
_publ_section_title
;
Structure prediction by ZEFSAII (Michael W. Deem and Ramdas Pophale) SiO2 
 PCOD8195941
Probable space group: P M M M
;
_chemical_formula_sum "Si O2"
_cell_formula_units_Z 52
_cell_length_a 20.531345
_cell_length_b 10.008318
_cell_length_c 13.956846
_cell_angle_alpha 90.000000
_cell_angle_beta 90.000000
_cell_angle_gamma 90.000000
_cell_volume 2867.911750
_symmetry_space_group_name_H-M "P M M M"
_symmetry_group_IT_number 47
_symmetry_cell_setting 'orthorhombic'
loop_
_space_group_symop_operation_xyz
x,y,z
-x,-y,z
x,-y,-z
-x,y,-z
-x,-y,-z
x,y,-z
-x,y,z
x,-y,z
loop_
_atom_site_type_symbol
_atom_site_label
_atom_site_fract_x
_atom_site_fract_y
_atom_site_fract_z
Si Si1 0.321046 0.346553 0.388355
Si Si2 0.229102 0.849171 0.891581
Si Si3 0.928116 0.341740 0.606629
Si Si4 0.379431 0.217041 0.108354
Si Si5 0.426772 0.851746 0.696873
Si Si6 0.572164 0.500000 0.888396
Si Si7 0.808143 0.656805 0.269698
O O1 0.308931 0.319441 0.500000
O O2 0.341386 0.500000 0.370105
O O3 0.378129 0.252976 0.350169
O O4 0.254641 0.310903 0.333867
O O5 0.305787 0.827895 0.884951
O O6 0.192665 0.740309 0.827882
O O7 0.213218 0.000000 0.857063
O O8 0.204996 0.827754 0.000000
O O9 0.917439 0.282831 0.500000
O O10 0.922669 0.500000 0.601026
O O11 0.871869 0.288048 0.675824
O O12 0.000000 0.299575 0.644845
O O13 0.420611 0.137863 0.187311
O O14 0.385100 0.372103 0.140267
O O15 0.406562 0.192310 0.000000
O O16 0.500000 0.807505 0.670601
O O17 0.412606 0.000000 0.655756
O O18 0.500000 0.500000 0.838703
O O19 0.559854 0.500000 0.000000
O O20 0.812774 0.500000 0.245097
#
# Coordination Sequence:
#
# PCOD8195941 Si02
#       7
#     8   8   8   8   8   4   8
#     4  10  22  39  57  77 101 132 172 217 264 315
#     4  10  21  35  52  75 106 143 180 218 261 313
#     4   8  14  27  51  85 121 149 172 207 261 319
#     4  10  20  34  53  75 103 137 172 214 266 325
#     4  11  24  38  53  75 101 132 173 220 269 320
#     4   9  18  30  46  72 101 129 164 211 269 325
#     4  10  19  32  56  86 111 137 174 219 261 308
#
# _framework density 18.13166
#
# number of rings (size 3 to 8) (size 9 to 14) (size 15 to 20)
#    0.000    2.231    1.538    1.846    2.154    4.923 
#    0.000    2.308    0.000    2.308    0.000    4.308 
#    0.000    0.000    0.000    0.000    0.000    0.000 
#
# Total GULP energy -644582.765120 kJ/mol
# GULP energy per Si atom -12395.822406 kJ/mol
# Density = 1.809039 g / cm^3
# Si number density = 18.131660 Si / 1000 Ang^3
#
#
#
# Elastic Constant Matrix: (Units=GPa)
#
#
# Indices 1 2 3 4 5 6 
#
# 1 113.7730 53.5993 50.8825 0.0000 0.0000 0.0000
# 2 53.5993 87.0381 52.1748 0.0000 0.0000 0.0000
# 3 50.8825 52.1748 92.1774 0.0000 0.0000 0.0000
# 4 0.0000 0.0000 0.0000 11.6143 0.0000 0.0000
# 5 0.0000 0.0000 0.0000 0.0000 -2.5048 0.0000
# 6 0.0000 0.0000 0.0000 0.0000 0.0000 203.1506
#
#
#
# Elastic Compliance Matrix: (Units=1/GPa)
#
#
# Indices 1 2 3 4 5 6 
#
# 1 0.013335 -0.005750 -0.004106 0.000000 0.000000 0.000000
# 2 -0.005750 0.019869 -0.008072 0.000000 0.000000 0.000000
# 3 -0.004106 -0.008072 0.017684 0.000000 0.000000 0.000000
# 4 0.000000 0.000000 0.000000 0.086100 0.000000 0.000000
# 5 0.000000 0.000000 0.000000 0.000000 -0.399229 0.000000
# 6 0.000000 0.000000 0.000000 0.000000 0.000000 0.004922
#
#
# Mechanical properties :
#
#
# Convention : Reuss Voigt Hill
#
# Bulk Modulus (GPa) = 66.52912 67.36685 66.94799
# Shear Modulus (GPa) = -23.10005 51.54082 14.22038
#
# Velocity S-wave (km/s) = -3.57321 5.33738 2.80355
# Velocity P-wave (km/s) = 4.44389 8.67285 6.89081
#
# Compressibility (1/GPa) = 0.01503101
#
# Stress axis : x y z
#
# Youngs Moduli (GPa) = 74.99161 50.32880 56.54726
#
# Poissons Ratio (x) = 0.28941 0.23218
# Poissons Ratio (y) = 0.43123 0.45647
# Poissons Ratio (z) = 0.30792 0.40627
#
# Static dielectric constant tensor:
#      x y z
#    x 3.378720 0.000000 0.000000 
#    y 0.000000 3.331370 0.000000 
#    z 0.000000 0.000000 3.496480 
# 
# 
# High freq. dielectric constant tensor:
#      x y z
#    x 1.684630 0.000000 0.000000 
#    y 0.000000 1.691920 0.000000 
#    z 0.000000 0.000000 1.698780 
# 
# From -- ./inp_files/25051.got.cif
#   From: 2010.03.12/outbox.cif.g09.slc.cpg/sg47_13_cif.got.tgz:25051.got - 2010.04.14 03:12:58.
