data_PCOD8195674
_publ_section_title
;
Structure prediction by ZEFSAII (Michael W. Deem and Ramdas Pophale) SiO2 
 PCOD8195674
Probable space group: P M M M
;
_chemical_formula_sum "Si O2"
_cell_formula_units_Z 44
_cell_length_a 14.414737
_cell_length_b 14.449895
_cell_length_c 12.859024
_cell_angle_alpha 90.000000
_cell_angle_beta 90.000000
_cell_angle_gamma 90.000000
_cell_volume 2678.424576
_symmetry_space_group_name_H-M "P M M M"
_symmetry_group_IT_number 47
_symmetry_cell_setting 'orthorhombic'
loop_
_space_group_symop_operation_xyz
x,y,z
-x,-y,z
x,-y,-z
-x,y,-z
-x,-y,-z
x,y,-z
-x,y,z
x,-y,z
loop_
_atom_site_type_symbol
_atom_site_label
_atom_site_fract_x
_atom_site_fract_y
_atom_site_fract_z
Si Si1 0.389554 0.105238 0.000000
Si Si2 0.726280 0.107245 0.621249
Si Si3 0.603170 0.397793 0.273893
Si Si4 0.606439 0.201750 0.205562
Si Si5 0.209203 0.399718 0.621207
Si Si6 0.897454 0.775224 0.377486
O O1 0.349443 0.155540 0.897333
O O2 0.500000 0.112052 0.000000
O O3 0.354491 0.000000 0.000000
O O4 0.703763 0.127064 0.500000
O O5 0.656418 0.166611 0.690484
O O6 0.831782 0.137527 0.647696
O O7 0.715557 0.000000 0.648757
O O8 0.500000 0.390073 0.324606
O O9 0.613825 0.500000 0.220158
O O10 0.615792 0.313342 0.192363
O O11 0.681016 0.384671 0.361709
O O12 0.500000 0.171112 0.217068
O O13 0.191587 0.398400 0.500000
O O14 0.178135 0.500000 0.667209
O O15 0.148244 0.317817 0.672454
O O16 0.906257 0.762160 0.500000
O O17 0.000000 0.791334 0.329046
#
# Coordination Sequence:
#
# PCOD8195674 Si02
#       6
#     4   8   8   8   8   8
#     4   9  18  32  49  69  92 122 160 195 227 265
#     4  10  20  32  46  67  94 123 157 194 234 280
#     4   9  17  28  43  65  93 122 150 183 226 277
#     4  10  19  32  50  70  95 125 156 191 229 271
#     4   9  16  26  41  62  90 123 157 191 226 270
#     4   9  17  29  43  61  88 120 155 194 236 280
#
# _framework density 16.427567
#
# number of rings (size 3 to 8) (size 9 to 14) (size 15 to 20)
#    0.000    2.636    1.818    0.545    0.000    2.545 
#    0.000    8.636    0.000    2.727    0.000    0.636 
#    0.000    2.182    0.000    4.000    0.000    0.364 
#
# Total GULP energy -545109.247997 kJ/mol
# GULP energy per Si atom -12388.846545 kJ/mol
# Density = 1.639018 g / cm^3
# Si number density = 16.427567 Si / 1000 Ang^3
#
#
#
# Elastic Constant Matrix: (Units=GPa)
#
#
# Indices 1 2 3 4 5 6 
#
# 1 79.2939 35.7194 26.0718 0.0000 0.0000 0.0000
# 2 35.7194 124.7705 39.5913 0.0000 0.0000 0.0000
# 3 26.0718 39.5913 51.6486 0.0000 0.0000 0.0000
# 4 0.0000 0.0000 0.0000 18.2938 0.0000 0.0000
# 5 0.0000 0.0000 0.0000 0.0000 3.3842 0.0000
# 6 0.0000 0.0000 0.0000 0.0000 0.0000 21.1067
#
#
#
# Elastic Compliance Matrix: (Units=1/GPa)
#
#
# Indices 1 2 3 4 5 6 
#
# 1 0.015745 -0.002624 -0.005937 0.000000 0.000000 0.000000
# 2 -0.002624 0.011028 -0.007129 0.000000 0.000000 0.000000
# 3 -0.005937 -0.007129 0.027823 0.000000 0.000000 0.000000
# 4 0.000000 0.000000 0.000000 0.054663 0.000000 0.000000
# 5 0.000000 0.000000 0.000000 0.000000 0.295488 0.000000
# 6 0.000000 0.000000 0.000000 0.000000 0.000000 0.047378
#
#
# Mechanical properties :
#
#
# Convention : Reuss Voigt Hill
#
# Bulk Modulus (GPa) = 43.07152 50.94200 47.00676
# Shear Modulus (GPa) = 10.17823 18.84567 14.51195
#
# Velocity S-wave (km/s) = 2.49184 3.39071 2.97541
# Velocity P-wave (km/s) = 5.87835 6.81224 6.36245
#
# Compressibility (1/GPa) = 0.02321720
#
# Stress axis : x y z
#
# Youngs Moduli (GPa) = 63.51128 90.67840 35.94114
#
# Poissons Ratio (x) = 0.23791 0.21338
# Poissons Ratio (y) = 0.16664 0.25623
# Poissons Ratio (z) = 0.37706 0.64645
#
# Static dielectric constant tensor:
#      x y z
#    x 3.200010 0.000000 0.000000 
#    y 0.000000 3.549680 0.000000 
#    z 0.000000 0.000000 2.691190 
# 
# 
# High freq. dielectric constant tensor:
#      x y z
#    x 1.619070 0.000000 0.000000 
#    y 0.000000 1.658660 0.000000 
#    z 0.000000 0.000000 1.567940 
# 
# From -- ./inp_files/17381.got.cif
#   From: 2010.03.12/outbox.cif.g09.slc.cpg/sg47_9_cif.got.tgz:17381.got - 2010.04.14 03:12:58.
