data_PCOD8195610
_publ_section_title
;
Structure prediction by ZEFSAII (Michael W. Deem and Ramdas Pophale) SiO2 
 PCOD8195610
Probable space group: P M M M
;
_chemical_formula_sum "Si O2"
_cell_formula_units_Z 44
_cell_length_a 17.929537
_cell_length_b 9.690921
_cell_length_c 19.262824
_cell_angle_alpha 90.000000
_cell_angle_beta 90.000000
_cell_angle_gamma 90.000000
_cell_volume 3346.987455
_symmetry_space_group_name_H-M "P M M M"
_symmetry_group_IT_number 47
_symmetry_cell_setting 'orthorhombic'
loop_
_space_group_symop_operation_xyz
x,y,z
-x,-y,z
x,-y,-z
-x,y,-z
-x,-y,-z
x,y,-z
-x,y,z
x,-y,z
loop_
_atom_site_type_symbol
_atom_site_label
_atom_site_fract_x
_atom_site_fract_y
_atom_site_fract_z
Si Si1 0.714934 0.158740 0.080264
Si Si2 0.000000 0.339293 0.082277
Si Si3 0.086072 0.842733 0.698823
Si Si4 0.088662 0.344502 0.576513
Si Si5 0.870683 0.160298 0.851755
Si Si6 0.582262 0.344757 0.082492
O O1 0.788908 0.198036 0.121762
O O2 0.646133 0.244879 0.112414
O O3 0.693698 0.000000 0.089833
O O4 0.729299 0.195432 0.000000
O O5 0.072551 0.262397 0.110834
O O6 0.000000 0.500000 0.105934
O O7 0.000000 0.327973 0.000000
O O8 0.121785 0.752551 0.636773
O O9 0.130055 0.812636 0.769518
O O10 0.000000 0.804515 0.712793
O O11 0.094375 0.000000 0.675216
O O12 0.117427 0.298008 0.500000
O O13 0.114905 0.500000 0.591805
O O14 0.000000 0.334467 0.577374
O O15 0.891793 0.000000 0.867938
O O16 0.500000 0.299467 0.109627
O O17 0.599780 0.500000 0.107243
O O18 0.582468 0.336435 0.000000
#
# Coordination Sequence:
#
# PCOD8195610 Si02
#       6
#     8   4   8   8   8   8
#     4   9  17  27  40  57  73  93 123 157 190 224
#     4  11  23  33  41  55  70  89 126 171 205 230
#     4   9  16  26  39  54  70  91 122 155 185 220
#     4   8  14  24  37  53  72  92 113 141 181 224
#     4  10  19  32  44  54  72  99 128 157 195 236
#     4   8  14  25  40  56  74  95 115 140 182 230
#
# _framework density 13.14615
#
# number of rings (size 3 to 8) (size 9 to 14) (size 15 to 20)
#    0.000    3.000    0.909    1.909    0.000    3.636 
#    0.000    5.455    0.000    0.000    0.000    0.000 
#    0.000    0.000    0.000    0.000    0.000    0.909 
#
# Total GULP energy -545386.717183 kJ/mol
# GULP energy per Si atom -12395.152663 kJ/mol
# Density = 1.311623 g / cm^3
# Si number density = 13.146150 Si / 1000 Ang^3
#
#
#
# Elastic Constant Matrix: (Units=GPa)
#
#
# Indices 1 2 3 4 5 6 
#
# 1 86.7717 56.6540 39.5805 0.0000 0.0000 0.0000
# 2 56.6540 81.7735 48.3863 0.0000 0.0000 0.0000
# 3 39.5805 48.3863 72.4808 0.0000 0.0000 0.0000
# 4 0.0000 0.0000 0.0000 20.5445 0.0000 0.0000
# 5 0.0000 0.0000 0.0000 0.0000 -1.1452 0.0000
# 6 0.0000 0.0000 0.0000 0.0000 0.0000 18.1358
#
#
#
# Elastic Compliance Matrix: (Units=1/GPa)
#
#
# Indices 1 2 3 4 5 6 
#
# 1 0.021421 -0.013090 -0.002959 0.000000 0.000000 0.000000
# 2 -0.013090 0.028212 -0.011686 0.000000 0.000000 0.000000
# 3 -0.002959 -0.011686 0.023214 0.000000 0.000000 0.000000
# 4 0.000000 0.000000 0.000000 0.048675 0.000000 0.000000
# 5 0.000000 0.000000 0.000000 0.000000 -0.873247 0.000000
# 6 0.000000 0.000000 0.000000 0.000000 0.000000 0.055140
#
#
# Mechanical properties :
#
#
# Convention : Reuss Voigt Hill
#
# Bulk Modulus (GPa) = 57.54517 58.91859 58.23188
# Shear Modulus (GPa) = -7.86999 13.93405 3.03203
#
# Velocity S-wave (km/s) = -2.44939 3.25919 1.52033
# Velocity P-wave (km/s) = 5.98908 7.68626 6.89012
#
# Compressibility (1/GPa) = 0.01737765
#
# Stress axis : x y z
#
# Youngs Moduli (GPa) = 46.68407 35.44577 43.07789
#
# Poissons Ratio (x) = 0.46397 0.12747
# Poissons Ratio (y) = 0.61107 0.50339
# Poissons Ratio (z) = 0.13815 0.41421
#
# Static dielectric constant tensor:
#      x y z
#    x 2.563880 0.000000 0.000000 
#    y 0.000000 2.794440 0.000000 
#    z 0.000000 0.000000 2.624340 
# 
# 
# High freq. dielectric constant tensor:
#      x y z
#    x 1.466030 0.000000 0.000000 
#    y 0.000000 1.508180 0.000000 
#    z 0.000000 0.000000 1.476800 
# 
# From -- ./inp_files/28425.got.cif
#   From: 2010.03.12/outbox.cif.g09.slc.cpg/sg47_15_cif.got.tgz:28425.got - 2010.04.14 03:12:58.
