data_PCOD8195669
_publ_section_title
;
Structure prediction by ZEFSAII (Michael W. Deem and Ramdas Pophale) SiO2 
 PCOD8195669
Probable space group: P M M M
;
_chemical_formula_sum "Si O2"
_cell_formula_units_Z 44
_cell_length_a 7.957510
_cell_length_b 30.113451
_cell_length_c 9.298628
_cell_angle_alpha 90.000000
_cell_angle_beta 90.000000
_cell_angle_gamma 90.000000
_cell_volume 2228.212444
_symmetry_space_group_name_H-M "P M M M"
_symmetry_group_IT_number 47
_symmetry_cell_setting 'orthorhombic'
loop_
_space_group_symop_operation_xyz
x,y,z
-x,-y,z
x,-y,-z
-x,y,-z
-x,-y,-z
x,y,-z
-x,y,z
x,-y,z
loop_
_atom_site_type_symbol
_atom_site_label
_atom_site_fract_x
_atom_site_fract_y
_atom_site_fract_z
Si Si1 0.000000 0.050272 0.171808
Si Si2 0.698421 0.283143 0.334998
Si Si3 0.699883 0.450945 0.338535
Si Si4 0.314685 0.105637 0.170781
Si Si5 0.700397 0.631648 0.161771
Si Si6 0.806717 0.800604 0.838922
O O1 0.167971 0.074126 0.233929
O O2 0.000000 0.000000 0.228976
O O3 0.000000 0.051598 0.000000
O O4 0.754159 0.287406 0.500000
O O5 0.500000 0.279006 0.319125
O O6 0.766812 0.326291 0.251452
O O7 0.781931 0.239939 0.268073
O O8 0.765482 0.441719 0.500000
O O9 0.500000 0.448882 0.338050
O O10 0.759576 0.500000 0.287207
O O11 0.773515 0.413392 0.232896
O O12 0.500000 0.089168 0.221847
O O13 0.291850 0.156562 0.221613
O O14 0.301612 0.104587 0.000000
O O15 0.500000 0.630681 0.162925
O O16 0.770345 0.635037 0.000000
O O17 0.000000 0.814478 0.844494
O O18 0.743911 0.787596 0.000000
#
# Coordination Sequence:
#
# PCOD8195669 Si02
#       6
#     4   8   8   8   8   8
#     4   9  16  26  40  64 101 139 177 219 260 309
#     4  10  20  32  46  66  93 124 159 200 248 305
#     4   8  13  21  33  50  76 113 154 195 244 301
#     4   9  16  27  44  66  95 133 174 215 261 311
#     4   9  16  25  38  57  83 116 155 199 246 299
#     4  10  19  32  50  70  94 125 164 209 255 307
#
# _framework density 19.746770999999999
#
# number of rings (size 3 to 8) (size 9 to 14) (size 15 to 20)
#    0.000    2.818    0.909    2.182    0.000    5.091 
#    0.000    3.636    0.000    0.000    0.000    0.000 
#    0.000    2.182    0.000   11.455    0.000   14.182 
#
# Total GULP energy -545432.592403 kJ/mol
# GULP energy per Si atom -12396.195282 kJ/mol
# Density = 1.970183 g / cm^3
# Si number density = 19.746771 Si / 1000 Ang^3
#
#
#
# Elastic Constant Matrix: (Units=GPa)
#
#
# Indices 1 2 3 4 5 6 
#
# 1 73.8932 52.1534 22.6865 0.0000 0.0000 0.0000
# 2 52.1534 163.2619 58.5152 0.0000 0.0000 0.0000
# 3 22.6865 58.5152 91.7899 0.0000 0.0000 0.0000
# 4 0.0000 0.0000 0.0000 9.4088 0.0000 0.0000
# 5 0.0000 0.0000 0.0000 0.0000 8.8672 0.0000
# 6 0.0000 0.0000 0.0000 0.0000 0.0000 12.7626
#
#
#
# Elastic Compliance Matrix: (Units=1/GPa)
#
#
# Indices 1 2 3 4 5 6 
#
# 1 0.017541 -0.005249 -0.000989 0.000000 0.000000 0.000000
# 2 -0.005249 0.009510 -0.004765 0.000000 0.000000 0.000000
# 3 -0.000989 -0.004765 0.014177 0.000000 0.000000 0.000000
# 4 0.000000 0.000000 0.000000 0.106283 0.000000 0.000000
# 5 0.000000 0.000000 0.000000 0.000000 0.112775 0.000000
# 6 0.000000 0.000000 0.000000 0.000000 0.000000 0.078354
#
#
# Mechanical properties :
#
#
# Convention : Reuss Voigt Hill
#
# Bulk Modulus (GPa) = 52.02601 66.18393 59.10497
# Shear Modulus (GPa) = 13.62197 19.24705 16.43451
#
# Velocity S-wave (km/s) = 2.62932 3.12540 2.88803
# Velocity P-wave (km/s) = 5.96838 6.82739 6.41228
#
# Compressibility (1/GPa) = 0.01922116
#
# Stress axis : x y z
#
# Youngs Moduli (GPa) = 57.00773 105.15520 70.53858
#
# Poissons Ratio (x) = 0.55196 0.06979
# Poissons Ratio (y) = 0.29923 0.33612
# Poissons Ratio (z) = 0.05640 0.50107
#
# Static dielectric constant tensor:
#      x y z
#    x 3.333450 0.000000 0.000000 
#    y 0.000000 3.744190 0.000000 
#    z 0.000000 0.000000 3.354500 
# 
# 
# High freq. dielectric constant tensor:
#      x y z
#    x 1.745100 0.000000 0.000000 
#    y 0.000000 1.777420 0.000000 
#    z 0.000000 0.000000 1.729530 
# 
# From -- ./inp_files/2246.got.cif
#   From: 2010.03.12/outbox.cif.g09.slc.cpg/sg47_2_cif.got.tgz:2246.got - 2010.04.14 03:12:58.
