data_PCOD8195040
_publ_section_title
;
Structure prediction by ZEFSAII (Michael W. Deem and Ramdas Pophale) SiO2 
 PCOD8195040
Probable space group: P M M M
;
_chemical_formula_sum "Si O2"
_cell_formula_units_Z 64
_cell_length_a 9.097590
_cell_length_b 23.360537
_cell_length_c 18.911602
_cell_angle_alpha 90.000000
_cell_angle_beta 90.000000
_cell_angle_gamma 90.000000
_cell_volume 4019.180420
_symmetry_space_group_name_H-M "P M M M"
_symmetry_group_IT_number 47
_symmetry_cell_setting 'orthorhombic'
loop_
_space_group_symop_operation_xyz
x,y,z
-x,-y,z
x,-y,-z
-x,y,-z
-x,-y,-z
x,y,-z
-x,y,z
x,-y,z
loop_
_atom_site_type_symbol
_atom_site_label
_atom_site_fract_x
_atom_site_fract_y
_atom_site_fract_z
Si Si1 0.327529 0.664617 0.200645
Si Si2 0.327409 0.777684 0.285815
Si Si3 0.825738 0.384251 0.423714
Si Si4 0.171350 0.160785 0.164735
Si Si5 0.827236 0.434791 0.720528
Si Si6 0.171038 0.254024 0.579819
Si Si7 0.331330 0.066230 0.080846
Si Si8 0.170690 0.726031 0.081047
O O1 0.500000 0.655824 0.194687
O O2 0.285805 0.715130 0.255149
O O3 0.255761 0.605388 0.224646
O O4 0.264743 0.679498 0.123568
O O5 0.500000 0.788206 0.286713
O O6 0.254006 0.826560 0.238042
O O7 0.264166 0.783606 0.365050
O O8 0.765914 0.407154 0.500000
O O9 0.767830 0.422966 0.359200
O O10 0.773196 0.319193 0.413091
O O11 0.000000 0.385488 0.426013
O O12 0.228062 0.101503 0.133039
O O13 0.206177 0.210391 0.108282
O O14 0.000000 0.155562 0.181167
O O15 0.791390 0.500000 0.740420
O O16 0.000000 0.421698 0.725052
O O17 0.199407 0.231618 0.500000
O O18 0.000000 0.249163 0.599476
O O19 0.500000 0.084952 0.091632
O O20 0.310755 0.000000 0.100151
O O21 0.283411 0.077407 0.000000
O O22 0.000000 0.711372 0.091318
O O23 0.219563 0.722491 0.000000
#
# Coordination Sequence:
#
# PCOD8195040 Si02
#       8
#     8   8   8   8   8   8   8   8
#     4  10  20  32  46  65  89 117 146 180 224 274
#     4  10  19  30  45  66  92 123 157 191 232 279
#     4   8  14  25  42  64  88 113 144 183 223 263
#     4  10  19  30  47  71  98 126 159 198 233 269
#     4  10  19  30  47  67  86 113 149 186 223 269
#     4   9  16  27  45  66  89 120 154 189 232 277
#     4   9  18  32  48  67  97 137 172 199 230 269
#     4   9  18  32  50  71  93 116 143 182 230 275
#
# _framework density 15.923643999999999
#
# number of rings (size 3 to 8) (size 9 to 14) (size 15 to 20)
#    0.000    2.625    1.250    2.625    0.000    3.500 
#    0.000    1.875    0.000    0.750    0.000    3.500 
#    0.000    0.500    0.000    5.250    0.000    2.250 
#
# Total GULP energy -793560.844470 kJ/mol
# GULP energy per Si atom -12399.388195 kJ/mol
# Density = 1.588740 g / cm^3
# Si number density = 15.923644 Si / 1000 Ang^3
#
#
#
# Elastic Constant Matrix: (Units=GPa)
#
#
# Indices 1 2 3 4 5 6 
#
# 1 67.1882 38.6051 50.6459 0.0000 0.0000 0.0000
# 2 38.6051 69.1458 46.5829 0.0000 0.0000 0.0000
# 3 50.6459 46.5829 110.7880 0.0000 0.0000 0.0000
# 4 0.0000 0.0000 0.0000 25.9905 0.0000 0.0000
# 5 0.0000 0.0000 0.0000 0.0000 22.5181 0.0000
# 6 0.0000 0.0000 0.0000 0.0000 0.0000 23.3447
#
#
#
# Elastic Compliance Matrix: (Units=1/GPa)
#
#
# Indices 1 2 3 4 5 6 
#
# 1 0.026323 -0.009194 -0.008167 0.000000 0.000000 0.000000
# 2 -0.009194 0.023389 -0.005631 0.000000 0.000000 0.000000
# 3 -0.008167 -0.005631 0.015128 0.000000 0.000000 0.000000
# 4 0.000000 0.000000 0.000000 0.038476 0.000000 0.000000
# 5 0.000000 0.000000 0.000000 0.000000 0.044409 0.000000
# 6 0.000000 0.000000 0.000000 0.000000 0.000000 0.042836
#
#
# Mechanical properties :
#
#
# Convention : Reuss Voigt Hill
#
# Bulk Modulus (GPa) = 53.03941 57.64330 55.34135
# Shear Modulus (GPa) = 20.59045 21.78988 21.19016
#
# Velocity S-wave (km/s) = 3.59984 3.70320 3.65188
# Velocity P-wave (km/s) = 7.11754 7.38670 7.25337
#
# Compressibility (1/GPa) = 0.01885391
#
# Stress axis : x y z
#
# Youngs Moduli (GPa) = 37.98979 42.75479 66.10353
#
# Poissons Ratio (x) = 0.39309 0.53990
# Poissons Ratio (y) = 0.34928 0.37226
# Poissons Ratio (z) = 0.31028 0.24077
#
# Static dielectric constant tensor:
#      x y z
#    x 2.876610 0.000000 0.000000 
#    y 0.000000 2.749570 0.000000 
#    z 0.000000 0.000000 3.139010 
# 
# 
# High freq. dielectric constant tensor:
#      x y z
#    x 1.604610 0.000000 0.000000 
#    y 0.000000 1.577930 0.000000 
#    z 0.000000 0.000000 1.611510 
# 
# From -- ./inp_files/10157.got.cif
#   From: 2010.03.12/outbox.cif.g09.slc.cpg/sg47_6_cif.got.tgz:10157.got - 2010.04.14 03:12:58.
