data_PCOD8195088
_publ_section_title
;
Structure prediction by ZEFSAII (Michael W. Deem and Ramdas Pophale) SiO2 
 PCOD8195088
Probable space group: P M M M
;
_chemical_formula_sum "Si O2"
_cell_formula_units_Z 64
_cell_length_a 9.325894
_cell_length_b 14.171633
_cell_length_c 28.861936
_cell_angle_alpha 90.000000
_cell_angle_beta 90.000000
_cell_angle_gamma 90.000000
_cell_volume 3814.484295
_symmetry_space_group_name_H-M "P M M M"
_symmetry_group_IT_number 47
_symmetry_cell_setting 'orthorhombic'
loop_
_space_group_symop_operation_xyz
x,y,z
-x,-y,z
x,-y,-z
-x,y,-z
-x,-y,-z
x,y,-z
-x,y,z
x,-y,z
loop_
_atom_site_type_symbol
_atom_site_label
_atom_site_fract_x
_atom_site_fract_y
_atom_site_fract_z
Si Si1 0.335105 0.890969 0.863789
Si Si2 0.166886 0.609207 0.097441
Si Si3 0.168124 0.109908 0.771895
Si Si4 0.331036 0.392021 0.361214
Si Si5 0.665154 0.761912 0.948397
Si Si6 0.332241 0.734113 0.724818
Si Si7 0.161018 0.388013 0.449211
Si Si8 0.663725 0.391671 0.812454
O O1 0.500000 0.868503 0.850962
O O2 0.238932 0.858465 0.820529
O O3 0.285507 0.838067 0.910332
O O4 0.311646 0.000000 0.874704
O O5 0.198426 0.500000 0.087649
O O6 0.239468 0.667976 0.056335
O O7 0.236641 0.642384 0.145720
O O8 0.000000 0.631561 0.099656
O O9 0.241296 0.169644 0.730451
O O10 0.000000 0.131643 0.774111
O O11 0.198596 0.000000 0.761898
O O12 0.500000 0.389451 0.366855
O O13 0.280680 0.500000 0.350953
O O14 0.280213 0.322789 0.320358
O O15 0.263862 0.350793 0.408591
O O16 0.500000 0.734069 0.941087
O O17 0.689866 0.803637 0.000000
O O18 0.500000 0.759254 0.721912
O O19 0.295698 0.667643 0.767809
O O20 0.212329 0.350930 0.500000
O O21 0.164645 0.500000 0.449708
O O22 0.000000 0.352056 0.439364
O O23 0.500000 0.374989 0.827819
O O24 0.692198 0.500000 0.799579
#
# Coordination Sequence:
#
# PCOD8195088 Si02
#       8
#     8   8   8   8   8   8   8   8
#     4   9  18  34  55  75  94 116 141 172 215 267
#     4  10  21  35  49  66  89 117 150 186 220 255
#     4  10  21  35  50  69  92 118 150 187 224 264
#     4   9  17  28  42  64  95 127 159 195 233 272
#     4  10  21  35  51  72  94 115 142 176 215 261
#     4  10  19  30  46  68  94 123 153 186 226 271
#     4   8  14  25  40  58  84 122 166 205 236 267
#     4   9  17  30  48  68  91 120 151 181 216 261
#
# _framework density 16.778153
#
# number of rings (size 3 to 8) (size 9 to 14) (size 15 to 20)
#    0.000    2.625    0.000    2.250    0.000    8.500 
#    0.000    3.750    0.000    3.750    0.000    2.625 
#    0.000    0.500    0.000    5.500    0.000    4.250 
#
# Total GULP energy -793551.008731 kJ/mol
# GULP energy per Si atom -12399.234511 kJ/mol
# Density = 1.673997 g / cm^3
# Si number density = 16.778153 Si / 1000 Ang^3
#
#
#
# Elastic Constant Matrix: (Units=GPa)
#
#
# Indices 1 2 3 4 5 6 
#
# 1 63.9775 39.4097 51.4815 0.0000 0.0000 0.0000
# 2 39.4097 64.5536 57.7872 0.0000 0.0000 0.0000
# 3 51.4815 57.7872 120.1687 0.0000 0.0000 0.0000
# 4 0.0000 0.0000 0.0000 18.7916 0.0000 0.0000
# 5 0.0000 0.0000 0.0000 0.0000 8.5881 0.0000
# 6 0.0000 0.0000 0.0000 0.0000 0.0000 21.9334
#
#
#
# Elastic Compliance Matrix: (Units=1/GPa)
#
#
# Indices 1 2 3 4 5 6 
#
# 1 0.027715 -0.011046 -0.006561 0.000000 0.000000 0.000000
# 2 -0.011046 0.031603 -0.010465 0.000000 0.000000 0.000000
# 3 -0.006561 -0.010465 0.016165 0.000000 0.000000 0.000000
# 4 0.000000 0.000000 0.000000 0.053215 0.000000 0.000000
# 5 0.000000 0.000000 0.000000 0.000000 0.116440 0.000000
# 6 0.000000 0.000000 0.000000 0.000000 0.000000 0.045593
#
#
# Mechanical properties :
#
#
# Convention : Reuss Voigt Hill
#
# Bulk Modulus (GPa) = 51.71295 60.67296 56.19295
# Shear Modulus (GPa) = 14.15147 16.53072 15.34109
#
# Velocity S-wave (km/s) = 2.90736 3.14228 3.02710
# Velocity P-wave (km/s) = 6.49299 7.02891 6.76626
#
# Compressibility (1/GPa) = 0.01933752
#
# Stress axis : x y z
#
# Youngs Moduli (GPa) = 36.08210 31.64293 61.86199
#
# Poissons Ratio (x) = 0.34953 0.40590
# Poissons Ratio (y) = 0.39856 0.64738
# Poissons Ratio (z) = 0.23675 0.33114
#
# Static dielectric constant tensor:
#      x y z
#    x 3.149720 0.000000 0.000000 
#    y 0.000000 3.093970 0.000000 
#    z 0.000000 0.000000 3.288350 
# 
# 
# High freq. dielectric constant tensor:
#      x y z
#    x 1.643850 0.000000 0.000000 
#    y 0.000000 1.627090 0.000000 
#    z 0.000000 0.000000 1.636880 
# 
# From -- ./inp_files/8298.got.cif
#   From: 2010.03.12/outbox.cif.g09.slc.cpg/sg47_5_cif.got.tgz:8298.got - 2010.04.14 03:12:58.
