data_PCOD8195803
_publ_section_title
;
Structure prediction by ZEFSAII (Michael W. Deem and Ramdas Pophale) SiO2 
 PCOD8195803
Probable space group: P M M M
;
_chemical_formula_sum "Si O2"
_cell_formula_units_Z 52
_cell_length_a 14.189965
_cell_length_b 9.199675
_cell_length_c 22.938966
_cell_angle_alpha 90.000000
_cell_angle_beta 90.000000
_cell_angle_gamma 90.000000
_cell_volume 2994.522959
_symmetry_space_group_name_H-M "P M M M"
_symmetry_group_IT_number 47
_symmetry_cell_setting 'orthorhombic'
loop_
_space_group_symop_operation_xyz
x,y,z
-x,-y,z
x,-y,-z
-x,y,-z
-x,-y,-z
x,y,-z
-x,y,z
x,-y,z
loop_
_atom_site_type_symbol
_atom_site_label
_atom_site_fract_x
_atom_site_fract_y
_atom_site_fract_z
Si Si1 0.105727 0.826968 0.500000
Si Si2 0.108438 0.167279 0.067086
Si Si3 0.397816 0.327635 0.219255
Si Si4 0.606502 0.668909 0.648964
Si Si5 0.781348 0.828269 0.388030
Si Si6 0.204517 0.672669 0.168169
Si Si7 0.890627 0.832588 0.727433
O O1 0.159022 0.769507 0.557344
O O2 0.000000 0.763325 0.500000
O O3 0.102111 0.000000 0.500000
O O4 0.174950 0.269721 0.105108
O O5 0.000000 0.208258 0.078864
O O6 0.125968 0.000000 0.084018
O O7 0.134492 0.194915 0.000000
O O8 0.500000 0.270680 0.195744
O O9 0.400015 0.500000 0.221083
O O10 0.382385 0.271712 0.285044
O O11 0.312036 0.273130 0.179006
O O12 0.500000 0.695810 0.626749
O O13 0.632747 0.500000 0.645552
O O14 0.677918 0.757702 0.608381
O O15 0.833416 0.778892 0.328937
O O16 0.770293 0.000000 0.391012
O O17 0.196545 0.500000 0.169378
O O18 0.136062 0.735753 0.217290
O O19 0.000000 0.811192 0.713251
O O20 0.867894 0.000000 0.742183
#
# Coordination Sequence:
#
# PCOD8195803 Si02
#       7
#     4   8   8   8   8   8   8
#     4   9  18  34  54  73  96 132 175 211 250 303
#     4   9  19  36  54  70  96 138 176 201 236 291
#     4   8  15  29  48  70  98 131 162 193 239 298
#     4   9  17  32  53  73  98 133 165 197 247 307
#     4  10  19  32  52  75  97 126 168 215 251 288
#     4  11  20  30  50  78 102 125 161 208 251 287
#     4  10  20  32  46  68 100 133 161 195 246 304
#
# _framework density 17.365036
#
# number of rings (size 3 to 8) (size 9 to 14) (size 15 to 20)
#    0.000    2.538    1.538    2.769    0.000    4.923 
#    0.000    1.538    0.000    6.462    0.000    3.231 
#    0.000    0.000    0.000    0.000    0.000    0.000 
#
# Total GULP energy -644737.110526 kJ/mol
# GULP energy per Si atom -12398.790587 kJ/mol
# Density = 1.732551 g / cm^3
# Si number density = 17.365036 Si / 1000 Ang^3
#
#
#
# Elastic Constant Matrix: (Units=GPa)
#
#
# Indices 1 2 3 4 5 6 
#
# 1 130.3158 37.6708 55.7084 0.0000 0.0000 0.0000
# 2 37.6708 41.2834 31.3074 0.0000 0.0000 0.0000
# 3 55.7084 31.3074 91.8885 0.0000 0.0000 0.0000
# 4 0.0000 0.0000 0.0000 18.3037 0.0000 0.0000
# 5 0.0000 0.0000 0.0000 0.0000 30.8053 0.0000
# 6 0.0000 0.0000 0.0000 0.0000 0.0000 27.5269
#
#
#
# Elastic Compliance Matrix: (Units=1/GPa)
#
#
# Indices 1 2 3 4 5 6 
#
# 1 0.011746 -0.007171 -0.004678 0.000000 0.000000 0.000000
# 2 -0.007171 0.037040 -0.008272 0.000000 0.000000 0.000000
# 3 -0.004678 -0.008272 0.016537 0.000000 0.000000 0.000000
# 4 0.000000 0.000000 0.000000 0.054634 0.000000 0.000000
# 5 0.000000 0.000000 0.000000 0.000000 0.032462 0.000000
# 6 0.000000 0.000000 0.000000 0.000000 0.000000 0.036328
#
#
# Mechanical properties :
#
#
# Convention : Reuss Voigt Hill
#
# Bulk Modulus (GPa) = 39.87148 56.98454 48.42801
# Shear Modulus (GPa) = 21.06590 24.58058 22.82324
#
# Velocity S-wave (km/s) = 3.48677 3.76642 3.62929
# Velocity P-wave (km/s) = 6.26264 7.19733 6.74619
#
# Compressibility (1/GPa) = 0.02508058
#
# Stress axis : x y z
#
# Youngs Moduli (GPa) = 85.13224 26.99820 60.46867
#
# Poissons Ratio (x) = 0.19360 0.28289
# Poissons Ratio (y) = 0.61046 0.50022
# Poissons Ratio (z) = 0.39827 0.22334
#
# Static dielectric constant tensor:
#      x y z
#    x 3.517720 0.000000 0.000000 
#    y 0.000000 2.964320 0.000000 
#    z 0.000000 0.000000 3.136070 
# 
# 
# High freq. dielectric constant tensor:
#      x y z
#    x 1.680840 0.000000 0.000000 
#    y 0.000000 1.646110 0.000000 
#    z 0.000000 0.000000 1.655430 
# 
# From -- ./inp_files/11054.got.cif
#   From: 2010.03.12/outbox.cif.g09.slc.cpg/sg47_6_cif.got.tgz:11054.got - 2010.04.14 03:12:58.
