data_PCOD8195399
_publ_section_title
;
Structure prediction by ZEFSAII (Michael W. Deem and Ramdas Pophale) SiO2 
 PCOD8195399
Probable space group: P M M M
;
_chemical_formula_sum "Si O2"
_cell_formula_units_Z 60
_cell_length_a 13.945714
_cell_length_b 19.520095
_cell_length_c 12.941877
_cell_angle_alpha 90.000000
_cell_angle_beta 90.000000
_cell_angle_gamma 90.000000
_cell_volume 3523.059268
_symmetry_space_group_name_H-M "P M M M"
_symmetry_group_IT_number 47
_symmetry_cell_setting 'orthorhombic'
loop_
_space_group_symop_operation_xyz
x,y,z
-x,-y,z
x,-y,-z
-x,y,-z
-x,-y,-z
x,y,-z
-x,y,z
x,-y,z
loop_
_atom_site_type_symbol
_atom_site_label
_atom_site_fract_x
_atom_site_fract_y
_atom_site_fract_z
Si Si1 0.607409 0.081444 0.500000
Si Si2 0.108779 0.843280 0.618767
Si Si3 0.109777 0.293962 0.266203
Si Si4 0.607484 0.575880 0.122702
Si Si5 0.281904 0.081133 0.702773
Si Si6 0.113499 0.424895 0.614694
Si Si7 0.611865 0.842571 0.118922
Si Si8 0.721236 0.705302 0.880366
O O1 0.500000 0.111061 0.500000
O O2 0.658919 0.108359 0.396419
O O3 0.606930 0.000000 0.500000
O O4 0.138970 0.854038 0.500000
O O5 0.118668 0.763212 0.645329
O O6 0.175055 0.888566 0.693591
O O7 0.000000 0.868107 0.637242
O O8 0.150972 0.365205 0.311154
O O9 0.177680 0.275181 0.170891
O O10 0.000000 0.300114 0.226835
O O11 0.500000 0.586997 0.166395
O O12 0.644964 0.500000 0.155322
O O13 0.677144 0.634984 0.166640
O O14 0.603892 0.582006 0.000000
O O15 0.331060 0.105272 0.808329
O O16 0.275306 0.000000 0.704969
O O17 0.157330 0.415727 0.500000
O O18 0.142496 0.500000 0.658812
O O19 0.000000 0.418402 0.606810
O O20 0.500000 0.847959 0.144807
O O21 0.644882 0.765165 0.140550
O O22 0.632449 0.863122 0.000000
O O23 0.744025 0.696468 0.000000
#
# Coordination Sequence:
#
# PCOD8195399 Si02
#       8
#     4   8   8   8   8   8   8   8
#     4   9  18  32  51  77 107 135 159 194 256 326
#     4  10  20  35  55  78 104 135 171 211 257 308
#     4  10  19  31  48  70  98 133 170 207 249 298
#     4   8  14  26  45  68  93 122 158 202 249 292
#     4  11  21  35  55  79 106 134 166 209 263 320
#     4   8  14  26  45  68  93 122 158 201 245 286
#     4  10  21  37  56  77 102 136 176 215 257 307
#     4  10  19  31  48  70  98 132 169 209 251 296
#
# _framework density 17.030653999999998
#
# number of rings (size 3 to 8) (size 9 to 14) (size 15 to 20)
#    0.000    2.467    2.000    2.000    0.000    5.333 
#    0.000    1.333    0.000    0.400    0.000    4.667 
#    0.000    0.000    0.000    6.400    0.000    1.067 
#
# Total GULP energy -743814.827352 kJ/mol
# GULP energy per Si atom -12396.913789 kJ/mol
# Density = 1.699189 g / cm^3
# Si number density = 17.030654 Si / 1000 Ang^3
#
#
#
# Elastic Constant Matrix: (Units=GPa)
#
#
# Indices 1 2 3 4 5 6 
#
# 1 99.3584 44.3383 47.7764 0.0000 0.0000 0.0000
# 2 44.3383 91.4691 38.5544 0.0000 0.0000 0.0000
# 3 47.7764 38.5544 69.6887 0.0000 0.0000 0.0000
# 4 0.0000 0.0000 0.0000 24.1107 0.0000 0.0000
# 5 0.0000 0.0000 0.0000 0.0000 24.2657 0.0000
# 6 0.0000 0.0000 0.0000 0.0000 0.0000 25.7877
#
#
#
# Elastic Compliance Matrix: (Units=1/GPa)
#
#
# Indices 1 2 3 4 5 6 
#
# 1 0.016121 -0.004116 -0.008775 0.000000 0.000000 0.000000
# 2 -0.004116 0.015308 -0.005647 0.000000 0.000000 0.000000
# 3 -0.008775 -0.005647 0.023490 0.000000 0.000000 0.000000
# 4 0.000000 0.000000 0.000000 0.041475 0.000000 0.000000
# 5 0.000000 0.000000 0.000000 0.000000 0.041210 0.000000
# 6 0.000000 0.000000 0.000000 0.000000 0.000000 0.038778
#
#
# Mechanical properties :
#
#
# Convention : Reuss Voigt Hill
#
# Bulk Modulus (GPa) = 56.04604 57.98380 57.01492
# Shear Modulus (GPa) = 22.78888 23.48931 23.13910
#
# Velocity S-wave (km/s) = 3.66199 3.71784 3.69002
# Velocity P-wave (km/s) = 7.13166 7.24916 7.19065
#
# Compressibility (1/GPa) = 0.01784247
#
# Stress axis : x y z
#
# Youngs Moduli (GPa) = 62.03278 65.32520 42.57192
#
# Poissons Ratio (x) = 0.26885 0.37356
# Poissons Ratio (y) = 0.25530 0.24042
# Poissons Ratio (z) = 0.54433 0.36892
#
# Static dielectric constant tensor:
#      x y z
#    x 3.127000 0.000000 0.000000 
#    y 0.000000 3.259760 0.000000 
#    z 0.000000 0.000000 3.023680 
# 
# 
# High freq. dielectric constant tensor:
#      x y z
#    x 1.648520 0.000000 0.000000 
#    y 0.000000 1.660600 0.000000 
#    z 0.000000 0.000000 1.634020 
# 
# From -- ./inp_files/16605.got.cif
#   From: 2010.03.12/outbox.cif.g09.slc.cpg/sg47_9_cif.got.tgz:16605.got - 2010.04.14 03:12:58.
