data_PCOD8195758
_publ_section_title
;
Structure prediction by ZEFSAII (Michael W. Deem and Ramdas Pophale) SiO2 
 PCOD8195758
Probable space group: P M M M
;
_chemical_formula_sum "Si O2"
_cell_formula_units_Z 64
_cell_length_a 15.442167
_cell_length_b 24.916238
_cell_length_c 9.068429
_cell_angle_alpha 90.000000
_cell_angle_beta 90.000000
_cell_angle_gamma 90.000000
_cell_volume 3489.175164
_symmetry_space_group_name_H-M "P M M M"
_symmetry_group_IT_number 47
_symmetry_cell_setting 'orthorhombic'
loop_
_space_group_symop_operation_xyz
x,y,z
-x,-y,z
x,-y,-z
-x,y,-z
-x,-y,-z
x,y,-z
-x,y,z
x,-y,z
loop_
_atom_site_type_symbol
_atom_site_label
_atom_site_fract_x
_atom_site_fract_y
_atom_site_fract_z
Si Si1 0.649149 0.782453 0.666800
Si Si2 0.592459 0.101175 0.328153
Si Si3 0.592514 0.665991 0.330619
Si Si4 0.901884 0.139969 0.829868
Si Si5 0.098546 0.562594 0.169551
Si Si6 0.782561 0.354624 0.675536
Si Si7 0.772585 0.060209 0.325337
Si Si8 0.814681 0.247403 0.829476
O O1 0.687822 0.783797 0.500000
O O2 0.593618 0.835024 0.699109
O O3 0.590037 0.730200 0.686579
O O4 0.726058 0.781268 0.784116
O O5 0.592599 0.087817 0.500000
O O6 0.500000 0.080536 0.260948
O O7 0.676836 0.072705 0.258031
O O8 0.591785 0.648745 0.500000
O O9 0.500000 0.645251 0.259617
O O10 0.682584 0.642687 0.262480
O O11 0.841349 0.102220 0.733803
O O12 0.888759 0.203351 0.796801
O O13 0.000000 0.125373 0.789546
O O14 0.880868 0.128289 0.000000
O O15 0.114742 0.500000 0.195264
O O16 0.165837 0.593366 0.272625
O O17 0.000000 0.577577 0.213205
O O18 0.115359 0.578108 0.000000
O O19 0.782354 0.351400 0.500000
O O20 0.830470 0.301517 0.736065
O O21 0.770531 0.067021 0.500000
O O22 0.799150 0.000000 0.278687
O O23 0.812240 0.264044 0.000000
#
# Coordination Sequence:
#
# PCOD8195758 Si02
#       8
#     8   8   8   8   8   8   8   8
#     4   9  15  26  47  72  98 130 170 211 252 298
#     4   9  16  27  48  76 103 132 165 203 252 310
#     4   8  14  25  43  70 104 139 174 211 250 296
#     4  10  22  39  57  75  96 130 174 213 256 315
#     4   9  19  37  59  80 105 142 184 222 265 317
#     4  10  20  32  52  83 113 142 178 219 261 306
#     4  10  21  36  54  77 103 129 163 212 264 312
#     4  10  19  32  51  74 104 138 171 208 257 312
#
# _framework density 18.342444
#
# number of rings (size 3 to 8) (size 9 to 14) (size 15 to 20)
#    0.000    2.625    1.250    2.250    0.000    4.000 
#    0.000    4.375    0.000   14.250    0.000    3.500 
#    0.000    0.000    0.000    0.000    0.000    0.000 
#
# Total GULP energy -793008.774612 kJ/mol
# GULP energy per Si atom -12390.762103 kJ/mol
# Density = 1.830070 g / cm^3
# Si number density = 18.342444 Si / 1000 Ang^3
#
#
#
# Elastic Constant Matrix: (Units=GPa)
#
#
# Indices 1 2 3 4 5 6 
#
# 1 117.8082 57.6127 33.4259 0.0000 0.0000 0.0000
# 2 57.6127 79.6664 35.2011 0.0000 0.0000 0.0000
# 3 33.4259 35.2011 47.1730 0.0000 0.0000 0.0000
# 4 0.0000 0.0000 0.0000 26.0274 0.0000 0.0000
# 5 0.0000 0.0000 0.0000 0.0000 14.8663 0.0000
# 6 0.0000 0.0000 0.0000 0.0000 0.0000 10.8858
#
#
#
# Elastic Compliance Matrix: (Units=1/GPa)
#
#
# Indices 1 2 3 4 5 6 
#
# 1 0.013489 -0.008253 -0.003400 0.000000 0.000000 0.000000
# 2 -0.008253 0.023776 -0.011894 0.000000 0.000000 0.000000
# 3 -0.003400 -0.011894 0.032483 0.000000 0.000000 0.000000
# 4 0.000000 0.000000 0.000000 0.038421 0.000000 0.000000
# 5 0.000000 0.000000 0.000000 0.000000 0.067266 0.000000
# 6 0.000000 0.000000 0.000000 0.000000 0.000000 0.091863
#
#
# Mechanical properties :
#
#
# Convention : Reuss Voigt Hill
#
# Bulk Modulus (GPa) = 44.14080 55.23632 49.68856
# Shear Modulus (GPa) = 15.53070 18.24976 16.89023
#
# Velocity S-wave (km/s) = 2.91298 3.15770 3.03781
# Velocity P-wave (km/s) = 5.95240 6.59349 6.28113
#
# Compressibility (1/GPa) = 0.02265478
#
# Stress axis : x y z
#
# Youngs Moduli (GPa) = 74.13553 42.05931 30.78512
#
# Poissons Ratio (x) = 0.34710 0.10466
# Poissons Ratio (y) = 0.61181 0.36617
# Poissons Ratio (z) = 0.25204 0.50027
#
# Static dielectric constant tensor:
#      x y z
#    x 3.626060 0.000000 0.000000 
#    y 0.000000 3.257330 0.000000 
#    z 0.000000 0.000000 3.105350 
# 
# 
# High freq. dielectric constant tensor:
#      x y z
#    x 1.718740 0.000000 0.000000 
#    y 0.000000 1.696440 0.000000 
#    z 0.000000 0.000000 1.677490 
# 
# From -- ./inp_files/7808.got.cif
#   From: 2010.03.12/outbox.cif.g09.slc.cpg/sg47_4_cif.got.tgz:7808.got - 2010.04.14 03:12:58.
