data_PCOD8195594
_publ_section_title
;
Structure prediction by ZEFSAII (Michael W. Deem and Ramdas Pophale) SiO2 
 PCOD8195594
Probable space group: P M M M
;
_chemical_formula_sum "Si O2"
_cell_formula_units_Z 52
_cell_length_a 9.196471
_cell_length_b 20.714774
_cell_length_c 14.232334
_cell_angle_alpha 90.000000
_cell_angle_beta 90.000000
_cell_angle_gamma 90.000000
_cell_volume 2711.299739
_symmetry_space_group_name_H-M "P M M M"
_symmetry_group_IT_number 47
_symmetry_cell_setting 'orthorhombic'
loop_
_space_group_symop_operation_xyz
x,y,z
-x,-y,z
x,-y,-z
-x,y,-z
-x,-y,-z
x,y,-z
-x,y,z
x,-y,z
loop_
_atom_site_type_symbol
_atom_site_label
_atom_site_fract_x
_atom_site_fract_y
_atom_site_fract_z
Si Si1 0.673060 0.000000 0.893099
Si Si2 0.163990 0.323795 0.610189
Si Si3 0.329170 0.877332 0.775870
Si Si4 0.334307 0.752132 0.891581
Si Si5 0.829008 0.624267 0.107207
Si Si6 0.171295 0.822600 0.393148
Si Si7 0.332410 0.428041 0.727394
O O1 0.729634 0.937776 0.835911
O O2 0.500000 0.000000 0.898646
O O3 0.735494 0.000000 0.000000
O O4 0.167777 0.336161 0.500000
O O5 0.217296 0.250988 0.632211
O O6 0.269674 0.375219 0.657016
O O7 0.000000 0.334077 0.648340
O O8 0.500000 0.883627 0.758564
O O9 0.286639 0.814023 0.833444
O O10 0.251777 0.873265 0.674673
O O11 0.500000 0.731420 0.869751
O O12 0.227467 0.694679 0.861786
O O13 0.315436 0.770470 0.000000
O O14 0.751251 0.572305 0.173081
O O15 0.000000 0.621362 0.122299
O O16 0.785419 0.609121 0.000000
O O17 0.217503 0.838568 0.500000
O O18 0.000000 0.830550 0.381051
O O19 0.500000 0.411711 0.745299
O O20 0.313539 0.500000 0.684612
#
# Coordination Sequence:
#
# PCOD8195594 Si02
#       7
#     4   8   8   8   8   8   8
#     4   9  18  34  54  77 110 148 181 213 252 301
#     4   9  19  37  60  83 106 135 172 214 261 313
#     4  10  19  31  52  80 106 138 179 217 254 299
#     4   9  17  30  50  77 106 133 165 209 262 318
#     4  10  21  36  54  76 101 132 173 220 268 316
#     4   9  19  36  56  78 105 136 170 212 264 314
#     4  11  24  38  52  74 105 140 175 212 259 315
#
# _framework density 19.178992999999998
#
# number of rings (size 3 to 8) (size 9 to 14) (size 15 to 20)
#    0.000    2.385    0.000    3.231    0.000    8.923 
#    0.000    5.385    0.000    4.154    0.000    0.000 
#    0.000    0.000    0.000    0.000    0.000    0.000 
#
# Total GULP energy -644831.754985 kJ/mol
# GULP energy per Si atom -12400.610673 kJ/mol
# Density = 1.913534 g / cm^3
# Si number density = 19.178993 Si / 1000 Ang^3
#
#
#
# Elastic Constant Matrix: (Units=GPa)
#
#
# Indices 1 2 3 4 5 6 
#
# 1 65.5355 39.9660 34.9268 0.0000 0.0000 0.0000
# 2 39.9660 91.3642 62.6913 0.0000 0.0000 0.0000
# 3 34.9268 62.6913 98.3663 0.0000 0.0000 0.0000
# 4 0.0000 0.0000 0.0000 27.4332 0.0000 0.0000
# 5 0.0000 0.0000 0.0000 0.0000 34.1045 0.0000
# 6 0.0000 0.0000 0.0000 0.0000 0.0000 17.7140
#
#
#
# Elastic Compliance Matrix: (Units=1/GPa)
#
#
# Indices 1 2 3 4 5 6 
#
# 1 0.021260 -0.007322 -0.002882 0.000000 0.000000 0.000000
# 2 -0.007322 0.021974 -0.011404 0.000000 0.000000 0.000000
# 3 -0.002882 -0.011404 0.018458 0.000000 0.000000 0.000000
# 4 0.000000 0.000000 0.000000 0.036452 0.000000 0.000000
# 5 0.000000 0.000000 0.000000 0.000000 0.029322 0.000000
# 6 0.000000 0.000000 0.000000 0.000000 0.000000 0.056452
#
#
# Mechanical properties :
#
#
# Convention : Reuss Voigt Hill
#
# Bulk Modulus (GPa) = 54.13048 58.93714 56.53381
# Shear Modulus (GPa) = 21.43217 23.69579 22.56398
#
# Velocity S-wave (km/s) = 3.34650 3.51879 3.43373
# Velocity P-wave (km/s) = 6.57398 6.87793 6.72767
#
# Compressibility (1/GPa) = 0.01847388
#
# Stress axis : x y z
#
# Youngs Moduli (GPa) = 47.03573 45.50897 54.17775
#
# Poissons Ratio (x) = 0.33324 0.15615
# Poissons Ratio (y) = 0.34442 0.61787
# Poissons Ratio (z) = 0.13556 0.51900
#
# Static dielectric constant tensor:
#      x y z
#    x 3.344800 0.000000 0.000000 
#    y 0.000000 3.451580 0.000000 
#    z 0.000000 0.000000 3.606910 
# 
# 
# High freq. dielectric constant tensor:
#      x y z
#    x 1.732780 0.000000 0.000000 
#    y 0.000000 1.736060 0.000000 
#    z 0.000000 0.000000 1.755400 
# 
# From -- ./inp_files/6994.got.cif
#   From: 2010.03.12/outbox.cif.g09.slc.cpg/sg47_4_cif.got.tgz:6994.got - 2010.04.14 03:12:58.
