data_PCOD8195351
_publ_section_title
;
Structure prediction by ZEFSAII (Michael W. Deem and Ramdas Pophale) SiO2 
 PCOD8195351
Probable space group: P M M M
;
_chemical_formula_sum "Si O2"
_cell_formula_units_Z 64
_cell_length_a 19.320202
_cell_length_b 8.983569
_cell_length_c 23.536015
_cell_angle_alpha 90.000000
_cell_angle_beta 90.000000
_cell_angle_gamma 90.000000
_cell_volume 4085.013563
_symmetry_space_group_name_H-M "P M M M"
_symmetry_group_IT_number 47
_symmetry_cell_setting 'orthorhombic'
loop_
_space_group_symop_operation_xyz
x,y,z
-x,-y,z
x,-y,-z
-x,y,-z
-x,-y,-z
x,y,-z
-x,y,z
x,-y,z
loop_
_atom_site_type_symbol
_atom_site_label
_atom_site_fract_x
_atom_site_fract_y
_atom_site_fract_z
Si Si1 0.797777 0.176597 0.837015
Si Si2 0.922498 0.175759 0.436448
Si Si3 0.575258 0.676497 0.884956
Si Si4 0.079422 0.325343 0.779870
Si Si5 0.849731 0.328362 0.336123
Si Si6 0.574045 0.675977 0.243532
Si Si7 0.721472 0.325695 0.265756
Si Si8 0.282595 0.325521 0.934803
O O1 0.875367 0.235937 0.825604
O O2 0.746333 0.234639 0.788615
O O3 0.773094 0.236418 0.897835
O O4 0.798383 0.000000 0.837276
O O5 0.902326 0.228675 0.500000
O O6 0.867277 0.238476 0.392415
O O7 0.000000 0.232771 0.421636
O O8 0.920483 0.000000 0.433006
O O9 0.500000 0.733327 0.908179
O O10 0.575361 0.500000 0.886332
O O11 0.585013 0.734041 0.820561
O O12 0.639444 0.735179 0.922402
O O13 0.093030 0.500000 0.788495
O O14 0.101505 0.278751 0.716119
O O15 0.000000 0.281680 0.789402
O O16 0.861273 0.500000 0.350200
O O17 0.769770 0.293092 0.320093
O O18 0.500000 0.739134 0.267718
O O19 0.568788 0.500000 0.242895
O O20 0.642005 0.723191 0.279983
O O21 0.726138 0.500000 0.249325
O O22 0.277243 0.500000 0.920088
O O23 0.264772 0.293689 0.000000
#
# Coordination Sequence:
#
# PCOD8195351 Si02
#       8
#     8   8   8   8   8   8   8   8
#     4  11  21  31  45  65  90 116 142 175 216 262
#     4   9  18  31  44  59  85 123 159 186 213 247
#     4   8  13  22  40  66  88 106 138 183 220 251
#     4   9  18  33  52  71  91 114 140 175 218 263
#     4   9  17  27  43  68  93 117 144 178 217 253
#     4   8  12  20  40  65  85 110 144 181 218 256
#     4   9  16  29  46  63  89 118 147 183 220 261
#     4  10  19  31  48  65  83 112 147 181 218 262
#
# _framework density 15.667023
#
# number of rings (size 3 to 8) (size 9 to 14) (size 15 to 20)
#    0.000    2.875    1.250    3.375    0.000    3.750 
#    0.000    1.875    0.000    1.875    0.000    3.500 
#    0.000    0.500    0.000    6.250    0.000    1.000 
#
# Total GULP energy -793079.055583 kJ/mol
# GULP energy per Si atom -12391.860243 kJ/mol
# Density = 1.563136 g / cm^3
# Si number density = 15.667023 Si / 1000 Ang^3
#
#
#
# Elastic Constant Matrix: (Units=GPa)
#
#
# Indices 1 2 3 4 5 6 
#
# 1 149.3449 39.6117 64.1468 0.0000 0.0000 0.0000
# 2 39.6117 45.4815 34.9411 0.0000 0.0000 0.0000
# 3 64.1468 34.9411 87.2723 0.0000 0.0000 0.0000
# 4 0.0000 0.0000 0.0000 14.8743 0.0000 0.0000
# 5 0.0000 0.0000 0.0000 0.0000 23.4289 0.0000
# 6 0.0000 0.0000 0.0000 0.0000 0.0000 7.1491
#
#
#
# Elastic Compliance Matrix: (Units=1/GPa)
#
#
# Indices 1 2 3 4 5 6 
#
# 1 0.010413 -0.004606 -0.005810 0.000000 0.000000 0.000000
# 2 -0.004606 0.033791 -0.010144 0.000000 0.000000 0.000000
# 3 -0.005810 -0.010144 0.019790 0.000000 0.000000 0.000000
# 4 0.000000 0.000000 0.000000 0.067230 0.000000 0.000000
# 5 0.000000 0.000000 0.000000 0.000000 0.042682 0.000000
# 6 0.000000 0.000000 0.000000 0.000000 0.000000 0.139878
#
#
# Mechanical properties :
#
#
# Convention : Reuss Voigt Hill
#
# Bulk Modulus (GPa) = 43.71443 62.16643 52.94043
# Shear Modulus (GPa) = 13.79206 18.65039 16.22123
#
# Velocity S-wave (km/s) = 2.97024 3.45399 3.22121
# Velocity P-wave (km/s) = 6.30285 7.46141 6.90647
#
# Compressibility (1/GPa) = 0.02287574
#
# Stress axis : x y z
#
# Youngs Moduli (GPa) = 96.03478 29.59361 50.53109
#
# Poissons Ratio (x) = 0.13630 0.29357
# Poissons Ratio (y) = 0.44231 0.51257
# Poissons Ratio (z) = 0.55793 0.30019
#
# Static dielectric constant tensor:
#      x y z
#    x 3.424340 0.000000 0.000000 
#    y 0.000000 2.680340 0.000000 
#    z 0.000000 0.000000 2.762000 
# 
# 
# High freq. dielectric constant tensor:
#      x y z
#    x 1.610110 0.000000 0.000000 
#    y 0.000000 1.572450 0.000000 
#    z 0.000000 0.000000 1.565390 
# 
# From -- ./inp_files/11924.got.cif
#   From: 2010.03.12/outbox.cif.g09.slc.cpg/sg47_6_cif.got.tgz:11924.got - 2010.04.14 03:12:58.
