data_PCOD8195538
_publ_section_title
;
Structure prediction by ZEFSAII (Michael W. Deem and Ramdas Pophale) SiO2 
 PCOD8195538
Probable space group: P M M M
;
_chemical_formula_sum "Si O2"
_cell_formula_units_Z 60
_cell_length_a 15.538881
_cell_length_b 13.949614
_cell_length_c 15.471362
_cell_angle_alpha 90.000000
_cell_angle_beta 90.000000
_cell_angle_gamma 90.000000
_cell_volume 3353.593962
_symmetry_space_group_name_H-M "P M M M"
_symmetry_group_IT_number 47
_symmetry_cell_setting 'orthorhombic'
loop_
_space_group_symop_operation_xyz
x,y,z
-x,-y,z
x,-y,-z
-x,y,-z
-x,-y,-z
x,y,-z
-x,y,z
x,-y,z
loop_
_atom_site_type_symbol
_atom_site_label
_atom_site_fract_x
_atom_site_fract_y
_atom_site_fract_z
Si Si1 0.899773 0.387782 0.764371
Si Si2 0.591946 0.886518 0.598533
Si Si3 0.098593 0.733898 0.403081
Si Si4 0.593439 0.608011 0.102572
Si Si5 0.817515 0.106655 0.149530
Si Si6 0.226628 0.891819 0.347214
Si Si7 0.000000 0.887669 0.094740
Si Si8 0.232532 0.698538 0.901596
O O1 0.878723 0.500000 0.759232
O O2 0.875901 0.342982 0.670693
O O3 0.842731 0.340679 0.839949
O O4 0.000000 0.370117 0.787022
O O5 0.597345 0.853579 0.500000
O O6 0.500000 0.848182 0.637623
O O7 0.677410 0.846229 0.644632
O O8 0.592061 0.000000 0.606913
O O9 0.110971 0.689795 0.500000
O O10 0.157658 0.827865 0.396919
O O11 0.000000 0.766462 0.390091
O O12 0.500000 0.648619 0.134805
O O13 0.604242 0.500000 0.136639
O O14 0.674832 0.667741 0.137192
O O15 0.594424 0.610037 0.000000
O O16 0.791119 0.105988 0.247209
O O17 0.916263 0.142865 0.147777
O O18 0.764058 0.185392 0.096585
O O19 0.805376 0.000000 0.108330
O O20 0.221940 0.000000 0.385870
O O21 0.000000 0.000000 0.081447
O O22 0.000000 0.837827 0.000000
O O23 0.218140 0.660913 0.000000
#
# Coordination Sequence:
#
# PCOD8195538 Si02
#       8
#     8   8   8   8   8   8   4   8
#     4  10  22  39  56  77 107 137 169 215 267 318
#     4   8  14  26  45  69  97 131 170 209 253 307
#     4  10  21  36  54  76 103 139 180 214 252 309
#     4   8  15  30  52  77 103 131 168 215 264 315
#     4  10  21  34  49  72 106 147 184 220 257 306
#     4  10  19  31  50  75 106 138 172 216 265 310
#     4   9  18  32  48  66  90 134 193 228 248 294
#     4  11  21  33  55  82 108 138 174 216 265 320
#
# _framework density 17.891252999999999
#
# number of rings (size 3 to 8) (size 9 to 14) (size 15 to 20)
#    0.000    2.467    1.333    2.000    1.867    3.200 
#    0.000    3.333    0.000    1.200    0.000    1.867 
#    0.000    0.000    0.000    5.600    0.000    0.533 
#
# Total GULP energy -743377.981483 kJ/mol
# GULP energy per Si atom -12389.633025 kJ/mol
# Density = 1.785053 g / cm^3
# Si number density = 17.891253 Si / 1000 Ang^3
#
#
#
# Elastic Constant Matrix: (Units=GPa)
#
#
# Indices 1 2 3 4 5 6 
#
# 1 148.3224 58.9809 50.9519 0.0000 0.0000 0.0000
# 2 58.9809 86.4270 26.3991 0.0000 0.0000 0.0000
# 3 50.9519 26.3991 81.6895 0.0000 0.0000 0.0000
# 4 0.0000 0.0000 0.0000 19.6560 0.0000 0.0000
# 5 0.0000 0.0000 0.0000 0.0000 -2.2399 0.0000
# 6 0.0000 0.0000 0.0000 0.0000 0.0000 1.3313
#
#
#
# Elastic Compliance Matrix: (Units=1/GPa)
#
#
# Indices 1 2 3 4 5 6 
#
# 1 0.010714 -0.005848 -0.004793 0.000000 0.000000 0.000000
# 2 -0.005848 0.016029 -0.001533 0.000000 0.000000 0.000000
# 3 -0.004793 -0.001533 0.015726 0.000000 0.000000 0.000000
# 4 0.000000 0.000000 0.000000 0.050875 0.000000 0.000000
# 5 0.000000 0.000000 0.000000 0.000000 -0.446457 0.000000
# 6 0.000000 0.000000 0.000000 0.000000 0.000000 0.751128
#
#
# Mechanical properties :
#
#
# Convention : Reuss Voigt Hill
#
# Bulk Modulus (GPa) = 55.17850 65.45586 60.31718
# Shear Modulus (GPa) = 11.67127 15.75663 13.71395
#
# Velocity S-wave (km/s) = 2.55688 2.97086 2.77161
# Velocity P-wave (km/s) = 6.29482 6.95937 6.63542
#
# Compressibility (1/GPa) = 0.01812300
#
# Stress axis : x y z
#
# Youngs Moduli (GPa) = 93.33786 62.38612 63.58815
#
# Poissons Ratio (x) = 0.36480 0.30476
# Poissons Ratio (y) = 0.54579 0.09747
# Poissons Ratio (z) = 0.44735 0.09563
#
# Static dielectric constant tensor:
#      x y z
#    x 3.764040 0.000000 0.000000 
#    y 0.000000 3.356990 0.000000 
#    z 0.000000 0.000000 3.146880 
# 
# 
# High freq. dielectric constant tensor:
#      x y z
#    x 1.702100 0.000000 0.000000 
#    y 0.000000 1.667490 0.000000 
#    z 0.000000 0.000000 1.675920 
# 
# From -- ./inp_files/23964.got.cif
#   From: 2010.03.12/outbox.cif.g09.slc.cpg/sg47_12_cif.got.tgz:23964.got - 2010.04.14 03:12:58.
