data_PCOD8195017
_publ_section_title
;
Structure prediction by ZEFSAII (Michael W. Deem and Ramdas Pophale) SiO2 
 PCOD8195017
Probable space group: P M M M
;
_chemical_formula_sum "Si O2"
_cell_formula_units_Z 64
_cell_length_a 9.052027
_cell_length_b 20.149395
_cell_length_c 19.838754
_cell_angle_alpha 90.000000
_cell_angle_beta 90.000000
_cell_angle_gamma 90.000000
_cell_volume 3618.447231
_symmetry_space_group_name_H-M "P M M M"
_symmetry_group_IT_number 47
_symmetry_cell_setting 'orthorhombic'
loop_
_space_group_symop_operation_xyz
x,y,z
-x,-y,z
x,-y,-z
-x,y,-z
-x,-y,-z
x,y,-z
-x,y,z
x,-y,z
loop_
_atom_site_type_symbol
_atom_site_label
_atom_site_fract_x
_atom_site_fract_y
_atom_site_fract_z
Si Si1 0.831088 0.289871 0.260053
Si Si2 0.170045 0.924936 0.579159
Si Si3 0.668047 0.868366 0.926394
Si Si4 0.325948 0.928661 0.210254
Si Si5 0.831185 0.260255 0.106737
Si Si6 0.324639 0.171355 0.321253
Si Si7 0.828627 0.427417 0.206647
Si Si8 0.672049 0.609396 0.074836
O O1 0.811604 0.256916 0.187130
O O2 0.738624 0.246419 0.314129
O O3 0.771161 0.366806 0.254293
O O4 0.000000 0.289380 0.284745
O O5 0.190834 0.915749 0.500000
O O6 0.268107 0.867598 0.613152
O O7 0.000000 0.914614 0.599939
O O8 0.220664 0.000000 0.599805
O O9 0.500000 0.843598 0.913061
O O10 0.716257 0.918857 0.867978
O O11 0.779793 0.807677 0.925754
O O12 0.679667 0.903074 0.000000
O O13 0.500000 0.930185 0.220121
O O14 0.263104 0.870474 0.257301
O O15 0.258859 0.000000 0.232155
O O16 0.729020 0.315780 0.074275
O O17 0.000000 0.274326 0.086894
O O18 0.500000 0.176731 0.324672
O O19 0.805471 0.500000 0.241469
O O20 0.752339 0.431367 0.133627
O O21 0.000000 0.412488 0.192256
O O22 0.500000 0.608727 0.091809
O O23 0.700924 0.578638 0.000000
#
# Coordination Sequence:
#
# PCOD8195017 Si02
#       8
#     8   8   8   8   8   8   8   8
#     4   9  18  32  50  71  95 125 163 204 248 300
#     4   9  19  36  56  79 111 149 181 208 244 293
#     4  10  19  30  45  63  85 116 156 205 260 312
#     4   9  18  31  45  65  93 123 159 204 252 298
#     4  10  19  31  47  65  87 116 154 202 254 306
#     4  11  20  31  52  78 105 135 168 212 253 289
#     4   9  19  35  52  70  94 125 161 204 254 305
#     4  10  20  31  44  64  90 119 154 197 248 310
#
# _framework density 17.687144
#
# number of rings (size 3 to 8) (size 9 to 14) (size 15 to 20)
#    0.000    2.375    1.250    3.000    0.000    6.500 
#    0.000    3.125    0.000    1.125    0.000    0.875 
#    0.000    0.500    0.000    5.750    0.000    1.625 
#
# Total GULP energy -793115.140459 kJ/mol
# GULP energy per Si atom -12392.424070 kJ/mol
# Density = 1.764689 g / cm^3
# Si number density = 17.687144 Si / 1000 Ang^3
#
#
#
# Elastic Constant Matrix: (Units=GPa)
#
#
# Indices 1 2 3 4 5 6 
#
# 1 57.7456 38.0656 26.2477 0.0000 0.0000 0.0000
# 2 38.0656 122.6581 37.5400 0.0000 0.0000 0.0000
# 3 26.2477 37.5400 57.0746 0.0000 0.0000 0.0000
# 4 0.0000 0.0000 0.0000 14.1521 0.0000 0.0000
# 5 0.0000 0.0000 0.0000 0.0000 21.9964 0.0000
# 6 0.0000 0.0000 0.0000 0.0000 0.0000 18.9175
#
#
#
# Elastic Compliance Matrix: (Units=1/GPa)
#
#
# Indices 1 2 3 4 5 6 
#
# 1 0.024238 -0.005146 -0.007762 0.000000 0.000000 0.000000
# 2 -0.005146 0.011300 -0.005066 0.000000 0.000000 0.000000
# 3 -0.007762 -0.005066 0.024422 0.000000 0.000000 0.000000
# 4 0.000000 0.000000 0.000000 0.070661 0.000000 0.000000
# 5 0.000000 0.000000 0.000000 0.000000 0.045462 0.000000
# 6 0.000000 0.000000 0.000000 0.000000 0.000000 0.052861
#
#
# Mechanical properties :
#
#
# Convention : Reuss Voigt Hill
#
# Bulk Modulus (GPa) = 41.64462 49.02053 45.33257
# Shear Modulus (GPa) = 18.32198 20.05488 19.18843
#
# Velocity S-wave (km/s) = 3.22202 3.37095 3.29733
# Velocity P-wave (km/s) = 6.11867 6.55184 6.33895
#
# Compressibility (1/GPa) = 0.02401271
#
# Stress axis : x y z
#
# Youngs Moduli (GPa) = 41.25792 88.49313 40.94612
#
# Poissons Ratio (x) = 0.45543 0.31781
# Poissons Ratio (y) = 0.21233 0.20743
# Poissons Ratio (z) = 0.32023 0.44829
#
# Static dielectric constant tensor:
#      x y z
#    x 3.154180 0.000000 0.000000 
#    y 0.000000 3.374740 0.000000 
#    z 0.000000 0.000000 3.023890 
# 
# 
# High freq. dielectric constant tensor:
#      x y z
#    x 1.674530 0.000000 0.000000 
#    y 0.000000 1.681340 0.000000 
#    z 0.000000 0.000000 1.646840 
# 
# From -- ./inp_files/30129.got.cif
#   From: 2010.03.12/outbox.cif.g09.slc.cpg/sg47_16_cif.got.tgz:30129.got - 2010.04.14 03:12:58.
