data_PCOD8195462
_publ_section_title
;
Structure prediction by ZEFSAII (Michael W. Deem and Ramdas Pophale) SiO2 
 PCOD8195462
Probable space group: P M M M
;
_chemical_formula_sum "Si O2"
_cell_formula_units_Z 40
_cell_length_a 8.195647
_cell_length_b 9.251698
_cell_length_c 27.671812
_cell_angle_alpha 90.000000
_cell_angle_beta 90.000000
_cell_angle_gamma 90.000000
_cell_volume 2098.177814
_symmetry_space_group_name_H-M "P M M M"
_symmetry_group_IT_number 47
_symmetry_cell_setting 'orthorhombic'
loop_
_space_group_symop_operation_xyz
x,y,z
-x,-y,z
x,-y,-z
-x,y,-z
-x,-y,-z
x,y,-z
-x,y,z
x,-y,z
loop_
_atom_site_type_symbol
_atom_site_label
_atom_site_fract_x
_atom_site_fract_y
_atom_site_fract_z
Si Si1 0.685917 0.831433 0.201598
Si Si2 0.690625 0.835881 0.599308
Si Si3 0.186252 0.831446 0.301633
Si Si4 0.815969 0.330790 0.886301
Si Si5 0.191396 0.164363 0.500000
Si Si6 0.500000 0.328279 0.054280
O O1 0.500000 0.803751 0.186232
O O2 0.712320 0.770671 0.256006
O O3 0.803079 0.747387 0.165130
O O4 0.732718 0.000000 0.199447
O O5 0.500000 0.830582 0.605233
O O6 0.765111 0.757849 0.647047
O O7 0.743491 0.757841 0.549050
O O8 0.758232 0.000000 0.596778
O O9 0.000000 0.799559 0.290073
O O10 0.226744 0.000000 0.306853
O O11 0.792266 0.500000 0.877669
O O12 0.668782 0.272862 0.920706
O O13 0.000000 0.299979 0.907347
O O14 0.000000 0.171674 0.500000
O O15 0.258950 0.000000 0.500000
O O16 0.500000 0.500000 0.053593
O O17 0.500000 0.265820 0.000000
#
# Coordination Sequence:
#
# PCOD8195462 Si02
#       6
#     8   8   8   8   4   4
#     4  10  19  31  49  72  98 131 168 204 245 293
#     4   9  15  22  31  44  65  95 134 179 225 275
#     4   9  16  25  37  55  80 110 146 189 233 279
#     4  10  20  34  54  79 105 134 167 203 246 292
#     4   9  15  21  29  41  59  89 130 175 224 275
#     4   9  18  34  55  79 107 135 165 204 245 286
#
# _framework density 19.064160999999999
#
# number of rings (size 3 to 8) (size 9 to 14) (size 15 to 20)
#    0.000    2.600    1.000    2.100    0.000    7.600 
#    0.000    2.000    0.000    1.200    0.000    1.400 
#    0.000    0.000    0.000    0.900    0.000   17.600 
#
# Total GULP energy -495672.398657 kJ/mol
# GULP energy per Si atom -12391.809966 kJ/mol
# Density = 1.902077 g / cm^3
# Si number density = 19.064161 Si / 1000 Ang^3
#
#
#
# Elastic Constant Matrix: (Units=GPa)
#
#
# Indices 1 2 3 4 5 6 
#
# 1 102.0750 14.8595 65.1210 0.0000 0.0000 0.0000
# 2 14.8595 12.3461 19.2950 0.0000 0.0000 0.0000
# 3 65.1210 19.2950 156.4250 0.0000 0.0000 0.0000
# 4 0.0000 0.0000 0.0000 -1.9337 0.0000 0.0000
# 5 0.0000 0.0000 0.0000 0.0000 33.6311 0.0000
# 6 0.0000 0.0000 0.0000 0.0000 0.0000 12.9549
#
#
#
# Elastic Compliance Matrix: (Units=1/GPa)
#
#
# Indices 1 2 3 4 5 6 
#
# 1 0.014227 -0.009746 -0.004721 0.000000 0.000000 0.000000
# 2 -0.009746 0.107017 -0.009143 0.000000 0.000000 0.000000
# 3 -0.004721 -0.009143 0.009486 0.000000 0.000000 0.000000
# 4 0.000000 0.000000 0.000000 -0.517137 0.000000 0.000000
# 5 0.000000 0.000000 0.000000 0.000000 0.029734 0.000000
# 6 0.000000 0.000000 0.000000 0.000000 0.000000 0.077191
#
#
# Mechanical properties :
#
#
# Convention : Reuss Voigt Hill
#
# Bulk Modulus (GPa) = 11.97456 52.15524 32.06490
# Shear Modulus (GPa) = -24.45885 20.36849 -2.04518
#
# Velocity S-wave (km/s) = -3.58575 3.27221 -1.03688
# Velocity P-wave (km/s) = 3.29373 6.45706 3.92715
#
# Compressibility (1/GPa) = 0.08351038
#
# Stress axis : x y z
#
# Youngs Moduli (GPa) = 70.28813 9.34432 105.41913
#
# Poissons Ratio (x) = 0.09107 0.49766
# Poissons Ratio (y) = 0.68501 0.96388
# Poissons Ratio (z) = 0.33181 0.08544
#
# Static dielectric constant tensor:
#      x y z
#    x 3.562960 0.000000 0.000000 
#    y 0.000000 2.741020 0.000000 
#    z 0.000000 0.000000 3.880140 
# 
# 
# High freq. dielectric constant tensor:
#      x y z
#    x 1.756730 0.000000 0.000000 
#    y 0.000000 1.644860 0.000000 
#    z 0.000000 0.000000 1.760040 
# 
# From -- ./inp_files/33095.got.cif
#   From: 2010.03.12/outbox.cif.g09.slc.cpg/sg47_17_cif.got.tgz:33095.got - 2010.04.14 03:12:58.
