data_PCOD8195101
_publ_section_title
;
Structure prediction by ZEFSAII (Michael W. Deem and Ramdas Pophale) SiO2 
 PCOD8195101
Probable space group: P M M M
;
_chemical_formula_sum "Si O2"
_cell_formula_units_Z 52
_cell_length_a 8.919647
_cell_length_b 23.359929
_cell_length_c 14.273024
_cell_angle_alpha 90.000000
_cell_angle_beta 90.000000
_cell_angle_gamma 90.000000
_cell_volume 2973.960403
_symmetry_space_group_name_H-M "P M M M"
_symmetry_group_IT_number 47
_symmetry_cell_setting 'orthorhombic'
loop_
_space_group_symop_operation_xyz
x,y,z
-x,-y,z
x,-y,-z
-x,y,-z
-x,-y,-z
x,y,-z
-x,y,z
x,-y,z
loop_
_atom_site_type_symbol
_atom_site_label
_atom_site_fract_x
_atom_site_fract_y
_atom_site_fract_z
Si Si1 0.672063 0.343868 0.104164
Si Si2 0.178460 0.063009 0.605538
Si Si3 0.326090 0.606721 0.296505
Si Si4 0.173317 0.286849 0.610165
Si Si5 0.177287 0.500000 0.393436
Si Si6 0.822227 0.171865 0.288907
Si Si7 0.177569 0.224919 0.897394
O O1 0.500000 0.323992 0.109532
O O2 0.704233 0.391241 0.184080
O O3 0.771642 0.288820 0.126479
O O4 0.709055 0.368745 0.000000
O O5 0.236680 0.073255 0.500000
O O6 0.247577 0.112615 0.671780
O O7 0.000000 0.066160 0.606123
O O8 0.230710 0.000000 0.641032
O O9 0.500000 0.595811 0.318128
O O10 0.277479 0.666227 0.342068
O O11 0.231495 0.555816 0.339746
O O12 0.197801 0.289640 0.500000
O O13 0.226601 0.224719 0.645728
O O14 0.000000 0.298327 0.636964
O O15 0.238844 0.500000 0.500000
O O16 0.000000 0.500000 0.393936
O O17 0.762349 0.181851 0.182769
O O18 0.000000 0.166908 0.289360
O O19 0.000000 0.225724 0.896264
O O20 0.237858 0.205506 0.000000
#
# Coordination Sequence:
#
# PCOD8195101 Si02
#       7
#     8   8   8   8   4   8   8
#     4   9  18  33  52  74 100 128 157 191 235 287
#     4   8  13  21  34  54  83 122 165 202 236 280
#     4  11  22  36  55  77 100 127 159 198 241 283
#     4  10  19  30  46  69  97 127 158 195 242 292
#     4  11  25  43  60  75  96 132 171 199 228 277
#     4   9  15  24  39  61  90 122 157 198 242 285
#     4   9  16  26  43  67  93 122 156 194 238 289
#
# _framework density 17.485102000000001
#
# number of rings (size 3 to 8) (size 9 to 14) (size 15 to 20)
#    0.000    2.538    1.538    2.077    0.000    5.231 
#    0.000    0.385    0.000    2.769    0.000    3.231 
#    0.000    2.462    0.000   12.308    0.000   11.692 
#
# Total GULP energy -644511.541791 kJ/mol
# GULP energy per Si atom -12394.452727 kJ/mol
# Density = 1.744530 g / cm^3
# Si number density = 17.485102 Si / 1000 Ang^3
#
#
#
# Elastic Constant Matrix: (Units=GPa)
#
#
# Indices 1 2 3 4 5 6 
#
# 1 22.2390 16.6126 23.6828 0.0000 0.0000 0.0000
# 2 16.6126 111.8303 69.7680 0.0000 0.0000 0.0000
# 3 23.6828 69.7680 135.6394 0.0000 0.0000 0.0000
# 4 0.0000 0.0000 0.0000 22.0740 0.0000 0.0000
# 5 0.0000 0.0000 0.0000 0.0000 17.7158 0.0000
# 6 0.0000 0.0000 0.0000 0.0000 0.0000 -3.9539
#
#
#
# Elastic Compliance Matrix: (Units=1/GPa)
#
#
# Indices 1 2 3 4 5 6 
#
# 1 0.056037 -0.003270 -0.008102 0.000000 0.000000 0.000000
# 2 -0.003270 0.013358 -0.006300 0.000000 0.000000 0.000000
# 3 -0.008102 -0.006300 0.012028 0.000000 0.000000 0.000000
# 4 0.000000 0.000000 0.000000 0.045302 0.000000 0.000000
# 5 0.000000 0.000000 0.000000 0.000000 0.056447 0.000000
# 6 0.000000 0.000000 0.000000 0.000000 0.000000 -0.252915
#
#
# Mechanical properties :
#
#
# Convention : Reuss Voigt Hill
#
# Bulk Modulus (GPa) = 21.70194 54.42615 38.06405
# Shear Modulus (GPa) = -262.61757 17.81018 -122.40369
#
# Velocity S-wave (km/s) = -12.26870 3.19500 -8.37595
# Velocity P-wave (km/s) = 13.72065 6.69369 8.46908
#
# Compressibility (1/GPa) = 0.04607884
#
# Stress axis : x y z
#
# Youngs Moduli (GPa) = 17.84537 74.85966 83.14102
#
# Poissons Ratio (x) = 0.24476 0.67364
# Poissons Ratio (y) = 0.05835 0.52380
# Poissons Ratio (z) = 0.14459 0.47163
#
# Static dielectric constant tensor:
#      x y z
#    x 2.957530 0.000000 0.000000 
#    y 0.000000 3.408960 0.000000 
#    z 0.000000 0.000000 3.793240 
# 
# 
# High freq. dielectric constant tensor:
#      x y z
#    x 1.642310 0.000000 0.000000 
#    y 0.000000 1.658770 0.000000 
#    z 0.000000 0.000000 1.691180 
# 
# From -- ./inp_files/21417.got.cif
#   From: 2010.03.12/outbox.cif.g09.slc.cpg/sg47_11_cif.got.tgz:21417.got - 2010.04.14 03:12:58.
