data_PCOD8195561
_publ_section_title
;
Structure prediction by ZEFSAII (Michael W. Deem and Ramdas Pophale) SiO2 
 PCOD8195561
Probable space group: P M M M
;
_chemical_formula_sum "Si O2"
_cell_formula_units_Z 36
_cell_length_a 7.921885
_cell_length_b 11.747211
_cell_length_c 22.399960
_cell_angle_alpha 90.000000
_cell_angle_beta 90.000000
_cell_angle_gamma 90.000000
_cell_volume 2084.541501
_symmetry_space_group_name_H-M "P M M M"
_symmetry_group_IT_number 47
_symmetry_cell_setting 'orthorhombic'
loop_
_space_group_symop_operation_xyz
x,y,z
-x,-y,z
x,-y,-z
-x,y,-z
-x,-y,-z
x,y,-z
-x,y,z
x,-y,z
loop_
_atom_site_type_symbol
_atom_site_label
_atom_site_fract_x
_atom_site_fract_y
_atom_site_fract_z
Si Si1 0.313036 0.864902 0.856371
Si Si2 0.698372 0.500000 0.432323
Si Si3 0.198001 0.261200 0.613163
Si Si4 0.000000 0.135997 0.067527
Si Si5 0.800344 0.869549 0.727921
Si Si6 0.798191 0.127966 0.500000
O O1 0.500000 0.824671 0.877510
O O2 0.168308 0.815405 0.900039
O O3 0.283464 0.823680 0.788673
O O4 0.300031 0.000000 0.857517
O O5 0.500000 0.500000 0.437200
O O6 0.775694 0.500000 0.500000
O O7 0.759796 0.393127 0.394064
O O8 0.270965 0.210187 0.674803
O O9 0.276545 0.191827 0.557758
O O10 0.000000 0.241755 0.613672
O O11 0.000000 0.000000 0.069074
O O12 0.000000 0.181748 0.000000
O O13 0.000000 0.859787 0.735603
O O14 0.748754 0.000000 0.714171
O O15 0.000000 0.130731 0.500000
O O16 0.729454 0.000000 0.500000
#
# Coordination Sequence:
#
# PCOD8195561 Si02
#       6
#     8   4   8   4   8   4
#     4   9  16  26  41  61  88 125 163 197 236 283
#     4  11  23  37  49  61  87 123 157 196 245 296
#     4  10  19  31  51  71  87 115 154 195 238 290
#     4   9  16  26  40  60  90 126 163 202 234 268
#     4   9  16  28  46  69  95 120 150 193 246 296
#     4   9  16  27  45  72  96 111 142 193 242 285
#
# _framework density 17.269983
#
# number of rings (size 3 to 8) (size 9 to 14) (size 15 to 20)
#    0.000    2.556    2.222    1.000    0.000    4.444 
#    0.000    2.222    0.000    2.667    0.000    0.000 
#    0.000    0.000    0.000    2.000    0.000    5.556 
#
# Total GULP energy -446275.840331 kJ/mol
# GULP energy per Si atom -12396.551120 kJ/mol
# Density = 1.723068 g / cm^3
# Si number density = 17.269983 Si / 1000 Ang^3
#
#
#
# Elastic Constant Matrix: (Units=GPa)
#
#
# Indices 1 2 3 4 5 6 
#
# 1 74.5606 11.1570 58.5361 0.0000 0.0000 0.0000
# 2 11.1570 76.8086 44.4567 0.0000 0.0000 0.0000
# 3 58.5361 44.4567 152.2558 0.0000 0.0000 0.0000
# 4 0.0000 0.0000 0.0000 7.1968 0.0000 0.0000
# 5 0.0000 0.0000 0.0000 0.0000 13.2151 0.0000
# 6 0.0000 0.0000 0.0000 0.0000 0.0000 4.4539
#
#
#
# Elastic Compliance Matrix: (Units=1/GPa)
#
#
# Indices 1 2 3 4 5 6 
#
# 1 0.019416 0.001805 -0.007992 0.000000 0.000000 0.000000
# 2 0.001805 0.015835 -0.005318 0.000000 0.000000 0.000000
# 3 -0.007992 -0.005318 0.011193 0.000000 0.000000 0.000000
# 4 0.000000 0.000000 0.000000 0.138950 0.000000 0.000000
# 5 0.000000 0.000000 0.000000 0.000000 0.075671 0.000000
# 6 0.000000 0.000000 0.000000 0.000000 0.000000 0.224522
#
#
# Mechanical properties :
#
#
# Convention : Reuss Voigt Hill
#
# Bulk Modulus (GPa) = 42.66978 59.10272 50.88625
# Shear Modulus (GPa) = 9.68228 17.60484 13.64356
#
# Velocity S-wave (km/s) = 2.37036 3.19625 2.81377
# Velocity P-wave (km/s) = 5.67914 6.92232 6.33131
#
# Compressibility (1/GPa) = 0.02343579
#
# Stress axis : x y z
#
# Youngs Moduli (GPa) = 51.50407 63.15122 89.34082
#
# Poissons Ratio (x) = -0.11401 0.71399
# Poissons Ratio (y) = -0.09298 0.47509
# Poissons Ratio (z) = 0.41161 0.33582
#
# Static dielectric constant tensor:
#      x y z
#    x 3.191400 0.000000 0.000000 
#    y 0.000000 2.766480 0.000000 
#    z 0.000000 0.000000 3.416150 
# 
# 
# High freq. dielectric constant tensor:
#      x y z
#    x 1.664000 0.000000 0.000000 
#    y 0.000000 1.609220 0.000000 
#    z 0.000000 0.000000 1.666490 
# 
# From -- ./inp_files/29288.got.cif
#   From: 2010.03.12/outbox.cif.g09.slc.cpg/sg47_15_cif.got.tgz:29288.got - 2010.04.14 03:12:58.
