data_PCOD8195005
_publ_section_title
;
Structure prediction by ZEFSAII (Michael W. Deem and Ramdas Pophale) SiO2 
 PCOD8195005
Probable space group: P M M M
;
_chemical_formula_sum "Si O2"
_cell_formula_units_Z 52
_cell_length_a 13.791786
_cell_length_b 8.850446
_cell_length_c 26.711911
_cell_angle_alpha 90.000000
_cell_angle_beta 90.000000
_cell_angle_gamma 90.000000
_cell_volume 3260.548206
_symmetry_space_group_name_H-M "P M M M"
_symmetry_group_IT_number 47
_symmetry_cell_setting 'orthorhombic'
loop_
_space_group_symop_operation_xyz
x,y,z
-x,-y,z
x,-y,-z
-x,y,-z
-x,-y,-z
x,y,-z
-x,y,z
x,-y,z
loop_
_atom_site_type_symbol
_atom_site_label
_atom_site_fract_x
_atom_site_fract_y
_atom_site_fract_z
Si Si1 0.109875 0.320884 0.846533
Si Si2 0.714417 0.178292 0.793781
Si Si3 0.387727 0.677567 0.701369
Si Si4 0.789606 0.677257 0.945354
Si Si5 0.609067 0.675011 0.116808
Si Si6 0.384212 0.329444 0.500000
Si Si7 0.614935 0.169382 0.599268
O O1 0.124764 0.500000 0.843710
O O2 0.179420 0.244993 0.805807
O O3 0.137648 0.261786 0.902482
O O4 0.000000 0.272971 0.834857
O O5 0.680256 0.237835 0.740433
O O6 0.635932 0.227308 0.834939
O O7 0.721933 0.000000 0.792248
O O8 0.500000 0.720933 0.711021
O O9 0.371682 0.500000 0.706035
O O10 0.353369 0.731150 0.646716
O O11 0.804355 0.500000 0.950562
O O12 0.679187 0.715368 0.929409
O O13 0.810189 0.752319 0.000000
O O14 0.500000 0.712610 0.099911
O O15 0.621164 0.500000 0.132265
O O16 0.344846 0.500000 0.500000
O O17 0.500000 0.328294 0.500000
O O18 0.342797 0.245463 0.450934
O O19 0.500000 0.164180 0.595431
O O20 0.656936 0.000000 0.604448
#
# Coordination Sequence:
#
# PCOD8195005 Si02
#       7
#     8   8   8   8   8   4   8
#     4   9  18  33  51  68  86 109 137 170 212 262
#     4  11  21  31  45  64  86 111 141 178 217 259
#     4  10  19  30  44  62  86 116 149 184 221 261
#     4   8  14  25  43  69  94 110 132 171 214 253
#     4   9  17  29  44  62  86 116 147 176 208 249
#     4   9  15  23  35  51  75 111 154 193 226 259
#     4   9  16  25  37  55  80 111 149 190 227 260
#
# _framework density 15.948238
#
# number of rings (size 3 to 8) (size 9 to 14) (size 15 to 20)
#    0.000    2.692    0.000    3.923    0.000    6.769 
#    0.000    3.077    0.000    7.385    0.000    8.615 
#    0.000    0.000    0.000    0.692    0.000   12.846 
#
# Total GULP energy -644643.178118 kJ/mol
# GULP energy per Si atom -12396.984195 kJ/mol
# Density = 1.591194 g / cm^3
# Si number density = 15.948238 Si / 1000 Ang^3
#
#
#
# Elastic Constant Matrix: (Units=GPa)
#
#
# Indices 1 2 3 4 5 6 
#
# 1 81.6067 34.0552 41.5125 0.0000 0.0000 0.0000
# 2 34.0552 74.5593 38.9094 0.0000 0.0000 0.0000
# 3 41.5125 38.9094 118.2596 0.0000 0.0000 0.0000
# 4 0.0000 0.0000 0.0000 6.5053 0.0000 0.0000
# 5 0.0000 0.0000 0.0000 0.0000 13.3008 0.0000
# 6 0.0000 0.0000 0.0000 0.0000 0.0000 12.1113
#
#
#
# Elastic Compliance Matrix: (Units=1/GPa)
#
#
# Indices 1 2 3 4 5 6 
#
# 1 0.016584 -0.005477 -0.004019 0.000000 0.000000 0.000000
# 2 -0.005477 0.018001 -0.004000 0.000000 0.000000 0.000000
# 3 -0.004019 -0.004000 0.011183 0.000000 0.000000 0.000000
# 4 0.000000 0.000000 0.000000 0.153720 0.000000 0.000000
# 5 0.000000 0.000000 0.000000 0.000000 0.075183 0.000000
# 6 0.000000 0.000000 0.000000 0.000000 0.000000 0.082568
#
#
# Mechanical properties :
#
#
# Convention : Reuss Voigt Hill
#
# Bulk Modulus (GPa) = 53.26227 55.93109 54.59668
# Shear Modulus (GPa) = 12.80437 17.04672 14.92555
#
# Velocity S-wave (km/s) = 2.83657 3.27292 3.06253
# Velocity P-wave (km/s) = 6.64813 7.03059 6.84203
#
# Compressibility (1/GPa) = 0.01877502
#
# Stress axis : x y z
#
# Youngs Moduli (GPa) = 60.29806 55.55120 89.42158
#
# Poissons Ratio (x) = 0.30427 0.35942
# Poissons Ratio (y) = 0.33027 0.35769
# Poissons Ratio (z) = 0.24236 0.22221
#
# Static dielectric constant tensor:
#      x y z
#    x 2.789580 0.000000 0.000000 
#    y 0.000000 2.963160 0.000000 
#    z 0.000000 0.000000 3.174420 
# 
# 
# High freq. dielectric constant tensor:
#      x y z
#    x 1.568850 0.000000 0.000000 
#    y 0.000000 1.605740 0.000000 
#    z 0.000000 0.000000 1.614650 
# 
# From -- ./inp_files/13427.got.cif
#   From: 2010.03.12/outbox.cif.g09.slc.cpg/sg47_7_cif.got.tgz:13427.got - 2010.04.14 03:12:58.
