data_PCOD8195523
_publ_section_title
;
Structure prediction by ZEFSAII (Michael W. Deem and Ramdas Pophale) SiO2 
 PCOD8195523
Probable space group: P M M M
;
_chemical_formula_sum "Si O2"
_cell_formula_units_Z 24
_cell_length_a 18.514641
_cell_length_b 9.807603
_cell_length_c 7.954548
_cell_angle_alpha 90.000000
_cell_angle_beta 90.000000
_cell_angle_gamma 90.000000
_cell_volume 1444.420622
_symmetry_space_group_name_H-M "P M M M"
_symmetry_group_IT_number 47
_symmetry_cell_setting 'orthorhombic'
loop_
_space_group_symop_operation_xyz
x,y,z
-x,-y,z
x,-y,-z
-x,y,-z
-x,-y,-z
x,y,-z
-x,y,z
x,-y,z
loop_
_atom_site_type_symbol
_atom_site_label
_atom_site_fract_x
_atom_site_fract_y
_atom_site_fract_z
Si Si1 0.419404 0.161713 0.500000
Si Si2 0.675646 0.842860 0.812456
Si Si3 0.208561 0.348738 0.689007
Si Si4 0.919884 0.500000 0.802606
O O1 0.500000 0.224336 0.500000
O O2 0.379235 0.212409 0.669646
O O3 0.423940 0.000000 0.500000
O O4 0.749443 0.756603 0.807138
O O5 0.695055 0.000000 0.777229
O O6 0.641778 0.826123 0.000000
O O7 0.212286 0.292092 0.500000
O O8 0.244761 0.500000 0.702334
O O9 0.124344 0.364500 0.744099
O O10 0.000000 0.500000 0.721290
O O11 0.926253 0.500000 0.000000
#
# Coordination Sequence:
#
# PCOD8195523 Si02
#       4
#     4   8   8   4
#     4   9  18  32  49  71  99 128 160 200 245 291
#     4  10  19  31  50  74  99 128 163 202 243 287
#     4   9  18  30  48  72  96 128 164 201 238 284
#     4   9  17  29  47  73 101 128 161 201 241 283
#
# _framework density 16.615656999999999
#
# number of rings (size 3 to 8) (size 9 to 14) (size 15 to 20)
#    1.000    1.667    1.667    1.000    0.000    2.000 
#    0.000    3.333    0.000    3.000    0.000    9.333 
#    0.000    0.000    0.000    0.000    0.000    0.000 
#
# Total GULP energy -297334.977148 kJ/mol
# GULP energy per Si atom -12388.957381 kJ/mol
# Density = 1.657784 g / cm^3
# Si number density = 16.615657 Si / 1000 Ang^3
#
#
#
# Elastic Constant Matrix: (Units=GPa)
#
#
# Indices 1 2 3 4 5 6 
#
# 1 125.8073 37.2860 48.5594 0.0000 0.0000 0.0000
# 2 37.2860 39.9075 28.4292 0.0000 0.0000 0.0000
# 3 48.5594 28.4292 118.1138 0.0000 0.0000 0.0000
# 4 0.0000 0.0000 0.0000 20.6601 0.0000 0.0000
# 5 0.0000 0.0000 0.0000 0.0000 22.4868 0.0000
# 6 0.0000 0.0000 0.0000 0.0000 0.0000 21.4476
#
#
#
# Elastic Compliance Matrix: (Units=1/GPa)
#
#
# Indices 1 2 3 4 5 6 
#
# 1 0.011624 -0.008999 -0.002613 0.000000 0.000000 0.000000
# 2 -0.008999 0.037211 -0.005257 0.000000 0.000000 0.000000
# 3 -0.002613 -0.005257 0.010806 0.000000 0.000000 0.000000
# 4 0.000000 0.000000 0.000000 0.048403 0.000000 0.000000
# 5 0.000000 0.000000 0.000000 0.000000 0.044471 0.000000
# 6 0.000000 0.000000 0.000000 0.000000 0.000000 0.046625
#
#
# Mechanical properties :
#
#
# Convention : Reuss Voigt Hill
#
# Bulk Modulus (GPa) = 38.60510 56.93086 47.76798
# Shear Modulus (GPa) = 20.70292 24.22249 22.46270
#
# Velocity S-wave (km/s) = 3.53369 3.82227 3.68081
# Velocity P-wave (km/s) = 6.31932 7.33604 6.84658
#
# Compressibility (1/GPa) = 0.02590331
#
# Stress axis : x y z
#
# Youngs Moduli (GPa) = 86.02583 26.87388 92.54215
#
# Poissons Ratio (x) = 0.24185 0.24181
# Poissons Ratio (y) = 0.77418 0.48645
# Poissons Ratio (z) = 0.22478 0.14126
#
# Static dielectric constant tensor:
#      x y z
#    x 3.205200 0.000000 0.000000 
#    y 0.000000 2.770930 0.000000 
#    z 0.000000 0.000000 3.247530 
# 
# 
# High freq. dielectric constant tensor:
#      x y z
#    x 1.620060 0.000000 0.000000 
#    y 0.000000 1.599940 0.000000 
#    z 0.000000 0.000000 1.660520 
# 
# From -- ./inp_files/3016.got.cif
#   From: 2010.03.12/outbox.cif.g09.slc.cpg/sg47_2_cif.got.tgz:3016.got - 2010.04.14 03:12:58.
