data_PCOD8195688
_publ_section_title
;
Structure prediction by ZEFSAII (Michael W. Deem and Ramdas Pophale) SiO2 
 PCOD8195688
Probable space group: P M M M
;
_chemical_formula_sum "Si O2"
_cell_formula_units_Z 52
_cell_length_a 9.812585
_cell_length_b 8.149678
_cell_length_c 35.046320
_cell_angle_alpha 90.000000
_cell_angle_beta 90.000000
_cell_angle_gamma 90.000000
_cell_volume 2802.633466
_symmetry_space_group_name_H-M "P M M M"
_symmetry_group_IT_number 47
_symmetry_cell_setting 'orthorhombic'
loop_
_space_group_symop_operation_xyz
x,y,z
-x,-y,z
x,-y,-z
-x,y,-z
-x,-y,-z
x,y,-z
-x,y,z
x,-y,z
loop_
_atom_site_type_symbol
_atom_site_label
_atom_site_fract_x
_atom_site_fract_y
_atom_site_fract_z
Si Si1 0.652762 0.193685 0.607558
Si Si2 0.656338 0.811453 0.232362
Si Si3 0.846845 0.312234 0.831857
Si Si4 0.162425 0.500000 0.956537
Si Si5 0.152506 0.195225 0.542392
Si Si6 0.161753 0.182226 0.088226
Si Si7 0.338608 0.315321 0.687653
O O1 0.500000 0.266764 0.603438
O O2 0.744946 0.270166 0.573809
O O3 0.719730 0.240460 0.648354
O O4 0.647753 0.000000 0.604152
O O5 0.500000 0.750495 0.229085
O O6 0.747317 0.707042 0.203768
O O7 0.711582 0.785658 0.275439
O O8 0.669837 0.000000 0.221182
O O9 0.846983 0.500000 0.845318
O O10 0.794116 0.206459 0.867748
O O11 0.000000 0.258078 0.819953
O O12 0.221416 0.667695 0.937230
O O13 0.000000 0.500000 0.953535
O O14 0.212631 0.500000 0.000000
O O15 0.198673 0.251964 0.500000
O O16 0.000000 0.259954 0.550866
O O17 0.153672 0.000000 0.544588
O O18 0.000000 0.188543 0.085212
O O19 0.213747 0.000000 0.074923
O O20 0.500000 0.304068 0.685280
O O21 0.285974 0.500000 0.692229
#
# Coordination Sequence:
#
# PCOD8195688 Si02
#       7
#     8   8   8   4   8   8   8
#     4   9  16  26  43  66  87 108 140 182 222 261
#     4  10  20  33  50  73  99 126 161 205 247 290
#     4  10  19  32  50  71  98 132 168 204 245 297
#     4   9  16  26  40  62  93 127 167 211 253 305
#     4   8  14  25  41  62  88 115 141 172 216 268
#     4   9  16  27  43  63  91 128 166 205 253 304
#     4   9  17  30  47  65  88 120 153 185 229 282
#
# _framework density 18.553977
#
# number of rings (size 3 to 8) (size 9 to 14) (size 15 to 20)
#    0.000    2.846    0.769    1.846    0.000    4.308 
#    0.000    3.846    0.000    3.692    0.000    3.231 
#    0.000    1.231    0.000    3.231    0.000    3.077 
#
# Total GULP energy -644495.887044 kJ/mol
# GULP energy per Si atom -12394.151674 kJ/mol
# Density = 1.851175 g / cm^3
# Si number density = 18.553977 Si / 1000 Ang^3
#
#
#
# Elastic Constant Matrix: (Units=GPa)
#
#
# Indices 1 2 3 4 5 6 
#
# 1 46.5788 17.9606 48.2566 0.0000 0.0000 0.0000
# 2 17.9606 75.6178 44.9602 0.0000 0.0000 0.0000
# 3 48.2566 44.9602 144.9948 0.0000 0.0000 0.0000
# 4 0.0000 0.0000 0.0000 23.8913 0.0000 0.0000
# 5 0.0000 0.0000 0.0000 0.0000 14.4885 0.0000
# 6 0.0000 0.0000 0.0000 0.0000 0.0000 11.9246
#
#
#
# Elastic Compliance Matrix: (Units=1/GPa)
#
#
# Indices 1 2 3 4 5 6 
#
# 1 0.032924 -0.001600 -0.010462 0.000000 0.000000 0.000000
# 2 -0.001600 0.016291 -0.004519 0.000000 0.000000 0.000000
# 3 -0.010462 -0.004519 0.011780 0.000000 0.000000 0.000000
# 4 0.000000 0.000000 0.000000 0.041856 0.000000 0.000000
# 5 0.000000 0.000000 0.000000 0.000000 0.069020 0.000000
# 6 0.000000 0.000000 0.000000 0.000000 0.000000 0.083860
#
#
# Mechanical properties :
#
#
# Convention : Reuss Voigt Hill
#
# Bulk Modulus (GPa) = 35.92705 54.39402 45.16054
# Shear Modulus (GPa) = 16.76883 20.46180 18.61531
#
# Velocity S-wave (km/s) = 3.00957 3.32448 3.17094
# Velocity P-wave (km/s) = 5.61090 6.64203 6.14812
#
# Compressibility (1/GPa) = 0.02783418
#
# Stress axis : x y z
#
# Youngs Moduli (GPa) = 30.37259 61.38214 84.89014
#
# Poissons Ratio (x) = 0.09821 0.88809
# Poissons Ratio (y) = 0.04859 0.38363
# Poissons Ratio (z) = 0.31775 0.27740
#
# Static dielectric constant tensor:
#      x y z
#    x 3.099950 0.000000 0.000000 
#    y 0.000000 3.367830 0.000000 
#    z 0.000000 0.000000 3.578730 
# 
# 
# High freq. dielectric constant tensor:
#      x y z
#    x 1.662120 0.000000 0.000000 
#    y 0.000000 1.714960 0.000000 
#    z 0.000000 0.000000 1.727730 
# 
# From -- ./inp_files/34531.got.cif
#   From: 2010.03.12/outbox.cif.g09.slc.cpg/sg47_18_cif.got.tgz:34531.got - 2010.04.14 03:12:58.
