data_PCOD8195221
_publ_section_title
;
Structure prediction by ZEFSAII (Michael W. Deem and Ramdas Pophale) SiO2 
 PCOD8195221
Probable space group: P M M M
;
_chemical_formula_sum "Si O2"
_cell_formula_units_Z 56
_cell_length_a 9.017687
_cell_length_b 15.279329
_cell_length_c 20.236222
_cell_angle_alpha 90.000000
_cell_angle_beta 90.000000
_cell_angle_gamma 90.000000
_cell_volume 2788.231791
_symmetry_space_group_name_H-M "P M M M"
_symmetry_group_IT_number 47
_symmetry_cell_setting 'orthorhombic'
loop_
_space_group_symop_operation_xyz
x,y,z
-x,-y,z
x,-y,-z
-x,y,-z
-x,-y,-z
x,y,-z
-x,y,z
x,-y,z
loop_
_atom_site_type_symbol
_atom_site_label
_atom_site_fract_x
_atom_site_fract_y
_atom_site_fract_z
Si Si1 0.174792 0.667601 0.137738
Si Si2 0.175120 0.140582 0.178241
Si Si3 0.825738 0.100209 0.674628
Si Si4 0.824212 0.402182 0.000000
Si Si5 0.670545 0.767137 0.426111
Si Si6 0.174821 0.601789 0.382035
Si Si7 0.338905 0.598827 0.745550
Si Si8 0.823163 0.000000 0.924815
O O1 0.225956 0.762064 0.162094
O O2 0.259315 0.599791 0.183931
O O3 0.000000 0.652550 0.144019
O O4 0.230808 0.651420 0.063497
O O5 0.236209 0.113816 0.250515
O O6 0.236341 0.082537 0.117481
O O7 0.000000 0.129484 0.179601
O O8 0.746500 0.165833 0.624429
O O9 0.000000 0.120820 0.672100
O O10 0.792989 0.000000 0.653630
O O11 0.756593 0.500000 0.000000
O O12 0.000000 0.408506 0.000000
O O13 0.683278 0.806768 0.500000
O O14 0.500000 0.755072 0.404967
O O15 0.746402 0.670729 0.430327
O O16 0.217447 0.500000 0.397946
O O17 0.228113 0.636070 0.309923
O O18 0.000000 0.613440 0.386676
O O19 0.500000 0.647411 0.745989
O O20 0.368906 0.500000 0.726286
O O21 0.000000 0.000000 0.929873
O O22 0.757926 0.000000 0.000000
#
# Coordination Sequence:
#
# PCOD8195221 Si02
#       8
#     8   8   8   4   8   8   8   4
#     4  10  19  30  49  74 103 142 190 238 285 340
#     4   9  17  30  49  78 111 143 181 228 283 340
#     4  10  20  37  61  86 116 154 198 251 306 359
#     4   9  18  30  43  66 104 146 189 243 299 344
#     4  11  25  42  60  86 121 158 196 242 294 351
#     4  10  21  38  62  90 118 150 190 236 287 348
#     4  10  20  34  53  78 108 142 182 230 283 337
#     4   9  16  26  46  76 114 147 170 214 281 343
#
# _framework density 20.084412
#
# number of rings (size 3 to 8) (size 9 to 14) (size 15 to 20)
#    0.000    2.143    0.714    2.571    1.000    5.429 
#    0.000    3.214    0.000    1.286    0.000    0.000 
#    0.000    2.286    0.000    0.000    0.000    0.000 
#
# Total GULP energy -694053.502382 kJ/mol
# GULP energy per Si atom -12393.812543 kJ/mol
# Density = 2.003870 g / cm^3
# Si number density = 20.084412 Si / 1000 Ang^3
#
#
#
# Elastic Constant Matrix: (Units=GPa)
#
#
# Indices 1 2 3 4 5 6 
#
# 1 71.4349 44.7987 38.7653 0.0000 0.0000 0.0000
# 2 44.7987 106.7034 53.7968 0.0000 0.0000 0.0000
# 3 38.7653 53.7968 139.7803 0.0000 0.0000 0.0000
# 4 0.0000 0.0000 0.0000 30.9826 0.0000 0.0000
# 5 0.0000 0.0000 0.0000 0.0000 2.7687 0.0000
# 6 0.0000 0.0000 0.0000 0.0000 0.0000 17.8555
#
#
#
# Elastic Compliance Matrix: (Units=1/GPa)
#
#
# Indices 1 2 3 4 5 6 
#
# 1 0.019880 -0.006907 -0.002855 0.000000 0.000000 0.000000
# 2 -0.006907 0.014028 -0.003483 0.000000 0.000000 0.000000
# 3 -0.002855 -0.003483 0.009286 0.000000 0.000000 0.000000
# 4 0.000000 0.000000 0.000000 0.032276 0.000000 0.000000
# 5 0.000000 0.000000 0.000000 0.000000 0.361182 0.000000
# 6 0.000000 0.000000 0.000000 0.000000 0.000000 0.056005
#
#
# Mechanical properties :
#
#
# Convention : Reuss Voigt Hill
#
# Bulk Modulus (GPa) = 59.86805 65.84894 62.85849
# Shear Modulus (GPa) = 9.52898 22.35854 15.94376
#
# Velocity S-wave (km/s) = 2.18054 3.34013 2.82057
# Velocity P-wave (km/s) = 6.01769 6.90887 6.47862
#
# Compressibility (1/GPa) = 0.01670340
#
# Stress axis : x y z
#
# Youngs Moduli (GPa) = 50.30292 71.28707 107.68349
#
# Poissons Ratio (x) = 0.49237 0.30743
# Poissons Ratio (y) = 0.34744 0.37510
# Poissons Ratio (z) = 0.14361 0.24832
#
# Static dielectric constant tensor:
#      x y z
#    x 3.380780 0.000000 0.000000 
#    y 0.000000 3.680320 0.000000 
#    z 0.000000 0.000000 3.779740 
# 
# 
# High freq. dielectric constant tensor:
#      x y z
#    x 1.748210 0.000000 0.000000 
#    y 0.000000 1.784570 0.000000 
#    z 0.000000 0.000000 1.793390 
# 
# From -- ./inp_files/29731.got.cif
#   From: 2010.03.12/outbox.cif.g09.slc.cpg/sg47_15_cif.got.tgz:29731.got - 2010.04.14 03:12:58.
