data_PCOD8195618
_publ_section_title
;
Structure prediction by ZEFSAII (Michael W. Deem and Ramdas Pophale) SiO2 
 PCOD8195618
Probable space group: P M M M
;
_chemical_formula_sum "Si O2"
_cell_formula_units_Z 52
_cell_length_a 9.201124
_cell_length_b 25.809394
_cell_length_c 16.822443
_cell_angle_alpha 90.000000
_cell_angle_beta 90.000000
_cell_angle_gamma 90.000000
_cell_volume 3994.916962
_symmetry_space_group_name_H-M "P M M M"
_symmetry_group_IT_number 47
_symmetry_cell_setting 'orthorhombic'
loop_
_space_group_symop_operation_xyz
x,y,z
-x,-y,z
x,-y,-z
-x,y,-z
-x,-y,-z
x,y,-z
-x,y,z
x,-y,z
loop_
_atom_site_type_symbol
_atom_site_label
_atom_site_fract_x
_atom_site_fract_y
_atom_site_fract_z
Si Si1 0.168972 0.093194 0.675191
Si Si2 0.167266 0.059574 0.847741
Si Si3 0.664264 0.938325 0.000000
Si Si4 0.664145 0.700106 0.594613
Si Si5 0.335238 0.500000 0.594717
Si Si6 0.669736 0.000000 0.592720
Si Si7 0.164693 0.600425 0.594796
Si Si8 0.831662 0.198911 0.408274
O O1 0.203190 0.092252 0.768995
O O2 0.262749 0.051164 0.629845
O O3 0.213163 0.149421 0.643359
O O4 0.000000 0.080788 0.659000
O O5 0.000000 0.064206 0.872257
O O6 0.209041 0.000000 0.830040
O O7 0.259234 0.083175 0.920560
O O8 0.500000 0.918552 0.000000
O O9 0.677108 0.000000 0.000000
O O10 0.665198 0.698426 0.500000
O O11 0.500000 0.697344 0.627495
O O12 0.754779 0.651429 0.628115
O O13 0.738433 0.752997 0.624275
O O14 0.500000 0.500000 0.627582
O O15 0.337083 0.500000 0.500000
O O16 0.251241 0.550470 0.626928
O O17 0.500000 0.000000 0.611238
O O18 0.704205 0.000000 0.500000
O O19 0.163727 0.600651 0.500000
O O20 0.000000 0.599146 0.627449
O O21 0.795888 0.186610 0.500000
O O22 0.000000 0.213291 0.397633
#
# Coordination Sequence:
#
# PCOD8195618 Si02
#       8
#     8   8   4   8   4   4   8   8
#     4  10  19  32  47  60  73  94 122 149 179 217
#     4   9  16  28  44  61  78  95 116 141 170 207
#     4   9  17  27  41  61  81  99 115 131 161 206
#     4   9  16  25  36  48  63  84 110 141 177 214
#     4   9  15  21  29  43  63  83 103 129 167 214
#     4  11  23  33  41  56  77  98 119 147 184 221
#     4   9  15  22  32  45  61  81 106 136 170 209
#     4   9  17  28  41  55  69  88 117 151 182 213
#
# _framework density 13.016541999999999
#
# number of rings (size 3 to 8) (size 9 to 14) (size 15 to 20)
#    0.000    2.692    0.769    2.077    0.000    8.000 
#    0.000    1.538    0.000    0.000    0.000    0.000 
#    0.000    0.000    0.000    0.000    0.000    0.000 
#
# Total GULP energy -644781.736074 kJ/mol
# GULP energy per Si atom -12399.648771 kJ/mol
# Density = 1.298692 g / cm^3
# Si number density = 13.016542 Si / 1000 Ang^3
#
#
#
# Elastic Constant Matrix: (Units=GPa)
#
#
# Indices 1 2 3 4 5 6 
#
# 1 99.5017 60.4283 36.8023 0.0000 0.0000 0.0000
# 2 60.4283 103.8447 37.4023 0.0000 0.0000 0.0000
# 3 36.8023 37.4023 51.8655 0.0000 0.0000 0.0000
# 4 0.0000 0.0000 0.0000 -1.4424 0.0000 0.0000
# 5 0.0000 0.0000 0.0000 0.0000 11.2034 0.0000
# 6 0.0000 0.0000 0.0000 0.0000 0.0000 17.9499
#
#
#
# Elastic Compliance Matrix: (Units=1/GPa)
#
#
# Indices 1 2 3 4 5 6 
#
# 1 0.017109 -0.007542 -0.006701 0.000000 0.000000 0.000000
# 2 -0.007542 0.016334 -0.006427 0.000000 0.000000 0.000000
# 3 -0.006701 -0.006427 0.028670 0.000000 0.000000 0.000000
# 4 0.000000 0.000000 0.000000 -0.693303 0.000000 0.000000
# 5 0.000000 0.000000 0.000000 0.000000 0.089259 0.000000
# 6 0.000000 0.000000 0.000000 0.000000 0.000000 0.055711
#
#
# Mechanical properties :
#
#
# Convention : Reuss Voigt Hill
#
# Bulk Modulus (GPa) = 48.14124 58.27532 53.20828
# Shear Modulus (GPa) = -11.41668 13.58077 1.08205
#
# Velocity S-wave (km/s) = -2.96478 3.23359 0.91274
# Velocity P-wave (km/s) = 5.03438 7.66870 6.48668
#
# Compressibility (1/GPa) = 0.02077221
#
# Stress axis : x y z
#
# Youngs Moduli (GPa) = 58.44815 61.22334 34.87939
#
# Poissons Ratio (x) = 0.46178 0.23373
# Poissons Ratio (y) = 0.44084 0.22417
# Poissons Ratio (z) = 0.39166 0.39348
#
# Static dielectric constant tensor:
#      x y z
#    x 2.770980 0.000000 0.000000 
#    y 0.000000 2.564080 0.000000 
#    z 0.000000 0.000000 2.294620 
# 
# 
# High freq. dielectric constant tensor:
#      x y z
#    x 1.509630 0.000000 0.000000 
#    y 0.000000 1.483820 0.000000 
#    z 0.000000 0.000000 1.437680 
# 
# From -- ./inp_files/22041.got.cif
#   From: 2010.03.12/outbox.cif.g09.slc.cpg/sg47_12_cif.got.tgz:22041.got - 2010.04.14 03:12:58.
