data_PCOD8196650
_publ_section_title
;
Structure prediction by ZEFSAII (Michael W. Deem and Ramdas Pophale) SiO2 
 PCOD8196650
Probable space group: P M M M
;
_chemical_formula_sum "Si O2"
_cell_formula_units_Z 52
_cell_length_a 15.081045
_cell_length_b 22.622153
_cell_length_c 9.154923
_cell_angle_alpha 90.000000
_cell_angle_beta 90.000000
_cell_angle_gamma 90.000000
_cell_volume 3123.345781
_symmetry_space_group_name_H-M "P M M M"
_symmetry_group_IT_number 47
_symmetry_cell_setting 'orthorhombic'
loop_
_space_group_symop_operation_xyz
x,y,z
-x,-y,z
x,-y,-z
-x,y,-z
-x,-y,-z
x,y,-z
-x,y,z
x,-y,z
loop_
_atom_site_type_symbol
_atom_site_label
_atom_site_fract_x
_atom_site_fract_y
_atom_site_fract_z
Si Si1 0.400459 0.690189 0.170480
Si Si2 0.895009 0.935123 0.336639
Si Si3 0.000000 0.568270 0.171241
Si Si4 0.236634 0.265553 0.335739
Si Si5 0.169694 0.397701 0.663091
Si Si6 0.103308 0.820238 0.828130
Si Si7 0.332115 0.435708 0.167391
O O1 0.500000 0.709931 0.211576
O O2 0.332751 0.732288 0.257725
O O3 0.392789 0.620209 0.211886
O O4 0.381213 0.699266 0.000000
O O5 0.860503 0.919988 0.500000
O O6 0.863592 0.884902 0.224133
O O7 0.000000 0.937560 0.338046
O O8 0.858572 0.000000 0.288081
O O9 0.915949 0.600306 0.237480
O O10 0.000000 0.500000 0.215084
O O11 0.000000 0.578480 0.000000
O O12 0.248185 0.240379 0.500000
O O13 0.199861 0.330807 0.340460
O O14 0.165725 0.227181 0.248303
O O15 0.149412 0.420949 0.500000
O O16 0.244987 0.438275 0.733468
O O17 0.000000 0.809082 0.785207
O O18 0.116760 0.815844 0.000000
O O19 0.380686 0.500000 0.188232
O O20 0.301594 0.428251 0.000000
#
# Coordination Sequence:
#
# PCOD8196650 Si02
#       7
#     8   8   4   8   8   8   8
#     4   9  18  33  52  72  94 120 150 189 238 289
#     4   8  14  26  44  66  95 133 171 202 234 272
#     4  11  23  35  47  63  83 111 148 189 234 283
#     4  10  21  35  50  68  93 124 158 197 238 283
#     4  10  21  34  47  64  85 114 151 191 234 277
#     4  10  20  31  46  71 100 132 168 204 241 278
#     4   9  17  30  48  69  92 116 143 178 226 285
#
# _framework density 16.648813000000001
#
# number of rings (size 3 to 8) (size 9 to 14) (size 15 to 20)
#    0.000    2.538    0.000    2.538    1.077    6.462 
#    0.000    3.077    0.000    0.000    0.000    4.308 
#    0.000    0.615    0.000    6.462    0.000    3.077 
#
# Total GULP energy -644511.899939 kJ/mol
# GULP energy per Si atom -12394.459614 kJ/mol
# Density = 1.661092 g / cm^3
# Si number density = 16.648813 Si / 1000 Ang^3
#
#
#
# Elastic Constant Matrix: (Units=GPa)
#
#
# Indices 1 2 3 4 5 6 
#
# 1 87.2216 27.0533 46.1935 0.0000 0.0000 0.0000
# 2 27.0533 64.3396 36.7593 0.0000 0.0000 0.0000
# 3 46.1935 36.7593 89.0757 0.0000 0.0000 0.0000
# 4 0.0000 0.0000 0.0000 26.2956 0.0000 0.0000
# 5 0.0000 0.0000 0.0000 0.0000 20.8766 0.0000
# 6 0.0000 0.0000 0.0000 0.0000 0.0000 4.3849
#
#
#
# Elastic Compliance Matrix: (Units=1/GPa)
#
#
# Indices 1 2 3 4 5 6 
#
# 1 0.016137 -0.002622 -0.007286 0.000000 0.000000 0.000000
# 2 -0.002622 0.020764 -0.007209 0.000000 0.000000 0.000000
# 3 -0.007286 -0.007209 0.017980 0.000000 0.000000 0.000000
# 4 0.000000 0.000000 0.000000 0.038029 0.000000 0.000000
# 5 0.000000 0.000000 0.000000 0.000000 0.047901 0.000000
# 6 0.000000 0.000000 0.000000 0.000000 0.000000 0.228054
#
#
# Mechanical properties :
#
#
# Convention : Reuss Voigt Hill
#
# Bulk Modulus (GPa) = 48.43574 51.18324 49.80949
# Shear Modulus (GPa) = 12.19565 19.02015 15.60790
#
# Velocity S-wave (km/s) = 2.70945 3.38366 3.06515
# Velocity P-wave (km/s) = 6.24051 6.78787 6.51993
#
# Compressibility (1/GPa) = 0.02064591
#
# Stress axis : x y z
#
# Youngs Moduli (GPa) = 61.96772 48.16081 55.61758
#
# Poissons Ratio (x) = 0.12630 0.40526
# Poissons Ratio (y) = 0.16251 0.40093
# Poissons Ratio (z) = 0.45153 0.34718
#
# Static dielectric constant tensor:
#      x y z
#    x 2.915360 0.000000 0.000000 
#    y 0.000000 3.283120 0.000000 
#    z 0.000000 0.000000 3.357420 
# 
# 
# High freq. dielectric constant tensor:
#      x y z
#    x 1.610460 0.000000 0.000000 
#    y 0.000000 1.627380 0.000000 
#    z 0.000000 0.000000 1.650980 
# 
# From -- ./inp_files/7016.got.cif
#   From: 2010.03.12/outbox.cif.g09.slc.cpg/sg47_4_cif.got.tgz:7016.got - 2010.04.14 03:12:58.
