data_PCOD8196058
_publ_section_title
;
Structure prediction by ZEFSAII (Michael W. Deem and Ramdas Pophale) SiO2 
 PCOD8196058
Probable space group: P M M M
;
_chemical_formula_sum "Si O2"
_cell_formula_units_Z 56
_cell_length_a 8.842745
_cell_length_b 22.941003
_cell_length_c 14.732368
_cell_angle_alpha 90.000000
_cell_angle_beta 90.000000
_cell_angle_gamma 90.000000
_cell_volume 2988.629381
_symmetry_space_group_name_H-M "P M M M"
_symmetry_group_IT_number 47
_symmetry_cell_setting 'orthorhombic'
loop_
_space_group_symop_operation_xyz
x,y,z
-x,-y,z
x,-y,-z
-x,y,-z
-x,-y,-z
x,y,-z
-x,y,z
x,-y,z
loop_
_atom_site_type_symbol
_atom_site_label
_atom_site_fract_x
_atom_site_fract_y
_atom_site_fract_z
Si Si1 0.321123 0.756015 0.096888
Si Si2 0.667013 0.932010 0.500000
Si Si3 0.180020 0.500000 0.398586
Si Si4 0.820985 0.389432 0.287451
Si Si5 0.320061 0.179631 0.270779
Si Si6 0.321772 0.376221 0.100169
Si Si7 0.178676 0.933903 0.316484
Si Si8 0.178911 0.273838 0.394232
O O1 0.500000 0.757884 0.103891
O O2 0.251797 0.790074 0.181216
O O3 0.265638 0.690029 0.100971
O O4 0.268747 0.783422 0.000000
O O5 0.500000 0.901587 0.500000
O O6 0.766619 0.913591 0.584861
O O7 0.639890 0.000000 0.500000
O O8 0.246204 0.500000 0.500000
O O9 0.239977 0.557934 0.349181
O O10 0.000000 0.500000 0.400395
O O11 0.760783 0.404465 0.186320
O O12 0.763152 0.328807 0.333272
O O13 0.000000 0.388623 0.283290
O O14 0.500000 0.178823 0.277086
O O15 0.259828 0.113806 0.254473
O O16 0.255772 0.214372 0.357806
O O17 0.500000 0.381896 0.115043
O O18 0.278975 0.403173 0.000000
O O19 0.000000 0.928943 0.310145
O O20 0.231069 0.000000 0.292266
O O21 0.224637 0.283062 0.500000
O O22 0.000000 0.266962 0.385459
#
# Coordination Sequence:
#
# PCOD8196058 Si02
#       8
#     8   4   4   8   8   8   8   8
#     4   8  15  30  52  77 103 132 167 209 262 317
#     4   9  17  31  51  73  95 125 173 222 255 294
#     4   9  18  34  56  79 104 142 189 227 264 311
#     4  10  19  33  55  80 105 136 180 228 265 306
#     4  11  21  33  54  80 104 132 172 220 263 310
#     4   9  17  32  54  77 105 140 172 208 263 325
#     4  10  21  36  52  70 100 141 177 212 260 315
#     4  10  21  35  50  72 106 142 172 210 263 319
#
# _framework density 18.737687000000001
#
# number of rings (size 3 to 8) (size 9 to 14) (size 15 to 20)
#    0.000    2.429    1.429    2.357    1.000    4.000 
#    0.000    0.714    0.000    6.000    0.000    3.000 
#    0.000    0.000    0.000    0.000    0.000    0.000 
#
# Total GULP energy -693877.371023 kJ/mol
# GULP energy per Si atom -12390.667340 kJ/mol
# Density = 1.869504 g / cm^3
# Si number density = 18.737687 Si / 1000 Ang^3
#
#
#
# Elastic Constant Matrix: (Units=GPa)
#
#
# Indices 1 2 3 4 5 6 
#
# 1 40.7468 25.3451 26.6337 0.0000 0.0000 0.0000
# 2 25.3451 99.3828 45.3458 0.0000 0.0000 0.0000
# 3 26.6337 45.3458 139.3628 0.0000 0.0000 0.0000
# 4 0.0000 0.0000 0.0000 28.0849 0.0000 0.0000
# 5 0.0000 0.0000 0.0000 0.0000 25.6152 0.0000
# 6 0.0000 0.0000 0.0000 0.0000 0.0000 17.7923
#
#
#
# Elastic Compliance Matrix: (Units=1/GPa)
#
#
# Indices 1 2 3 4 5 6 
#
# 1 0.030893 -0.006089 -0.003923 0.000000 0.000000 0.000000
# 2 -0.006089 0.013016 -0.003072 0.000000 0.000000 0.000000
# 3 -0.003923 -0.003072 0.008925 0.000000 0.000000 0.000000
# 4 0.000000 0.000000 0.000000 0.035606 0.000000 0.000000
# 5 0.000000 0.000000 0.000000 0.000000 0.039039 0.000000
# 6 0.000000 0.000000 0.000000 0.000000 0.000000 0.056204
#
#
# Mechanical properties :
#
#
# Convention : Reuss Voigt Hill
#
# Bulk Modulus (GPa) = 37.49832 52.68239 45.09035
# Shear Modulus (GPa) = 22.85826 26.44303 24.65064
#
# Velocity S-wave (km/s) = 3.49651 3.76070 3.63101
# Velocity P-wave (km/s) = 6.02963 6.85813 6.45718
#
# Compressibility (1/GPa) = 0.02666786
#
# Stress axis : x y z
#
# Youngs Moduli (GPa) = 32.36966 76.82642 112.04884
#
# Poissons Ratio (x) = 0.46776 0.43956
# Poissons Ratio (y) = 0.19709 0.34418
# Poissons Ratio (z) = 0.12698 0.23598
#
# Static dielectric constant tensor:
#      x y z
#    x 3.130370 0.000000 0.000000 
#    y 0.000000 3.478010 0.000000 
#    z 0.000000 0.000000 3.736120 
# 
# 
# High freq. dielectric constant tensor:
#      x y z
#    x 1.703920 0.000000 0.000000 
#    y 0.000000 1.717030 0.000000 
#    z 0.000000 0.000000 1.730980 
# 
# From -- ./inp_files/21602.got.cif
#   From: 2010.03.12/outbox.cif.g09.slc.cpg/sg47_11_cif.got.tgz:21602.got - 2010.04.14 03:12:58.
