data_PCOD8196160
_publ_section_title
;
Structure prediction by ZEFSAII (Michael W. Deem and Ramdas Pophale) SiO2 
 PCOD8196160
Probable space group: P M M M
;
_chemical_formula_sum "Si O2"
_cell_formula_units_Z 56
_cell_length_a 23.034548
_cell_length_b 15.179976
_cell_length_c 8.164789
_cell_angle_alpha 90.000000
_cell_angle_beta 90.000000
_cell_angle_gamma 90.000000
_cell_volume 2854.931849
_symmetry_space_group_name_H-M "P M M M"
_symmetry_group_IT_number 47
_symmetry_cell_setting 'orthorhombic'
loop_
_space_group_symop_operation_xyz
x,y,z
-x,-y,z
x,-y,-z
-x,y,-z
-x,-y,-z
x,y,-z
-x,y,z
x,-y,z
loop_
_atom_site_type_symbol
_atom_site_label
_atom_site_fract_x
_atom_site_fract_y
_atom_site_fract_z
Si Si1 0.872382 0.663516 0.184824
Si Si2 0.841813 0.863850 0.187681
Si Si3 0.067654 0.403293 0.500000
Si Si4 0.434774 0.401307 0.305001
Si Si5 0.661097 0.270376 0.313786
Si Si6 0.284577 0.097208 0.192320
Si Si7 0.748466 0.402161 0.813208
Si Si8 0.065655 0.000000 0.195142
O O1 0.850457 0.761496 0.209378
O O2 0.916941 0.645471 0.330642
O O3 0.817655 0.599699 0.207077
O O4 0.899333 0.651036 0.000000
O O5 0.779752 0.888126 0.271191
O O6 0.897498 0.915708 0.261371
O O7 0.838005 0.893003 0.000000
O O8 0.096659 0.500000 0.500000
O O9 0.000000 0.411842 0.500000
O O10 0.430356 0.401280 0.500000
O O11 0.500000 0.377495 0.248246
O O12 0.418367 0.500000 0.241549
O O13 0.391193 0.327290 0.230269
O O14 0.645201 0.254280 0.500000
O O15 0.669651 0.173125 0.240037
O O16 0.719274 0.328669 0.300029
O O17 0.307414 0.000000 0.247275
O O18 0.277920 0.102309 0.000000
O O19 0.727438 0.500000 0.762219
O O20 0.731306 0.380474 0.000000
O O21 0.000000 0.000000 0.270185
O O22 0.059441 0.000000 0.000000
#
# Coordination Sequence:
#
# PCOD8196160 Si02
#       8
#     8   8   4   8   8   8   8   4
#     4  10  21  38  60  83 109 142 182 229 285 343
#     4   9  16  30  53  77 104 138 175 218 270 330
#     4  11  26  44  60  79 105 143 190 237 282 337
#     4   8  15  30  51  76 110 150 188 226 273 331
#     4  11  21  31  51  83 113 142 182 231 281 332
#     4  10  19  34  55  75 104 146 184 222 273 333
#     4  10  20  33  51  78 112 146 178 220 274 334
#     4   9  16  26  46  79 107 127 167 223 272 327
#
# _framework density 19.615178
#
# number of rings (size 3 to 8) (size 9 to 14) (size 15 to 20)
#    0.000    2.286    2.143    1.714    1.000    2.857 
#    0.000    2.143    0.000    2.571    0.000    9.000 
#    0.000    0.000    0.000    0.000    0.000    0.000 
#
# Total GULP energy -693892.463348 kJ/mol
# GULP energy per Si atom -12390.936846 kJ/mol
# Density = 1.957053 g / cm^3
# Si number density = 19.615178 Si / 1000 Ang^3
#
#
#
# Elastic Constant Matrix: (Units=GPa)
#
#
# Indices 1 2 3 4 5 6 
#
# 1 101.3203 62.4995 21.1782 0.0000 0.0000 0.0000
# 2 62.4995 145.1703 28.9576 0.0000 0.0000 0.0000
# 3 21.1782 28.9576 54.1461 0.0000 0.0000 0.0000
# 4 0.0000 0.0000 0.0000 17.1663 0.0000 0.0000
# 5 0.0000 0.0000 0.0000 0.0000 15.4515 0.0000
# 6 0.0000 0.0000 0.0000 0.0000 0.0000 30.9886
#
#
#
# Elastic Compliance Matrix: (Units=1/GPa)
#
#
# Indices 1 2 3 4 5 6 
#
# 1 0.013728 -0.005417 -0.002472 0.000000 0.000000 0.000000
# 2 -0.005417 0.009849 -0.003148 0.000000 0.000000 0.000000
# 3 -0.002472 -0.003148 0.021119 0.000000 0.000000 0.000000
# 4 0.000000 0.000000 0.000000 0.058254 0.000000 0.000000
# 5 0.000000 0.000000 0.000000 0.000000 0.064719 0.000000
# 6 0.000000 0.000000 0.000000 0.000000 0.000000 0.032270
#
#
# Mechanical properties :
#
#
# Convention : Reuss Voigt Hill
#
# Bulk Modulus (GPa) = 44.20782 58.43414 51.32098
# Shear Modulus (GPa) = 21.78137 25.25471 23.51804
#
# Velocity S-wave (km/s) = 3.33593 3.59208 3.46637
# Velocity P-wave (km/s) = 6.11755 6.85996 6.49936
#
# Compressibility (1/GPa) = 0.02262043
#
# Stress axis : x y z
#
# Youngs Moduli (GPa) = 72.84388 101.53672 47.35008
#
# Poissons Ratio (x) = 0.55003 0.11707
# Poissons Ratio (y) = 0.39460 0.14907
# Poissons Ratio (z) = 0.18010 0.31967
#
# Static dielectric constant tensor:
#      x y z
#    x 3.605560 0.000000 0.000000 
#    y 0.000000 3.807600 0.000000 
#    z 0.000000 0.000000 3.332260 
# 
# 
# High freq. dielectric constant tensor:
#      x y z
#    x 1.743300 0.000000 0.000000 
#    y 0.000000 1.774050 0.000000 
#    z 0.000000 0.000000 1.729240 
# 
# From -- ./inp_files/11361.got.cif
#   From: 2010.03.12/outbox.cif.g09.slc.cpg/sg47_6_cif.got.tgz:11361.got - 2010.04.14 03:12:58.
