data_PCOD8196492
_publ_section_title
;
Structure prediction by ZEFSAII (Michael W. Deem and Ramdas Pophale) SiO2 
 PCOD8196492
Probable space group: P M M M
;
_chemical_formula_sum "Si O2"
_cell_formula_units_Z 56
_cell_length_a 14.850957
_cell_length_b 30.649470
_cell_length_c 9.367912
_cell_angle_alpha 90.000000
_cell_angle_beta 90.000000
_cell_angle_gamma 90.000000
_cell_volume 4264.029612
_symmetry_space_group_name_H-M "P M M M"
_symmetry_group_IT_number 47
_symmetry_cell_setting 'orthorhombic'
loop_
_space_group_symop_operation_xyz
x,y,z
-x,-y,z
x,-y,-z
-x,y,-z
-x,-y,-z
x,y,-z
-x,y,z
x,-y,z
loop_
_atom_site_type_symbol
_atom_site_label
_atom_site_fract_x
_atom_site_fract_y
_atom_site_fract_z
Si Si1 0.607050 0.047703 0.659978
Si Si2 0.268051 0.551785 0.336375
Si Si3 0.392947 0.777032 0.160846
Si Si4 0.099583 0.448178 0.839910
Si Si5 0.393713 0.388032 0.165351
Si Si6 0.607055 0.873170 0.840374
Si Si7 0.392813 0.303746 0.661079
O O1 0.643978 0.052046 0.500000
O O2 0.500000 0.051427 0.660696
O O3 0.650306 0.087576 0.748690
O O4 0.635150 0.000000 0.722621
O O5 0.274824 0.567471 0.500000
O O6 0.274983 0.500000 0.325090
O O7 0.173677 0.569414 0.271351
O O8 0.349528 0.570850 0.243774
O O9 0.500000 0.774028 0.157587
O O10 0.363262 0.825209 0.216352
O O11 0.353705 0.740434 0.267309
O O12 0.356679 0.768957 0.000000
O O13 0.099801 0.500000 0.838450
O O14 0.000000 0.431264 0.794588
O O15 0.122838 0.431676 0.000000
O O16 0.500000 0.393743 0.180027
O O17 0.359639 0.344309 0.244004
O O18 0.364437 0.386047 0.000000
O O19 0.500000 0.876355 0.837373
O O20 0.643196 0.879250 0.000000
O O21 0.354827 0.307783 0.500000
O O22 0.500000 0.302307 0.658332
#
# Coordination Sequence:
#
# PCOD8196492 Si02
#       7
#     8   8   8   8   8   8   8
#     4   8  13  19  24  30  42  60  80 102 130 166
#     4  10  20  31  43  60  80  99 118 143 173 202
#     4   8  13  21  31  42  56  71  88 113 146 183
#     4   8  14  26  44  63  81 100 120 141 165 195
#     4  10  20  32  44  55  69  93 122 148 173 203
#     4   8  13  19  26  36  48  62  81 106 135 168
#     4   9  16  25  37  51  64  78  99 128 161 195
#
# _framework density 13.133118
#
# number of rings (size 3 to 8) (size 9 to 14) (size 15 to 20)
#    0.000    3.286    0.000    3.000    0.000    4.857 
#    0.000    7.143    0.000    0.000    0.000    0.000 
#    0.000    0.000    0.000    0.000    0.000    0.000 
#
# Total GULP energy -693896.450719 kJ/mol
# GULP energy per Si atom -12391.008049 kJ/mol
# Density = 1.310323 g / cm^3
# Si number density = 13.133118 Si / 1000 Ang^3
#
#
#
# Elastic Constant Matrix: (Units=GPa)
#
#
# Indices 1 2 3 4 5 6 
#
# 1 22.3418 19.5207 24.7259 0.0000 0.0000 0.0000
# 2 19.5207 70.0623 50.2773 0.0000 0.0000 0.0000
# 3 24.7259 50.2773 101.4311 0.0000 0.0000 0.0000
# 4 0.0000 0.0000 0.0000 26.2611 0.0000 0.0000
# 5 0.0000 0.0000 0.0000 0.0000 12.0955 0.0000
# 6 0.0000 0.0000 0.0000 0.0000 0.0000 0.4366
#
#
#
# Elastic Compliance Matrix: (Units=1/GPa)
#
#
# Indices 1 2 3 4 5 6 
#
# 1 0.066027 -0.010626 -0.010828 0.000000 0.000000 0.000000
# 2 -0.010626 0.023863 -0.009238 0.000000 0.000000 0.000000
# 3 -0.010828 -0.009238 0.017078 0.000000 0.000000 0.000000
# 4 0.000000 0.000000 0.000000 0.038079 0.000000 0.000000
# 5 0.000000 0.000000 0.000000 0.000000 0.082675 0.000000
# 6 0.000000 0.000000 0.000000 0.000000 0.000000 2.290588
#
#
# Mechanical properties :
#
#
# Convention : Reuss Voigt Hill
#
# Bulk Modulus (GPa) = 21.93800 42.54255 32.24027
# Shear Modulus (GPa) = 1.92686 14.37940 8.15313
#
# Velocity S-wave (km/s) = 1.21259 3.31251 2.49430
# Velocity P-wave (km/s) = 4.32447 6.86250 5.73564
#
# Compressibility (1/GPa) = 0.04558302
#
# Stress axis : x y z
#
# Youngs Moduli (GPa) = 15.14529 41.90603 58.55593
#
# Poissons Ratio (x) = 0.44529 0.63407
# Poissons Ratio (y) = 0.16093 0.54095
# Poissons Ratio (z) = 0.16400 0.38713
#
# Static dielectric constant tensor:
#      x y z
#    x 2.175460 0.000000 0.000000 
#    y 0.000000 2.796260 0.000000 
#    z 0.000000 0.000000 2.881150 
# 
# 
# High freq. dielectric constant tensor:
#      x y z
#    x 1.420290 0.000000 0.000000 
#    y 0.000000 1.496580 0.000000 
#    z 0.000000 0.000000 1.511960 
# 
# From -- ./inp_files/8171.got.cif
#   From: 2010.03.12/outbox.cif.g09.slc.cpg/sg47_5_cif.got.tgz:8171.got - 2010.04.14 03:12:58.
