data_PCOD8196347
_publ_section_title
;
Structure prediction by ZEFSAII (Michael W. Deem and Ramdas Pophale) SiO2 
 PCOD8196347
Probable space group: P M M M
;
_chemical_formula_sum "Si O2"
_cell_formula_units_Z 40
_cell_length_a 20.444190
_cell_length_b 11.842596
_cell_length_c 8.745133
_cell_angle_alpha 90.000000
_cell_angle_beta 90.000000
_cell_angle_gamma 90.000000
_cell_volume 2117.304113
_symmetry_space_group_name_H-M "P M M M"
_symmetry_group_IT_number 47
_symmetry_cell_setting 'orthorhombic'
loop_
_space_group_symop_operation_xyz
x,y,z
-x,-y,z
x,-y,-z
-x,y,-z
-x,-y,-z
x,y,-z
-x,y,z
x,-y,z
loop_
_atom_site_type_symbol
_atom_site_label
_atom_site_fract_x
_atom_site_fract_y
_atom_site_fract_z
Si Si1 0.425213 0.759631 0.176878
Si Si2 0.927809 0.626337 0.818355
Si Si3 0.689700 0.368918 0.321963
Si Si4 0.632245 0.000000 0.175627
Si Si5 0.193215 0.231598 0.180985
Si Si6 0.228812 0.000000 0.679189
O O1 0.500000 0.734672 0.219575
O O2 0.381683 0.677915 0.280616
O O3 0.410969 0.890644 0.212284
O O4 0.410932 0.732723 0.000000
O O5 0.915485 0.500000 0.755151
O O6 0.871581 0.707422 0.752674
O O7 0.000000 0.668680 0.766065
O O8 0.924029 0.624175 0.000000
O O9 0.703279 0.348886 0.500000
O O10 0.693423 0.500000 0.277909
O O11 0.742890 0.301706 0.225085
O O12 0.694748 0.000000 0.283747
O O13 0.656528 0.000000 0.000000
O O14 0.193376 0.108399 0.252292
O O15 0.191505 0.220467 0.000000
O O16 0.219343 0.000000 0.500000
#
# Coordination Sequence:
#
# PCOD8196347 Si02
#       6
#     8   8   8   4   8   4
#     4  10  21  37  59  85 112 143 184 236 288 338
#     4   8  15  30  55  88 120 146 179 229 283 329
#     4  11  24  39  55  79 114 153 189 230 282 338
#     4  10  19  36  60  85 110 140 180 230 283 338
#     4  11  21  36  60  87 113 146 189 236 282 330
#     4  12  24  37  56  82 115 151 186 229 282 337
#
# _framework density 18.891947999999999
#
# number of rings (size 3 to 8) (size 9 to 14) (size 15 to 20)
#    0.000    1.800    2.000    3.600    0.000    4.400 
#    0.000    2.500    0.000    7.200    0.000    7.000 
#    0.000    0.000    0.000    0.000    0.000    0.000 
#
# Total GULP energy -496091.971066 kJ/mol
# GULP energy per Si atom -12402.299277 kJ/mol
# Density = 1.884895 g / cm^3
# Si number density = 18.891948 Si / 1000 Ang^3
#
#
#
# Elastic Constant Matrix: (Units=GPa)
#
#
# Indices 1 2 3 4 5 6 
#
# 1 139.4433 67.2806 32.2654 0.0000 0.0000 0.0000
# 2 67.2806 137.0694 44.4901 0.0000 0.0000 0.0000
# 3 32.2654 44.4901 66.8498 0.0000 0.0000 0.0000
# 4 0.0000 0.0000 0.0000 24.3301 0.0000 0.0000
# 5 0.0000 0.0000 0.0000 0.0000 0.9620 0.0000
# 6 0.0000 0.0000 0.0000 0.0000 0.0000 36.2366
#
#
#
# Elastic Compliance Matrix: (Units=1/GPa)
#
#
# Indices 1 2 3 4 5 6 
#
# 1 0.009584 -0.004085 -0.001907 0.000000 0.000000 0.000000
# 2 -0.004085 0.011047 -0.005380 0.000000 0.000000 0.000000
# 3 -0.001907 -0.005380 0.019460 0.000000 0.000000 0.000000
# 4 0.000000 0.000000 0.000000 0.041101 0.000000 0.000000
# 5 0.000000 0.000000 0.000000 0.000000 1.039546 0.000000
# 6 0.000000 0.000000 0.000000 0.000000 0.000000 0.027596
#
#
# Mechanical properties :
#
#
# Convention : Reuss Voigt Hill
#
# Bulk Modulus (GPa) = 57.65013 70.15942 63.90478
# Shear Modulus (GPa) = 4.24859 25.59416 14.92137
#
# Velocity S-wave (km/s) = 1.50126 3.68471 2.81344
# Velocity P-wave (km/s) = 5.79543 7.43778 6.66737
#
# Compressibility (1/GPa) = 0.01734601
#
# Stress axis : x y z
#
# Youngs Moduli (GPa) = 104.34390 90.52070 51.38749
#
# Poissons Ratio (x) = 0.36980 0.09798
# Poissons Ratio (y) = 0.42627 0.27648
# Poissons Ratio (z) = 0.19896 0.48704
#
# Static dielectric constant tensor:
#      x y z
#    x 3.652040 0.000000 0.000000 
#    y 0.000000 3.660740 0.000000 
#    z 0.000000 0.000000 3.262370 
# 
# 
# High freq. dielectric constant tensor:
#      x y z
#    x 1.739160 0.000000 0.000000 
#    y 0.000000 1.740780 0.000000 
#    z 0.000000 0.000000 1.715650 
# 
# From -- ./inp_files/4078.got.cif
#   From: 2010.03.12/outbox.cif.g09.slc.cpg/sg47_3_cif.got.tgz:4078.got - 2010.04.14 03:12:58.
