data_PCOD8196629
_publ_section_title
;
Structure prediction by ZEFSAII (Michael W. Deem and Ramdas Pophale) SiO2 
 PCOD8196629
Probable space group: P M M M
;
_chemical_formula_sum "Si O2"
_cell_formula_units_Z 48
_cell_length_a 30.567673
_cell_length_b 9.447353
_cell_length_c 9.389057
_cell_angle_alpha 90.000000
_cell_angle_beta 90.000000
_cell_angle_gamma 90.000000
_cell_volume 2711.405655
_symmetry_space_group_name_H-M "P M M M"
_symmetry_group_IT_number 47
_symmetry_cell_setting 'orthorhombic'
loop_
_space_group_symop_operation_xyz
x,y,z
-x,-y,z
x,-y,-z
-x,y,-z
-x,-y,-z
x,y,-z
-x,y,z
x,-y,z
loop_
_atom_site_type_symbol
_atom_site_label
_atom_site_fract_x
_atom_site_fract_y
_atom_site_fract_z
Si Si1 0.299893 0.343671 0.168935
Si Si2 0.048227 0.168098 0.840236
Si Si3 0.619685 0.838115 0.831221
Si Si4 0.550725 0.338047 0.336418
Si Si5 0.798125 0.665959 0.164127
Si Si6 0.130226 0.833198 0.335049
O O1 0.310289 0.500000 0.231004
O O2 0.335950 0.234617 0.227618
O O3 0.251205 0.295927 0.213883
O O4 0.301557 0.350859 0.000000
O O5 0.085219 0.225702 0.733685
O O6 0.000000 0.223396 0.792961
O O7 0.048002 0.000000 0.837632
O O8 0.058818 0.221817 0.000000
O O9 0.577618 0.764940 0.764299
O O10 0.621009 0.000000 0.782236
O O11 0.616026 0.823063 0.000000
O O12 0.563270 0.309459 0.500000
O O13 0.500000 0.304939 0.310536
O O14 0.561213 0.500000 0.295662
O O15 0.807181 0.500000 0.184926
O O16 0.829263 0.756233 0.263521
O O17 0.805721 0.709397 0.000000
O O18 0.129008 0.793848 0.500000
O O19 0.135464 0.000000 0.309526
#
# Coordination Sequence:
#
# PCOD8196629 Si02
#       6
#     8   8   8   8   8   8
#     4   8  15  30  51  72  94 123 161 202 241 284
#     4   8  14  26  45  68  93 123 161 202 241 283
#     4  10  20  32  49  77 108 132 157 195 245 297
#     4   9  19  36  55  73  95 128 171 211 243 282
#     4   9  18  33  53  74  94 122 163 205 243 286
#     4  10  20  31  45  70 102 132 161 195 239 290
#
# _framework density 17.702995000000001
#
# number of rings (size 3 to 8) (size 9 to 14) (size 15 to 20)
#    0.000    3.000    0.000    3.000    0.000    4.333 
#    0.000    6.667    0.000    1.500    0.000    3.500 
#    0.000    0.000    0.000    0.000    0.000    0.000 
#
# Total GULP energy -595051.136501 kJ/mol
# GULP energy per Si atom -12396.898677 kJ/mol
# Density = 1.766270 g / cm^3
# Si number density = 17.702995 Si / 1000 Ang^3
#
#
#
# Elastic Constant Matrix: (Units=GPa)
#
#
# Indices 1 2 3 4 5 6 
#
# 1 142.0395 71.9993 62.4824 0.0000 0.0000 0.0000
# 2 71.9993 82.9781 46.0405 0.0000 0.0000 0.0000
# 3 62.4824 46.0405 72.2463 0.0000 0.0000 0.0000
# 4 0.0000 0.0000 0.0000 24.0925 0.0000 0.0000
# 5 0.0000 0.0000 0.0000 0.0000 4.3074 0.0000
# 6 0.0000 0.0000 0.0000 0.0000 0.0000 12.7662
#
#
#
# Elastic Compliance Matrix: (Units=1/GPa)
#
#
# Indices 1 2 3 4 5 6 
#
# 1 0.014557 -0.008734 -0.007024 0.000000 0.000000 0.000000
# 2 -0.008734 0.023884 -0.007667 0.000000 0.000000 0.000000
# 3 -0.007024 -0.007667 0.024802 0.000000 0.000000 0.000000
# 4 0.000000 0.000000 0.000000 0.041507 0.000000 0.000000
# 5 0.000000 0.000000 0.000000 0.000000 0.232161 0.000000
# 6 0.000000 0.000000 0.000000 0.000000 0.000000 0.078332
#
#
# Mechanical properties :
#
#
# Convention : Reuss Voigt Hill
#
# Bulk Modulus (GPa) = 60.99962 73.14534 67.07248
# Shear Modulus (GPa) = 10.69390 16.01602 13.35496
#
# Velocity S-wave (km/s) = 2.46046 3.01110 2.74960
# Velocity P-wave (km/s) = 6.52716 7.31414 6.93183
#
# Compressibility (1/GPa) = 0.01639354
#
# Stress axis : x y z
#
# Youngs Moduli (GPa) = 68.69381 41.86960 40.31918
#
# Poissons Ratio (x) = 0.36569 0.28320
# Poissons Ratio (y) = 0.59997 0.30912
# Poissons Ratio (z) = 0.48251 0.32100
#
# Static dielectric constant tensor:
#      x y z
#    x 3.539020 0.000000 0.000000 
#    y 0.000000 3.148020 0.000000 
#    z 0.000000 0.000000 3.098200 
# 
# 
# High freq. dielectric constant tensor:
#      x y z
#    x 1.699350 0.000000 0.000000 
#    y 0.000000 1.663670 0.000000 
#    z 0.000000 0.000000 1.663320 
# 
# From -- ./inp_files/2472.got.cif
#   From: 2010.03.12/outbox.cif.g09.slc.cpg/sg47_2_cif.got.tgz:2472.got - 2010.04.14 03:12:58.
