data_PCOD8196170
_publ_section_title
;
Structure prediction by ZEFSAII (Michael W. Deem and Ramdas Pophale) SiO2 
 PCOD8196170
Probable space group: P M M M
;
_chemical_formula_sum "Si O2"
_cell_formula_units_Z 40
_cell_length_a 11.772706
_cell_length_b 20.361126
_cell_length_c 8.232027
_cell_angle_alpha 90.000000
_cell_angle_beta 90.000000
_cell_angle_gamma 90.000000
_cell_volume 1973.262562
_symmetry_space_group_name_H-M "P M M M"
_symmetry_group_IT_number 47
_symmetry_cell_setting 'orthorhombic'
loop_
_space_group_symop_operation_xyz
x,y,z
-x,-y,z
x,-y,-z
-x,y,-z
-x,-y,-z
x,y,-z
-x,y,z
x,-y,z
loop_
_atom_site_type_symbol
_atom_site_label
_atom_site_fract_x
_atom_site_fract_y
_atom_site_fract_z
Si Si1 0.000000 0.203394 0.814159
Si Si2 0.373373 0.500000 0.806746
Si Si3 0.766047 0.375589 0.190315
Si Si4 0.868883 0.000000 0.305168
Si Si5 0.629769 0.749496 0.306738
Si Si6 0.781856 0.135914 0.311967
Si Si7 0.000000 0.342077 0.685395
O O1 0.107548 0.178670 0.716694
O O2 0.000000 0.281689 0.810175
O O3 0.000000 0.178961 0.000000
O O4 0.500000 0.500000 0.733502
O O5 0.311069 0.434790 0.742533
O O6 0.377815 0.500000 0.000000
O O7 0.704858 0.306743 0.225472
O O8 0.886493 0.383600 0.280552
O O9 0.787206 0.382288 0.000000
O O10 0.801229 0.936448 0.233876
O O11 0.870915 0.000000 0.500000
O O12 0.000000 0.000000 0.242780
O O13 0.641989 0.743697 0.500000
O O14 0.500000 0.742402 0.249214
O O15 0.675439 0.821164 0.245254
O O16 0.762290 0.124187 0.500000
O O17 0.000000 0.317486 0.500000
#
# Coordination Sequence:
#
# PCOD8196170 Si02
#       7
#     4   4   8   4   8   8   4
#     4  12  22  33  54  85 115 143 185 233 282 344
#     4   9  20  39  61  86 118 155 192 233 280 327
#     4  11  22  38  62  89 115 148 193 238 280 335
#     4   9  16  28  51  81 107 146 195 230 276 342
#     4  10  21  36  55  81 113 151 194 238 284 334
#     4  10  19  34  55  78 112 152 189 233 283 337
#     4  12  24  39  58  85 121 153 181 229 294 348
#
# _framework density 20.270996
#
# number of rings (size 3 to 8) (size 9 to 14) (size 15 to 20)
#    0.000    1.600    3.000    3.000    0.000    1.600 
#    0.000    5.500    0.000    6.600    0.000    0.000 
#    0.000    3.200    0.000    0.000    0.000    0.000 
#
# Total GULP energy -495875.581610 kJ/mol
# GULP energy per Si atom -12396.889540 kJ/mol
# Density = 2.022486 g / cm^3
# Si number density = 20.270996 Si / 1000 Ang^3
#
#
#
# Elastic Constant Matrix: (Units=GPa)
#
#
# Indices 1 2 3 4 5 6 
#
# 1 158.3172 68.2402 15.2360 0.0000 0.0000 0.0000
# 2 68.2402 150.3216 14.3582 0.0000 0.0000 0.0000
# 3 15.2360 14.3582 28.2200 0.0000 0.0000 0.0000
# 4 0.0000 0.0000 0.0000 15.3554 0.0000 0.0000
# 5 0.0000 0.0000 0.0000 0.0000 18.9924 0.0000
# 6 0.0000 0.0000 0.0000 0.0000 0.0000 29.9166
#
#
#
# Elastic Compliance Matrix: (Units=1/GPa)
#
#
# Indices 1 2 3 4 5 6 
#
# 1 0.008032 -0.003397 -0.002608 0.000000 0.000000 0.000000
# 2 -0.003397 0.008429 -0.002455 0.000000 0.000000 0.000000
# 3 -0.002608 -0.002455 0.038093 0.000000 0.000000 0.000000
# 4 0.000000 0.000000 0.000000 0.065124 0.000000 0.000000
# 5 0.000000 0.000000 0.000000 0.000000 0.052653 0.000000
# 6 0.000000 0.000000 0.000000 0.000000 0.000000 0.033426
#
#
# Mechanical properties :
#
#
# Convention : Reuss Voigt Hill
#
# Bulk Modulus (GPa) = 26.57143 59.16971 42.87057
# Shear Modulus (GPa) = 21.25672 28.78783 25.02228
#
# Velocity S-wave (km/s) = 3.24176 3.77257 3.51720
# Velocity P-wave (km/s) = 5.21043 6.94472 6.13913
#
# Compressibility (1/GPa) = 0.03763441
#
# Stress axis : x y z
#
# Youngs Moduli (GPa) = 124.50804 118.63887 26.25171
#
# Poissons Ratio (x) = 0.40301 0.06846
# Poissons Ratio (y) = 0.42295 0.06444
# Poissons Ratio (z) = 0.32471 0.29121
#
# Static dielectric constant tensor:
#      x y z
#    x 3.867530 0.000000 0.000000 
#    y 0.000000 3.993520 0.000000 
#    z 0.000000 0.000000 3.323950 
# 
# 
# High freq. dielectric constant tensor:
#      x y z
#    x 1.792440 0.000000 0.000000 
#    y 0.000000 1.797110 0.000000 
#    z 0.000000 0.000000 1.763270 
# 
# From -- ./inp_files/4152.got.cif
#   From: 2010.03.12/outbox.cif.g09.slc.cpg/sg47_3_cif.got.tgz:4152.got - 2010.04.14 03:12:58.
