data_PCOD8196962
_publ_section_title
;
Structure prediction by ZEFSAII (Michael W. Deem and Ramdas Pophale) SiO2 
 PCOD8196962
Probable space group: P M M M
;
_chemical_formula_sum "Si O2"
_cell_formula_units_Z 44
_cell_length_a 7.630861
_cell_length_b 9.346260
_cell_length_c 29.975923
_cell_angle_alpha 90.000000
_cell_angle_beta 90.000000
_cell_angle_gamma 90.000000
_cell_volume 2137.883156
_symmetry_space_group_name_H-M "P M M M"
_symmetry_group_IT_number 47
_symmetry_cell_setting 'orthorhombic'
loop_
_space_group_symop_operation_xyz
x,y,z
-x,-y,z
x,-y,-z
-x,y,-z
-x,-y,-z
x,y,-z
-x,y,z
x,-y,z
loop_
_atom_site_type_symbol
_atom_site_label
_atom_site_fract_x
_atom_site_fract_y
_atom_site_fract_z
Si Si1 0.294158 0.841375 0.216848
Si Si2 0.292349 0.658114 0.702409
Si Si3 0.297414 0.331781 0.602063
Si Si4 0.208411 0.160398 0.049327
Si Si5 0.000000 0.835642 0.447287
Si Si6 0.206030 0.341057 0.130774
O O1 0.500000 0.853612 0.222729
O O2 0.212712 0.766124 0.260865
O O3 0.250718 0.749504 0.173903
O O4 0.211517 0.000000 0.212077
O O5 0.500000 0.649964 0.706585
O O6 0.214112 0.500000 0.711501
O O7 0.242634 0.708889 0.652676
O O8 0.500000 0.291488 0.592821
O O9 0.267594 0.500000 0.593813
O O10 0.175586 0.241197 0.569606
O O11 0.288000 0.264981 0.086959
O O12 0.000000 0.160027 0.051764
O O13 0.278331 0.000000 0.058444
O O14 0.269413 0.211667 0.000000
O O15 0.000000 0.824620 0.500000
O O16 0.000000 0.000000 0.431207
O O17 0.287750 0.500000 0.135195
O O18 0.000000 0.351921 0.125065
#
# Coordination Sequence:
#
# PCOD8196962 Si02
#       6
#     8   8   8   8   4   8
#     4  10  20  33  51  75 102 135 173 210 255 313
#     4   8  15  31  55  80 105 134 172 218 266 317
#     4   9  19  38  64  90 115 150 197 246 295 346
#     4   8  14  26  45  67  91 122 159 201 253 309
#     4  11  25  41  57  85 125 163 199 241 292 349
#     4  10  20  32  47  70  99 130 166 208 254 304
#
# _framework density 20.581105999999998
#
# number of rings (size 3 to 8) (size 9 to 14) (size 15 to 20)
#    0.000    2.818    0.000    3.000    0.000    4.727 
#    1.636    5.455    0.000    0.545    0.000    3.818 
#    0.000    0.000    0.000    0.000    0.000    0.000 
#
# Total GULP energy -545403.004554 kJ/mol
# GULP energy per Si atom -12395.522831 kJ/mol
# Density = 2.053426 g / cm^3
# Si number density = 20.581106 Si / 1000 Ang^3
#
#
#
# Elastic Constant Matrix: (Units=GPa)
#
#
# Indices 1 2 3 4 5 6 
#
# 1 50.1260 34.1739 30.9323 0.0000 0.0000 0.0000
# 2 34.1739 163.4078 96.3163 0.0000 0.0000 0.0000
# 3 30.9323 96.3163 148.9336 0.0000 0.0000 0.0000
# 4 0.0000 0.0000 0.0000 44.8420 0.0000 0.0000
# 5 0.0000 0.0000 0.0000 0.0000 26.8131 0.0000
# 6 0.0000 0.0000 0.0000 0.0000 0.0000 17.5712
#
#
#
# Elastic Compliance Matrix: (Units=1/GPa)
#
#
# Indices 1 2 3 4 5 6 
#
# 1 0.023972 -0.003359 -0.002806 0.000000 0.000000 0.000000
# 2 -0.003359 0.010360 -0.006002 0.000000 0.000000 0.000000
# 3 -0.002806 -0.006002 0.011179 0.000000 0.000000 0.000000
# 4 0.000000 0.000000 0.000000 0.022301 0.000000 0.000000
# 5 0.000000 0.000000 0.000000 0.000000 0.037295 0.000000
# 6 0.000000 0.000000 0.000000 0.000000 0.000000 0.056911
#
#
# Mechanical properties :
#
#
# Convention : Reuss Voigt Hill
#
# Bulk Modulus (GPa) = 47.22511 76.14582 61.68546
# Shear Modulus (GPa) = 25.85163 31.24825 28.54994
#
# Velocity S-wave (km/s) = 3.54797 3.90076 3.72854
# Velocity P-wave (km/s) = 6.30713 7.57405 6.96943
#
# Compressibility (1/GPa) = 0.02117518
#
# Stress axis : x y z
#
# Youngs Moduli (GPa) = 41.71599 96.52503 89.45402
#
# Poissons Ratio (x) = 0.32424 0.25104
# Poissons Ratio (y) = 0.14013 0.53692
# Poissons Ratio (z) = 0.11707 0.57936
#
# Static dielectric constant tensor:
#      x y z
#    x 3.444500 0.000000 0.000000 
#    y 0.000000 4.102380 0.000000 
#    z 0.000000 0.000000 3.897760 
# 
# 
# High freq. dielectric constant tensor:
#      x y z
#    x 1.778290 0.000000 0.000000 
#    y 0.000000 1.804890 0.000000 
#    z 0.000000 0.000000 1.810800 
# 
# From -- ./inp_files/33927.got.cif
#   From: 2010.03.12/outbox.cif.g09.slc.cpg/sg47_17_cif.got.tgz:33927.got - 2010.04.14 03:12:58.
