data_PCOD8196758
_publ_section_title
;
Structure prediction by ZEFSAII (Michael W. Deem and Ramdas Pophale) SiO2 
 PCOD8196758
Probable space group: P M M M
;
_chemical_formula_sum "Si O2"
_cell_formula_units_Z 52
_cell_length_a 9.181328
_cell_length_b 15.499067
_cell_length_c 22.274335
_cell_angle_alpha 90.000000
_cell_angle_beta 90.000000
_cell_angle_gamma 90.000000
_cell_volume 3169.682816
_symmetry_space_group_name_H-M "P M M M"
_symmetry_group_IT_number 47
_symmetry_cell_setting 'orthorhombic'
loop_
_space_group_symop_operation_xyz
x,y,z
-x,-y,z
x,-y,-z
-x,y,-z
-x,-y,-z
x,y,-z
-x,y,z
x,-y,z
loop_
_atom_site_type_symbol
_atom_site_label
_atom_site_fract_x
_atom_site_fract_y
_atom_site_fract_z
Si Si1 0.834092 0.778287 0.204646
Si Si2 0.834904 0.407855 0.785523
Si Si3 0.331200 0.594309 0.335816
Si Si4 0.826926 0.095688 0.567100
Si Si5 0.670309 0.899753 0.117956
Si Si6 0.835750 0.897585 0.000000
Si Si7 0.830496 0.759119 0.345228
O O1 0.808103 0.680909 0.177196
O O2 0.725253 0.845571 0.174598
O O3 0.798179 0.776893 0.275358
O O4 0.000000 0.808643 0.193089
O O5 0.820375 0.500000 0.821973
O O6 0.719880 0.410853 0.732596
O O7 0.000000 0.400539 0.758920
O O8 0.500000 0.618087 0.336685
O O9 0.303382 0.500000 0.366259
O O10 0.244389 0.670883 0.368700
O O11 0.777097 0.122672 0.500000
O O12 0.763476 0.162724 0.615688
O O13 0.000000 0.094203 0.570690
O O14 0.766966 0.000000 0.582476
O O15 0.500000 0.884749 0.108393
O O16 0.752407 0.864418 0.058985
O O17 0.705626 0.000000 0.129917
O O18 0.000000 0.860716 0.000000
O O19 0.835729 0.000000 0.000000
O O20 0.000000 0.748869 0.357879
#
# Coordination Sequence:
#
# PCOD8196758 Si02
#       7
#     8   8   8   8   8   4   8
#     4   9  17  27  41  65  93 118 145 177 216 262
#     4   8  14  26  43  62  86 115 146 181 219 258
#     4   9  16  25  39  60  85 113 143 174 212 260
#     4   8  14  26  45  67  87 108 141 186 229 266
#     4  10  20  32  45  63  90 122 152 181 214 254
#     4   9  17  31  51  69  84 109 148 189 223 256
#     4   9  17  28  44  66  89 114 144 180 222 264
#
# _framework density 16.405425999999999
#
# number of rings (size 3 to 8) (size 9 to 14) (size 15 to 20)
#    0.000    3.154    0.000    2.538    0.000    5.846 
#    0.000    1.538    0.000    1.385    0.000    4.846 
#    0.000    4.308    0.000    0.000    0.000    0.000 
#
# Total GULP energy -644187.169883 kJ/mol
# GULP energy per Si atom -12388.214805 kJ/mol
# Density = 1.636809 g / cm^3
# Si number density = 16.405426 Si / 1000 Ang^3
#
#
#
# Elastic Constant Matrix: (Units=GPa)
#
#
# Indices 1 2 3 4 5 6 
#
# 1 65.1987 52.1608 32.5161 0.0000 0.0000 0.0000
# 2 52.1608 128.9046 54.9811 0.0000 0.0000 0.0000
# 3 32.5161 54.9811 58.1674 0.0000 0.0000 0.0000
# 4 0.0000 0.0000 0.0000 3.8864 0.0000 0.0000
# 5 0.0000 0.0000 0.0000 0.0000 8.8842 0.0000
# 6 0.0000 0.0000 0.0000 0.0000 0.0000 23.9268
#
#
#
# Elastic Compliance Matrix: (Units=1/GPa)
#
#
# Indices 1 2 3 4 5 6 
#
# 1 0.024358 -0.006783 -0.007204 0.000000 0.000000 0.000000
# 2 -0.006783 0.014887 -0.010280 0.000000 0.000000 0.000000
# 3 -0.007204 -0.010280 0.030936 0.000000 0.000000 0.000000
# 4 0.000000 0.000000 0.000000 0.257309 0.000000 0.000000
# 5 0.000000 0.000000 0.000000 0.000000 0.112560 0.000000
# 6 0.000000 0.000000 0.000000 0.000000 0.000000 0.041794
#
#
# Mechanical properties :
#
#
# Convention : Reuss Voigt Hill
#
# Bulk Modulus (GPa) = 46.19877 59.06520 52.63199
# Shear Modulus (GPa) = 9.30071 14.84697 12.07384
#
# Velocity S-wave (km/s) = 2.38361 3.01159 2.71581
# Velocity P-wave (km/s) = 5.98308 6.94079 6.47965
#
# Compressibility (1/GPa) = 0.02164560
#
# Stress axis : x y z
#
# Youngs Moduli (GPa) = 41.05501 67.17239 32.32524
#
# Poissons Ratio (x) = 0.45566 0.23288
# Poissons Ratio (y) = 0.27849 0.33229
# Poissons Ratio (z) = 0.29577 0.69051
#
# Static dielectric constant tensor:
#      x y z
#    x 2.968350 0.000000 0.000000 
#    y 0.000000 3.569640 0.000000 
#    z 0.000000 0.000000 2.792110 
# 
# 
# High freq. dielectric constant tensor:
#      x y z
#    x 1.621070 0.000000 0.000000 
#    y 0.000000 1.643000 0.000000 
#    z 0.000000 0.000000 1.581460 
# 
# From -- ./inp_files/32009.got.cif
#   From: 2010.03.12/outbox.cif.g09.slc.cpg/sg47_17_cif.got.tgz:32009.got - 2010.04.14 03:12:58.
