data_PCOD8196905
_publ_section_title
;
Structure prediction by ZEFSAII (Michael W. Deem and Ramdas Pophale) SiO2 
 PCOD8196905
Probable space group: P M M M
;
_chemical_formula_sum "Si O2"
_cell_formula_units_Z 52
_cell_length_a 10.433299
_cell_length_b 30.619034
_cell_length_c 9.295276
_cell_angle_alpha 90.000000
_cell_angle_beta 90.000000
_cell_angle_gamma 90.000000
_cell_volume 2969.445975
_symmetry_space_group_name_H-M "P M M M"
_symmetry_group_IT_number 47
_symmetry_cell_setting 'orthorhombic'
loop_
_space_group_symop_operation_xyz
x,y,z
-x,-y,z
x,-y,-z
-x,y,-z
-x,-y,-z
x,y,-z
-x,y,z
x,-y,z
loop_
_atom_site_type_symbol
_atom_site_label
_atom_site_fract_x
_atom_site_fract_y
_atom_site_fract_z
Si Si1 0.143655 0.799519 0.671365
Si Si2 0.854393 0.624267 0.157783
Si Si3 0.848629 0.702652 0.340532
Si Si4 0.749588 0.550622 0.330745
Si Si5 0.348096 0.952130 0.160922
Si Si6 0.500000 0.551569 0.161184
Si Si7 0.647162 0.131646 0.329873
O O1 0.141325 0.799522 0.500000
O O2 0.180424 0.750724 0.724356
O O3 0.254450 0.831781 0.729754
O O4 0.000000 0.812650 0.726960
O O5 0.786804 0.665319 0.238213
O O6 0.856029 0.580844 0.257280
O O7 0.000000 0.637288 0.132393
O O8 0.790134 0.616251 0.000000
O O9 0.787705 0.697652 0.500000
O O10 0.000000 0.696026 0.353441
O O11 0.739363 0.559318 0.500000
O O12 0.781434 0.500000 0.299905
O O13 0.621084 0.566997 0.252778
O O14 0.500000 0.953237 0.160643
O O15 0.301277 0.914270 0.267682
O O16 0.296955 0.000000 0.211621
O O17 0.297603 0.942131 0.000000
O O18 0.500000 0.500000 0.149603
O O19 0.500000 0.571860 0.000000
O O20 0.654336 0.128245 0.500000
O O21 0.500000 0.142079 0.281134
#
# Coordination Sequence:
#
# PCOD8196905 Si02
#       7
#     8   8   8   8   8   4   8
#     4   8  14  26  45  66  87 115 150 184 222 274
#     4  10  20  32  47  69  96 123 151 187 232 277
#     4   8  14  27  47  65  81 110 151 185 213 256
#     4  10  20  33  50  71  94 121 155 191 224 267
#     4   8  14  25  40  58  83 117 153 183 215 263
#     4   9  17  31  51  71  91 117 149 185 225 265
#     4   9  16  25  41  67  93 113 140 185 233 268
#
# _framework density 17.511685
#
# number of rings (size 3 to 8) (size 9 to 14) (size 15 to 20)
#    0.000    3.154    0.000    2.538    0.000    3.385 
#    0.000    3.846    1.692    1.846    0.000    3.231 
#    0.000    0.000    0.000    0.000    0.000    0.000 
#
# Total GULP energy -644253.654402 kJ/mol
# GULP energy per Si atom -12389.493354 kJ/mol
# Density = 1.747183 g / cm^3
# Si number density = 17.511685 Si / 1000 Ang^3
#
#
#
# Elastic Constant Matrix: (Units=GPa)
#
#
# Indices 1 2 3 4 5 6 
#
# 1 46.4363 40.9765 23.1549 0.0000 0.0000 0.0000
# 2 40.9765 137.0517 59.3576 0.0000 0.0000 0.0000
# 3 23.1549 59.3576 85.8706 0.0000 0.0000 0.0000
# 4 0.0000 0.0000 0.0000 19.6306 0.0000 0.0000
# 5 0.0000 0.0000 0.0000 0.0000 14.5361 0.0000
# 6 0.0000 0.0000 0.0000 0.0000 0.0000 20.7212
#
#
#
# Elastic Compliance Matrix: (Units=1/GPa)
#
#
# Indices 1 2 3 4 5 6 
#
# 1 0.029675 -0.007717 -0.002667 0.000000 0.000000 0.000000
# 2 -0.007717 0.012421 -0.006505 0.000000 0.000000 0.000000
# 3 -0.002667 -0.006505 0.016861 0.000000 0.000000 0.000000
# 4 0.000000 0.000000 0.000000 0.050941 0.000000 0.000000
# 5 0.000000 0.000000 0.000000 0.000000 0.068794 0.000000
# 6 0.000000 0.000000 0.000000 0.000000 0.000000 0.048260
#
#
# Mechanical properties :
#
#
# Convention : Reuss Voigt Hill
#
# Bulk Modulus (GPa) = 39.71723 57.37074 48.54398
# Shear Modulus (GPa) = 18.57880 20.70222 19.64051
#
# Velocity S-wave (km/s) = 3.26074 3.44204 3.35261
# Velocity P-wave (km/s) = 6.07505 6.97347 6.53971
#
# Compressibility (1/GPa) = 0.02517799
#
# Stress axis : x y z
#
# Youngs Moduli (GPa) = 33.69880 80.50729 59.30714
#
# Poissons Ratio (x) = 0.62128 0.15819
# Poissons Ratio (y) = 0.26006 0.38581
# Poissons Ratio (z) = 0.08989 0.52372
#
# Static dielectric constant tensor:
#      x y z
#    x 3.046850 0.000000 0.000000 
#    y 0.000000 3.513330 0.000000 
#    z 0.000000 0.000000 3.382490 
# 
# 
# High freq. dielectric constant tensor:
#      x y z
#    x 1.631180 0.000000 0.000000 
#    y 0.000000 1.678220 0.000000 
#    z 0.000000 0.000000 1.667180 
# 
# From -- ./inp_files/4762.got.cif
#   From: 2010.03.12/outbox.cif.g09.slc.cpg/sg47_3_cif.got.tgz:4762.got - 2010.04.14 03:12:58.
