data_PCOD8196290
_publ_section_title
;
Structure prediction by ZEFSAII (Michael W. Deem and Ramdas Pophale) SiO2 
 PCOD8196290
Probable space group: P M M M
;
_chemical_formula_sum "Si O2"
_cell_formula_units_Z 44
_cell_length_a 26.993733
_cell_length_b 10.150190
_cell_length_c 9.202819
_cell_angle_alpha 90.000000
_cell_angle_beta 90.000000
_cell_angle_gamma 90.000000
_cell_volume 2521.494355
_symmetry_space_group_name_H-M "P M M M"
_symmetry_group_IT_number 47
_symmetry_cell_setting 'orthorhombic'
loop_
_space_group_symop_operation_xyz
x,y,z
-x,-y,z
x,-y,-z
-x,y,-z
-x,-y,-z
x,y,-z
-x,y,z
x,-y,z
loop_
_atom_site_type_symbol
_atom_site_label
_atom_site_fract_x
_atom_site_fract_y
_atom_site_fract_z
Si Si1 0.811226 0.150002 0.671653
Si Si2 0.391500 0.739245 0.829771
Si Si3 0.555141 0.000000 0.827477
Si Si4 0.893464 0.648502 0.325967
Si Si5 0.000000 0.344528 0.658099
Si Si6 0.442556 0.500000 0.327751
Si Si7 0.286986 0.150719 0.166392
O O1 0.807534 0.161810 0.500000
O O2 0.853311 0.247714 0.733805
O O3 0.758785 0.196160 0.735373
O O4 0.823567 0.000000 0.719611
O O5 0.414361 0.624689 0.735158
O O6 0.332839 0.752606 0.800653
O O7 0.417042 0.871336 0.771285
O O8 0.402187 0.713982 0.000000
O O9 0.500000 0.000000 0.762880
O O10 0.554971 0.000000 0.000000
O O11 0.896099 0.651728 0.500000
O O12 0.879595 0.500000 0.274215
O O13 0.947917 0.692283 0.262362
O O14 0.000000 0.500000 0.635729
O O15 0.000000 0.275103 0.500000
O O16 0.500000 0.500000 0.278353
O O17 0.438026 0.500000 0.500000
O O18 0.302795 0.000000 0.200248
O O19 0.270375 0.163637 0.000000
#
# Coordination Sequence:
#
# PCOD8196290 Si02
#       7
#     8   8   4   8   4   4   8
#     4   9  17  28  43  65  94 125 155 188 232 285
#     4  10  19  35  58  80 100 128 167 207 246 290
#     4   9  16  28  53  85 103 115 153 210 251 282
#     4   8  13  23  39  60  87 119 155 193 232 279
#     4   7  10  18  35  57  82 115 152 190 234 277
#     4  11  25  41  53  73 109 143 165 192 239 298
#     4   9  17  32  53  75  98 124 158 201 245 287
#
# _framework density 17.449968999999999
#
# number of rings (size 3 to 8) (size 9 to 14) (size 15 to 20)
#    0.000    3.000    0.909    1.909    0.000    2.182 
#    1.636    0.909    0.000    4.364    0.000    0.636 
#    0.000    5.091    0.000    0.000    0.000    0.000 
#
# Total GULP energy -545277.522317 kJ/mol
# GULP energy per Si atom -12392.670962 kJ/mol
# Density = 1.741025 g / cm^3
# Si number density = 17.449969 Si / 1000 Ang^3
#
#
#
# Elastic Constant Matrix: (Units=GPa)
#
#
# Indices 1 2 3 4 5 6 
#
# 1 154.5518 80.2507 36.5755 0.0000 0.0000 0.0000
# 2 80.2507 111.8469 30.9765 0.0000 0.0000 0.0000
# 3 36.5755 30.9765 28.2391 0.0000 0.0000 0.0000
# 4 0.0000 0.0000 0.0000 6.9032 0.0000 0.0000
# 5 0.0000 0.0000 0.0000 0.0000 12.7001 0.0000
# 6 0.0000 0.0000 0.0000 0.0000 0.0000 35.0004
#
#
#
# Elastic Compliance Matrix: (Units=1/GPa)
#
#
# Indices 1 2 3 4 5 6 
#
# 1 0.011561 -0.005958 -0.008438 0.000000 0.000000 0.000000
# 2 -0.005958 0.015913 -0.009738 0.000000 0.000000 0.000000
# 3 -0.008438 -0.009738 0.057024 0.000000 0.000000 0.000000
# 4 0.000000 0.000000 0.000000 0.144861 0.000000 0.000000
# 5 0.000000 0.000000 0.000000 0.000000 0.078739 0.000000
# 6 0.000000 0.000000 0.000000 0.000000 0.000000 0.028571
#
#
# Mechanical properties :
#
#
# Convention : Reuss Voigt Hill
#
# Bulk Modulus (GPa) = 27.60300 65.58259 46.59280
# Shear Modulus (GPa) = 12.59401 20.70976 16.65188
#
# Velocity S-wave (km/s) = 2.68940 3.44874 3.09247
# Velocity P-wave (km/s) = 5.04941 7.31596 6.28569
#
# Compressibility (1/GPa) = 0.03622795
#
# Stress axis : x y z
#
# Youngs Moduli (GPa) = 86.49773 62.84238 17.53656
#
# Poissons Ratio (x) = 0.37442 0.14798
# Poissons Ratio (y) = 0.51536 0.17078
# Poissons Ratio (z) = 0.72989 0.61199
#
# Static dielectric constant tensor:
#      x y z
#    x 3.623140 0.000000 0.000000 
#    y 0.000000 2.998020 0.000000 
#    z 0.000000 0.000000 2.805720 
# 
# 
# High freq. dielectric constant tensor:
#      x y z
#    x 1.690870 0.000000 0.000000 
#    y 0.000000 1.661510 0.000000 
#    z 0.000000 0.000000 1.626180 
# 
# From -- ./inp_files/13711.got.cif
#   From: 2010.03.12/outbox.cif.g09.slc.cpg/sg47_7_cif.got.tgz:13711.got - 2010.04.14 03:12:58.
