data_PCOD8196956
_publ_section_title
;
Structure prediction by ZEFSAII (Michael W. Deem and Ramdas Pophale) SiO2 
 PCOD8196956
Probable space group: P M M M
;
_chemical_formula_sum "Si O2"
_cell_formula_units_Z 52
_cell_length_a 8.805440
_cell_length_b 16.340907
_cell_length_c 20.677632
_cell_angle_alpha 90.000000
_cell_angle_beta 90.000000
_cell_angle_gamma 90.000000
_cell_volume 2975.281230
_symmetry_space_group_name_H-M "P M M M"
_symmetry_group_IT_number 47
_symmetry_cell_setting 'orthorhombic'
loop_
_space_group_symop_operation_xyz
x,y,z
-x,-y,z
x,-y,-z
-x,y,-z
-x,-y,-z
x,y,-z
-x,y,z
x,-y,z
loop_
_atom_site_type_symbol
_atom_site_label
_atom_site_fract_x
_atom_site_fract_y
_atom_site_fract_z
Si Si1 0.180272 0.904990 0.000000
Si Si2 0.674324 0.313280 0.572145
Si Si3 0.320286 0.000000 0.207757
Si Si4 0.677382 0.592962 0.698120
Si Si5 0.177656 0.833416 0.636159
Si Si6 0.820954 0.258914 0.234906
Si Si7 0.319550 0.155459 0.129470
Si Si8 0.679615 0.000000 0.352148
O O1 0.243178 0.853507 0.939958
O O2 0.000000 0.903309 0.000000
O O3 0.238624 0.000000 0.000000
O O4 0.705788 0.347461 0.500000
O O5 0.500000 0.285884 0.580352
O O6 0.714943 0.383769 0.623701
O O7 0.777769 0.233915 0.583349
O O8 0.259656 0.078905 0.170734
O O9 0.253685 0.000000 0.279501
O O10 0.500000 0.000000 0.210222
O O11 0.500000 0.604574 0.712731
O O12 0.729586 0.500000 0.709154
O O13 0.771407 0.649176 0.747358
O O14 0.231414 0.802124 0.707224
O O15 0.258726 0.917582 0.615006
O O16 0.000000 0.848083 0.634731
O O17 0.738419 0.235345 0.167800
O O18 0.000000 0.256099 0.224644
O O19 0.500000 0.158409 0.121460
O O20 0.500000 0.000000 0.355826
#
# Coordination Sequence:
#
# PCOD8196956 Si02
#       8
#     4   8   4   8   8   8   8   4
#     4  11  23  35  47  71 108 147 182 219 259 297
#     4   9  18  33  52  73  99 132 166 202 248 302
#     4   9  18  28  46  72  97 128 168 213 255 294
#     4   9  18  33  54  80 106 131 162 203 251 305
#     4  10  20  32  47  70  98 129 166 209 255 301
#     4  10  20  33  50  74 103 134 167 208 257 306
#     4  11  20  34  52  73 101 139 182 217 254 299
#     4  11  19  31  49  71  95 126 168 215 260 299
#
# _framework density 17.477339000000001
#
# number of rings (size 3 to 8) (size 9 to 14) (size 15 to 20)
#    0.000    2.077    2.308    1.846    0.000    2.462 
#    0.000    1.923    0.000    2.308    0.000    4.846 
#    0.000    4.308    0.000    0.000    0.000    0.000 
#
# Total GULP energy -644837.998821 kJ/mol
# GULP energy per Si atom -12400.730747 kJ/mol
# Density = 1.743756 g / cm^3
# Si number density = 17.477339 Si / 1000 Ang^3
#
#
#
# Elastic Constant Matrix: (Units=GPa)
#
#
# Indices 1 2 3 4 5 6 
#
# 1 66.9233 34.6681 26.7539 0.0000 0.0000 0.0000
# 2 34.6681 108.6653 34.2297 0.0000 0.0000 0.0000
# 3 26.7539 34.2297 90.5065 0.0000 0.0000 0.0000
# 4 0.0000 0.0000 0.0000 18.5238 0.0000 0.0000
# 5 0.0000 0.0000 0.0000 0.0000 24.1084 0.0000
# 6 0.0000 0.0000 0.0000 0.0000 0.0000 24.4112
#
#
#
# Elastic Compliance Matrix: (Units=1/GPa)
#
#
# Indices 1 2 3 4 5 6 
#
# 1 0.018969 -0.004865 -0.003767 0.000000 0.000000 0.000000
# 2 -0.004865 0.011695 -0.002985 0.000000 0.000000 0.000000
# 3 -0.003767 -0.002985 0.013291 0.000000 0.000000 0.000000
# 4 0.000000 0.000000 0.000000 0.053985 0.000000 0.000000
# 5 0.000000 0.000000 0.000000 0.000000 0.041479 0.000000
# 6 0.000000 0.000000 0.000000 0.000000 0.000000 0.040965
#
#
# Mechanical properties :
#
#
# Convention : Reuss Voigt Hill
#
# Bulk Modulus (GPa) = 48.26087 50.82207 49.54147
# Shear Modulus (GPa) = 23.75013 24.77157 24.26085
#
# Velocity S-wave (km/s) = 3.69034 3.76886 3.72981
# Velocity P-wave (km/s) = 6.76989 6.93405 6.85246
#
# Compressibility (1/GPa) = 0.02072072
#
# Stress axis : x y z
#
# Youngs Moduli (GPa) = 52.71841 85.50714 75.23637
#
# Poissons Ratio (x) = 0.41599 0.28343
# Poissons Ratio (y) = 0.25647 0.22458
# Poissons Ratio (z) = 0.19860 0.25523
#
# Static dielectric constant tensor:
#      x y z
#    x 3.136380 0.000000 0.000000 
#    y 0.000000 3.148230 0.000000 
#    z 0.000000 0.000000 3.174110 
# 
# 
# High freq. dielectric constant tensor:
#      x y z
#    x 1.676510 0.000000 0.000000 
#    y 0.000000 1.659210 0.000000 
#    z 0.000000 0.000000 1.658310 
# 
# From -- ./inp_files/11137.got.cif
#   From: 2010.03.12/outbox.cif.g09.slc.cpg/sg47_6_cif.got.tgz:11137.got - 2010.04.14 03:12:58.
