data_PCOD8196673
_publ_section_title
;
Structure prediction by ZEFSAII (Michael W. Deem and Ramdas Pophale) SiO2 
 PCOD8196673
Probable space group: P M M M
;
_chemical_formula_sum "Si O2"
_cell_formula_units_Z 52
_cell_length_a 11.973791
_cell_length_b 24.400361
_cell_length_c 9.783124
_cell_angle_alpha 90.000000
_cell_angle_beta 90.000000
_cell_angle_gamma 90.000000
_cell_volume 2858.284691
_symmetry_space_group_name_H-M "P M M M"
_symmetry_group_IT_number 47
_symmetry_cell_setting 'orthorhombic'
loop_
_space_group_symop_operation_xyz
x,y,z
-x,-y,z
x,-y,-z
-x,y,-z
-x,-y,-z
x,y,-z
-x,y,z
x,-y,z
loop_
_atom_site_type_symbol
_atom_site_label
_atom_site_fract_x
_atom_site_fract_y
_atom_site_fract_z
Si Si1 0.632143 0.627884 0.844444
Si Si2 0.758218 0.935843 0.734062
Si Si3 0.793365 0.434969 0.658320
Si Si4 0.000000 0.936000 0.651711
Si Si5 0.632253 0.750743 0.847798
Si Si6 0.375371 0.158834 0.351732
Si Si7 0.624675 0.935738 0.000000
Si Si8 0.000000 0.434956 0.842441
O O1 0.500000 0.624603 0.829013
O O2 0.682342 0.588526 0.728770
O O3 0.676415 0.689647 0.815777
O O4 0.665838 0.610348 0.000000
O O5 0.889517 0.920240 0.737484
O O6 0.696544 0.896703 0.627141
O O7 0.740066 0.000000 0.697961
O O8 0.698972 0.917373 0.873273
O O9 0.806445 0.414828 0.500000
O O10 0.785859 0.500000 0.659500
O O11 0.894245 0.413993 0.754812
O O12 0.000000 0.908357 0.500000
O O13 0.000000 0.000000 0.627549
O O14 0.500000 0.749810 0.830811
O O15 0.683411 0.796406 0.746675
O O16 0.667324 0.768271 0.000000
O O17 0.382151 0.186791 0.500000
O O18 0.500000 0.143123 0.299535
O O19 0.500000 0.908443 0.000000
O O20 0.608377 0.000000 0.000000
O O21 0.000000 0.500000 0.849331
O O22 0.000000 0.411928 0.000000
#
# Coordination Sequence:
#
# PCOD8196673 Si02
#       8
#     8   8   8   4   8   8   4   4
#     4   9  18  33  52  74 100 134 176 215 253 301
#     4  10  20  33  50  72 100 133 169 208 250 302
#     4  10  20  32  48  74 107 139 170 209 260 312
#     4   9  18  33  51  68  91 131 177 212 245 292
#     4   8  16  32  52  71  94 128 169 211 253 299
#     4  10  20  31  47  74 102 128 162 206 258 313
#     4   9  18  31  47  71 101 130 159 195 248 308
#     4   9  17  31  51  72  97 134 179 220 255 296
#
# _framework density 18.192727999999999
#
# number of rings (size 3 to 8) (size 9 to 14) (size 15 to 20)
#    0.000    2.692    0.000    2.538    1.077    5.231 
#    0.000    5.385    0.000    0.923    0.000    1.077 
#    0.000    0.000    0.000    0.000    0.000    0.000 
#
# Total GULP energy -644266.961856 kJ/mol
# GULP energy per Si atom -12389.749266 kJ/mol
# Density = 1.815132 g / cm^3
# Si number density = 18.192728 Si / 1000 Ang^3
#
#
#
# Elastic Constant Matrix: (Units=GPa)
#
#
# Indices 1 2 3 4 5 6 
#
# 1 97.7775 25.2276 56.4279 0.0000 0.0000 0.0000
# 2 25.2276 46.0902 39.0078 0.0000 0.0000 0.0000
# 3 56.4279 39.0078 136.2097 0.0000 0.0000 0.0000
# 4 0.0000 0.0000 0.0000 21.1520 0.0000 0.0000
# 5 0.0000 0.0000 0.0000 0.0000 15.0433 0.0000
# 6 0.0000 0.0000 0.0000 0.0000 0.0000 8.6155
#
#
#
# Elastic Compliance Matrix: (Units=1/GPa)
#
#
# Indices 1 2 3 4 5 6 
#
# 1 0.013880 -0.003604 -0.004718 0.000000 0.000000 0.000000
# 2 -0.003604 0.029574 -0.006976 0.000000 0.000000 0.000000
# 3 -0.004718 -0.006976 0.011294 0.000000 0.000000 0.000000
# 4 0.000000 0.000000 0.000000 0.047277 0.000000 0.000000
# 5 0.000000 0.000000 0.000000 0.000000 0.066475 0.000000
# 6 0.000000 0.000000 0.000000 0.000000 0.000000 0.116070
#
#
# Mechanical properties :
#
#
# Convention : Reuss Voigt Hill
#
# Bulk Modulus (GPa) = 41.40646 57.93378 49.67012
# Shear Modulus (GPa) = 15.46954 19.58978 17.52966
#
# Velocity S-wave (km/s) = 2.91918 3.28501 3.10748
# Velocity P-wave (km/s) = 5.84563 6.80456 6.34324
#
# Compressibility (1/GPa) = 0.02415082
#
# Stress axis : x y z
#
# Youngs Moduli (GPa) = 72.04632 33.81400 88.54317
#
# Poissons Ratio (x) = 0.12188 0.41774
# Poissons Ratio (y) = 0.25968 0.61769
# Poissons Ratio (z) = 0.33991 0.23589
#
# Static dielectric constant tensor:
#      x y z
#    x 3.301320 0.000000 0.000000 
#    y 0.000000 3.222300 0.000000 
#    z 0.000000 0.000000 3.596270 
# 
# 
# High freq. dielectric constant tensor:
#      x y z
#    x 1.682120 0.000000 0.000000 
#    y 0.000000 1.677680 0.000000 
#    z 0.000000 0.000000 1.716590 
# 
# From -- ./inp_files/4620.got.cif
#   From: 2010.03.12/outbox.cif.g09.slc.cpg/sg47_3_cif.got.tgz:4620.got - 2010.04.14 03:12:58.
