data_PCOD8196808
_publ_section_title
;
Structure prediction by ZEFSAII (Michael W. Deem and Ramdas Pophale) SiO2 
 PCOD8196808
Probable space group: P M M M
;
_chemical_formula_sum "Si O2"
_cell_formula_units_Z 64
_cell_length_a 14.062679
_cell_length_b 30.694913
_cell_length_c 8.939983
_cell_angle_alpha 90.000000
_cell_angle_beta 90.000000
_cell_angle_gamma 90.000000
_cell_volume 3858.967875
_symmetry_space_group_name_H-M "P M M M"
_symmetry_group_IT_number 47
_symmetry_cell_setting 'orthorhombic'
loop_
_space_group_symop_operation_xyz
x,y,z
-x,-y,z
x,-y,-z
-x,y,-z
-x,-y,-z
x,y,-z
-x,y,z
x,-y,z
loop_
_atom_site_type_symbol
_atom_site_label
_atom_site_fract_x
_atom_site_fract_y
_atom_site_fract_z
Si Si1 0.612166 0.205925 0.327697
Si Si2 0.390293 0.050183 0.671691
Si Si3 0.612846 0.452181 0.167804
Si Si4 0.711417 0.712715 0.176130
Si Si5 0.612345 0.366763 0.328391
Si Si6 0.107785 0.157232 0.327679
Si Si7 0.287111 0.125782 0.175399
Si Si8 0.107593 0.741430 0.672544
O O1 0.643556 0.207139 0.500000
O O2 0.500000 0.207442 0.308706
O O3 0.655146 0.247664 0.248454
O O4 0.649536 0.161624 0.257126
O O5 0.371046 0.063432 0.500000
O O6 0.500000 0.058660 0.711774
O O7 0.324844 0.078281 0.780852
O O8 0.363775 0.000000 0.698259
O O9 0.500000 0.452651 0.167332
O O10 0.649958 0.500000 0.220733
O O11 0.648985 0.414725 0.279972
O O12 0.649959 0.442373 0.000000
O O13 0.664531 0.667770 0.224925
O O14 0.821313 0.713026 0.227344
O O15 0.705556 0.717372 0.000000
O O16 0.640337 0.358906 0.500000
O O17 0.500000 0.361844 0.303719
O O18 0.122693 0.144257 0.500000
O O19 0.177284 0.129004 0.224685
O O20 0.131802 0.207891 0.304235
O O21 0.000000 0.147258 0.277880
O O22 0.295361 0.132919 0.000000
O O23 0.120681 0.728522 0.500000
O O24 0.000000 0.731549 0.724638
#
# Coordination Sequence:
#
# PCOD8196808 Si02
#       8
#     8   8   8   8   8   8   8   8
#     4  11  23  37  51  67  94 134 174 207 237 279
#     4   9  19  37  59  79 100 132 172 207 240 284
#     4   8  14  26  44  65  90 121 159 206 256 298
#     4  12  23  33  48  71  99 130 163 204 251 297
#     4  10  20  32  46  65  93 133 175 209 244 292
#     4   9  18  34  56  77  98 129 167 204 242 288
#     4  12  23  33  51  80 108 132 159 199 250 296
#     4   9  18  34  55  74  94 125 164 204 245 291
#
# _framework density 16.584745999999999
#
# number of rings (size 3 to 8) (size 9 to 14) (size 15 to 20)
#    0.000    2.000    1.250    5.250    0.000    6.000 
#    0.000    3.125    0.000    0.375    0.000    2.625 
#    0.000    0.500    0.000    5.250    0.000    2.500 
#
# Total GULP energy -793668.040778 kJ/mol
# GULP energy per Si atom -12401.063137 kJ/mol
# Density = 1.654700 g / cm^3
# Si number density = 16.584746 Si / 1000 Ang^3
#
#
#
# Elastic Constant Matrix: (Units=GPa)
#
#
# Indices 1 2 3 4 5 6 
#
# 1 73.9576 42.8984 54.1052 0.0000 0.0000 0.0000
# 2 42.8984 92.2377 49.9812 0.0000 0.0000 0.0000
# 3 54.1052 49.9812 115.8157 0.0000 0.0000 0.0000
# 4 0.0000 0.0000 0.0000 25.3394 0.0000 0.0000
# 5 0.0000 0.0000 0.0000 0.0000 14.0254 0.0000
# 6 0.0000 0.0000 0.0000 0.0000 0.0000 6.8145
#
#
#
# Elastic Compliance Matrix: (Units=1/GPa)
#
#
# Indices 1 2 3 4 5 6 
#
# 1 0.023109 -0.006393 -0.008037 0.000000 0.000000 0.000000
# 2 -0.006393 0.015919 -0.003884 0.000000 0.000000 0.000000
# 3 -0.008037 -0.003884 0.014065 0.000000 0.000000 0.000000
# 4 0.000000 0.000000 0.000000 0.039464 0.000000 0.000000
# 5 0.000000 0.000000 0.000000 0.000000 0.071299 0.000000
# 6 0.000000 0.000000 0.000000 0.000000 0.000000 0.146745
#
#
# Mechanical properties :
#
#
# Convention : Reuss Voigt Hill
#
# Bulk Modulus (GPa) = 60.72866 63.99784 62.36325
# Shear Modulus (GPa) = 14.17571 18.23761 16.20666
#
# Velocity S-wave (km/s) = 2.92677 3.31971 3.12942
# Velocity P-wave (km/s) = 6.93671 7.30521 7.12335
#
# Compressibility (1/GPa) = 0.01646669
#
# Stress axis : x y z
#
# Youngs Moduli (GPa) = 43.27367 62.81769 71.09870
#
# Poissons Ratio (x) = 0.40157 0.57141
# Poissons Ratio (y) = 0.27663 0.27612
# Poissons Ratio (z) = 0.34778 0.24396
#
# Static dielectric constant tensor:
#      x y z
#    x 3.059820 0.000000 0.000000 
#    y 0.000000 3.188820 0.000000 
#    z 0.000000 0.000000 3.139980 
# 
# 
# High freq. dielectric constant tensor:
#      x y z
#    x 1.621230 0.000000 0.000000 
#    y 0.000000 1.628580 0.000000 
#    z 0.000000 0.000000 1.642400 
# 
# From -- ./inp_files/8320.got.cif
#   From: 2010.03.12/outbox.cif.g09.slc.cpg/sg47_5_cif.got.tgz:8320.got - 2010.04.14 03:12:58.
