data_PCOD8196544
_publ_section_title
;
Structure prediction by ZEFSAII (Michael W. Deem and Ramdas Pophale) SiO2 
 PCOD8196544
Probable space group: P M M M
;
_chemical_formula_sum "Si O2"
_cell_formula_units_Z 52
_cell_length_a 9.267065
_cell_length_b 18.653973
_cell_length_c 16.390959
_cell_angle_alpha 90.000000
_cell_angle_beta 90.000000
_cell_angle_gamma 90.000000
_cell_volume 2833.465421
_symmetry_space_group_name_H-M "P M M M"
_symmetry_group_IT_number 47
_symmetry_cell_setting 'orthorhombic'
loop_
_space_group_symop_operation_xyz
x,y,z
-x,-y,z
x,-y,-z
-x,y,-z
-x,-y,-z
x,y,-z
-x,y,z
x,-y,z
loop_
_atom_site_type_symbol
_atom_site_label
_atom_site_fract_x
_atom_site_fract_y
_atom_site_fract_z
Si Si1 0.171138 0.080190 0.000000
Si Si2 0.170341 0.863036 0.171940
Si Si3 0.333166 0.918772 0.321465
Si Si4 0.165261 0.713864 0.753646
Si Si5 0.833829 0.203736 0.407082
Si Si6 0.331040 0.419317 0.742869
Si Si7 0.842367 0.583498 0.411964
O O1 0.225405 0.121208 0.080609
O O2 0.000000 0.077490 0.000000
O O3 0.234958 0.000000 0.000000
O O4 0.254120 0.914167 0.234211
O O5 0.211119 0.781258 0.191918
O O6 0.000000 0.877254 0.182400
O O7 0.500000 0.897424 0.310420
O O8 0.262191 0.865617 0.387151
O O9 0.317599 0.000000 0.353986
O O10 0.198907 0.731542 0.657216
O O11 0.252451 0.645283 0.790540
O O12 0.000000 0.695109 0.767463
O O13 0.801894 0.228967 0.500000
O O14 0.000000 0.180275 0.396071
O O15 0.500000 0.412316 0.753928
O O16 0.280242 0.500000 0.769091
O O17 0.286888 0.401906 0.650003
O O18 0.805217 0.618540 0.500000
O O19 0.860398 0.500000 0.423818
O O20 0.000000 0.613825 0.381119
#
# Coordination Sequence:
#
# PCOD8196544 Si02
#       7
#     4   8   8   8   8   8   8
#     4   9  16  28  53  87 114 133 156 190 231 277
#     4   9  18  33  53  77 103 132 165 196 232 285
#     4  10  20  32  47  70 101 134 166 203 246 288
#     4   9  18  32  49  69  95 127 161 198 241 290
#     4   9  19  35  52  69  90 122 168 215 254 295
#     4  10  20  31  44  65  90 116 152 198 243 287
#     4   8  14  25  40  57  79 109 144 184 234 289
#
# _framework density 18.352084999999999
#
# number of rings (size 3 to 8) (size 9 to 14) (size 15 to 20)
#    0.000    2.846    0.000    2.769    0.000    6.769 
#    0.000    5.000    0.000    1.385    0.000    0.538 
#    0.000    4.308    0.000    0.000    0.000    0.000 
#
# Total GULP energy -644302.810369 kJ/mol
# GULP energy per Si atom -12390.438661 kJ/mol
# Density = 1.831032 g / cm^3
# Si number density = 18.352085 Si / 1000 Ang^3
#
#
#
# Elastic Constant Matrix: (Units=GPa)
#
#
# Indices 1 2 3 4 5 6 
#
# 1 63.9508 47.7919 13.2780 0.0000 0.0000 0.0000
# 2 47.7919 124.5325 30.7117 0.0000 0.0000 0.0000
# 3 13.2780 30.7117 80.1845 0.0000 0.0000 0.0000
# 4 0.0000 0.0000 0.0000 13.1815 0.0000 0.0000
# 5 0.0000 0.0000 0.0000 0.0000 10.7347 0.0000
# 6 0.0000 0.0000 0.0000 0.0000 0.0000 29.9819
#
#
#
# Elastic Compliance Matrix: (Units=1/GPa)
#
#
# Indices 1 2 3 4 5 6 
#
# 1 0.021940 -0.008309 -0.000451 0.000000 0.000000 0.000000
# 2 -0.008309 0.012014 -0.003226 0.000000 0.000000 0.000000
# 3 -0.000451 -0.003226 0.013781 0.000000 0.000000 0.000000
# 4 0.000000 0.000000 0.000000 0.075864 0.000000 0.000000
# 5 0.000000 0.000000 0.000000 0.000000 0.093156 0.000000
# 6 0.000000 0.000000 0.000000 0.000000 0.000000 0.033353
#
#
# Mechanical properties :
#
#
# Convention : Reuss Voigt Hill
#
# Bulk Modulus (GPa) = 42.07855 50.24789 46.16322
# Shear Modulus (GPa) = 17.73044 22.57203 20.15123
#
# Velocity S-wave (km/s) = 3.11163 3.51086 3.31726
# Velocity P-wave (km/s) = 5.99065 6.62376 6.31515
#
# Compressibility (1/GPa) = 0.02376508
#
# Stress axis : x y z
#
# Youngs Moduli (GPa) = 45.57909 83.23492 72.56166
#
# Poissons Ratio (x) = 0.69158 0.03271
# Poissons Ratio (y) = 0.37870 0.23406
# Poissons Ratio (z) = 0.02054 0.26849
#
# Static dielectric constant tensor:
#      x y z
#    x 3.218530 0.000000 0.000000 
#    y 0.000000 3.574410 0.000000 
#    z 0.000000 0.000000 3.261450 
# 
# 
# High freq. dielectric constant tensor:
#      x y z
#    x 1.694630 0.000000 0.000000 
#    y 0.000000 1.726610 0.000000 
#    z 0.000000 0.000000 1.670850 
# 
# From -- ./inp_files/21448.got.cif
#   From: 2010.03.12/outbox.cif.g09.slc.cpg/sg47_11_cif.got.tgz:21448.got - 2010.04.14 03:12:58.
