data_PCOD8196483
_publ_section_title
;
Structure prediction by ZEFSAII (Michael W. Deem and Ramdas Pophale) SiO2 
 PCOD8196483
Probable space group: P M M M
;
_chemical_formula_sum "Si O2"
_cell_formula_units_Z 64
_cell_length_a 8.952938
_cell_length_b 14.699485
_cell_length_c 28.961353
_cell_angle_alpha 90.000000
_cell_angle_beta 90.000000
_cell_angle_gamma 90.000000
_cell_volume 3811.417674
_symmetry_space_group_name_H-M "P M M M"
_symmetry_group_IT_number 47
_symmetry_cell_setting 'orthorhombic'
loop_
_space_group_symop_operation_xyz
x,y,z
-x,-y,z
x,-y,-z
-x,y,-z
-x,-y,-z
x,y,-z
-x,y,z
x,-y,z
loop_
_atom_site_type_symbol
_atom_site_label
_atom_site_fract_x
_atom_site_fract_y
_atom_site_fract_z
Si Si1 0.329123 0.898004 0.105303
Si Si2 0.332705 0.892253 0.550480
Si Si3 0.674273 0.396544 0.131188
Si Si4 0.675975 0.784806 0.277650
Si Si5 0.829374 0.106190 0.198898
Si Si6 0.322471 0.600891 0.233801
Si Si7 0.324921 0.726489 0.050593
Si Si8 0.175690 0.104432 0.358251
O O1 0.500000 0.887340 0.122470
O O2 0.221514 0.871193 0.147262
O O3 0.295263 0.831967 0.062582
O O4 0.296831 0.000000 0.087972
O O5 0.279749 0.855123 0.500000
O O6 0.500000 0.856641 0.561161
O O7 0.222094 0.859930 0.590914
O O8 0.333295 0.000000 0.548564
O O9 0.500000 0.373728 0.133099
O O10 0.704439 0.500000 0.117109
O O11 0.741641 0.376611 0.182316
O O12 0.749379 0.335057 0.091029
O O13 0.500000 0.791458 0.284922
O O14 0.720711 0.841596 0.233074
O O15 0.727628 0.679434 0.269721
O O16 0.754373 0.825869 0.322291
O O17 0.000000 0.137940 0.205849
O O18 0.812498 0.000000 0.209768
O O19 0.500000 0.598694 0.230126
O O20 0.265831 0.500000 0.249738
O O21 0.500000 0.705436 0.048005
O O22 0.253684 0.706441 0.000000
O O23 0.000000 0.109267 0.353334
O O24 0.230787 0.000000 0.349681
#
# Coordination Sequence:
#
# PCOD8196483 Si02
#       8
#     8   8   8   8   8   8   8   8
#     4   9  17  29  44  60  78 104 140 175 205 244
#     4   8  14  26  44  64  87 119 161 205 240 267
#     4   8  13  22  36  54  79 108 132 158 200 255
#     4  11  20  29  46  68  90 118 149 183 224 267
#     4  10  20  32  45  62  86 115 145 178 217 260
#     4   8  15  28  45  65  87 111 142 180 221 265
#     4   9  16  24  36  58  85 107 129 162 204 248
#     4  10  20  31  42  61  94 132 164 193 226 265
#
# _framework density 16.791651999999999
#
# number of rings (size 3 to 8) (size 9 to 14) (size 15 to 20)
#    0.000    2.875    0.000    3.375    0.000    5.750 
#    0.000    3.750    0.000    1.875    0.000    1.750 
#    0.000    0.500    0.000   10.250    0.000    5.875 
#
# Total GULP energy -793101.409766 kJ/mol
# GULP energy per Si atom -12392.209528 kJ/mol
# Density = 1.675343 g / cm^3
# Si number density = 16.791652 Si / 1000 Ang^3
#
#
#
# Elastic Constant Matrix: (Units=GPa)
#
#
# Indices 1 2 3 4 5 6 
#
# 1 36.2873 25.8826 29.1810 0.0000 0.0000 0.0000
# 2 25.8826 79.6784 69.4247 0.0000 0.0000 0.0000
# 3 29.1810 69.4247 111.5099 0.0000 0.0000 0.0000
# 4 0.0000 0.0000 0.0000 17.3758 0.0000 0.0000
# 5 0.0000 0.0000 0.0000 0.0000 4.1222 0.0000
# 6 0.0000 0.0000 0.0000 0.0000 0.0000 8.3699
#
#
#
# Elastic Compliance Matrix: (Units=1/GPa)
#
#
# Indices 1 2 3 4 5 6 
#
# 1 0.037012 -0.007833 -0.004809 0.000000 0.000000 0.000000
# 2 -0.007833 0.029088 -0.016060 0.000000 0.000000 0.000000
# 3 -0.004809 -0.016060 0.020225 0.000000 0.000000 0.000000
# 4 0.000000 0.000000 0.000000 0.057551 0.000000 0.000000
# 5 0.000000 0.000000 0.000000 0.000000 0.242588 0.000000
# 6 0.000000 0.000000 0.000000 0.000000 0.000000 0.119476
#
#
# Mechanical properties :
#
#
# Convention : Reuss Voigt Hill
#
# Bulk Modulus (GPa) = 34.57652 52.93914 43.75783
# Shear Modulus (GPa) = 8.72622 12.83939 10.78281
#
# Velocity S-wave (km/s) = 2.28211 2.76819 2.53682
# Velocity P-wave (km/s) = 5.25169 6.46627 5.89037
#
# Compressibility (1/GPa) = 0.02892136
#
# Stress axis : x y z
#
# Youngs Moduli (GPa) = 27.01830 34.37804 49.44301
#
# Poissons Ratio (x) = 0.26927 0.23778
# Poissons Ratio (y) = 0.21162 0.79407
# Poissons Ratio (z) = 0.12994 0.55212
#
# Static dielectric constant tensor:
#      x y z
#    x 2.897690 0.000000 0.000000 
#    y 0.000000 3.240620 0.000000 
#    z 0.000000 0.000000 3.462040 
# 
# 
# High freq. dielectric constant tensor:
#      x y z
#    x 1.611750 0.000000 0.000000 
#    y 0.000000 1.629780 0.000000 
#    z 0.000000 0.000000 1.640630 
# 
# From -- ./inp_files/34473.got.cif
#   From: 2010.03.12/outbox.cif.g09.slc.cpg/sg47_18_cif.got.tgz:34473.got - 2010.04.14 03:12:58.
