data_PCOD8197365
_publ_section_title
;
Structure prediction by ZEFSAII (Michael W. Deem and Ramdas Pophale) SiO2 
 PCOD8197365
Probable space group: P M M M
;
_chemical_formula_sum "Si O2"
_cell_formula_units_Z 52
_cell_length_a 8.683207
_cell_length_b 33.935176
_cell_length_c 9.107737
_cell_angle_alpha 90.000000
_cell_angle_beta 90.000000
_cell_angle_gamma 90.000000
_cell_volume 2683.741868
_symmetry_space_group_name_H-M "P M M M"
_symmetry_group_IT_number 47
_symmetry_cell_setting 'orthorhombic'
loop_
_space_group_symop_operation_xyz
x,y,z
-x,-y,z
x,-y,-z
-x,y,-z
-x,-y,-z
x,y,-z
-x,y,z
x,-y,z
loop_
_atom_site_type_symbol
_atom_site_label
_atom_site_fract_x
_atom_site_fract_y
_atom_site_fract_z
Si Si1 0.183147 0.956642 0.165015
Si Si2 0.183845 0.118368 0.335156
Si Si3 0.817347 0.271427 0.665746
Si Si4 0.681475 0.345319 0.830304
Si Si5 0.683308 0.423247 0.665958
Si Si6 0.683777 0.500000 0.166243
Si Si7 0.183556 0.194787 0.834311
O O1 0.250489 0.922394 0.268711
O O2 0.000000 0.954679 0.165318
O O3 0.236827 0.000000 0.221149
O O4 0.243948 0.949573 0.000000
O O5 0.246596 0.122658 0.500000
O O6 0.246651 0.154979 0.240475
O O7 0.000000 0.118035 0.333319
O O8 0.751737 0.273566 0.500000
O O9 0.763531 0.308509 0.757958
O O10 0.753021 0.232029 0.743121
O O11 0.000000 0.270593 0.663209
O O12 0.500000 0.340559 0.810442
O O13 0.742460 0.384573 0.750244
O O14 0.728713 0.347973 0.000000
O O15 0.747795 0.422890 0.500000
O O16 0.500000 0.424326 0.665008
O O17 0.747699 0.461551 0.750072
O O18 0.500000 0.500000 0.165813
O O19 0.746801 0.500000 0.000000
O O20 0.000000 0.194746 0.834698
O O21 0.247581 0.197148 0.000000
#
# Coordination Sequence:
#
# PCOD8197365 Si02
#       7
#     8   8   8   8   8   4   8
#     4   8  13  20  28  38  55  82 117 156 198 246
#     4   9  15  21  30  45  65  89 120 161 207 252
#     4  10  20  33  49  69  92 118 151 191 232 273
#     4  10  20  33  49  70  96 125 156 189 227 272
#     4   9  16  26  41  62  89 120 152 186 225 267
#     4   9  15  23  37  59  88 119 150 185 224 265
#     4   9  16  26  40  56  75 101 134 173 216 260
#
# _framework density 19.375931999999999
#
# number of rings (size 3 to 8) (size 9 to 14) (size 15 to 20)
#    0.000    2.846    0.000    3.000    0.000    8.615 
#    0.000    1.538    0.000    0.000    0.000    0.538 
#    0.000    4.308    0.000    0.000    0.000    0.769 
#
# Total GULP energy -644680.281767 kJ/mol
# GULP energy per Si atom -12397.697726 kJ/mol
# Density = 1.933183 g / cm^3
# Si number density = 19.375932 Si / 1000 Ang^3
#
#
#
# Elastic Constant Matrix: (Units=GPa)
#
#
# Indices 1 2 3 4 5 6 
#
# 1 2.2938 6.6099 7.7700 0.0000 0.0000 0.0000
# 2 6.6099 189.5138 91.9127 0.0000 0.0000 0.0000
# 3 7.7700 91.9127 171.4369 0.0000 0.0000 0.0000
# 4 0.0000 0.0000 0.0000 45.3624 0.0000 0.0000
# 5 0.0000 0.0000 0.0000 0.0000 11.1892 0.0000
# 6 0.0000 0.0000 0.0000 0.0000 0.0000 52.9681
#
#
#
# Elastic Compliance Matrix: (Units=1/GPa)
#
#
# Indices 1 2 3 4 5 6 
#
# 1 0.526585 -0.009178 -0.018946 0.000000 0.000000 0.000000
# 2 -0.009178 0.007291 -0.003493 0.000000 0.000000 0.000000
# 3 -0.018946 -0.003493 0.008564 0.000000 0.000000 0.000000
# 4 0.000000 0.000000 0.000000 0.022045 0.000000 0.000000
# 5 0.000000 0.000000 0.000000 0.000000 0.089372 0.000000
# 6 0.000000 0.000000 0.000000 0.000000 0.000000 0.018879
#
#
# Mechanical properties :
#
#
# Convention : Reuss Voigt Hill
#
# Bulk Modulus (GPa) = 2.08678 63.98109 33.03394
# Shear Modulus (GPa) = 5.58220 39.03405 22.30813
#
# Velocity S-wave (km/s) = 1.69919 4.49326 3.39681
# Velocity P-wave (km/s) = 2.22014 7.74673 5.69828
#
# Compressibility (1/GPa) = 0.47920684
#
# Stress axis : x y z
#
# Youngs Moduli (GPa) = 1.89903 137.15964 116.76292
#
# Poissons Ratio (x) = 1.25883 2.21218
# Poissons Ratio (y) = 0.01743 0.40783
# Poissons Ratio (z) = 0.03598 0.47908
#
# Static dielectric constant tensor:
#      x y z
#    x 2.713530 0.000000 0.000000 
#    y 0.000000 3.849830 0.000000 
#    z 0.000000 0.000000 3.834080 
# 
# 
# High freq. dielectric constant tensor:
#      x y z
#    x 1.665080 0.000000 0.000000 
#    y 0.000000 1.776090 0.000000 
#    z 0.000000 0.000000 1.770690 
# 
# From -- ./inp_files/4830.got.cif
#   From: 2010.03.12/outbox.cif.g09.slc.cpg/sg47_3_cif.got.tgz:4830.got - 2010.04.14 03:12:58.
