data_PCOD8197030
_publ_section_title
;
Structure prediction by ZEFSAII (Michael W. Deem and Ramdas Pophale) SiO2 
 PCOD8197030
Probable space group: P M M M
;
_chemical_formula_sum "Si O2"
_cell_formula_units_Z 64
_cell_length_a 9.121014
_cell_length_b 22.947378
_cell_length_c 17.414828
_cell_angle_alpha 90.000000
_cell_angle_beta 90.000000
_cell_angle_gamma 90.000000
_cell_volume 3644.981945
_symmetry_space_group_name_H-M "P M M M"
_symmetry_group_IT_number 47
_symmetry_cell_setting 'orthorhombic'
loop_
_space_group_symop_operation_xyz
x,y,z
-x,-y,z
x,-y,-z
-x,y,-z
-x,-y,-z
x,y,-z
-x,y,z
x,-y,z
loop_
_atom_site_type_symbol
_atom_site_label
_atom_site_fract_x
_atom_site_fract_y
_atom_site_fract_z
Si Si1 0.829104 0.567692 0.733398
Si Si2 0.338767 0.238228 0.682197
Si Si3 0.831469 0.241832 0.909927
Si Si4 0.827534 0.153554 0.414330
Si Si5 0.336766 0.568910 0.584228
Si Si6 0.664450 0.149225 0.178295
Si Si7 0.828018 0.933043 0.282122
Si Si8 0.673606 0.669792 0.198442
O O1 0.792089 0.500000 0.748013
O O2 0.778766 0.588286 0.648575
O O3 0.740727 0.604874 0.796946
O O4 0.000000 0.580513 0.741702
O O5 0.500000 0.244037 0.645481
O O6 0.230889 0.215942 0.615809
O O7 0.341443 0.192840 0.751181
O O8 0.288872 0.299297 0.719735
O O9 0.755962 0.180025 0.889466
O O10 0.748743 0.295976 0.871160
O O11 0.000000 0.240248 0.881806
O O12 0.820593 0.251590 0.000000
O O13 0.766760 0.141250 0.500000
O O14 0.776206 0.101059 0.358870
O O15 0.000000 0.158512 0.415556
O O16 0.290475 0.593662 0.500000
O O17 0.500000 0.591959 0.606075
O O18 0.340918 0.500000 0.579417
O O19 0.500000 0.134419 0.149361
O O20 0.744533 0.090365 0.206604
O O21 0.000000 0.924159 0.268152
O O22 0.785957 0.000000 0.294574
O O23 0.500000 0.667904 0.183233
#
# Coordination Sequence:
#
# PCOD8197030 Si02
#       8
#     8   8   8   8   8   8   8   8
#     4  10  20  32  48  72 101 133 168 206 249 297
#     4   8  16  30  46  65  87 116 156 198 242 287
#     4  10  20  34  55  82 107 128 152 189 240 294
#     4   9  17  28  43  65  93 126 165 209 254 295
#     4   8  14  26  44  64  87 118 157 200 243 284
#     4   9  17  30  49  72  98 127 160 199 239 283
#     4   9  17  29  46  68  96 133 173 210 250 295
#     4  10  20  34  53  75  99 128 162 200 240 288
#
# _framework density 17.558387
#
# number of rings (size 3 to 8) (size 9 to 14) (size 15 to 20)
#    0.000    2.875    0.000    2.625    0.000    6.250 
#    0.000    3.125    0.000    1.500    0.000    8.750 
#    0.000    0.000    0.000    0.000    0.000    0.000 
#
# Total GULP energy -793290.476036 kJ/mol
# GULP energy per Si atom -12395.163688 kJ/mol
# Density = 1.751842 g / cm^3
# Si number density = 17.558387 Si / 1000 Ang^3
#
#
#
# Elastic Constant Matrix: (Units=GPa)
#
#
# Indices 1 2 3 4 5 6 
#
# 1 95.3706 46.2658 48.0928 0.0000 0.0000 0.0000
# 2 46.2658 80.3105 40.8980 0.0000 0.0000 0.0000
# 3 48.0928 40.8980 75.2020 0.0000 0.0000 0.0000
# 4 0.0000 0.0000 0.0000 18.8872 0.0000 0.0000
# 5 0.0000 0.0000 0.0000 0.0000 22.7104 0.0000
# 6 0.0000 0.0000 0.0000 0.0000 0.0000 25.2465
#
#
#
# Elastic Compliance Matrix: (Units=1/GPa)
#
#
# Indices 1 2 3 4 5 6 
#
# 1 0.017346 -0.006008 -0.007826 0.000000 0.000000 0.000000
# 2 -0.006008 0.019302 -0.006655 0.000000 0.000000 0.000000
# 3 -0.007826 -0.006655 0.021922 0.000000 0.000000 0.000000
# 4 0.000000 0.000000 0.000000 0.052946 0.000000 0.000000
# 5 0.000000 0.000000 0.000000 0.000000 0.044033 0.000000
# 6 0.000000 0.000000 0.000000 0.000000 0.000000 0.039610
#
#
# Mechanical properties :
#
#
# Convention : Reuss Voigt Hill
#
# Bulk Modulus (GPa) = 56.84338 57.93294 57.38816
# Shear Modulus (GPa) = 20.66122 21.07723 20.86923
#
# Velocity S-wave (km/s) = 3.43405 3.46845 3.45129
# Velocity P-wave (km/s) = 6.94030 7.00759 6.97403
#
# Compressibility (1/GPa) = 0.01759220
#
# Stress axis : x y z
#
# Youngs Moduli (GPa) = 57.64943 51.80904 45.61688
#
# Poissons Ratio (x) = 0.31124 0.35700
# Poissons Ratio (y) = 0.34633 0.30359
# Poissons Ratio (z) = 0.45117 0.34480
#
# Static dielectric constant tensor:
#      x y z
#    x 3.400490 0.000000 0.000000 
#    y 0.000000 3.252800 0.000000 
#    z 0.000000 0.000000 3.156360 
# 
# 
# High freq. dielectric constant tensor:
#      x y z
#    x 1.683930 0.000000 0.000000 
#    y 0.000000 1.663260 0.000000 
#    z 0.000000 0.000000 1.653740 
# 
# From -- ./inp_files/27142.got.cif
#   From: 2010.03.12/outbox.cif.g09.slc.cpg/sg47_14_cif.got.tgz:27142.got - 2010.04.14 03:12:58.
