data_PCOD8197559
_publ_section_title
;
Structure prediction by ZEFSAII (Michael W. Deem and Ramdas Pophale) SiO2 
 PCOD8197559
Probable space group: P M M M
;
_chemical_formula_sum "Si O2"
_cell_formula_units_Z 32
_cell_length_a 9.312737
_cell_length_b 20.611693
_cell_length_c 9.229320
_cell_angle_alpha 90.000000
_cell_angle_beta 90.000000
_cell_angle_gamma 90.000000
_cell_volume 1771.579751
_symmetry_space_group_name_H-M "P M M M"
_symmetry_group_IT_number 47
_symmetry_cell_setting 'orthorhombic'
loop_
_space_group_symop_operation_xyz
x,y,z
-x,-y,z
x,-y,-z
-x,y,-z
-x,-y,-z
x,y,-z
-x,y,z
x,-y,z
loop_
_atom_site_type_symbol
_atom_site_label
_atom_site_fract_x
_atom_site_fract_y
_atom_site_fract_z
Si Si1 0.165325 0.374991 0.671349
Si Si2 0.341295 0.880481 0.171888
Si Si3 0.160249 0.000000 0.826774
Si Si4 0.662844 0.500000 0.327633
Si Si5 0.666536 0.264950 0.830793
O O1 0.179959 0.368968 0.500000
O O2 0.253853 0.436791 0.730377
O O3 0.230297 0.310833 0.740573
O O4 0.000000 0.383052 0.718205
O O5 0.500000 0.893644 0.235063
O O6 0.236046 0.935297 0.235245
O O7 0.290159 0.808299 0.214996
O O8 0.347554 0.885294 0.000000
O O9 0.000000 0.000000 0.765688
O O10 0.162850 0.000000 0.000000
O O11 0.500000 0.500000 0.266917
O O12 0.662295 0.500000 0.500000
O O13 0.500000 0.278321 0.792751
O O14 0.693981 0.276562 0.000000
#
# Coordination Sequence:
#
# PCOD8197559 Si02
#       5
#     8   8   4   4   8
#     4  10  20  33  50  73  99 125 154 190 233 281
#     4   8  14  25  40  58  84 118 152 187 228 271
#     4   9  15  21  33  57  86 115 150 189 226 268
#     4   9  17  31  52  73  92 119 156 196 234 271
#     4   9  18  32  49  70  96 126 160 196 234 277
#
# _framework density 18.062974000000001
#
# number of rings (size 3 to 8) (size 9 to 14) (size 15 to 20)
#    0.000    3.000    0.000    3.000    0.000    6.000 
#    0.000    3.125    0.000    3.750    0.000    0.875 
#    0.000    7.000    0.000    0.000    0.000    0.000 
#
# Total GULP energy -396692.767806 kJ/mol
# GULP energy per Si atom -12396.648994 kJ/mol
# Density = 1.802186 g / cm^3
# Si number density = 18.062974 Si / 1000 Ang^3
#
#
#
# Elastic Constant Matrix: (Units=GPa)
#
#
# Indices 1 2 3 4 5 6 
#
# 1 158.5552 109.0303 26.3616 0.0000 0.0000 0.0000
# 2 109.0303 173.4357 24.5642 0.0000 0.0000 0.0000
# 3 26.3616 24.5642 13.0016 0.0000 0.0000 0.0000
# 4 0.0000 0.0000 0.0000 -51.7621 0.0000 0.0000
# 5 0.0000 0.0000 0.0000 0.0000 20.1800 0.0000
# 6 0.0000 0.0000 0.0000 0.0000 0.0000 26.8843
#
#
#
# Elastic Compliance Matrix: (Units=1/GPa)
#
#
# Indices 1 2 3 4 5 6 
#
# 1 0.012904 -0.006017 -0.014797 0.000000 0.000000 0.000000
# 2 -0.006017 0.010678 -0.007974 0.000000 0.000000 0.000000
# 3 -0.014797 -0.007974 0.121983 0.000000 0.000000 0.000000
# 4 0.000000 0.000000 0.000000 -0.019319 0.000000 0.000000
# 5 0.000000 0.000000 0.000000 0.000000 0.049554 0.000000
# 6 0.000000 0.000000 0.000000 0.000000 0.000000 0.037196
#
#
# Mechanical properties :
#
#
# Convention : Reuss Voigt Hill
#
# Bulk Modulus (GPa) = 11.36520 73.87832 42.62176
# Shear Modulus (GPa) = 16.67212 11.39622 14.03417
#
# Velocity S-wave (km/s) = 3.04139 2.51453 2.79042
# Velocity P-wave (km/s) = 4.31729 7.02991 5.83347
#
# Compressibility (1/GPa) = 0.08798793
#
# Stress axis : x y z
#
# Youngs Moduli (GPa) = 77.49240 93.65393 8.19789
#
# Poissons Ratio (x) = 0.56348 0.12131
# Poissons Ratio (y) = 0.46624 0.06537
# Poissons Ratio (z) = 1.14668 0.74684
#
# Static dielectric constant tensor:
#      x y z
#    x 3.537440 0.000000 0.000000 
#    y 0.000000 3.583000 0.000000 
#    z 0.000000 0.000000 2.723460 
# 
# 
# High freq. dielectric constant tensor:
#      x y z
#    x 1.706370 0.000000 0.000000 
#    y 0.000000 1.717430 0.000000 
#    z 0.000000 0.000000 1.634030 
# 
# From -- ./inp_files/3569.got.cif
#   From: 2010.03.12/outbox.cif.g09.slc.cpg/sg47_2_cif.got.tgz:3569.got - 2010.04.14 03:12:58.
