data_PCOD8197728
_publ_section_title
;
Structure prediction by ZEFSAII (Michael W. Deem and Ramdas Pophale) SiO2 
 PCOD8197728
Probable space group: P M M M
;
_chemical_formula_sum "Si O2"
_cell_formula_units_Z 40
_cell_length_a 12.169338
_cell_length_b 20.133338
_cell_length_c 8.981660
_cell_angle_alpha 90.000000
_cell_angle_beta 90.000000
_cell_angle_gamma 90.000000
_cell_volume 2200.591084
_symmetry_space_group_name_H-M "P M M M"
_symmetry_group_IT_number 47
_symmetry_cell_setting 'orthorhombic'
loop_
_space_group_symop_operation_xyz
x,y,z
-x,-y,z
x,-y,-z
-x,y,-z
-x,-y,-z
x,y,-z
-x,y,z
x,-y,z
loop_
_atom_site_type_symbol
_atom_site_label
_atom_site_fract_x
_atom_site_fract_y
_atom_site_fract_z
Si Si1 0.717264 0.241591 0.673312
Si Si2 0.500000 0.395947 0.168817
Si Si3 0.500000 0.238245 0.833362
Si Si4 0.880011 0.000000 0.176124
Si Si5 0.129301 0.500000 0.825732
Si Si6 0.721534 0.395074 0.324165
Si Si7 0.869215 0.856844 0.169523
O O1 0.697727 0.233832 0.500000
O O2 0.609016 0.212192 0.752184
O O3 0.739476 0.317986 0.715746
O O4 0.821752 0.199283 0.723469
O O5 0.500000 0.317144 0.170652
O O6 0.607581 0.422098 0.254737
O O7 0.500000 0.423469 0.000000
O O8 0.500000 0.210007 0.000000
O O9 0.821539 0.069990 0.219667
O O10 0.000000 0.000000 0.251959
O O11 0.895651 0.000000 0.000000
O O12 0.178255 0.434322 0.749534
O O13 0.000000 0.500000 0.796816
O O14 0.157721 0.500000 0.000000
O O15 0.718997 0.407824 0.500000
O O16 0.000000 0.856738 0.185123
O O17 0.834409 0.840898 0.000000
#
# Coordination Sequence:
#
# PCOD8197728 Si02
#       7
#     8   4   4   4   4   8   8
#     4  10  20  33  51  77 107 135 165 205 252 301
#     4   9  17  32  56  83 106 126 159 210 257 294
#     4   9  17  31  52  75 100 133 170 206 248 297
#     4   7  12  26  47  70  97 130 169 211 251 291
#     4  11  25  42  57  74  99 133 173 215 256 297
#     4  10  21  37  56  77 103 135 169 205 250 306
#     4   9  17  30  50  75 102 134 172 211 250 295
#
# _framework density 18.176936000000001
#
# number of rings (size 3 to 8) (size 9 to 14) (size 15 to 20)
#    0.000    2.600    0.000    3.300    0.000    7.200 
#    0.000    6.500    0.000    2.400    0.000    4.200 
#    0.000    0.000    0.000    0.000    0.000    0.000 
#
# Total GULP energy -495836.059877 kJ/mol
# GULP energy per Si atom -12395.901497 kJ/mol
# Density = 1.813556 g / cm^3
# Si number density = 18.176936 Si / 1000 Ang^3
#
#
#
# Elastic Constant Matrix: (Units=GPa)
#
#
# Indices 1 2 3 4 5 6 
#
# 1 90.5413 49.1351 50.8222 0.0000 0.0000 0.0000
# 2 49.1351 98.0753 49.2662 0.0000 0.0000 0.0000
# 3 50.8222 49.2662 101.6975 0.0000 0.0000 0.0000
# 4 0.0000 0.0000 0.0000 22.3823 0.0000 0.0000
# 5 0.0000 0.0000 0.0000 0.0000 27.1622 0.0000
# 6 0.0000 0.0000 0.0000 0.0000 0.0000 3.1904
#
#
#
# Elastic Compliance Matrix: (Units=1/GPa)
#
#
# Indices 1 2 3 4 5 6 
#
# 1 0.017530 -0.005791 -0.005955 0.000000 0.000000 0.000000
# 2 -0.005791 0.015389 -0.004561 0.000000 0.000000 0.000000
# 3 -0.005955 -0.004561 0.015018 0.000000 0.000000 0.000000
# 4 0.000000 0.000000 0.000000 0.044678 0.000000 0.000000
# 5 0.000000 0.000000 0.000000 0.000000 0.036816 0.000000
# 6 0.000000 0.000000 0.000000 0.000000 0.000000 0.313445
#
#
# Mechanical properties :
#
#
# Convention : Reuss Voigt Hill
#
# Bulk Modulus (GPa) = 65.26008 65.41790 65.33899
# Shear Modulus (GPa) = 10.40372 19.95299 15.17836
#
# Velocity S-wave (km/s) = 2.39500 3.31676 2.89283
# Velocity P-wave (km/s) = 6.60520 7.12289 6.86892
#
# Compressibility (1/GPa) = 0.01532330
#
# Stress axis : x y z
#
# Youngs Moduli (GPa) = 57.04494 64.98334 66.58471
#
# Poissons Ratio (x) = 0.37632 0.39651
# Poissons Ratio (y) = 0.33035 0.30368
# Poissons Ratio (z) = 0.33970 0.29638
#
# Static dielectric constant tensor:
#      x y z
#    x 3.222310 0.000000 0.000000 
#    y 0.000000 3.424590 0.000000 
#    z 0.000000 0.000000 3.344550 
# 
# 
# High freq. dielectric constant tensor:
#      x y z
#    x 1.688790 0.000000 0.000000 
#    y 0.000000 1.697870 0.000000 
#    z 0.000000 0.000000 1.704200 
# 
# From -- ./inp_files/4181.got.cif
#   From: 2010.03.12/outbox.cif.g09.slc.cpg/sg47_3_cif.got.tgz:4181.got - 2010.04.14 03:12:58.
