data_PCOD8197219
_publ_section_title
;
Structure prediction by ZEFSAII (Michael W. Deem and Ramdas Pophale) SiO2 
 PCOD8197219
Probable space group: P M M M
;
_chemical_formula_sum "Si O2"
_cell_formula_units_Z 64
_cell_length_a 13.992736
_cell_length_b 25.528645
_cell_length_c 9.013483
_cell_angle_alpha 90.000000
_cell_angle_beta 90.000000
_cell_angle_gamma 90.000000
_cell_volume 3219.756647
_symmetry_space_group_name_H-M "P M M M"
_symmetry_group_IT_number 47
_symmetry_cell_setting 'orthorhombic'
loop_
_space_group_symop_operation_xyz
x,y,z
-x,-y,z
x,-y,-z
-x,y,-z
-x,-y,-z
x,y,-z
-x,y,z
x,-y,z
loop_
_atom_site_type_symbol
_atom_site_label
_atom_site_fract_x
_atom_site_fract_y
_atom_site_fract_z
Si Si1 0.889268 0.560619 0.826443
Si Si2 0.395809 0.937893 0.333910
Si Si3 0.203033 0.341292 0.324474
Si Si4 0.389144 0.443753 0.338627
Si Si5 0.210258 0.939669 0.173385
Si Si6 0.391179 0.343607 0.827689
Si Si7 0.111557 0.249088 0.164288
Si Si8 0.112103 0.149621 0.335571
O O1 0.864833 0.500000 0.787903
O O2 0.820438 0.599565 0.732500
O O3 0.000000 0.571975 0.786202
O O4 0.872057 0.571604 0.000000
O O5 0.371614 0.918222 0.500000
O O6 0.500000 0.915919 0.284266
O O7 0.314736 0.918200 0.221240
O O8 0.399750 0.000000 0.331676
O O9 0.197368 0.339675 0.500000
O O10 0.306681 0.317775 0.269606
O O11 0.125672 0.301841 0.257740
O O12 0.349154 0.422481 0.500000
O O13 0.500000 0.452165 0.359637
O O14 0.341373 0.500000 0.301097
O O15 0.371289 0.405032 0.202283
O O16 0.130938 0.905213 0.253958
O O17 0.195608 0.000000 0.221579
O O18 0.198570 0.932505 0.000000
O O19 0.500000 0.327827 0.777392
O O20 0.377267 0.331078 0.000000
O O21 0.157708 0.198560 0.246071
O O22 0.000000 0.239623 0.147955
O O23 0.157678 0.254367 0.000000
O O24 0.157663 0.148509 0.500000
O O25 0.000000 0.157207 0.347743
#
# Coordination Sequence:
#
# PCOD8197219 Si02
#       8
#     8   8   8   8   8   8   8   8
#     4   9  19  37  59  82 111 146 181 220 269 324
#     4   8  14  26  45  69  99 138 184 232 279 324
#     4  12  24  36  56  84 112 143 179 220 267 323
#     4   8  14  26  44  65  91 124 161 203 252 303
#     4  10  20  32  49  77 113 152 191 229 271 323
#     4  10  21  36  53  73  99 134 177 222 265 312
#     4  10  21  39  63  87 111 139 174 220 270 319
#     4  10  21  37  57  81 110 144 183 227 273 321
#
# _framework density 19.877279999999999
#
# number of rings (size 3 to 8) (size 9 to 14) (size 15 to 20)
#    0.000    2.375    0.000    4.125    0.000    6.250 
#    0.000    4.375    0.000    0.750    0.000    0.000 
#    0.000    0.000    0.000    0.000    0.000    0.000 
#
# Total GULP energy -793002.532575 kJ/mol
# GULP energy per Si atom -12390.664571 kJ/mol
# Density = 1.983204 g / cm^3
# Si number density = 19.877280 Si / 1000 Ang^3
#
#
#
# Elastic Constant Matrix: (Units=GPa)
#
#
# Indices 1 2 3 4 5 6 
#
# 1 54.1441 14.8756 31.1024 0.0000 0.0000 0.0000
# 2 14.8756 83.6747 47.1054 0.0000 0.0000 0.0000
# 3 31.1024 47.1054 125.6680 0.0000 0.0000 0.0000
# 4 0.0000 0.0000 0.0000 27.1726 0.0000 0.0000
# 5 0.0000 0.0000 0.0000 0.0000 26.3132 0.0000
# 6 0.0000 0.0000 0.0000 0.0000 0.0000 10.6539
#
#
#
# Elastic Compliance Matrix: (Units=1/GPa)
#
#
# Indices 1 2 3 4 5 6 
#
# 1 0.021603 -0.001053 -0.004952 0.000000 0.000000 0.000000
# 2 -0.001053 0.015199 -0.005437 0.000000 0.000000 0.000000
# 3 -0.004952 -0.005437 0.011221 0.000000 0.000000 0.000000
# 4 0.000000 0.000000 0.000000 0.036802 0.000000 0.000000
# 5 0.000000 0.000000 0.000000 0.000000 0.038004 0.000000
# 6 0.000000 0.000000 0.000000 0.000000 0.000000 0.093863
#
#
# Mechanical properties :
#
#
# Convention : Reuss Voigt Hill
#
# Bulk Modulus (GPa) = 39.77720 49.96151 44.86935
# Shear Modulus (GPa) = 20.16504 24.18817 22.17661
#
# Velocity S-wave (km/s) = 3.18854 3.49216 3.34380
# Velocity P-wave (km/s) = 5.79746 6.43815 6.12619
#
# Compressibility (1/GPa) = 0.02514003
#
# Stress axis : x y z
#
# Youngs Moduli (GPa) = 46.28961 65.79488 89.11916
#
# Poissons Ratio (x) = 0.06927 0.44132
# Poissons Ratio (y) = 0.04873 0.48450
# Poissons Ratio (z) = 0.22923 0.35770
#
# Static dielectric constant tensor:
#      x y z
#    x 3.787110 0.000000 0.000000 
#    y 0.000000 3.403680 0.000000 
#    z 0.000000 0.000000 3.736880 
# 
# 
# High freq. dielectric constant tensor:
#      x y z
#    x 1.771300 0.000000 0.000000 
#    y 0.000000 1.741280 0.000000 
#    z 0.000000 0.000000 1.779200 
# 
# From -- ./inp_files/7924.got.cif
#   From: 2010.03.12/outbox.cif.g09.slc.cpg/sg47_4_cif.got.tgz:7924.got - 2010.04.14 03:12:58.
