data_PCOD8197624
_publ_section_title
;
Structure prediction by ZEFSAII (Michael W. Deem and Ramdas Pophale) SiO2 
 PCOD8197624
Probable space group: P M M M
;
_chemical_formula_sum "Si O2"
_cell_formula_units_Z 52
_cell_length_a 14.211774
_cell_length_b 8.824967
_cell_length_c 23.165268
_cell_angle_alpha 90.000000
_cell_angle_beta 90.000000
_cell_angle_gamma 90.000000
_cell_volume 2905.351695
_symmetry_space_group_name_H-M "P M M M"
_symmetry_group_IT_number 47
_symmetry_cell_setting 'orthorhombic'
loop_
_space_group_symop_operation_xyz
x,y,z
-x,-y,z
x,-y,-z
-x,y,-z
-x,-y,-z
x,y,-z
-x,y,z
x,-y,z
loop_
_atom_site_type_symbol
_atom_site_label
_atom_site_fract_x
_atom_site_fract_y
_atom_site_fract_z
Si Si1 0.106473 0.676343 0.104823
Si Si2 0.104315 0.827755 0.775767
Si Si3 0.714029 0.173859 0.934841
Si Si4 0.611792 0.829023 0.500000
Si Si5 0.392949 0.322000 0.384076
Si Si6 0.610116 0.675930 0.168496
Si Si7 0.295321 0.825407 0.277514
O O1 0.126723 0.500000 0.095230
O O2 0.123883 0.714015 0.171855
O O3 0.177431 0.773053 0.066086
O O4 0.000000 0.718565 0.086661
O O5 0.182705 0.799886 0.726827
O O6 0.000000 0.798966 0.749419
O O7 0.112730 0.000000 0.799313
O O8 0.651189 0.276990 0.893329
O O9 0.707510 0.000000 0.914582
O O10 0.676055 0.192515 0.000000
O O11 0.500000 0.817049 0.500000
O O12 0.650484 0.749066 0.442352
O O13 0.648425 0.000000 0.500000
O O14 0.500000 0.266104 0.373623
O O15 0.389430 0.500000 0.391247
O O16 0.330603 0.274386 0.330190
O O17 0.500000 0.708897 0.168366
O O18 0.632149 0.500000 0.179737
O O19 0.656589 0.775282 0.218264
O O20 0.320679 0.000000 0.289146
#
# Coordination Sequence:
#
# PCOD8197624 Si02
#       7
#     8   8   8   4   8   8   8
#     4  10  20  34  55  81 106 133 166 208 260 317
#     4   9  18  33  53  77 106 138 171 210 260 316
#     4  11  24  40  57  77 101 133 173 215 262 318
#     4   9  17  31  51  75 106 143 184 227 265 306
#     4  10  20  33  50  75 110 150 186 220 261 308
#     4  11  24  40  57  77 103 135 171 216 269 319
#     4  11  21  33  54  82 109 140 177 217 261 310
#
# _framework density 17.898004
#
# number of rings (size 3 to 8) (size 9 to 14) (size 15 to 20)
#    0.000    1.769    1.538    3.000    0.000    8.308 
#    0.000    3.077    0.000    0.000    0.000    0.538 
#    0.000    4.308    0.000    0.000    0.000    0.000 
#
# Total GULP energy -644903.196355 kJ/mol
# GULP energy per Si atom -12401.984545 kJ/mol
# Density = 1.785727 g / cm^3
# Si number density = 17.898004 Si / 1000 Ang^3
#
#
#
# Elastic Constant Matrix: (Units=GPa)
#
#
# Indices 1 2 3 4 5 6 
#
# 1 79.2235 25.2831 34.4990 0.0000 0.0000 0.0000
# 2 25.2831 59.1338 21.9856 0.0000 0.0000 0.0000
# 3 34.4990 21.9856 94.8883 0.0000 0.0000 0.0000
# 4 0.0000 0.0000 0.0000 29.1000 0.0000 0.0000
# 5 0.0000 0.0000 0.0000 0.0000 15.4741 0.0000
# 6 0.0000 0.0000 0.0000 0.0000 0.0000 26.1930
#
#
#
# Elastic Compliance Matrix: (Units=1/GPa)
#
#
# Indices 1 2 3 4 5 6 
#
# 1 0.016354 -0.005232 -0.004733 0.000000 0.000000 0.000000
# 2 -0.005232 0.020179 -0.002773 0.000000 0.000000 0.000000
# 3 -0.004733 -0.002773 0.012902 0.000000 0.000000 0.000000
# 4 0.000000 0.000000 0.000000 0.034364 0.000000 0.000000
# 5 0.000000 0.000000 0.000000 0.000000 0.064624 0.000000
# 6 0.000000 0.000000 0.000000 0.000000 0.000000 0.038178
#
#
# Mechanical properties :
#
#
# Convention : Reuss Voigt Hill
#
# Bulk Modulus (GPa) = 41.74135 44.08679 42.91407
# Shear Modulus (GPa) = 22.72062 24.25194 23.48628
#
# Velocity S-wave (km/s) = 3.56680 3.68504 3.62640
# Velocity P-wave (km/s) = 6.35100 6.54154 6.44697
#
# Compressibility (1/GPa) = 0.02395706
#
# Stress axis : x y z
#
# Youngs Moduli (GPa) = 61.14877 49.55663 77.50620
#
# Poissons Ratio (x) = 0.25929 0.36687
# Poissons Ratio (y) = 0.31994 0.21494
# Poissons Ratio (z) = 0.28944 0.13743
#
# Static dielectric constant tensor:
#      x y z
#    x 3.421930 0.000000 0.000000 
#    y 0.000000 3.427260 0.000000 
#    z 0.000000 0.000000 3.176360 
# 
# 
# High freq. dielectric constant tensor:
#      x y z
#    x 1.683160 0.000000 0.000000 
#    y 0.000000 1.707940 0.000000 
#    z 0.000000 0.000000 1.674960 
# 
# From -- ./inp_files/6929.got.cif
#   From: 2010.03.12/outbox.cif.g09.slc.cpg/sg47_4_cif.got.tgz:6929.got - 2010.04.14 03:12:58.
