data_PCOD8197179
_publ_section_title
;
Structure prediction by ZEFSAII (Michael W. Deem and Ramdas Pophale) SiO2 
 PCOD8197179
Probable space group: P M M M
;
_chemical_formula_sum "Si O2"
_cell_formula_units_Z 52
_cell_length_a 14.246204
_cell_length_b 8.910493
_cell_length_c 20.859230
_cell_angle_alpha 90.000000
_cell_angle_beta 90.000000
_cell_angle_gamma 90.000000
_cell_volume 2647.885279
_symmetry_space_group_name_H-M "P M M M"
_symmetry_group_IT_number 47
_symmetry_cell_setting 'orthorhombic'
loop_
_space_group_symop_operation_xyz
x,y,z
-x,-y,z
x,-y,-z
-x,y,-z
-x,-y,-z
x,y,-z
-x,y,z
x,-y,z
loop_
_atom_site_type_symbol
_atom_site_label
_atom_site_fract_x
_atom_site_fract_y
_atom_site_fract_z
Si Si1 0.207384 0.676662 0.428193
Si Si2 0.889266 0.831553 0.311120
Si Si3 0.892618 0.322747 0.180758
Si Si4 0.276655 0.176355 0.122270
Si Si5 0.393017 0.178499 0.000000
Si Si6 0.609039 0.670646 0.770625
Si Si7 0.601415 0.322546 0.626355
O O1 0.174463 0.718406 0.500000
O O2 0.198418 0.500000 0.415565
O O3 0.143450 0.760663 0.377598
O O4 0.315804 0.729823 0.420714
O O5 0.855677 0.735918 0.249786
O O6 0.000000 0.832248 0.313597
O O7 0.849384 0.000000 0.304349
O O8 0.884066 0.500000 0.180584
O O9 0.825964 0.254359 0.125442
O O10 0.000000 0.271447 0.167663
O O11 0.334875 0.215437 0.185284
O O12 0.260439 0.000000 0.117309
O O13 0.335695 0.237345 0.061657
O O14 0.500000 0.243043 0.000000
O O15 0.398134 0.000000 0.000000
O O16 0.500000 0.679062 0.788305
O O17 0.646002 0.500000 0.780189
O O18 0.626596 0.728060 0.698419
O O19 0.500000 0.254257 0.604912
O O20 0.591651 0.500000 0.626377
#
# Coordination Sequence:
#
# PCOD8197179 Si02
#       7
#     8   8   8   8   4   8   8
#     4  10  20  32  49  75 105 140 181 221 265 321
#     4  10  21  37  57  80 105 135 174 221 272 325
#     4  10  21  38  60  84 110 139 172 218 277 333
#     4  11  21  34  56  82 110 147 187 226 266 311
#     4   9  20  38  56  79 116 158 193 221 256 307
#     4   9  17  30  50  76 105 138 179 228 278 325
#     4   8  15  29  48  70  98 132 170 214 263 313
#
# _framework density 19.638314000000001
#
# number of rings (size 3 to 8) (size 9 to 14) (size 15 to 20)
#    0.000    2.385    0.000    3.692    0.000    4.923 
#    0.000    5.000    0.000    6.462    0.000    1.077 
#    0.000    0.000    0.000    0.000    0.000    0.000 
#
# Total GULP energy -644686.249067 kJ/mol
# GULP energy per Si atom -12397.812482 kJ/mol
# Density = 1.959362 g / cm^3
# Si number density = 19.638314 Si / 1000 Ang^3
#
#
#
# Elastic Constant Matrix: (Units=GPa)
#
#
# Indices 1 2 3 4 5 6 
#
# 1 80.2974 34.0967 58.0055 0.0000 0.0000 0.0000
# 2 34.0967 64.6830 35.5123 0.0000 0.0000 0.0000
# 3 58.0055 35.5123 89.3516 0.0000 0.0000 0.0000
# 4 0.0000 0.0000 0.0000 25.5627 0.0000 0.0000
# 5 0.0000 0.0000 0.0000 0.0000 32.2459 0.0000
# 6 0.0000 0.0000 0.0000 0.0000 0.0000 26.8682
#
#
#
# Elastic Compliance Matrix: (Units=1/GPa)
#
#
# Indices 1 2 3 4 5 6 
#
# 1 0.024857 -0.005428 -0.013979 0.000000 0.000000 0.000000
# 2 -0.005428 0.020960 -0.004807 0.000000 0.000000 0.000000
# 3 -0.013979 -0.004807 0.022177 0.000000 0.000000 0.000000
# 4 0.000000 0.000000 0.000000 0.039119 0.000000 0.000000
# 5 0.000000 0.000000 0.000000 0.000000 0.031012 0.000000
# 6 0.000000 0.000000 0.000000 0.000000 0.000000 0.037219
#
#
# Mechanical properties :
#
#
# Convention : Reuss Voigt Hill
#
# Bulk Modulus (GPa) = 51.10835 54.39568 52.75202
# Shear Modulus (GPa) = 21.71124 24.04988 22.88056
#
# Velocity S-wave (km/s) = 3.32860 3.50328 3.41706
# Velocity P-wave (km/s) = 6.39172 6.64251 6.51832
#
# Compressibility (1/GPa) = 0.01956627
#
# Stress axis : x y z
#
# Youngs Moduli (GPa) = 40.22985 47.70915 45.09100
#
# Poissons Ratio (x) = 0.25897 0.63035
# Poissons Ratio (y) = 0.21837 0.21674
# Poissons Ratio (z) = 0.56239 0.22933
#
# Static dielectric constant tensor:
#      x y z
#    x 4.470600 0.000000 0.000000 
#    y 0.000000 3.349360 0.000000 
#    z 0.000000 0.000000 3.550060 
# 
# 
# High freq. dielectric constant tensor:
#      x y z
#    x 1.779490 0.000000 0.000000 
#    y 0.000000 1.738640 0.000000 
#    z 0.000000 0.000000 1.752750 
# 
# From -- ./inp_files/30830.got.cif
#   From: 2010.03.12/outbox.cif.g09.slc.cpg/sg47_16_cif.got.tgz:30830.got - 2010.04.14 03:12:58.
