data_PCOD8197534
_publ_section_title
;
Structure prediction by ZEFSAII (Michael W. Deem and Ramdas Pophale) SiO2 
 PCOD8197534
Probable space group: P M M M
;
_chemical_formula_sum "Si O2"
_cell_formula_units_Z 44
_cell_length_a 8.199870
_cell_length_b 30.089439
_cell_length_c 9.634220
_cell_angle_alpha 90.000000
_cell_angle_beta 90.000000
_cell_angle_gamma 90.000000
_cell_volume 2377.046170
_symmetry_space_group_name_H-M "P M M M"
_symmetry_group_IT_number 47
_symmetry_cell_setting 'orthorhombic'
loop_
_space_group_symop_operation_xyz
x,y,z
-x,-y,z
x,-y,-z
-x,y,-z
-x,-y,-z
x,y,-z
-x,y,z
x,-y,z
loop_
_atom_site_type_symbol
_atom_site_label
_atom_site_fract_x
_atom_site_fract_y
_atom_site_fract_z
Si Si1 0.809903 0.550329 0.658123
Si Si2 0.690162 0.892159 0.663214
Si Si3 0.312172 0.626892 0.846090
Si Si4 0.000000 0.049557 0.664051
Si Si5 0.813658 0.282066 0.161076
Si Si6 0.311489 0.190315 0.846039
O O1 0.754548 0.557852 0.500000
O O2 0.769296 0.500000 0.703781
O O3 0.711916 0.583343 0.755113
O O4 0.000000 0.560082 0.674580
O O5 0.702256 0.882871 0.500000
O O6 0.500000 0.906221 0.699637
O O7 0.827893 0.927803 0.711123
O O8 0.748662 0.847675 0.741698
O O9 0.500000 0.637033 0.860725
O O10 0.235499 0.670601 0.771097
O O11 0.235578 0.618818 0.000000
O O12 0.000000 0.047609 0.500000
O O13 0.000000 0.000000 0.727981
O O14 0.722078 0.238818 0.221833
O O15 0.000000 0.272755 0.189860
O O16 0.767590 0.286530 0.000000
O O17 0.500000 0.183876 0.867139
O O18 0.227370 0.186267 0.000000
#
# Coordination Sequence:
#
# PCOD8197534 Si02
#       6
#     8   8   8   4   8   8
#     4   9  19  36  55  73  95 125 161 201 246 297
#     4   9  18  32  50  73 101 131 164 207 255 298
#     4  10  20  33  50  73 101 130 161 201 245 289
#     4   9  18  32  51  75 101 131 169 211 252 297
#     4   9  17  29  47  71  97 128 165 201 238 285
#     4   9  17  30  49  72  98 130 166 201 241 293
#
# _framework density 18.510368
#
# number of rings (size 3 to 8) (size 9 to 14) (size 15 to 20)
#    0.000    2.818    0.000    1.636    1.273    4.727 
#    0.000    5.455    0.000    4.364    0.000    2.545 
#    0.000    0.000    0.000    0.000    0.000    0.000 
#
# Total GULP energy -545174.933812 kJ/mol
# GULP energy per Si atom -12390.339405 kJ/mol
# Density = 1.846824 g / cm^3
# Si number density = 18.510368 Si / 1000 Ang^3
#
#
#
# Elastic Constant Matrix: (Units=GPa)
#
#
# Indices 1 2 3 4 5 6 
#
# 1 60.6802 47.0504 20.2060 0.0000 0.0000 0.0000
# 2 47.0504 149.7759 45.4283 0.0000 0.0000 0.0000
# 3 20.2060 45.4283 42.3206 0.0000 0.0000 0.0000
# 4 0.0000 0.0000 0.0000 18.3950 0.0000 0.0000
# 5 0.0000 0.0000 0.0000 0.0000 17.3990 0.0000
# 6 0.0000 0.0000 0.0000 0.0000 0.0000 36.3254
#
#
#
# Elastic Compliance Matrix: (Units=1/GPa)
#
#
# Indices 1 2 3 4 5 6 
#
# 1 0.022389 -0.005621 -0.004656 0.000000 0.000000 0.000000
# 2 -0.005621 0.011311 -0.009458 0.000000 0.000000 0.000000
# 3 -0.004656 -0.009458 0.036005 0.000000 0.000000 0.000000
# 4 0.000000 0.000000 0.000000 0.054363 0.000000 0.000000
# 5 0.000000 0.000000 0.000000 0.000000 0.057475 0.000000
# 6 0.000000 0.000000 0.000000 0.000000 0.000000 0.027529
#
#
# Mechanical properties :
#
#
# Convention : Reuss Voigt Hill
#
# Bulk Modulus (GPa) = 33.07436 53.12736 43.10086
# Shear Modulus (GPa) = 19.33355 23.76335 21.54845
#
# Velocity S-wave (km/s) = 3.23533 3.58688 3.41563
# Velocity P-wave (km/s) = 5.64476 6.77628 6.23624
#
# Compressibility (1/GPa) = 0.03023490
#
# Stress axis : x y z
#
# Youngs Moduli (GPa) = 44.66564 88.40881 27.77429
#
# Poissons Ratio (x) = 0.49695 0.12931
# Poissons Ratio (y) = 0.25107 0.26269
# Poissons Ratio (z) = 0.20795 0.83617
#
# Static dielectric constant tensor:
#      x y z
#    x 3.408200 0.000000 0.000000 
#    y 0.000000 3.596420 0.000000 
#    z 0.000000 0.000000 3.310890 
# 
# 
# High freq. dielectric constant tensor:
#      x y z
#    x 1.721100 0.000000 0.000000 
#    y 0.000000 1.725360 0.000000 
#    z 0.000000 0.000000 1.676180 
# 
# From -- ./inp_files/2074.got.cif
#   From: 2010.03.12/outbox.cif.g09.slc.cpg/sg47_2_cif.got.tgz:2074.got - 2010.04.14 03:12:58.
