data_PCOD8197440
_publ_section_title
;
Structure prediction by ZEFSAII (Michael W. Deem and Ramdas Pophale) SiO2 
 PCOD8197440
Probable space group: P M M M
;
_chemical_formula_sum "Si O2"
_cell_formula_units_Z 40
_cell_length_a 9.172077
_cell_length_b 26.124316
_cell_length_c 8.981801
_cell_angle_alpha 90.000000
_cell_angle_beta 90.000000
_cell_angle_gamma 90.000000
_cell_volume 2152.167402
_symmetry_space_group_name_H-M "P M M M"
_symmetry_group_IT_number 47
_symmetry_cell_setting 'orthorhombic'
loop_
_space_group_symop_operation_xyz
x,y,z
-x,-y,z
x,-y,-z
-x,y,-z
-x,-y,-z
x,y,-z
-x,y,z
x,-y,z
loop_
_atom_site_type_symbol
_atom_site_label
_atom_site_fract_x
_atom_site_fract_y
_atom_site_fract_z
Si Si1 0.330789 0.297625 0.673243
Si Si2 0.670400 0.093658 0.325654
Si Si3 0.326785 0.196284 0.832355
Si Si4 0.828807 0.000000 0.826429
Si Si5 0.827206 0.610559 0.827353
Si Si6 0.829169 0.500000 0.171136
O O1 0.303876 0.288732 0.500000
O O2 0.500000 0.305296 0.710508
O O3 0.266339 0.248101 0.757905
O O4 0.247181 0.347582 0.725594
O O5 0.702269 0.092482 0.500000
O O6 0.500000 0.085237 0.291521
O O7 0.727316 0.147582 0.261408
O O8 0.760646 0.049813 0.246750
O O9 0.500000 0.197773 0.830815
O O10 0.265720 0.192274 0.000000
O O11 0.000000 0.000000 0.796209
O O12 0.790977 0.000000 0.000000
O O13 0.771200 0.554544 0.765241
O O14 0.000000 0.615113 0.810391
O O15 0.782498 0.618070 0.000000
O O16 0.000000 0.500000 0.193246
O O17 0.787499 0.500000 0.000000
#
# Coordination Sequence:
#
# PCOD8197440 Si02
#       6
#     8   8   8   4   8   4
#     4  10  20  33  49  72 104 138 168 202 248 300
#     4  10  20  35  57  83 107 133 169 211 253 300
#     4   9  17  31  53  78 102 131 168 209 251 295
#     4  11  24  39  54  76 108 143 176 211 252 296
#     4   9  17  31  52  75  97 125 165 211 255 300
#     4   7  12  26  48  71  94 122 160 207 254 297
#
# _framework density 18.585915
#
# number of rings (size 3 to 8) (size 9 to 14) (size 15 to 20)
#    0.000    2.600    0.000    3.600    0.000    7.200 
#    0.000    2.000    0.000   10.800    0.000    0.000 
#    0.000    0.000    0.000    0.000    0.000    0.000 
#
# Total GULP energy -495800.821292 kJ/mol
# GULP energy per Si atom -12395.020532 kJ/mol
# Density = 1.854361 g / cm^3
# Si number density = 18.585915 Si / 1000 Ang^3
#
#
#
# Elastic Constant Matrix: (Units=GPa)
#
#
# Indices 1 2 3 4 5 6 
#
# 1 39.3952 48.4159 41.1933 0.0000 0.0000 0.0000
# 2 48.4159 193.4044 73.3077 0.0000 0.0000 0.0000
# 3 41.1933 73.3077 103.8201 0.0000 0.0000 0.0000
# 4 0.0000 0.0000 0.0000 -14.4592 0.0000 0.0000
# 5 0.0000 0.0000 0.0000 0.0000 24.1751 0.0000
# 6 0.0000 0.0000 0.0000 0.0000 0.0000 44.8147
#
#
#
# Elastic Compliance Matrix: (Units=1/GPa)
#
#
# Indices 1 2 3 4 5 6 
#
# 1 0.048989 -0.006685 -0.014717 0.000000 0.000000 0.000000
# 2 -0.006685 0.007972 -0.002977 0.000000 0.000000 0.000000
# 3 -0.014717 -0.002977 0.017573 0.000000 0.000000 0.000000
# 4 0.000000 0.000000 0.000000 -0.069160 0.000000 0.000000
# 5 0.000000 0.000000 0.000000 0.000000 0.041365 0.000000
# 6 0.000000 0.000000 0.000000 0.000000 0.000000 0.022314
#
#
# Mechanical properties :
#
#
# Convention : Reuss Voigt Hill
#
# Bulk Modulus (GPa) = 38.79549 73.60595 56.20072
# Shear Modulus (GPa) = 39.55602 22.48632 31.02117
#
# Velocity S-wave (km/s) = 4.61833 3.48207 4.08986
# Velocity P-wave (km/s) = 7.02549 7.47365 7.25304
#
# Compressibility (1/GPa) = 0.02577619
#
# Stress axis : x y z
#
# Youngs Moduli (GPa) = 20.41293 125.43307 56.90446
#
# Poissons Ratio (x) = 0.83855 0.83746
# Poissons Ratio (y) = 0.13647 0.16939
# Poissons Ratio (z) = 0.30042 0.37339
#
# Static dielectric constant tensor:
#      x y z
#    x 3.040950 0.000000 0.000000 
#    y 0.000000 3.858050 0.000000 
#    z 0.000000 0.000000 3.427210 
# 
# 
# High freq. dielectric constant tensor:
#      x y z
#    x 1.678520 0.000000 0.000000 
#    y 0.000000 1.748010 0.000000 
#    z 0.000000 0.000000 1.719640 
# 
# From -- ./inp_files/1784.got.cif
#   From: 2010.03.12/outbox.cif.g09.slc.cpg/sg47_1_cif.got.tgz:1784.got - 2010.04.14 03:12:58.
