data_PCOD8197008
_publ_section_title
;
Structure prediction by ZEFSAII (Michael W. Deem and Ramdas Pophale) SiO2 
 PCOD8197008
Probable space group: P M M M
;
_chemical_formula_sum "Si O2"
_cell_formula_units_Z 44
_cell_length_a 9.261243
_cell_length_b 9.181248
_cell_length_c 28.811929
_cell_angle_alpha 90.000000
_cell_angle_beta 90.000000
_cell_angle_gamma 90.000000
_cell_volume 2449.871661
_symmetry_space_group_name_H-M "P M M M"
_symmetry_group_IT_number 47
_symmetry_cell_setting 'orthorhombic'
loop_
_space_group_symop_operation_xyz
x,y,z
-x,-y,z
x,-y,-z
-x,y,-z
-x,-y,-z
x,y,-z
-x,y,z
x,-y,z
loop_
_atom_site_type_symbol
_atom_site_label
_atom_site_fract_x
_atom_site_fract_y
_atom_site_fract_z
Si Si1 0.168173 0.329345 0.221355
Si Si2 0.828272 0.836492 0.312602
Si Si3 0.838174 0.172835 0.948957
Si Si4 0.331126 0.170050 0.139736
Si Si5 0.841631 0.673095 0.500000
Si Si6 0.826931 0.336010 0.400517
O O1 0.198088 0.500000 0.224510
O O2 0.224850 0.257375 0.268896
O O3 0.257435 0.261896 0.179722
O O4 0.000000 0.294889 0.213200
O O5 0.765652 0.767381 0.360033
O O6 0.000000 0.835415 0.314687
O O7 0.767908 0.000000 0.307675
O O8 0.729460 0.229033 0.909454
O O9 0.000000 0.228662 0.937628
O O10 0.836848 0.000000 0.949862
O O11 0.789828 0.230934 0.000000
O O12 0.500000 0.199999 0.140458
O O13 0.294640 0.000000 0.146997
O O14 0.857697 0.500000 0.500000
O O15 0.764586 0.717809 0.548870
O O16 0.000000 0.745577 0.500000
O O17 0.774829 0.500000 0.389650
O O18 0.000000 0.332051 0.402481
#
# Coordination Sequence:
#
# PCOD8197008 Si02
#       6
#     8   8   8   8   4   8
#     4  10  20  33  49  67  87 117 158 199 238 281
#     4   9  16  25  38  57  80 106 140 186 236 280
#     4   8  14  26  46  72 100 129 160 192 225 264
#     4  10  20  32  48  72 100 128 156 189 233 281
#     4   7  10  16  27  43  65  99 140 177 214 261
#     4   8  12  19  31  47  70 102 141 181 220 267
#
# _framework density 17.960125000000001
#
# number of rings (size 3 to 8) (size 9 to 14) (size 15 to 20)
#    0.000    3.182    0.000    3.273    0.000    4.727 
#    0.000    2.273    0.000    3.273    0.000    3.818 
#    0.000    0.000    0.000    0.818    0.000   16.727 
#
# Total GULP energy -545208.541308 kJ/mol
# GULP energy per Si atom -12391.103212 kJ/mol
# Density = 1.791925 g / cm^3
# Si number density = 17.960125 Si / 1000 Ang^3
#
#
#
# Elastic Constant Matrix: (Units=GPa)
#
#
# Indices 1 2 3 4 5 6 
#
# 1 42.5060 34.0492 53.3437 0.0000 0.0000 0.0000
# 2 34.0492 84.6207 76.2352 0.0000 0.0000 0.0000
# 3 53.3437 76.2352 203.1590 0.0000 0.0000 0.0000
# 4 0.0000 0.0000 0.0000 20.4926 0.0000 0.0000
# 5 0.0000 0.0000 0.0000 0.0000 -1.1568 0.0000
# 6 0.0000 0.0000 0.0000 0.0000 0.0000 12.6013
#
#
#
# Elastic Compliance Matrix: (Units=1/GPa)
#
#
# Indices 1 2 3 4 5 6 
#
# 1 0.040025 -0.010027 -0.006747 0.000000 0.000000 0.000000
# 2 -0.010027 0.020365 -0.005009 0.000000 0.000000 0.000000
# 3 -0.006747 -0.005009 0.008573 0.000000 0.000000 0.000000
# 4 0.000000 0.000000 0.000000 0.048798 0.000000 0.000000
# 5 0.000000 0.000000 0.000000 0.000000 -0.864480 0.000000
# 6 0.000000 0.000000 0.000000 0.000000 0.000000 0.079357
#
#
# Mechanical properties :
#
#
# Convention : Reuss Voigt Hill
#
# Bulk Modulus (GPa) = 39.37355 73.06019 56.21687
# Shear Modulus (GPa) = -8.12573 17.49792 4.68610
#
# Velocity S-wave (km/s) = -2.12935 3.12471 1.61704
# Velocity P-wave (km/s) = 3.99059 7.33388 5.90384
#
# Compressibility (1/GPa) = 0.02539776
#
# Stress axis : x y z
#
# Youngs Moduli (GPa) = 24.98424 49.10466 116.63916
#
# Poissons Ratio (x) = 0.49236 0.78696
# Poissons Ratio (y) = 0.25051 0.58425
# Poissons Ratio (z) = 0.16857 0.24597
#
# Static dielectric constant tensor:
#      x y z
#    x 2.823000 0.000000 0.000000 
#    y 0.000000 3.123760 0.000000 
#    z 0.000000 0.000000 3.898670 
# 
# 
# High freq. dielectric constant tensor:
#      x y z
#    x 1.632520 0.000000 0.000000 
#    y 0.000000 1.666130 0.000000 
#    z 0.000000 0.000000 1.722970 
# 
# From -- ./inp_files/2324.got.cif
#   From: 2010.03.12/outbox.cif.g09.slc.cpg/sg47_2_cif.got.tgz:2324.got - 2010.04.14 03:12:58.
