data_PCOD8197555
_publ_section_title
;
Structure prediction by ZEFSAII (Michael W. Deem and Ramdas Pophale) SiO2 
 PCOD8197555
Probable space group: P M M M
;
_chemical_formula_sum "Si O2"
_cell_formula_units_Z 36
_cell_length_a 9.435803
_cell_length_b 9.034777
_cell_length_c 23.322420
_cell_angle_alpha 90.000000
_cell_angle_beta 90.000000
_cell_angle_gamma 90.000000
_cell_volume 1988.245072
_symmetry_space_group_name_H-M "P M M M"
_symmetry_group_IT_number 47
_symmetry_cell_setting 'orthorhombic'
loop_
_space_group_symop_operation_xyz
x,y,z
-x,-y,z
x,-y,-z
-x,y,-z
-x,-y,-z
x,y,-z
-x,y,z
x,-y,z
loop_
_atom_site_type_symbol
_atom_site_label
_atom_site_fract_x
_atom_site_fract_y
_atom_site_fract_z
Si Si1 0.341570 0.824079 0.937219
Si Si2 0.161443 0.323840 0.500000
Si Si3 0.164292 0.826905 0.706666
Si Si4 0.662235 0.675648 0.391106
Si Si5 0.843795 0.175568 0.164973
O O1 0.500000 0.761838 0.931460
O O2 0.252383 0.753497 0.885075
O O3 0.342744 0.000000 0.931874
O O4 0.279389 0.779054 0.000000
O O5 0.158794 0.500000 0.500000
O O6 0.245670 0.264253 0.444554
O O7 0.000000 0.261875 0.500000
O O8 0.268223 0.735905 0.666468
O O9 0.211026 0.784282 0.771414
O O10 0.000000 0.783345 0.696063
O O11 0.185743 0.000000 0.695121
O O12 0.500000 0.731663 0.396813
O O13 0.666181 0.500000 0.389212
O O14 0.000000 0.242002 0.156342
O O15 0.849252 0.000000 0.158970
#
# Coordination Sequence:
#
# PCOD8197555 Si02
#       5
#     8   4   8   8   8
#     4   8  13  20  30  47  73 105 141 179 217 259
#     4   9  17  31  52  73  92 119 152 184 224 271
#     4   9  18  32  48  67  93 124 157 191 227 270
#     4  10  20  33  50  73  98 121 149 187 227 268
#     4   8  14  24  37  54  78 109 144 181 220 261
#
# _framework density 18.106418999999999
#
# number of rings (size 3 to 8) (size 9 to 14) (size 15 to 20)
#    0.000    3.222    0.000    3.000    0.000    4.444 
#    0.000    5.000    0.000    3.333    0.000    0.000 
#    0.000    0.889    0.000    9.778    0.000   16.000 
#
# Total GULP energy -446138.441122 kJ/mol
# GULP energy per Si atom -12392.734476 kJ/mol
# Density = 1.806521 g / cm^3
# Si number density = 18.106419 Si / 1000 Ang^3
#
#
#
# Elastic Constant Matrix: (Units=GPa)
#
#
# Indices 1 2 3 4 5 6 
#
# 1 128.4425 14.9152 95.5406 0.0000 0.0000 0.0000
# 2 14.9152 6.5230 14.4933 0.0000 0.0000 0.0000
# 3 95.5406 14.4933 172.8172 0.0000 0.0000 0.0000
# 4 0.0000 0.0000 0.0000 -11.7050 0.0000 0.0000
# 5 0.0000 0.0000 0.0000 0.0000 38.6210 0.0000
# 6 0.0000 0.0000 0.0000 0.0000 0.0000 17.3511
#
#
#
# Elastic Compliance Matrix: (Units=1/GPa)
#
#
# Indices 1 2 3 4 5 6 
#
# 1 0.015005 -0.019514 -0.006659 0.000000 0.000000 0.000000
# 2 -0.019514 0.213789 -0.007141 0.000000 0.000000 0.000000
# 3 -0.006659 -0.007141 0.010067 0.000000 0.000000 0.000000
# 4 0.000000 0.000000 0.000000 -0.085434 0.000000 0.000000
# 5 0.000000 0.000000 0.000000 0.000000 0.025893 0.000000
# 6 0.000000 0.000000 0.000000 0.000000 0.000000 0.057633
#
#
# Mechanical properties :
#
#
# Convention : Reuss Voigt Hill
#
# Bulk Modulus (GPa) = 5.80610 61.96455 33.88532
# Shear Modulus (GPa) = 13.85076 21.04235 17.44655
#
# Velocity S-wave (km/s) = 2.76880 3.41273 3.10749
# Velocity P-wave (km/s) = 3.66542 7.05873 5.62410
#
# Compressibility (1/GPa) = 0.17223264
#
# Stress axis : x y z
#
# Youngs Moduli (GPa) = 66.64629 4.67750 99.33924
#
# Poissons Ratio (x) = 0.09128 0.66146
# Poissons Ratio (y) = 1.30055 0.70939
# Poissons Ratio (z) = 0.44377 0.03340
#
# Static dielectric constant tensor:
#      x y z
#    x 3.627850 0.000000 0.000000 
#    y 0.000000 2.668990 0.000000 
#    z 0.000000 0.000000 3.665980 
# 
# 
# High freq. dielectric constant tensor:
#      x y z
#    x 1.704000 0.000000 0.000000 
#    y 0.000000 1.629950 0.000000 
#    z 0.000000 0.000000 1.720560 
# 
# From -- ./inp_files/1412.got.cif
#   From: 2010.03.12/outbox.cif.g09.slc.cpg/sg47_1_cif.got.tgz:1412.got - 2010.04.14 03:12:58.
