data_PCOD8197556
_publ_section_title
;
Structure prediction by ZEFSAII (Michael W. Deem and Ramdas Pophale) SiO2 
 PCOD8197556
Probable space group: P M M M
;
_chemical_formula_sum "Si O2"
_cell_formula_units_Z 44
_cell_length_a 9.390729
_cell_length_b 28.433124
_cell_length_c 9.035263
_cell_angle_alpha 90.000000
_cell_angle_beta 90.000000
_cell_angle_gamma 90.000000
_cell_volume 2412.485354
_symmetry_space_group_name_H-M "P M M M"
_symmetry_group_IT_number 47
_symmetry_cell_setting 'orthorhombic'
loop_
_space_group_symop_operation_xyz
x,y,z
-x,-y,z
x,-y,-z
-x,y,-z
-x,-y,-z
x,y,-z
-x,y,z
x,-y,z
loop_
_atom_site_type_symbol
_atom_site_label
_atom_site_fract_x
_atom_site_fract_y
_atom_site_fract_z
Si Si1 0.337197 0.589558 0.824438
Si Si2 0.161874 0.500000 0.176209
Si Si3 0.164530 0.669996 0.673204
Si Si4 0.157529 0.775580 0.324335
Si Si5 0.159809 0.051922 0.324030
Si Si6 0.659541 0.138475 0.323055
O O1 0.500000 0.584498 0.769306
O O2 0.245418 0.545635 0.763860
O O3 0.269571 0.636983 0.763153
O O4 0.331499 0.591350 0.000000
O O5 0.000000 0.500000 0.238066
O O6 0.160268 0.500000 0.000000
O O7 0.190425 0.662286 0.500000
O O8 0.205185 0.723118 0.721495
O O9 0.000000 0.659345 0.713363
O O10 0.152269 0.778598 0.500000
O O11 0.265054 0.814545 0.260287
O O12 0.000000 0.786280 0.261270
O O13 0.160453 0.054259 0.500000
O O14 0.262395 0.092139 0.259062
O O15 0.000000 0.061201 0.265828
O O16 0.212062 0.000000 0.272344
O O17 0.661996 0.138341 0.500000
O O18 0.500000 0.138089 0.261319
#
# Coordination Sequence:
#
# PCOD8197556 Si02
#       6
#     8   4   8   8   8   8
#     4  10  20  33  50  73  99 124 150 182 222 268
#     4   9  17  31  52  73  92 119 154 188 220 257
#     4   9  18  32  49  69  92 119 153 191 228 265
#     4   8  14  25  39  53  72 100 133 169 208 251
#     4   8  13  20  28  37  52  79 116 157 201 247
#     4   9  15  20  28  44  64  87 119 160 204 249
#
# _framework density 18.238454000000001
#
# number of rings (size 3 to 8) (size 9 to 14) (size 15 to 20)
#    0.000    3.182    0.000    3.000    0.000    5.818 
#    0.000    4.091    0.000    2.727    0.000    0.000 
#    0.000    0.000    0.000    0.000    0.000    0.909 
#
# Total GULP energy -545369.895906 kJ/mol
# GULP energy per Si atom -12394.770362 kJ/mol
# Density = 1.819694 g / cm^3
# Si number density = 18.238454 Si / 1000 Ang^3
#
#
#
# Elastic Constant Matrix: (Units=GPa)
#
#
# Indices 1 2 3 4 5 6 
#
# 1 160.7788 112.2098 13.5568 0.0000 0.0000 0.0000
# 2 112.2098 178.0324 12.3307 0.0000 0.0000 0.0000
# 3 13.5568 12.3307 4.6549 0.0000 0.0000 0.0000
# 4 0.0000 0.0000 0.0000 -5.0264 0.0000 0.0000
# 5 0.0000 0.0000 0.0000 0.0000 14.2216 0.0000
# 6 0.0000 0.0000 0.0000 0.0000 0.0000 26.3061
#
#
#
# Elastic Compliance Matrix: (Units=1/GPa)
#
#
# Indices 1 2 3 4 5 6 
#
# 1 0.012308 -0.006460 -0.018732 0.000000 0.000000 0.000000
# 2 -0.006460 0.010270 -0.008390 0.000000 0.000000 0.000000
# 3 -0.018732 -0.008390 0.291607 0.000000 0.000000 0.000000
# 4 0.000000 0.000000 0.000000 -0.198948 0.000000 0.000000
# 5 0.000000 0.000000 0.000000 0.000000 0.070316 0.000000
# 6 0.000000 0.000000 0.000000 0.000000 0.000000 0.038014
#
#
# Mechanical properties :
#
#
# Convention : Reuss Voigt Hill
#
# Bulk Modulus (GPa) = 4.04828 68.85121 36.44975
# Shear Modulus (GPa) = 13.40229 20.79149 17.09689
#
# Velocity S-wave (km/s) = 2.71373 3.38002 3.06504
# Velocity P-wave (km/s) = 3.47038 7.28459 5.70565
#
# Compressibility (1/GPa) = 0.24701860
#
# Stress axis : x y z
#
# Youngs Moduli (GPa) = 81.25048 97.37527 3.42928
#
# Poissons Ratio (x) = 0.62902 0.06424
# Poissons Ratio (y) = 0.52486 0.02877
# Poissons Ratio (z) = 1.52202 0.81702
#
# Static dielectric constant tensor:
#      x y z
#    x 3.588750 0.000000 0.000000 
#    y 0.000000 3.693620 0.000000 
#    z 0.000000 0.000000 2.596160 
# 
# 
# High freq. dielectric constant tensor:
#      x y z
#    x 1.711980 0.000000 0.000000 
#    y 0.000000 1.726060 0.000000 
#    z 0.000000 0.000000 1.624620 
# 
# From -- ./inp_files/2067.got.cif
#   From: 2010.03.12/outbox.cif.g09.slc.cpg/sg47_2_cif.got.tgz:2067.got - 2010.04.14 03:12:58.
