data_PCOD8197824
_publ_section_title
;
Structure prediction by ZEFSAII (Michael W. Deem and Ramdas Pophale) SiO2 
 PCOD8197824
Probable space group: P M M M
;
_chemical_formula_sum "Si O2"
_cell_formula_units_Z 44
_cell_length_a 9.087825
_cell_length_b 8.617809
_cell_length_c 28.519338
_cell_angle_alpha 90.000000
_cell_angle_beta 90.000000
_cell_angle_gamma 90.000000
_cell_volume 2233.552989
_symmetry_space_group_name_H-M "P M M M"
_symmetry_group_IT_number 47
_symmetry_cell_setting 'orthorhombic'
loop_
_space_group_symop_operation_xyz
x,y,z
-x,-y,z
x,-y,-z
-x,y,-z
-x,-y,-z
x,y,-z
-x,y,z
x,-y,z
loop_
_atom_site_type_symbol
_atom_site_label
_atom_site_fract_x
_atom_site_fract_y
_atom_site_fract_z
Si Si1 0.165038 0.183529 0.317577
Si Si2 0.666205 0.185116 0.408390
Si Si3 0.829819 0.182758 0.142433
Si Si4 0.833723 0.815014 0.500000
Si Si5 0.664859 0.815856 0.948467
Si Si6 0.330560 0.318804 0.769892
O O1 0.252356 0.251085 0.362331
O O2 0.246609 0.226997 0.270239
O O3 0.000000 0.252853 0.317333
O O4 0.157907 0.000000 0.321192
O O5 0.500000 0.249346 0.408820
O O6 0.750441 0.248593 0.454117
O O7 0.666018 0.000000 0.408273
O O8 0.776512 0.242767 0.091445
O O9 0.737607 0.275759 0.180400
O O10 0.000000 0.224707 0.148149
O O11 0.801617 0.000000 0.148860
O O12 0.000000 0.750985 0.500000
O O13 0.833996 0.000000 0.500000
O O14 0.500000 0.755479 0.937263
O O15 0.664579 0.000000 0.949200
O O16 0.715104 0.754538 0.000000
O O17 0.500000 0.267278 0.769444
O O18 0.312384 0.500000 0.760646
#
# Coordination Sequence:
#
# PCOD8197824 Si02
#       6
#     8   8   8   4   8   8
#     4  10  20  34  53  77 103 131 166 208 254 303
#     4   9  16  26  42  66  97 132 167 203 246 296
#     4  10  20  33  52  79 107 135 168 206 250 299
#     4   9  15  23  37  61  96 133 166 203 248 295
#     4   8  14  26  46  73 104 136 168 202 242 289
#     4  11  24  39  54  73  98 131 171 212 255 303
#
# _framework density 19.699556000000001
#
# number of rings (size 3 to 8) (size 9 to 14) (size 15 to 20)
#    0.000    2.455    0.000    3.545    0.000    9.455 
#    0.000    1.818    0.000    0.545    0.000    4.455 
#    0.000    5.091    0.000    0.000    0.000    0.000 
#
# Total GULP energy -545575.129647 kJ/mol
# GULP energy per Si atom -12399.434765 kJ/mol
# Density = 1.965472 g / cm^3
# Si number density = 19.699556 Si / 1000 Ang^3
#
#
#
# Elastic Constant Matrix: (Units=GPa)
#
#
# Indices 1 2 3 4 5 6 
#
# 1 167.5663 12.4030 77.0122 0.0000 0.0000 0.0000
# 2 12.4030 7.5620 2.9427 0.0000 0.0000 0.0000
# 3 77.0122 2.9427 153.4464 0.0000 0.0000 0.0000
# 4 0.0000 0.0000 0.0000 -3.2441 0.0000 0.0000
# 5 0.0000 0.0000 0.0000 0.0000 41.8603 0.0000
# 6 0.0000 0.0000 0.0000 0.0000 0.0000 14.3880
#
#
#
# Elastic Compliance Matrix: (Units=1/GPa)
#
#
# Indices 1 2 3 4 5 6 
#
# 1 0.008849 -0.012882 -0.004194 0.000000 0.000000 0.000000
# 2 -0.012882 0.151988 0.003550 0.000000 0.000000 0.000000
# 3 -0.004194 0.003550 0.008554 0.000000 0.000000 0.000000
# 4 0.000000 0.000000 0.000000 -0.308254 0.000000 0.000000
# 5 0.000000 0.000000 0.000000 0.000000 0.023889 0.000000
# 6 0.000000 0.000000 0.000000 0.000000 0.000000 0.069502
#
#
# Mechanical properties :
#
#
# Convention : Reuss Voigt Hill
#
# Bulk Modulus (GPa) = 7.02545 57.03228 32.02886
# Shear Modulus (GPa) = 172.26461 26.34862 99.30662
#
# Velocity S-wave (km/s) = 9.36140 3.66118 7.10774
# Velocity P-wave (km/s) = 10.97368 6.84735 9.14626
#
# Compressibility (1/GPa) = 0.14233969
#
# Stress axis : x y z
#
# Youngs Moduli (GPa) = 113.00939 6.57948 116.90751
#
# Poissons Ratio (x) = 0.08475 0.49032
# Poissons Ratio (y) = 1.45575 -0.41507
# Poissons Ratio (z) = 0.47397 -0.02336
#
# Static dielectric constant tensor:
#      x y z
#    x 3.849630 0.000000 0.000000 
#    y 0.000000 2.975060 0.000000 
#    z 0.000000 0.000000 3.900600 
# 
# 
# High freq. dielectric constant tensor:
#      x y z
#    x 1.782080 0.000000 0.000000 
#    y 0.000000 1.705250 0.000000 
#    z 0.000000 0.000000 1.787900 
# 
# From -- ./inp_files/33890.got.cif
#   From: 2010.03.12/outbox.cif.g09.slc.cpg/sg47_17_cif.got.tgz:33890.got - 2010.04.14 03:12:58.
