data_PCOD8197006
_publ_section_title
;
Structure prediction by ZEFSAII (Michael W. Deem and Ramdas Pophale) SiO2 
 PCOD8197006
Probable space group: P M M M
;
_chemical_formula_sum "Si O2"
_cell_formula_units_Z 64
_cell_length_a 20.092449
_cell_length_b 9.178879
_cell_length_c 18.011836
_cell_angle_alpha 90.000000
_cell_angle_beta 90.000000
_cell_angle_gamma 90.000000
_cell_volume 3321.853715
_symmetry_space_group_name_H-M "P M M M"
_symmetry_group_IT_number 47
_symmetry_cell_setting 'orthorhombic'
loop_
_space_group_symop_operation_xyz
x,y,z
-x,-y,z
x,-y,-z
-x,y,-z
-x,-y,-z
x,y,-z
-x,y,z
x,-y,z
loop_
_atom_site_type_symbol
_atom_site_label
_atom_site_fract_x
_atom_site_fract_y
_atom_site_fract_z
Si Si1 0.745308 0.835316 0.145894
Si Si2 0.077558 0.828641 0.642616
Si Si3 0.112547 0.833499 0.083725
Si Si4 0.074463 0.342817 0.782420
Si Si5 0.296886 0.672555 0.287462
Si Si6 0.573618 0.828262 0.759349
Si Si7 0.607149 0.168197 0.919789
Si Si8 0.802391 0.666650 0.583167
O O1 0.810090 0.806504 0.097798
O O2 0.743606 0.725616 0.215337
O O3 0.685793 0.807439 0.088874
O O4 0.742397 0.000000 0.177558
O O5 0.104355 0.767900 0.721975
O O6 0.128616 0.758049 0.584460
O O7 0.000000 0.790055 0.624443
O O8 0.087305 0.000000 0.643285
O O9 0.071773 0.728132 0.136720
O O10 0.092247 0.000000 0.099796
O O11 0.094784 0.790528 0.000000
O O12 0.112383 0.500000 0.782613
O O13 0.000000 0.372594 0.757081
O O14 0.306841 0.500000 0.284612
O O15 0.370367 0.746448 0.289084
O O16 0.254981 0.721115 0.360176
O O17 0.500000 0.798728 0.725673
O O18 0.572935 0.768432 0.845059
O O19 0.590863 0.000000 0.759176
O O20 0.588043 0.000000 0.924778
O O21 0.585633 0.239997 0.000000
O O22 0.773219 0.682076 0.500000
O O23 0.821074 0.500000 0.601847
#
# Coordination Sequence:
#
# PCOD8197006 Si02
#       8
#     8   8   8   8   8   8   8   8
#     4   9  17  30  48  70  97 129 166 207 253 307
#     4  10  21  37  58  84 112 141 175 215 257 306
#     4  10  20  32  48  71  97 127 168 222 278 322
#     4  10  21  36  52  69  93 130 174 215 258 313
#     4  10  20  34  54  78 103 134 173 215 258 308
#     4   9  18  32  51  76 104 136 176 220 265 313
#     4   8  13  23  42  68  97 128 163 204 247 292
#     4  10  22  39  58  82 112 143 174 210 255 311
#
# _framework density 19.266351
#
# number of rings (size 3 to 8) (size 9 to 14) (size 15 to 20)
#    0.000    2.500    0.000    3.000    0.000    8.000 
#    0.000    3.750    0.000    9.375    0.000    6.125 
#    0.000    0.000    0.000    0.000    0.000    0.000 
#
# Total GULP energy -793036.097839 kJ/mol
# GULP energy per Si atom -12391.189029 kJ/mol
# Density = 1.922250 g / cm^3
# Si number density = 19.266351 Si / 1000 Ang^3
#
#
#
# Elastic Constant Matrix: (Units=GPa)
#
#
# Indices 1 2 3 4 5 6 
#
# 1 83.5031 37.4591 33.8914 0.0000 0.0000 0.0000
# 2 37.4591 75.0778 36.0955 0.0000 0.0000 0.0000
# 3 33.8914 36.0955 95.5896 0.0000 0.0000 0.0000
# 4 0.0000 0.0000 0.0000 24.4336 0.0000 0.0000
# 5 0.0000 0.0000 0.0000 0.0000 12.5797 0.0000
# 6 0.0000 0.0000 0.0000 0.0000 0.0000 24.7414
#
#
#
# Elastic Compliance Matrix: (Units=1/GPa)
#
#
# Indices 1 2 3 4 5 6 
#
# 1 0.016237 -0.006516 -0.003296 0.000000 0.000000 0.000000
# 2 -0.006516 0.018889 -0.004822 0.000000 0.000000 0.000000
# 3 -0.003296 -0.004822 0.013451 0.000000 0.000000 0.000000
# 4 0.000000 0.000000 0.000000 0.040927 0.000000 0.000000
# 5 0.000000 0.000000 0.000000 0.000000 0.079493 0.000000
# 6 0.000000 0.000000 0.000000 0.000000 0.000000 0.040418
#
#
# Mechanical properties :
#
#
# Convention : Reuss Voigt Hill
#
# Bulk Modulus (GPa) = 51.79410 52.11806 51.95608
# Shear Modulus (GPa) = 20.39811 22.13256 21.26533
#
# Velocity S-wave (km/s) = 3.25736 3.39302 3.32589
# Velocity P-wave (km/s) = 6.41005 6.51615 6.46332
#
# Compressibility (1/GPa) = 0.01930722
#
# Stress axis : x y z
#
# Youngs Moduli (GPa) = 61.58927 52.94015 74.34401
#
# Poissons Ratio (x) = 0.34498 0.24504
# Poissons Ratio (y) = 0.40134 0.35851
# Poissons Ratio (z) = 0.20300 0.25530
#
# Static dielectric constant tensor:
#      x y z
#    x 3.548290 0.000000 0.000000 
#    y 0.000000 3.425210 0.000000 
#    z 0.000000 0.000000 3.564360 
# 
# 
# High freq. dielectric constant tensor:
#      x y z
#    x 1.747110 0.000000 0.000000 
#    y 0.000000 1.729770 0.000000 
#    z 0.000000 0.000000 1.733320 
# 
# From -- ./inp_files/9970.got.cif
#   From: 2010.03.12/outbox.cif.g09.slc.cpg/sg47_5_cif.got.tgz:9970.got - 2010.04.14 03:12:58.
