data_PCOD8197741
_publ_section_title
;
Structure prediction by ZEFSAII (Michael W. Deem and Ramdas Pophale) SiO2 
 PCOD8197741
Probable space group: P M M M
;
_chemical_formula_sum "Si O2"
_cell_formula_units_Z 64
_cell_length_a 19.579765
_cell_length_b 8.855205
_cell_length_c 20.927998
_cell_angle_alpha 90.000000
_cell_angle_beta 90.000000
_cell_angle_gamma 90.000000
_cell_volume 3628.555581
_symmetry_space_group_name_H-M "P M M M"
_symmetry_group_IT_number 47
_symmetry_cell_setting 'orthorhombic'
loop_
_space_group_symop_operation_xyz
x,y,z
-x,-y,z
x,-y,-z
-x,y,-z
-x,-y,-z
x,y,-z
-x,y,z
x,-y,z
loop_
_atom_site_type_symbol
_atom_site_label
_atom_site_fract_x
_atom_site_fract_y
_atom_site_fract_z
Si Si1 0.423045 0.676869 0.225930
Si Si2 0.289107 0.177712 0.809911
Si Si3 0.923208 0.326435 0.871360
Si Si4 0.207698 0.321087 0.692440
Si Si5 0.198938 0.173877 0.071020
Si Si6 0.077157 0.176318 0.737051
Si Si7 0.573886 0.679372 0.371614
Si Si8 0.711117 0.320217 0.570231
O O1 0.500000 0.714722 0.202050
O O2 0.408225 0.500000 0.219094
O O3 0.367419 0.767457 0.184695
O O4 0.413955 0.730551 0.298882
O O5 0.250062 0.254418 0.751189
O O6 0.253856 0.226572 0.876423
O O7 0.286610 0.000000 0.799516
O O8 0.910209 0.500000 0.852460
O O9 0.869967 0.272859 0.924577
O O10 0.910340 0.224121 0.809636
O O11 0.000000 0.304103 0.897870
O O12 0.211854 0.500000 0.697552
O O13 0.129329 0.266907 0.692297
O O14 0.237942 0.261822 0.625067
O O15 0.178985 0.000000 0.081799
O O16 0.229676 0.199388 0.000000
O O17 0.000000 0.215674 0.715334
O O18 0.092570 0.000000 0.731251
O O19 0.500000 0.740523 0.395919
O O20 0.573013 0.500000 0.373391
O O21 0.634824 0.742948 0.415431
O O22 0.733803 0.260923 0.500000
O O23 0.709653 0.500000 0.570887
#
# Coordination Sequence:
#
# PCOD8197741 Si02
#       8
#     8   8   8   8   8   8   8   8
#     4   9  17  31  52  77 104 133 168 213 264 311
#     4  11  21  33  53  78 103 134 174 217 258 307
#     4  10  20  33  51  77 107 138 172 209 252 305
#     4  11  20  32  53  78 105 136 172 216 260 303
#     4  10  22  38  53  72 102 141 179 215 259 308
#     4  10  20  34  53  77 104 133 169 214 261 309
#     4   8  13  23  41  67  99 133 168 204 244 293
#     4   9  17  28  44  71 105 138 172 211 256 303
#
# _framework density 17.637872999999999
#
# number of rings (size 3 to 8) (size 9 to 14) (size 15 to 20)
#    0.000    2.250    2.500    2.250    0.000    3.000 
#    0.000    2.500    0.000    2.250    0.000    5.250 
#    0.000    2.000    0.000    0.000    0.000    0.000 
#
# Total GULP energy -793390.483951 kJ/mol
# GULP energy per Si atom -12396.726312 kJ/mol
# Density = 1.759773 g / cm^3
# Si number density = 17.637873 Si / 1000 Ang^3
#
#
#
# Elastic Constant Matrix: (Units=GPa)
#
#
# Indices 1 2 3 4 5 6 
#
# 1 129.2836 39.5131 71.8543 0.0000 0.0000 0.0000
# 2 39.5131 49.9532 33.0328 0.0000 0.0000 0.0000
# 3 71.8543 33.0328 119.9060 0.0000 0.0000 0.0000
# 4 0.0000 0.0000 0.0000 11.0238 0.0000 0.0000
# 5 0.0000 0.0000 0.0000 0.0000 25.2560 0.0000
# 6 0.0000 0.0000 0.0000 0.0000 0.0000 26.9836
#
#
#
# Elastic Compliance Matrix: (Units=1/GPa)
#
#
# Indices 1 2 3 4 5 6 
#
# 1 0.013037 -0.006292 -0.006079 0.000000 0.000000 0.000000
# 2 -0.006292 0.027515 -0.003809 0.000000 0.000000 0.000000
# 3 -0.006079 -0.003809 0.013032 0.000000 0.000000 0.000000
# 4 0.000000 0.000000 0.000000 0.090713 0.000000 0.000000
# 5 0.000000 0.000000 0.000000 0.000000 0.039595 0.000000
# 6 0.000000 0.000000 0.000000 0.000000 0.000000 0.037060
#
#
# Mechanical properties :
#
#
# Convention : Reuss Voigt Hill
#
# Bulk Modulus (GPa) = 47.11928 65.32701 56.22314
# Shear Modulus (GPa) = 19.20229 22.96885 21.08557
#
# Velocity S-wave (km/s) = 3.30312 3.61258 3.46131
# Velocity P-wave (km/s) = 6.42809 7.38372 6.92241
#
# Compressibility (1/GPa) = 0.02122274
#
# Stress axis : x y z
#
# Youngs Moduli (GPa) = 76.70753 36.34385 76.73376
#
# Poissons Ratio (x) = 0.22868 0.46645
# Poissons Ratio (y) = 0.48266 0.29231
# Poissons Ratio (z) = 0.46629 0.13845
#
# Static dielectric constant tensor:
#      x y z
#    x 3.592590 0.000000 0.000000 
#    y 0.000000 3.069060 0.000000 
#    z 0.000000 0.000000 3.202800 
# 
# 
# High freq. dielectric constant tensor:
#      x y z
#    x 1.690060 0.000000 0.000000 
#    y 0.000000 1.662970 0.000000 
#    z 0.000000 0.000000 1.655150 
# 
# From -- ./inp_files/31515.got.cif
#   From: 2010.03.12/outbox.cif.g09.slc.cpg/sg47_16_cif.got.tgz:31515.got - 2010.04.14 03:12:58.
