data_PCOD8197706
_publ_section_title
;
Structure prediction by ZEFSAII (Michael W. Deem and Ramdas Pophale) SiO2 
 PCOD8197706
Probable space group: P M M M
;
_chemical_formula_sum "Si O2"
_cell_formula_units_Z 48
_cell_length_a 20.743492
_cell_length_b 14.342082
_cell_length_c 8.879235
_cell_angle_alpha 90.000000
_cell_angle_beta 90.000000
_cell_angle_gamma 90.000000
_cell_volume 2641.615594
_symmetry_space_group_name_H-M "P M M M"
_symmetry_group_IT_number 47
_symmetry_cell_setting 'orthorhombic'
loop_
_space_group_symop_operation_xyz
x,y,z
-x,-y,z
x,-y,-z
-x,y,-z
-x,-y,-z
x,y,-z
-x,y,z
x,-y,z
loop_
_atom_site_type_symbol
_atom_site_label
_atom_site_fract_x
_atom_site_fract_y
_atom_site_fract_z
Si Si1 0.429133 0.104576 0.321023
Si Si2 0.190199 0.892221 0.823235
Si Si3 0.133425 0.396835 0.328587
Si Si4 0.927223 0.794059 0.325601
Si Si5 0.307901 0.782973 0.321721
Si Si6 0.733030 0.395089 0.825178
O O1 0.426661 0.104650 0.500000
O O2 0.500000 0.139894 0.267214
O O3 0.372660 0.169590 0.255824
O O4 0.417302 0.000000 0.260705
O O5 0.120201 0.855915 0.774239
O O6 0.244950 0.833714 0.740572
O O7 0.196983 0.000000 0.777105
O O8 0.198071 0.877663 0.000000
O O9 0.159262 0.388465 0.500000
O O10 0.102731 0.500000 0.302135
O O11 0.081348 0.316779 0.295174
O O12 0.192631 0.380815 0.217014
O O13 0.913968 0.816984 0.500000
O O14 0.000000 0.820312 0.279922
O O15 0.305239 0.788524 0.500000
O O16 0.310776 0.675874 0.269269
O O17 0.710295 0.500000 0.786710
O O18 0.725171 0.372446 0.000000
#
# Coordination Sequence:
#
# PCOD8197706 Si02
#       6
#     8   8   8   8   8   8
#     4   8  15  29  50  79 113 143 171 208 258 313
#     4  11  24  39  54  74 102 138 179 220 264 315
#     4   9  17  31  52  77 104 133 167 209 259 315
#     4  10  21  36  54  77 104 136 174 218 269 319
#     4  11  20  32  56  85 109 136 173 217 264 311
#     4  10  20  33  51  76 107 141 175 213 258 309
#
# _framework density 18.170697000000001
#
# number of rings (size 3 to 8) (size 9 to 14) (size 15 to 20)
#    0.000    2.167    1.667    2.500    0.000    4.000 
#    0.000    3.333    0.000    2.500    0.000   12.833 
#    0.000    0.000    0.000    0.000    0.000    0.000 
#
# Total GULP energy -595124.525656 kJ/mol
# GULP energy per Si atom -12398.427618 kJ/mol
# Density = 1.812934 g / cm^3
# Si number density = 18.170697 Si / 1000 Ang^3
#
#
#
# Elastic Constant Matrix: (Units=GPa)
#
#
# Indices 1 2 3 4 5 6 
#
# 1 112.9309 57.5640 32.0341 0.0000 0.0000 0.0000
# 2 57.5640 115.3626 41.4676 0.0000 0.0000 0.0000
# 3 32.0341 41.4676 55.4184 0.0000 0.0000 0.0000
# 4 0.0000 0.0000 0.0000 28.0427 0.0000 0.0000
# 5 0.0000 0.0000 0.0000 0.0000 -0.0276 0.0000
# 6 0.0000 0.0000 0.0000 0.0000 0.0000 31.8443
#
#
#
# Elastic Compliance Matrix: (Units=1/GPa)
#
#
# Indices 1 2 3 4 5 6 
#
# 1 0.012341 -0.004916 -0.003455 0.000000 0.000000 0.000000
# 2 -0.004916 0.013816 -0.007496 0.000000 0.000000 0.000000
# 3 -0.003455 -0.007496 0.025651 0.000000 0.000000 0.000000
# 4 0.000000 0.000000 0.000000 0.035660 0.000000 0.000000
# 5 0.000000 0.000000 0.000000 0.000000-36.237158 0.000000
# 6 0.000000 0.000000 0.000000 0.000000 0.000000 0.031403
#
#
# Mechanical properties :
#
#
# Convention : Reuss Voigt Hill
#
# Bulk Modulus (GPa) = 49.81821 60.64926 55.23373
# Shear Modulus (GPa) = -0.13858 22.14829 11.00486
#
# Velocity S-wave (km/s) = -0.27646 3.49506 2.46364
# Velocity P-wave (km/s) = 5.23205 7.05247 6.20933
#
# Compressibility (1/GPa) = 0.02007298
#
# Stress axis : x y z
#
# Youngs Moduli (GPa) = 81.03186 72.38066 38.98493
#
# Poissons Ratio (x) = 0.35582 0.13470
# Poissons Ratio (y) = 0.39835 0.29224
# Poissons Ratio (z) = 0.27997 0.54259
#
# Static dielectric constant tensor:
#      x y z
#    x 3.355770 0.000000 0.000000 
#    y 0.000000 3.659560 0.000000 
#    z 0.000000 0.000000 3.223100 
# 
# 
# High freq. dielectric constant tensor:
#      x y z
#    x 1.685110 0.000000 0.000000 
#    y 0.000000 1.714010 0.000000 
#    z 0.000000 0.000000 1.691090 
# 
# From -- ./inp_files/6372.got.cif
#   From: 2010.03.12/outbox.cif.g09.slc.cpg/sg47_4_cif.got.tgz:6372.got - 2010.04.14 03:12:58.
