data_PCOD8197709
_publ_section_title
;
Structure prediction by ZEFSAII (Michael W. Deem and Ramdas Pophale) SiO2 
 PCOD8197709
Probable space group: P M M M
;
_chemical_formula_sum "Si O2"
_cell_formula_units_Z 52
_cell_length_a 14.604481
_cell_length_b 8.932511
_cell_length_c 22.519265
_cell_angle_alpha 90.000000
_cell_angle_beta 90.000000
_cell_angle_gamma 90.000000
_cell_volume 2937.743671
_symmetry_space_group_name_H-M "P M M M"
_symmetry_group_IT_number 47
_symmetry_cell_setting 'orthorhombic'
loop_
_space_group_symop_operation_xyz
x,y,z
-x,-y,z
x,-y,-z
-x,y,-z
-x,-y,-z
x,y,-z
-x,y,z
x,-y,z
loop_
_atom_site_type_symbol
_atom_site_label
_atom_site_fract_x
_atom_site_fract_y
_atom_site_fract_z
Si Si1 0.891532 0.331642 0.000000
Si Si2 0.858734 0.167265 0.345618
Si Si3 0.000000 0.678092 0.430308
Si Si4 0.599741 0.672273 0.272950
Si Si5 0.797170 0.322763 0.769716
Si Si6 0.106539 0.176152 0.120069
Si Si7 0.653205 0.835519 0.614598
Si Si8 0.602697 0.324193 0.500000
O O1 0.857711 0.242849 0.942091
O O2 0.850803 0.500000 0.000000
O O3 0.000000 0.337577 0.000000
O O4 0.911875 0.255848 0.396949
O O5 0.859485 0.257439 0.283586
O O6 0.756115 0.151548 0.365321
O O7 0.900652 0.000000 0.336291
O O8 0.000000 0.500000 0.424652
O O9 0.000000 0.726064 0.500000
O O10 0.500000 0.696510 0.240301
O O11 0.612850 0.500000 0.290486
O O12 0.688748 0.721959 0.234899
O O13 0.592682 0.763254 0.333884
O O14 0.810789 0.500000 0.770807
O O15 0.832397 0.252222 0.830055
O O16 0.000000 0.214476 0.130855
O O17 0.123630 0.000000 0.119884
O O18 0.654675 0.732788 0.557320
O O19 0.613414 0.000000 0.600151
O O20 0.605406 0.500000 0.500000
O O21 0.500000 0.261133 0.500000
#
# Coordination Sequence:
#
# PCOD8197709 Si02
#       8
#     4   8   4   8   8   8   8   4
#     4   9  17  31  51  77 108 143 184 223 257 300
#     4  10  22  39  56  74 100 131 166 210 261 312
#     4  11  25  41  57  77  97 126 171 216 259 311
#     4   9  18  34  54  75 101 133 168 209 259 311
#     4  10  20  34  54  80 108 139 177 219 260 307
#     4  10  20  33  51  76 111 150 183 216 259 307
#     4  10  21  35  52  74  97 123 157 201 252 306
#     4  11  23  35  49  70  95 124 155 191 244 309
#
# _framework density 17.700659999999999
#
# number of rings (size 3 to 8) (size 9 to 14) (size 15 to 20)
#    0.000    2.077    0.000    3.000    2.154    7.692 
#    0.000    0.000    0.000    0.000    0.000    0.538 
#    0.000    4.308    0.000    0.000    0.000    0.000 
#
# Total GULP energy -644615.468223 kJ/mol
# GULP energy per Si atom -12396.451312 kJ/mol
# Density = 1.766037 g / cm^3
# Si number density = 17.700660 Si / 1000 Ang^3
#
#
#
# Elastic Constant Matrix: (Units=GPa)
#
#
# Indices 1 2 3 4 5 6 
#
# 1 70.1231 36.5960 48.9924 0.0000 0.0000 0.0000
# 2 36.5960 106.2898 62.1234 0.0000 0.0000 0.0000
# 3 48.9924 62.1234 145.2083 0.0000 0.0000 0.0000
# 4 0.0000 0.0000 0.0000 33.1040 0.0000 0.0000
# 5 0.0000 0.0000 0.0000 0.0000 16.1271 0.0000
# 6 0.0000 0.0000 0.0000 0.0000 0.0000 8.1508
#
#
#
# Elastic Compliance Matrix: (Units=1/GPa)
#
#
# Indices 1 2 3 4 5 6 
#
# 1 0.019792 -0.003882 -0.005017 0.000000 0.000000 0.000000
# 2 -0.003882 0.013307 -0.004383 0.000000 0.000000 0.000000
# 3 -0.005017 -0.004383 0.010454 0.000000 0.000000 0.000000
# 4 0.000000 0.000000 0.000000 0.030208 0.000000 0.000000
# 5 0.000000 0.000000 0.000000 0.000000 0.062008 0.000000
# 6 0.000000 0.000000 0.000000 0.000000 0.000000 0.122687
#
#
# Mechanical properties :
#
#
# Convention : Reuss Voigt Hill
#
# Bulk Modulus (GPa) = 58.86223 68.56054 63.71138
# Shear Modulus (GPa) = 17.20090 23.07034 20.13562
#
# Velocity S-wave (km/s) = 3.12070 3.61412 3.37644
# Velocity P-wave (km/s) = 6.80525 7.49888 7.16047
#
# Compressibility (1/GPa) = 0.01698882
#
# Stress axis : x y z
#
# Youngs Moduli (GPa) = 50.52629 75.15017 95.65329
#
# Poissons Ratio (x) = 0.29175 0.47986
# Poissons Ratio (y) = 0.19616 0.41925
# Poissons Ratio (z) = 0.25347 0.32939
#
# Static dielectric constant tensor:
#      x y z
#    x 3.462740 0.000000 0.000000 
#    y 0.000000 3.648710 0.000000 
#    z 0.000000 0.000000 3.235690 
# 
# 
# High freq. dielectric constant tensor:
#      x y z
#    x 1.675910 0.000000 0.000000 
#    y 0.000000 1.704340 0.000000 
#    z 0.000000 0.000000 1.668350 
# 
# From -- ./inp_files/30921.got.cif
#   From: 2010.03.12/outbox.cif.g09.slc.cpg/sg47_16_cif.got.tgz:30921.got - 2010.04.14 03:12:58.
