data_PCOD8197638
_publ_section_title
;
Structure prediction by ZEFSAII (Michael W. Deem and Ramdas Pophale) SiO2 
 PCOD8197638
Probable space group: P M M M
;
_chemical_formula_sum "Si O2"
_cell_formula_units_Z 60
_cell_length_a 19.898748
_cell_length_b 17.296282
_cell_length_c 8.901370
_cell_angle_alpha 90.000000
_cell_angle_beta 90.000000
_cell_angle_gamma 90.000000
_cell_volume 3063.623295
_symmetry_space_group_name_H-M "P M M M"
_symmetry_group_IT_number 47
_symmetry_cell_setting 'orthorhombic'
loop_
_space_group_symop_operation_xyz
x,y,z
-x,-y,z
x,-y,-z
-x,y,-z
-x,-y,-z
x,y,-z
-x,y,z
x,-y,z
loop_
_atom_site_type_symbol
_atom_site_label
_atom_site_fract_x
_atom_site_fract_y
_atom_site_fract_z
Si Si1 0.310478 0.304738 0.320987
Si Si2 0.678765 0.129909 0.677488
Si Si3 0.795289 0.413958 0.825256
Si Si4 0.075867 0.365309 0.675056
Si Si5 0.924761 0.204674 0.172643
Si Si6 0.812599 0.913702 0.169685
Si Si7 0.574169 0.585878 0.678639
Si Si8 0.423231 0.000000 0.679006
O O1 0.306642 0.305797 0.500000
O O2 0.321733 0.217807 0.259242
O O3 0.243361 0.345260 0.260072
O O4 0.372976 0.353450 0.255781
O O5 0.675220 0.132266 0.500000
O O6 0.748033 0.091228 0.725132
O O7 0.616225 0.077279 0.736743
O O8 0.764873 0.500000 0.793934
O O9 0.872101 0.416542 0.768911
O O10 0.793392 0.394285 0.000000
O O11 0.091209 0.375539 0.500000
O O12 0.085849 0.276427 0.718518
O O13 0.000000 0.392601 0.713578
O O14 0.872136 0.140761 0.227922
O O15 0.000000 0.170891 0.189693
O O16 0.911579 0.229633 0.000000
O O17 0.841472 0.000000 0.177419
O O18 0.791275 0.891787 0.000000
O O19 0.576196 0.586655 0.500000
O O20 0.500000 0.609768 0.735090
O O21 0.592207 0.500000 0.737281
O O22 0.500000 0.000000 0.741946
O O23 0.424658 0.000000 0.500000
#
# Coordination Sequence:
#
# PCOD8197638 Si02
#       8
#     8   8   8   8   8   8   8   4
#     4  10  20  33  54  82 109 141 182 226 271 319
#     4  10  20  34  53  78 106 139 178 218 266 322
#     4  11  24  39  55  78 109 145 184 226 275 328
#     4  10  21  37  57  80 106 138 178 224 273 324
#     4   9  18  33  53  77 106 140 177 219 268 321
#     4  10  20  33  51  74 101 136 177 220 267 317
#     4   8  14  26  46  74 107 138 168 209 262 314
#     4   9  18  34  55  79 110 145 178 218 269 321
#
# _framework density 19.584651999999998
#
# number of rings (size 3 to 8) (size 9 to 14) (size 15 to 20)
#    0.000    2.333    0.667    2.400    0.000    6.667 
#    0.000    5.333    0.000    1.200    0.000    6.533 
#    0.000    0.000    0.000    0.000    0.000    0.000 
#
# Total GULP energy -743805.060686 kJ/mol
# GULP energy per Si atom -12396.751011 kJ/mol
# Density = 1.954008 g / cm^3
# Si number density = 19.584652 Si / 1000 Ang^3
#
#
#
# Elastic Constant Matrix: (Units=GPa)
#
#
# Indices 1 2 3 4 5 6 
#
# 1 118.4327 56.6763 17.8353 0.0000 0.0000 0.0000
# 2 56.6763 117.7344 22.3865 0.0000 0.0000 0.0000
# 3 17.8353 22.3865 24.1166 0.0000 0.0000 0.0000
# 4 0.0000 0.0000 0.0000 22.1712 0.0000 0.0000
# 5 0.0000 0.0000 0.0000 0.0000 13.4902 0.0000
# 6 0.0000 0.0000 0.0000 0.0000 0.0000 40.2039
#
#
#
# Elastic Compliance Matrix: (Units=1/GPa)
#
#
# Indices 1 2 3 4 5 6 
#
# 1 0.011282 -0.004668 -0.004010 0.000000 0.000000 0.000000
# 2 -0.004668 0.012246 -0.007915 0.000000 0.000000 0.000000
# 3 -0.004010 -0.007915 0.051778 0.000000 0.000000 0.000000
# 4 0.000000 0.000000 0.000000 0.045104 0.000000 0.000000
# 5 0.000000 0.000000 0.000000 0.000000 0.074128 0.000000
# 6 0.000000 0.000000 0.000000 0.000000 0.000000 0.024873
#
#
# Mechanical properties :
#
#
# Convention : Reuss Voigt Hill
#
# Bulk Modulus (GPa) = 23.74219 50.45334 37.09776
# Shear Modulus (GPa) = 18.75214 26.06543 22.40879
#
# Velocity S-wave (km/s) = 3.09769 3.65212 3.38627
# Velocity P-wave (km/s) = 4.99434 6.60315 5.85427
#
# Compressibility (1/GPa) = 0.04211912
#
# Stress axis : x y z
#
# Youngs Moduli (GPa) = 88.64045 81.65910 19.31329
#
# Poissons Ratio (x) = 0.38122 0.07744
# Poissons Ratio (y) = 0.41381 0.15287
# Poissons Ratio (z) = 0.35542 0.64634
#
# Static dielectric constant tensor:
#      x y z
#    x 3.780760 0.000000 0.000000 
#    y 0.000000 3.776090 0.000000 
#    z 0.000000 0.000000 3.227990 
# 
# 
# High freq. dielectric constant tensor:
#      x y z
#    x 1.768760 0.000000 0.000000 
#    y 0.000000 1.768980 0.000000 
#    z 0.000000 0.000000 1.730110 
# 
# From -- ./inp_files/11665.got.cif
#   From: 2010.03.12/outbox.cif.g09.slc.cpg/sg47_6_cif.got.tgz:11665.got - 2010.04.14 03:12:58.
