data_PCOD8197679
_publ_section_title
;
Structure prediction by ZEFSAII (Michael W. Deem and Ramdas Pophale) SiO2 
 PCOD8197679
Probable space group: P M M M
;
_chemical_formula_sum "Si O2"
_cell_formula_units_Z 40
_cell_length_a 25.515964
_cell_length_b 9.721518
_cell_length_c 9.127438
_cell_angle_alpha 90.000000
_cell_angle_beta 90.000000
_cell_angle_gamma 90.000000
_cell_volume 2264.096623
_symmetry_space_group_name_H-M "P M M M"
_symmetry_group_IT_number 47
_symmetry_cell_setting 'orthorhombic'
loop_
_space_group_symop_operation_xyz
x,y,z
-x,-y,z
x,-y,-z
-x,y,-z
-x,-y,-z
x,y,-z
-x,y,z
x,-y,z
loop_
_atom_site_type_symbol
_atom_site_label
_atom_site_fract_x
_atom_site_fract_y
_atom_site_fract_z
Si Si1 0.642283 0.840513 0.328762
Si Si2 0.560949 0.657845 0.167656
Si Si3 0.057961 0.345704 0.674088
Si Si4 0.848429 0.840826 0.671999
Si Si5 0.254609 0.836488 0.834676
O O1 0.650744 0.818160 0.500000
O O2 0.592236 0.756078 0.276066
O O3 0.693779 0.782131 0.247675
O O4 0.632638 0.000000 0.290655
O O5 0.500000 0.683424 0.197802
O O6 0.575600 0.500000 0.200667
O O7 0.574833 0.694581 0.000000
O O8 0.058168 0.340626 0.500000
O O9 0.071119 0.500000 0.728068
O O10 0.101542 0.241339 0.735343
O O11 0.000000 0.302094 0.730989
O O12 0.840260 0.817036 0.500000
O O13 0.797043 0.781912 0.752404
O O14 0.858094 0.000000 0.708654
O O15 0.254374 0.000000 0.830881
O O16 0.254920 0.779566 0.000000
#
# Coordination Sequence:
#
# PCOD8197679 Si02
#       5
#     8   8   8   8   8
#     4  10  20  33  51  76 103 129 161 202 244 287
#     4   9  19  36  55  74  99 132 167 201 239 285
#     4   8  14  25  41  62  89 119 148 180 223 274
#     4   9  16  26  43  67  91 114 146 190 232 269
#     4   9  17  30  48  68  92 124 158 191 233 284
#
# _framework density 17.667090999999999
#
# number of rings (size 3 to 8) (size 9 to 14) (size 15 to 20)
#    0.000    3.000    0.000    2.400    0.000    5.200 
#    0.000    6.000    0.000    4.800    0.000    4.200 
#    0.000    0.000    0.000    0.000    0.000    0.000 
#
# Total GULP energy -495934.275591 kJ/mol
# GULP energy per Si atom -12398.356890 kJ/mol
# Density = 1.762688 g / cm^3
# Si number density = 17.667091 Si / 1000 Ang^3
#
#
#
# Elastic Constant Matrix: (Units=GPa)
#
#
# Indices 1 2 3 4 5 6 
#
# 1 137.4304 62.8215 56.8493 0.0000 0.0000 0.0000
# 2 62.8215 62.7775 37.5118 0.0000 0.0000 0.0000
# 3 56.8493 37.5118 73.6411 0.0000 0.0000 0.0000
# 4 0.0000 0.0000 0.0000 18.5306 0.0000 0.0000
# 5 0.0000 0.0000 0.0000 0.0000 15.5907 0.0000
# 6 0.0000 0.0000 0.0000 0.0000 0.0000 11.5209
#
#
#
# Elastic Compliance Matrix: (Units=1/GPa)
#
#
# Indices 1 2 3 4 5 6 
#
# 1 0.014862 -0.011525 -0.005603 0.000000 0.000000 0.000000
# 2 -0.011525 0.031836 -0.007320 0.000000 0.000000 0.000000
# 3 -0.005603 -0.007320 0.021633 0.000000 0.000000 0.000000
# 4 0.000000 0.000000 0.000000 0.053965 0.000000 0.000000
# 5 0.000000 0.000000 0.000000 0.000000 0.064141 0.000000
# 6 0.000000 0.000000 0.000000 0.000000 0.000000 0.086799
#
#
# Mechanical properties :
#
#
# Convention : Reuss Voigt Hill
#
# Bulk Modulus (GPa) = 51.44947 65.35711 58.40329
# Shear Modulus (GPa) = 15.21563 16.90621 16.06092
#
# Velocity S-wave (km/s) = 2.93788 3.09679 3.01838
# Velocity P-wave (km/s) = 6.37911 7.06122 6.72881
#
# Compressibility (1/GPa) = 0.01943655
#
# Stress axis : x y z
#
# Youngs Moduli (GPa) = 67.28499 31.41090 46.22520
#
# Poissons Ratio (x) = 0.36200 0.25899
# Poissons Ratio (y) = 0.77544 0.33837
# Poissons Ratio (z) = 0.37698 0.22993
#
# Static dielectric constant tensor:
#      x y z
#    x 3.509250 0.000000 0.000000 
#    y 0.000000 3.101050 0.000000 
#    z 0.000000 0.000000 3.100900 
# 
# 
# High freq. dielectric constant tensor:
#      x y z
#    x 1.695820 0.000000 0.000000 
#    y 0.000000 1.657390 0.000000 
#    z 0.000000 0.000000 1.663870 
# 
# From -- ./inp_files/1386.got.cif
#   From: 2010.03.12/outbox.cif.g09.slc.cpg/sg47_1_cif.got.tgz:1386.got - 2010.04.14 03:12:58.
