data_PCOD8197349
_publ_section_title
;
Structure prediction by ZEFSAII (Michael W. Deem and Ramdas Pophale) SiO2 
 PCOD8197349
Probable space group: P M M M
;
_chemical_formula_sum "Si O2"
_cell_formula_units_Z 64
_cell_length_a 29.514956
_cell_length_b 9.160115
_cell_length_c 14.050782
_cell_angle_alpha 90.000000
_cell_angle_beta 90.000000
_cell_angle_gamma 90.000000
_cell_volume 3798.774918
_symmetry_space_group_name_H-M "P M M M"
_symmetry_group_IT_number 47
_symmetry_cell_setting 'orthorhombic'
loop_
_space_group_symop_operation_xyz
x,y,z
-x,-y,z
x,-y,-z
-x,y,-z
-x,-y,-z
x,y,-z
-x,y,z
x,-y,z
loop_
_atom_site_type_symbol
_atom_site_label
_atom_site_fract_x
_atom_site_fract_y
_atom_site_fract_z
Si Si1 0.452197 0.173009 0.393333
Si Si2 0.778961 0.669293 0.892663
Si Si3 0.191260 0.164463 0.612772
Si Si4 0.868572 0.829053 0.891860
Si Si5 0.897523 0.331669 0.611162
Si Si6 0.949119 0.169131 0.757351
Si Si7 0.272381 0.329047 0.708157
Si Si8 0.646368 0.828407 0.612315
O O1 0.453855 0.234710 0.500000
O O2 0.500000 0.224038 0.341794
O O3 0.403855 0.222043 0.349638
O O4 0.451107 0.000000 0.396816
O O5 0.791452 0.500000 0.892755
O O6 0.823139 0.752655 0.852638
O O7 0.737492 0.701042 0.820288
O O8 0.765682 0.721319 0.000000
O O9 0.191374 0.160809 0.500000
O O10 0.145988 0.243321 0.649907
O O11 0.234506 0.254668 0.644199
O O12 0.192589 0.000000 0.654402
O O13 0.913414 0.777789 0.836536
O O14 0.860795 0.000000 0.882062
O O15 0.876424 0.780203 0.000000
O O16 0.905163 0.309460 0.500000
O O17 0.890675 0.500000 0.637667
O O18 0.941408 0.265245 0.662911
O O19 0.000000 0.197045 0.795271
O O20 0.941981 0.000000 0.731400
O O21 0.272709 0.500000 0.685391
O O22 0.320245 0.261489 0.679314
O O23 0.652616 0.791647 0.500000
O O24 0.654747 0.000000 0.628324
#
# Coordination Sequence:
#
# PCOD8197349 Si02
#       8
#     8   8   8   8   8   8   8   8
#     4   7  10  19  37  59  82 113 156 198 227 256
#     4   9  19  35  51  66  86 114 148 183 220 265
#     4  10  20  33  49  68  91 120 151 181 215 259
#     4   9  18  33  53  75  95 114 139 174 217 264
#     4  10  21  36  52  69  90 117 150 187 223 257
#     4  10  21  35  51  72  96 121 147 175 211 257
#     4  11  21  30  44  66  92 122 152 185 226 267
#     4   9  17  28  42  63  93 127 159 190 226 267
#
# _framework density 16.847536000000002
#
# number of rings (size 3 to 8) (size 9 to 14) (size 15 to 20)
#    0.000    2.625    0.000    3.375    0.000    7.500 
#    0.000    2.500    0.000    0.375    0.000    4.375 
#    0.000    0.500    0.000    6.250    0.000    0.250 
#
# Total GULP energy -793155.653974 kJ/mol
# GULP energy per Si atom -12393.057093 kJ/mol
# Density = 1.680919 g / cm^3
# Si number density = 16.847536 Si / 1000 Ang^3
#
#
#
# Elastic Constant Matrix: (Units=GPa)
#
#
# Indices 1 2 3 4 5 6 
#
# 1 141.7897 50.7744 53.6174 0.0000 0.0000 0.0000
# 2 50.7744 67.9733 35.5391 0.0000 0.0000 0.0000
# 3 53.6174 35.5391 49.3687 0.0000 0.0000 0.0000
# 4 0.0000 0.0000 0.0000 20.0887 0.0000 0.0000
# 5 0.0000 0.0000 0.0000 0.0000 18.5342 0.0000
# 6 0.0000 0.0000 0.0000 0.0000 0.0000 4.1787
#
#
#
# Elastic Compliance Matrix: (Units=1/GPa)
#
#
# Indices 1 2 3 4 5 6 
#
# 1 0.012491 -0.003588 -0.010983 0.000000 0.000000 0.000000
# 2 -0.003588 0.024621 -0.013827 0.000000 0.000000 0.000000
# 3 -0.010983 -0.013827 0.042137 0.000000 0.000000 0.000000
# 4 0.000000 0.000000 0.000000 0.049779 0.000000 0.000000
# 5 0.000000 0.000000 0.000000 0.000000 0.053954 0.000000
# 6 0.000000 0.000000 0.000000 0.000000 0.000000 0.239306
#
#
# Mechanical properties :
#
#
# Convention : Reuss Voigt Hill
#
# Bulk Modulus (GPa) = 44.53679 59.88816 52.21247
# Shear Modulus (GPa) = 10.27602 16.50706 13.39154
#
# Velocity S-wave (km/s) = 2.47238 3.13356 2.82240
# Velocity P-wave (km/s) = 5.88581 6.97972 6.45598
#
# Compressibility (1/GPa) = 0.02245335
#
# Stress axis : x y z
#
# Youngs Moduli (GPa) = 80.06013 40.61526 23.73188
#
# Poissons Ratio (x) = 0.14573 0.26064
# Poissons Ratio (y) = 0.28726 0.32815
# Poissons Ratio (z) = 0.87927 0.56160
#
# Static dielectric constant tensor:
#      x y z
#    x 3.466320 0.000000 0.000000 
#    y 0.000000 3.111640 0.000000 
#    z 0.000000 0.000000 3.094860 
# 
# 
# High freq. dielectric constant tensor:
#      x y z
#    x 1.647380 0.000000 0.000000 
#    y 0.000000 1.641880 0.000000 
#    z 0.000000 0.000000 1.625630 
# 
# From -- ./inp_files/14294.got.cif
#   From: 2010.03.12/outbox.cif.g09.slc.cpg/sg47_8_cif.got.tgz:14294.got - 2010.04.14 03:12:58.
