data_PCOD8197863
_publ_section_title
;
Structure prediction by ZEFSAII (Michael W. Deem and Ramdas Pophale) SiO2 
 PCOD8197863
Probable space group: P M M M
;
_chemical_formula_sum "Si O2"
_cell_formula_units_Z 44
_cell_length_a 8.852880
_cell_length_b 9.099498
_cell_length_c 28.583929
_cell_angle_alpha 90.000000
_cell_angle_beta 90.000000
_cell_angle_gamma 90.000000
_cell_volume 2302.628818
_symmetry_space_group_name_H-M "P M M M"
_symmetry_group_IT_number 47
_symmetry_cell_setting 'orthorhombic'
loop_
_space_group_symop_operation_xyz
x,y,z
-x,-y,z
x,-y,-z
-x,y,-z
-x,-y,-z
x,y,-z
-x,y,z
x,-y,z
loop_
_atom_site_type_symbol
_atom_site_label
_atom_site_fract_x
_atom_site_fract_y
_atom_site_fract_z
Si Si1 0.676931 0.168915 0.685414
Si Si2 0.164399 0.326505 0.500000
Si Si3 0.180438 0.333380 0.399149
Si Si4 0.175662 0.671318 0.228389
Si Si5 0.323422 0.828644 0.142192
Si Si6 0.679230 0.664737 0.948647
O O1 0.500000 0.191170 0.679902
O O2 0.754854 0.220640 0.637988
O O3 0.732461 0.264082 0.728619
O O4 0.719807 0.000000 0.694647
O O5 0.141377 0.500000 0.500000
O O6 0.245847 0.285133 0.450742
O O7 0.000000 0.250008 0.500000
O O8 0.231433 0.500000 0.386748
O O9 0.000000 0.324748 0.399540
O O10 0.211519 0.500000 0.224707
O O11 0.227003 0.746341 0.180797
O O12 0.000000 0.702127 0.236933
O O13 0.500000 0.792122 0.149311
O O14 0.263574 0.774716 0.091553
O O15 0.291593 0.000000 0.146393
O O16 0.500000 0.665326 0.949584
O O17 0.737685 0.500000 0.937671
O O18 0.739304 0.715462 0.000000
#
# Coordination Sequence:
#
# PCOD8197863 Si02
#       6
#     8   4   8   8   8   8
#     4  11  24  39  54  76 107 140 173 211 259 313
#     4   7  12  26  50  79 108 136 170 215 258 297
#     4   9  17  32  56  83 108 137 176 218 259 304
#     4  11  24  40  58  79 101 130 172 218 263 313
#     4  10  20  33  52  80 111 141 173 211 258 310
#     4   8  14  26  46  73 105 141 179 216 254 298
#
# _framework density 19.108594
#
# number of rings (size 3 to 8) (size 9 to 14) (size 15 to 20)
#    0.000    2.455    0.000    4.364    0.000    9.091 
#    0.000    2.727    0.000    4.909    0.000    3.818 
#    0.000    0.000    0.000    0.000    0.000    0.000 
#
# Total GULP energy -545384.870546 kJ/mol
# GULP energy per Si atom -12395.110694 kJ/mol
# Density = 1.906510 g / cm^3
# Si number density = 19.108594 Si / 1000 Ang^3
#
#
#
# Elastic Constant Matrix: (Units=GPa)
#
#
# Indices 1 2 3 4 5 6 
#
# 1 26.4015 24.2890 17.5259 0.0000 0.0000 0.0000
# 2 24.2890 78.8597 43.1904 0.0000 0.0000 0.0000
# 3 17.5259 43.1904 138.7756 0.0000 0.0000 0.0000
# 4 0.0000 0.0000 0.0000 -38.7256 0.0000 0.0000
# 5 0.0000 0.0000 0.0000 0.0000 23.0611 0.0000
# 6 0.0000 0.0000 0.0000 0.0000 0.0000 24.9195
#
#
#
# Elastic Compliance Matrix: (Units=1/GPa)
#
#
# Indices 1 2 3 4 5 6 
#
# 1 0.053289 -0.015343 -0.001955 0.000000 0.000000 0.000000
# 2 -0.015343 0.019704 -0.004195 0.000000 0.000000 0.000000
# 3 -0.001955 -0.004195 0.008758 0.000000 0.000000 0.000000
# 4 0.000000 0.000000 0.000000 -0.025823 0.000000 0.000000
# 5 0.000000 0.000000 0.000000 0.000000 0.043363 0.000000
# 6 0.000000 0.000000 0.000000 0.000000 0.000000 0.040129
#
#
# Mechanical properties :
#
#
# Convention : Reuss Voigt Hill
#
# Bulk Modulus (GPa) = 25.79519 46.00527 35.90023
# Shear Modulus (GPa) = 25.59807 12.45310 19.02558
#
# Velocity S-wave (km/s) = 3.66404 2.55561 3.15882
# Velocity P-wave (km/s) = 5.60614 5.73029 5.66855
#
# Compressibility (1/GPa) = 0.03876692
#
# Stress axis : x y z
#
# Youngs Moduli (GPa) = 18.76551 50.75193 114.17812
#
# Poissons Ratio (x) = 0.77867 0.22320
# Poissons Ratio (y) = 0.28791 0.47894
# Poissons Ratio (z) = 0.03668 0.21289
#
# Static dielectric constant tensor:
#      x y z
#    x 3.191260 0.000000 0.000000 
#    y 0.000000 3.498090 0.000000 
#    z 0.000000 0.000000 4.046870 
# 
# 
# High freq. dielectric constant tensor:
#      x y z
#    x 1.707080 0.000000 0.000000 
#    y 0.000000 1.736060 0.000000 
#    z 0.000000 0.000000 1.768600 
# 
# From -- ./inp_files/33942.got.cif
#   From: 2010.03.12/outbox.cif.g09.slc.cpg/sg47_17_cif.got.tgz:33942.got - 2010.04.14 03:12:58.
