data_PCOD8197917
_publ_section_title
;
Structure prediction by ZEFSAII (Michael W. Deem and Ramdas Pophale) SiO2 
 PCOD8197917
Probable space group: P M M M
;
_chemical_formula_sum "Si O2"
_cell_formula_units_Z 56
_cell_length_a 21.485685
_cell_length_b 8.850832
_cell_length_c 15.313732
_cell_angle_alpha 90.000000
_cell_angle_beta 90.000000
_cell_angle_gamma 90.000000
_cell_volume 2912.154044
_symmetry_space_group_name_H-M "P M M M"
_symmetry_group_IT_number 47
_symmetry_cell_setting 'orthorhombic'
loop_
_space_group_symop_operation_xyz
x,y,z
-x,-y,z
x,-y,-z
-x,y,-z
-x,-y,-z
x,y,-z
-x,y,z
x,-y,z
loop_
_atom_site_type_symbol
_atom_site_label
_atom_site_fract_x
_atom_site_fract_y
_atom_site_fract_z
Si Si1 0.500000 0.321283 0.151881
Si Si2 0.707574 0.678134 0.756284
Si Si3 0.929270 0.175824 0.100546
Si Si4 0.379197 0.326808 0.402271
Si Si5 0.625050 0.827201 0.098471
Si Si6 0.069808 0.320254 0.596617
Si Si7 0.500000 0.176975 0.339891
Si Si8 0.848423 0.320988 0.246178
O O1 0.500000 0.500000 0.148155
O O2 0.439501 0.261281 0.103082
O O3 0.500000 0.269796 0.251201
O O4 0.704919 0.500000 0.771961
O O5 0.673305 0.723777 0.666497
O O6 0.675915 0.757430 0.838061
O O7 0.777918 0.738861 0.750854
O O8 0.881377 0.270337 0.157673
O O9 0.000000 0.223713 0.123191
O O10 0.919679 0.000000 0.119774
O O11 0.914769 0.212672 0.000000
O O12 0.351711 0.308390 0.500000
O O13 0.399276 0.500000 0.384702
O O14 0.439143 0.220543 0.394473
O O15 0.612884 0.000000 0.125602
O O16 0.650946 0.814952 0.000000
O O17 0.091037 0.265612 0.500000
O O18 0.070701 0.500000 0.599892
O O19 0.115818 0.252293 0.669647
O O20 0.000000 0.261816 0.616234
O O21 0.500000 0.000000 0.320006
O O22 0.849435 0.500000 0.249887
#
# Coordination Sequence:
#
# PCOD8197917 Si02
#       8
#     4   8   8   8   8   8   4   8
#     4  12  23  38  63  90 116 144 177 225 286 339
#     4  10  22  38  55  79 113 152 188 228 276 328
#     4   9  19  36  56  78 106 142 183 226 278 339
#     4  10  21  38  59  82 111 150 192 232 280 337
#     4  11  24  41  61  85 112 145 186 230 277 331
#     4   8  14  26  47  77 111 143 176 220 274 327
#     4  12  23  36  59  88 116 146 185 233 282 331
#     4  10  20  33  53  82 112 144 186 230 275 322
#
# _framework density 19.229752999999999
#
# number of rings (size 3 to 8) (size 9 to 14) (size 15 to 20)
#    0.000    2.000    1.429    3.429    0.000    6.000 
#    0.000    6.429    0.000    0.429    0.000    4.000 
#    0.000    0.000    0.000    0.000    0.000    0.000 
#
# Total GULP energy -694473.472476 kJ/mol
# GULP energy per Si atom -12401.312009 kJ/mol
# Density = 1.918598 g / cm^3
# Si number density = 19.229753 Si / 1000 Ang^3
#
#
#
# Elastic Constant Matrix: (Units=GPa)
#
#
# Indices 1 2 3 4 5 6 
#
# 1 157.8130 41.6904 81.5186 0.0000 0.0000 0.0000
# 2 41.6904 51.4970 30.9355 0.0000 0.0000 0.0000
# 3 81.5186 30.9355 137.2128 0.0000 0.0000 0.0000
# 4 0.0000 0.0000 0.0000 4.4546 0.0000 0.0000
# 5 0.0000 0.0000 0.0000 0.0000 9.2671 0.0000
# 6 0.0000 0.0000 0.0000 0.0000 0.0000 15.0411
#
#
#
# Elastic Compliance Matrix: (Units=1/GPa)
#
#
# Indices 1 2 3 4 5 6 
#
# 1 0.010291 -0.005388 -0.004899 0.000000 0.000000 0.000000
# 2 -0.005388 0.025282 -0.002499 0.000000 0.000000 0.000000
# 3 -0.004899 -0.002499 0.010762 0.000000 0.000000 0.000000
# 4 0.000000 0.000000 0.000000 0.224486 0.000000 0.000000
# 5 0.000000 0.000000 0.000000 0.000000 0.107909 0.000000
# 6 0.000000 0.000000 0.000000 0.000000 0.000000 0.066485
#
#
# Mechanical properties :
#
#
# Convention : Reuss Voigt Hill
#
# Bulk Modulus (GPa) = 48.16381 72.75686 60.46034
# Shear Modulus (GPa) = 10.46671 18.57778 14.52224
#
# Velocity S-wave (km/s) = 2.33555 3.11158 2.75107
# Velocity P-wave (km/s) = 5.68981 7.12930 6.44984
#
# Compressibility (1/GPa) = 0.02076248
#
# Stress axis : x y z
#
# Youngs Moduli (GPa) = 97.17693 39.55423 92.92150
#
# Poissons Ratio (x) = 0.21312 0.45521
# Poissons Ratio (y) = 0.52359 0.23220
# Poissons Ratio (z) = 0.47606 0.09884
#
# Static dielectric constant tensor:
#      x y z
#    x 3.646940 0.000000 0.000000 
#    y 0.000000 3.292010 0.000000 
#    z 0.000000 0.000000 3.687880 
# 
# 
# High freq. dielectric constant tensor:
#      x y z
#    x 1.744340 0.000000 0.000000 
#    y 0.000000 1.726280 0.000000 
#    z 0.000000 0.000000 1.763520 
# 
# From -- ./inp_files/25234.got.cif
#   From: 2010.03.12/outbox.cif.g09.slc.cpg/sg47_13_cif.got.tgz:25234.got - 2010.04.14 03:12:58.
