data_PCOD8197953
_publ_section_title
;
Structure prediction by ZEFSAII (Michael W. Deem and Ramdas Pophale) SiO2 
 PCOD8197953
Probable space group: P M M M
;
_chemical_formula_sum "Si O2"
_cell_formula_units_Z 52
_cell_length_a 13.654585
_cell_length_b 26.442437
_cell_length_c 8.643403
_cell_angle_alpha 90.000000
_cell_angle_beta 90.000000
_cell_angle_gamma 90.000000
_cell_volume 3120.791440
_symmetry_space_group_name_H-M "P M M M"
_symmetry_group_IT_number 47
_symmetry_cell_setting 'orthorhombic'
loop_
_space_group_symop_operation_xyz
x,y,z
-x,-y,z
x,-y,-z
-x,y,-z
-x,-y,-z
x,y,-z
-x,y,z
x,-y,z
loop_
_atom_site_type_symbol
_atom_site_label
_atom_site_fract_x
_atom_site_fract_y
_atom_site_fract_z
Si Si1 0.888603 0.753705 0.181658
Si Si2 0.208283 0.849071 0.320180
Si Si3 0.388610 0.800624 0.818841
Si Si4 0.707028 0.705293 0.319874
Si Si5 0.383840 0.390522 0.179064
Si Si6 0.393228 0.500000 0.817372
Si Si7 0.112819 0.942487 0.820637
O O1 0.861649 0.811061 0.226528
O O2 0.819647 0.713804 0.270134
O O3 0.000000 0.742490 0.230164
O O4 0.872818 0.747142 0.000000
O O5 0.194722 0.838087 0.500000
O O6 0.321000 0.840142 0.273005
O O7 0.180243 0.906497 0.282394
O O8 0.500000 0.812365 0.773431
O O9 0.363139 0.743201 0.773432
O O10 0.370137 0.807264 0.000000
O O11 0.695872 0.716788 0.500000
O O12 0.674891 0.648385 0.284771
O O13 0.500000 0.387069 0.210160
O O14 0.342135 0.446601 0.227735
O O15 0.361273 0.378923 0.000000
O O16 0.500000 0.500000 0.738589
O O17 0.407833 0.500000 0.000000
O O18 0.000000 0.933491 0.776607
O O19 0.143045 0.000000 0.783345
O O20 0.130233 0.930281 0.000000
#
# Coordination Sequence:
#
# PCOD8197953 Si02
#       7
#     8   8   8   8   8   4   8
#     4  10  20  34  51  68  89 120 157 193 226 267
#     4  11  21  31  48  73 100 126 149 183 232 280
#     4  10  20  34  51  68  89 122 162 197 226 263
#     4  11  21  30  44  68  97 125 151 185 231 279
#     4   9  16  28  46  66  91 123 158 193 226 265
#     4   7  12  24  43  65  86 115 156 195 227 260
#     4   9  18  33  52  72  95 125 159 192 225 265
#
# _framework density 16.66244
#
# number of rings (size 3 to 8) (size 9 to 14) (size 15 to 20)
#    0.000    2.231    0.000    7.846    0.000    7.077 
#    0.000    1.154    0.000    1.846    0.000    3.769 
#    0.000    4.308    0.000    0.000    0.000    0.000 
#
# Total GULP energy -644681.951921 kJ/mol
# GULP energy per Si atom -12397.729845 kJ/mol
# Density = 1.662452 g / cm^3
# Si number density = 16.662440 Si / 1000 Ang^3
#
#
#
# Elastic Constant Matrix: (Units=GPa)
#
#
# Indices 1 2 3 4 5 6 
#
# 1 86.6004 44.3859 28.2344 0.0000 0.0000 0.0000
# 2 44.3859 106.7780 19.8546 0.0000 0.0000 0.0000
# 3 28.2344 19.8546 43.3214 0.0000 0.0000 0.0000
# 4 0.0000 0.0000 0.0000 11.4554 0.0000 0.0000
# 5 0.0000 0.0000 0.0000 0.0000 6.7271 0.0000
# 6 0.0000 0.0000 0.0000 0.0000 0.0000 21.5226
#
#
#
# Elastic Compliance Matrix: (Units=1/GPa)
#
#
# Indices 1 2 3 4 5 6 
#
# 1 0.017219 -0.005543 -0.008682 0.000000 0.000000 0.000000
# 2 -0.005543 0.012022 -0.001897 0.000000 0.000000 0.000000
# 3 -0.008682 -0.001897 0.029611 0.000000 0.000000 0.000000
# 4 0.000000 0.000000 0.000000 0.087295 0.000000 0.000000
# 5 0.000000 0.000000 0.000000 0.000000 0.148652 0.000000
# 6 0.000000 0.000000 0.000000 0.000000 0.000000 0.046463
#
#
# Mechanical properties :
#
#
# Convention : Reuss Voigt Hill
#
# Bulk Modulus (GPa) = 37.58292 46.84996 42.21644
# Shear Modulus (GPa) = 13.07615 17.55603 15.31609
#
# Velocity S-wave (km/s) = 2.80441 3.24949 3.03512
# Velocity P-wave (km/s) = 5.75245 6.50054 6.13791
#
# Compressibility (1/GPa) = 0.02660783
#
# Stress axis : x y z
#
# Youngs Moduli (GPa) = 58.07551 83.17908 33.77129
#
# Poissons Ratio (x) = 0.46109 0.29319
# Poissons Ratio (y) = 0.32193 0.06407
# Poissons Ratio (z) = 0.50420 0.15780
#
# Static dielectric constant tensor:
#      x y z
#    x 3.032280 0.000000 0.000000 
#    y 0.000000 3.173180 0.000000 
#    z 0.000000 0.000000 3.049800 
# 
# 
# High freq. dielectric constant tensor:
#      x y z
#    x 1.619600 0.000000 0.000000 
#    y 0.000000 1.636730 0.000000 
#    z 0.000000 0.000000 1.643120 
# 
# From -- ./inp_files/7694.got.cif
#   From: 2010.03.12/outbox.cif.g09.slc.cpg/sg47_4_cif.got.tgz:7694.got - 2010.04.14 03:12:58.
