data_PCOD8197375
_publ_section_title
;
Structure prediction by ZEFSAII (Michael W. Deem and Ramdas Pophale) SiO2 
 PCOD8197375
Probable space group: P M M M
;
_chemical_formula_sum "Si O2"
_cell_formula_units_Z 64
_cell_length_a 8.738213
_cell_length_b 29.194696
_cell_length_c 14.417257
_cell_angle_alpha 90.000000
_cell_angle_beta 90.000000
_cell_angle_gamma 90.000000
_cell_volume 3677.978823
_symmetry_space_group_name_H-M "P M M M"
_symmetry_group_IT_number 47
_symmetry_cell_setting 'orthorhombic'
loop_
_space_group_symop_operation_xyz
x,y,z
-x,-y,z
x,-y,-z
-x,y,-z
-x,-y,-z
x,y,-z
-x,y,z
x,-y,z
loop_
_atom_site_type_symbol
_atom_site_label
_atom_site_fract_x
_atom_site_fract_y
_atom_site_fract_z
Si Si1 0.179771 0.730326 0.272396
Si Si2 0.177705 0.096779 0.604874
Si Si3 0.171103 0.548460 0.389935
Si Si4 0.183326 0.353185 0.395195
Si Si5 0.680353 0.224280 0.105451
Si Si6 0.824693 0.871512 0.109034
Si Si7 0.324207 0.192553 0.391919
Si Si8 0.676966 0.948431 0.769239
O O1 0.244354 0.685030 0.323914
O O2 0.259912 0.735200 0.172035
O O3 0.216532 0.773421 0.336324
O O4 0.000000 0.726807 0.256577
O O5 0.213496 0.081208 0.500000
O O6 0.273854 0.141397 0.633038
O O7 0.230692 0.056627 0.673046
O O8 0.000000 0.108029 0.617958
O O9 0.162883 0.550233 0.500000
O O10 0.254116 0.500000 0.359121
O O11 0.248204 0.596912 0.359564
O O12 0.000000 0.546797 0.349073
O O13 0.241741 0.342160 0.500000
O O14 0.000000 0.354486 0.396123
O O15 0.500000 0.219917 0.113113
O O16 0.752087 0.176558 0.140729
O O17 0.731625 0.235316 0.000000
O O18 0.736707 0.913702 0.153746
O O19 0.000000 0.872042 0.141951
O O20 0.808095 0.877536 0.000000
O O21 0.299644 0.202399 0.500000
O O22 0.500000 0.199413 0.361834
O O23 0.500000 0.938730 0.749765
O O24 0.703708 0.000000 0.805870
#
# Coordination Sequence:
#
# PCOD8197375 Si02
#       8
#     8   8   8   8   8   8   8   8
#     4  11  20  29  45  68  97 128 155 190 235 281
#     4  10  21  37  56  75  95 122 158 198 235 270
#     4   7   9  15  29  49  77 117 161 198 229 265
#     4   8  14  23  35  57  91 128 162 193 229 274
#     4  10  21  37  55  72  92 120 154 191 230 276
#     4  10  21  38  60  82 101 121 148 185 228 274
#     4  10  20  33  49  69  95 127 161 193 224 266
#     4  11  24  39  55  76 102 130 156 184 222 270
#
# _framework density 17.400860000000002
#
# number of rings (size 3 to 8) (size 9 to 14) (size 15 to 20)
#    0.000    2.375    0.000    4.500    0.000    5.000 
#    0.000    2.500    0.000    0.000    0.000    0.000 
#    0.000    2.500    0.000   20.375    0.000   12.750 
#
# Total GULP energy -793271.328906 kJ/mol
# GULP energy per Si atom -12394.864514 kJ/mol
# Density = 1.736126 g / cm^3
# Si number density = 17.400860 Si / 1000 Ang^3
#
#
#
# Elastic Constant Matrix: (Units=GPa)
#
#
# Indices 1 2 3 4 5 6 
#
# 1 43.7596 23.1817 22.1578 0.0000 0.0000 0.0000
# 2 23.1817 113.9646 60.1596 0.0000 0.0000 0.0000
# 3 22.1578 60.1596 67.7584 0.0000 0.0000 0.0000
# 4 0.0000 0.0000 0.0000 18.6821 0.0000 0.0000
# 5 0.0000 0.0000 0.0000 0.0000 25.0844 0.0000
# 6 0.0000 0.0000 0.0000 0.0000 0.0000 2.7375
#
#
#
# Elastic Compliance Matrix: (Units=1/GPa)
#
#
# Indices 1 2 3 4 5 6 
#
# 1 0.027540 -0.001596 -0.007589 0.000000 0.000000 0.000000
# 2 -0.001596 0.016607 -0.014223 0.000000 0.000000 0.000000
# 3 -0.007589 -0.014223 0.029868 0.000000 0.000000 0.000000
# 4 0.000000 0.000000 0.000000 0.053527 0.000000 0.000000
# 5 0.000000 0.000000 0.000000 0.000000 0.039865 0.000000
# 6 0.000000 0.000000 0.000000 0.000000 0.000000 0.365303
#
#
# Mechanical properties :
#
#
# Convention : Reuss Voigt Hill
#
# Bulk Modulus (GPa) = 36.76517 48.49786 42.63152
# Shear Modulus (GPa) = 8.49483 17.29968 12.89725
#
# Velocity S-wave (km/s) = 2.21189 3.15649 2.72542
# Velocity P-wave (km/s) = 5.26284 6.41997 5.86999
#
# Compressibility (1/GPa) = 0.02719966
#
# Stress axis : x y z
#
# Youngs Moduli (GPa) = 36.31039 60.21449 33.48064
#
# Poissons Ratio (x) = 0.09610 0.25409
# Poissons Ratio (y) = 0.05795 0.47619
# Poissons Ratio (z) = 0.27556 0.85643
#
# Static dielectric constant tensor:
#      x y z
#    x 3.102470 0.000000 0.000000 
#    y 0.000000 3.568280 0.000000 
#    z 0.000000 0.000000 3.212690 
# 
# 
# High freq. dielectric constant tensor:
#      x y z
#    x 1.659400 0.000000 0.000000 
#    y 0.000000 1.666990 0.000000 
#    z 0.000000 0.000000 1.654030 
# 
# From -- ./inp_files/22128.got.cif
#   From: 2010.03.12/outbox.cif.g09.slc.cpg/sg47_12_cif.got.tgz:22128.got - 2010.04.14 03:12:58.
