data_PCOD8197593
_publ_section_title
;
Structure prediction by ZEFSAII (Michael W. Deem and Ramdas Pophale) SiO2 
 PCOD8197593
Probable space group: P M M M
;
_chemical_formula_sum "Si O2"
_cell_formula_units_Z 48
_cell_length_a 9.142308
_cell_length_b 9.134752
_cell_length_c 30.956215
_cell_angle_alpha 90.000000
_cell_angle_beta 90.000000
_cell_angle_gamma 90.000000
_cell_volume 2585.237601
_symmetry_space_group_name_H-M "P M M M"
_symmetry_group_IT_number 47
_symmetry_cell_setting 'orthorhombic'
loop_
_space_group_symop_operation_xyz
x,y,z
-x,-y,z
x,-y,-z
-x,y,-z
-x,-y,-z
x,y,-z
-x,y,z
x,-y,z
loop_
_atom_site_type_symbol
_atom_site_label
_atom_site_fract_x
_atom_site_fract_y
_atom_site_fract_z
Si Si1 0.173431 0.838015 0.755514
Si Si2 0.834723 0.674212 0.500000
Si Si3 0.671091 0.170726 0.914898
Si Si4 0.834102 0.173031 0.340466
Si Si5 0.669510 0.328959 0.584346
Si Si6 0.826375 0.333466 0.161903
Si Si7 0.673807 0.334689 0.000000
O O1 0.220138 0.783920 0.707794
O O2 0.229676 0.724747 0.791618
O O3 0.000000 0.849074 0.756412
O O4 0.238611 0.000000 0.765132
O O5 0.829273 0.500000 0.500000
O O6 0.754068 0.734097 0.457380
O O7 0.000000 0.733742 0.500000
O O8 0.500000 0.200967 0.908192
O O9 0.756806 0.232728 0.874350
O O10 0.704757 0.000000 0.919950
O O11 0.731345 0.251266 0.957629
O O12 0.724687 0.249191 0.373123
O O13 0.000000 0.228411 0.348555
O O14 0.826455 0.000000 0.346536
O O15 0.500000 0.294821 0.577489
O O16 0.699872 0.500000 0.590135
O O17 0.772547 0.500000 0.156488
O O18 0.000000 0.321862 0.158243
O O19 0.735607 0.500000 0.000000
O O20 0.500000 0.334067 0.000000
#
# Coordination Sequence:
#
# PCOD8197593 Si02
#       7
#     8   4   8   8   8   8   4
#     4   8  15  30  51  72  96 129 167 205 246 294
#     4   9  17  31  52  75  98 129 170 212 252 295
#     4  10  20  34  53  76 101 132 171 210 249 300
#     4   9  18  33  53  76 100 128 166 209 249 293
#     4  10  20  33  50  74 104 135 166 203 250 302
#     4  10  20  33  51  77 106 134 166 207 255 303
#     4   9  17  31  52  75 100 131 166 208 258 305
#
# _framework density 18.566958
#
# number of rings (size 3 to 8) (size 9 to 14) (size 15 to 20)
#    0.000    2.667    0.000    3.000    0.000    6.000 
#    0.000    3.333    0.000    6.000    0.000    0.000 
#    0.000    0.000    0.000    0.000    0.000    0.000 
#
# Total GULP energy -595174.168503 kJ/mol
# GULP energy per Si atom -12399.461844 kJ/mol
# Density = 1.852470 g / cm^3
# Si number density = 18.566958 Si / 1000 Ang^3
#
#
#
# Elastic Constant Matrix: (Units=GPa)
#
#
# Indices 1 2 3 4 5 6 
#
# 1 51.6307 31.1412 48.2462 0.0000 0.0000 0.0000
# 2 31.1412 82.9128 61.4606 0.0000 0.0000 0.0000
# 3 48.2462 61.4606 165.4290 0.0000 0.0000 0.0000
# 4 0.0000 0.0000 0.0000 28.8025 0.0000 0.0000
# 5 0.0000 0.0000 0.0000 0.0000 3.8003 0.0000
# 6 0.0000 0.0000 0.0000 0.0000 0.0000 24.1619
#
#
#
# Elastic Compliance Matrix: (Units=1/GPa)
#
#
# Indices 1 2 3 4 5 6 
#
# 1 0.028858 -0.006348 -0.006058 0.000000 0.000000 0.000000
# 2 -0.006348 0.018041 -0.004851 0.000000 0.000000 0.000000
# 3 -0.006058 -0.004851 0.009614 0.000000 0.000000 0.000000
# 4 0.000000 0.000000 0.000000 0.034719 0.000000 0.000000
# 5 0.000000 0.000000 0.000000 0.000000 0.263136 0.000000
# 6 0.000000 0.000000 0.000000 0.000000 0.000000 0.041387
#
#
# Mechanical properties :
#
#
# Convention : Reuss Voigt Hill
#
# Bulk Modulus (GPa) = 45.45759 64.62983 55.04371
# Shear Modulus (GPa) = 11.42586 21.96125 16.69355
#
# Velocity S-wave (km/s) = 2.48339 3.44294 3.00175
# Velocity P-wave (km/s) = 5.72356 7.11967 6.45945
#
# Compressibility (1/GPa) = 0.02199852
#
# Stress axis : x y z
#
# Youngs Moduli (GPa) = 34.65257 55.42807 104.01573
#
# Poissons Ratio (x) = 0.35188 0.63009
# Poissons Ratio (y) = 0.21999 0.50461
# Poissons Ratio (z) = 0.20991 0.26890
#
# Static dielectric constant tensor:
#      x y z
#    x 3.133140 0.000000 0.000000 
#    y 0.000000 3.415060 0.000000 
#    z 0.000000 0.000000 3.697270 
# 
# 
# High freq. dielectric constant tensor:
#      x y z
#    x 1.690200 0.000000 0.000000 
#    y 0.000000 1.713240 0.000000 
#    z 0.000000 0.000000 1.738110 
# 
# From -- ./inp_files/34127.got.cif
#   From: 2010.03.12/outbox.cif.g09.slc.cpg/sg47_18_cif.got.tgz:34127.got - 2010.04.14 03:12:58.
