data_PCOD8197654
_publ_section_title
;
Structure prediction by ZEFSAII (Michael W. Deem and Ramdas Pophale) SiO2 
 PCOD8197654
Probable space group: P M M M
;
_chemical_formula_sum "Si O2"
_cell_formula_units_Z 44
_cell_length_a 17.721396
_cell_length_b 9.183578
_cell_length_c 15.330705
_cell_angle_alpha 90.000000
_cell_angle_beta 90.000000
_cell_angle_gamma 90.000000
_cell_volume 2495.008194
_symmetry_space_group_name_H-M "P M M M"
_symmetry_group_IT_number 47
_symmetry_cell_setting 'orthorhombic'
loop_
_space_group_symop_operation_xyz
x,y,z
-x,-y,z
x,-y,-z
-x,y,-z
-x,-y,-z
x,y,-z
-x,y,z
x,-y,z
loop_
_atom_site_type_symbol
_atom_site_label
_atom_site_fract_x
_atom_site_fract_y
_atom_site_fract_z
Si Si1 0.231505 0.668522 0.596519
Si Si2 0.304267 0.671277 0.228373
Si Si3 0.084861 0.833525 0.350005
Si Si4 0.161116 0.166516 0.171807
Si Si5 0.918284 0.172520 0.000000
Si Si6 0.588403 0.831307 0.901781
O O1 0.265963 0.696730 0.500000
O O2 0.214095 0.500000 0.612875
O O3 0.293294 0.720074 0.669186
O O4 0.150359 0.746552 0.600737
O O5 0.316278 0.500000 0.220373
O O6 0.228360 0.721168 0.182711
O O7 0.373522 0.745607 0.178175
O O8 0.098456 0.821833 0.246717
O O9 0.000000 0.773843 0.370482
O O10 0.090494 0.000000 0.381276
O O11 0.124821 0.226076 0.084461
O O12 0.191386 0.000000 0.164759
O O13 0.000000 0.246246 0.000000
O O14 0.925699 0.000000 0.000000
O O15 0.500000 0.804346 0.892043
O O16 0.608833 0.000000 0.890789
O O17 0.614026 0.780591 0.000000
#
# Coordination Sequence:
#
# PCOD8197654 Si02
#       6
#     8   8   8   8   4   8
#     4   9  19  35  51  68  94 130 170 207 247 298
#     4  10  20  33  51  75 101 129 162 203 245 286
#     4   9  17  29  45  66  93 123 160 212 265 302
#     4   9  17  29  45  65  91 127 166 203 245 295
#     4   9  16  26  43  65  86 117 166 211 239 276
#     4   9  19  36  57  80 106 135 163 190 227 282
#
# _framework density 17.635211999999999
#
# number of rings (size 3 to 8) (size 9 to 14) (size 15 to 20)
#    0.000    2.818    0.000    1.636    1.273    4.727 
#    0.000    2.727    0.000    2.727    0.000    3.818 
#    0.000    0.000    0.000    0.000    0.000    0.000 
#
# Total GULP energy -545196.969154 kJ/mol
# GULP energy per Si atom -12390.840208 kJ/mol
# Density = 1.759507 g / cm^3
# Si number density = 17.635212 Si / 1000 Ang^3
#
#
#
# Elastic Constant Matrix: (Units=GPa)
#
#
# Indices 1 2 3 4 5 6 
#
# 1 75.0163 35.1919 54.8508 0.0000 0.0000 0.0000
# 2 35.1919 50.2690 41.9261 0.0000 0.0000 0.0000
# 3 54.8508 41.9261 144.5107 0.0000 0.0000 0.0000
# 4 0.0000 0.0000 0.0000 22.8890 0.0000 0.0000
# 5 0.0000 0.0000 0.0000 0.0000 16.0741 0.0000
# 6 0.0000 0.0000 0.0000 0.0000 0.0000 0.9808
#
#
#
# Elastic Compliance Matrix: (Units=1/GPa)
#
#
# Indices 1 2 3 4 5 6 
#
# 1 0.022500 -0.011383 -0.005238 0.000000 0.000000 0.000000
# 2 -0.011383 0.032002 -0.004964 0.000000 0.000000 0.000000
# 3 -0.005238 -0.004964 0.010348 0.000000 0.000000 0.000000
# 4 0.000000 0.000000 0.000000 0.043689 0.000000 0.000000
# 5 0.000000 0.000000 0.000000 0.000000 0.062212 0.000000
# 6 0.000000 0.000000 0.000000 0.000000 0.000000 1.019584
#
#
# Mechanical properties :
#
#
# Convention : Reuss Voigt Hill
#
# Bulk Modulus (GPa) = 46.12409 59.30373 52.71391
# Shear Modulus (GPa) = 4.02988 17.17725 10.60356
#
# Velocity S-wave (km/s) = 1.51330 3.12433 2.45475
# Velocity P-wave (km/s) = 5.40969 6.83493 6.16365
#
# Compressibility (1/GPa) = 0.02168065
#
# Stress axis : x y z
#
# Youngs Moduli (GPa) = 44.44365 31.24774 96.63625
#
# Poissons Ratio (x) = 0.35571 0.50615
# Poissons Ratio (y) = 0.50592 0.47969
# Poissons Ratio (z) = 0.23278 0.15511
#
# Static dielectric constant tensor:
#      x y z
#    x 3.111710 0.000000 0.000000 
#    y 0.000000 3.126090 0.000000 
#    z 0.000000 0.000000 3.741740 
# 
# 
# High freq. dielectric constant tensor:
#      x y z
#    x 1.661340 0.000000 0.000000 
#    y 0.000000 1.665000 0.000000 
#    z 0.000000 0.000000 1.693030 
# 
# From -- ./inp_files/6124.got.cif
#   From: 2010.03.12/outbox.cif.g09.slc.cpg/sg47_4_cif.got.tgz:6124.got - 2010.04.14 03:12:58.
