data_PCOD8198647
_publ_section_title
;
Structure prediction by ZEFSAII (Michael W. Deem and Ramdas Pophale) SiO2 
 PCOD8198647
Probable space group: P M M M
;
_chemical_formula_sum "Si O2"
_cell_formula_units_Z 64
_cell_length_a 19.241199
_cell_length_b 19.367307
_cell_length_c 9.210155
_cell_angle_alpha 90.000000
_cell_angle_beta 90.000000
_cell_angle_gamma 90.000000
_cell_volume 3432.166177
_symmetry_space_group_name_H-M "P M M M"
_symmetry_group_IT_number 47
_symmetry_cell_setting 'orthorhombic'
loop_
_space_group_symop_operation_xyz
x,y,z
-x,-y,z
x,-y,-z
-x,y,-z
-x,-y,-z
x,y,-z
-x,y,z
x,-y,z
loop_
_atom_site_type_symbol
_atom_site_label
_atom_site_fract_x
_atom_site_fract_y
_atom_site_fract_z
Si Si1 0.804619 0.317294 0.169453
Si Si2 0.422251 0.815548 0.670651
Si Si3 0.581794 0.577189 0.160737
Si Si4 0.337607 0.315797 0.670590
Si Si5 0.811129 0.157719 0.832342
Si Si6 0.922127 0.422130 0.827664
Si Si7 0.690033 0.921557 0.670705
Si Si8 0.919243 0.921921 0.337693
O O1 0.734255 0.333902 0.252637
O O2 0.822844 0.237999 0.199800
O O3 0.866250 0.366417 0.231896
O O4 0.792757 0.331862 0.000000
O O5 0.429615 0.804599 0.500000
O O6 0.500000 0.814409 0.740509
O O7 0.373238 0.754346 0.732258
O O8 0.385420 0.888648 0.706288
O O9 0.500000 0.577110 0.176525
O O10 0.611134 0.500000 0.178985
O O11 0.611035 0.622402 0.291306
O O12 0.602975 0.605344 0.000000
O O13 0.324801 0.310854 0.500000
O O14 0.747932 0.125930 0.742939
O O15 0.882402 0.122849 0.784091
O O16 0.796651 0.142789 0.000000
O O17 0.901708 0.500000 0.777228
O O18 0.000000 0.403885 0.770036
O O19 0.922904 0.418711 0.000000
O O20 0.704799 0.920490 0.500000
O O21 0.691402 0.000000 0.730573
O O22 0.903807 0.893574 0.500000
O O23 0.000000 0.919161 0.302888
O O24 0.891347 0.000000 0.327237
#
# Coordination Sequence:
#
# PCOD8198647 Si02
#       8
#     8   8   8   8   8   8   8   8
#     4  10  21  35  53  79 110 143 180 218 263 322
#     4   9  18  33  53  78 105 134 173 223 278 327
#     4   9  19  36  56  78 107 144 183 222 267 324
#     4  11  21  34  54  79 111 146 179 226 275 320
#     4  11  22  34  51  77 111 145 177 221 271 322
#     4   8  15  31  56  82 105 133 174 222 266 308
#     4  10  20  35  56  78 102 138 181 224 273 331
#     4   9  19  36  56  77 103 138 180 223 268 325
#
# _framework density 18.647116
#
# number of rings (size 3 to 8) (size 9 to 14) (size 15 to 20)
#    0.000    2.375    1.250    2.625    0.000    5.000 
#    0.000    5.000    0.000    1.500    0.000    1.750 
#    0.000    0.000    0.000    0.000    0.000    0.000 
#
# Total GULP energy -793405.887748 kJ/mol
# GULP energy per Si atom -12396.966996 kJ/mol
# Density = 1.860467 g / cm^3
# Si number density = 18.647116 Si / 1000 Ang^3
#
#
#
# Elastic Constant Matrix: (Units=GPa)
#
#
# Indices 1 2 3 4 5 6 
#
# 1 111.6828 72.9333 29.8585 0.0000 0.0000 0.0000
# 2 72.9333 124.7906 37.9214 0.0000 0.0000 0.0000
# 3 29.8585 37.9214 35.4689 0.0000 0.0000 0.0000
# 4 0.0000 0.0000 0.0000 25.1127 0.0000 0.0000
# 5 0.0000 0.0000 0.0000 0.0000 26.1709 0.0000
# 6 0.0000 0.0000 0.0000 0.0000 0.0000 32.1615
#
#
#
# Elastic Compliance Matrix: (Units=1/GPa)
#
#
# Indices 1 2 3 4 5 6 
#
# 1 0.015019 -0.007311 -0.004827 0.000000 0.000000 0.000000
# 2 -0.007311 0.015429 -0.010341 0.000000 0.000000 0.000000
# 3 -0.004827 -0.010341 0.043313 0.000000 0.000000 0.000000
# 4 0.000000 0.000000 0.000000 0.039820 0.000000 0.000000
# 5 0.000000 0.000000 0.000000 0.000000 0.038210 0.000000
# 6 0.000000 0.000000 0.000000 0.000000 0.000000 0.031093
#
#
# Mechanical properties :
#
#
# Convention : Reuss Voigt Hill
#
# Bulk Modulus (GPa) = 34.71845 61.48541 48.10193
# Shear Modulus (GPa) = 21.05777 25.43763 23.24770
#
# Velocity S-wave (km/s) = 3.36412 3.69746 3.53472
# Velocity P-wave (km/s) = 5.80937 7.16052 6.52004
#
# Compressibility (1/GPa) = 0.02880313
#
# Stress axis : x y z
#
# Youngs Moduli (GPa) = 66.58411 64.81459 23.08782
#
# Poissons Ratio (x) = 0.47385 0.11144
# Poissons Ratio (y) = 0.48678 0.23875
# Poissons Ratio (z) = 0.32138 0.67025
#
# Static dielectric constant tensor:
#      x y z
#    x 3.569790 0.000000 0.000000 
#    y 0.000000 3.650260 0.000000 
#    z 0.000000 0.000000 3.175450 
# 
# 
# High freq. dielectric constant tensor:
#      x y z
#    x 1.730430 0.000000 0.000000 
#    y 0.000000 1.729000 0.000000 
#    z 0.000000 0.000000 1.691950 
# 
# From -- ./inp_files/10045.got.cif
#   From: 2010.03.12/outbox.cif.g09.slc.cpg/sg47_6_cif.got.tgz:10045.got - 2010.04.14 03:12:58.
