data_PCOD8198356
_publ_section_title
;
Structure prediction by ZEFSAII (Michael W. Deem and Ramdas Pophale) SiO2 
 PCOD8198356
Probable space group: P M M M
;
_chemical_formula_sum "Si O2"
_cell_formula_units_Z 52
_cell_length_a 19.290079
_cell_length_b 8.824659
_cell_length_c 15.612937
_cell_angle_alpha 90.000000
_cell_angle_beta 90.000000
_cell_angle_gamma 90.000000
_cell_volume 2657.764805
_symmetry_space_group_name_H-M "P M M M"
_symmetry_group_IT_number 47
_symmetry_cell_setting 'orthorhombic'
loop_
_space_group_symop_operation_xyz
x,y,z
-x,-y,z
x,-y,-z
-x,y,-z
-x,-y,-z
x,y,-z
-x,y,z
x,-y,z
loop_
_atom_site_type_symbol
_atom_site_label
_atom_site_fract_x
_atom_site_fract_y
_atom_site_fract_z
Si Si1 0.218341 0.174811 0.403861
Si Si2 0.295489 0.677910 0.248842
Si Si3 0.923638 0.827961 0.325932
Si Si4 0.921701 0.324061 0.851450
Si Si5 0.578904 0.821104 0.174261
Si Si6 0.788208 0.175520 0.904451
Si Si7 0.417684 0.670185 0.000000
O O1 0.240203 0.220931 0.500000
O O2 0.259408 0.277558 0.337267
O O3 0.135630 0.202414 0.395988
O O4 0.236595 0.000000 0.385408
O O5 0.304863 0.500000 0.245500
O O6 0.371729 0.754226 0.247806
O O7 0.251793 0.728911 0.166571
O O8 0.911602 0.713178 0.248329
O O9 0.000000 0.801473 0.367276
O O10 0.917753 0.000000 0.290527
O O11 0.904917 0.500000 0.865454
O O12 0.868658 0.224899 0.906743
O O13 0.000000 0.285438 0.881092
O O14 0.500000 0.769004 0.192330
O O15 0.584877 0.000000 0.171482
O O16 0.607887 0.758147 0.084071
O O17 0.782283 0.000000 0.879131
O O18 0.757603 0.204274 0.000000
O O19 0.387193 0.500000 0.000000
O O20 0.500000 0.667322 0.000000
#
# Coordination Sequence:
#
# PCOD8198356 Si02
#       7
#     8   8   8   8   8   8   4
#     4  10  21  38  61  88 119 155 196 242 292 352
#     4  12  25  40  61  87 120 157 193 241 296 351
#     4   9  17  31  54  82 113 150 190 235 288 346
#     4  10  20  34  54  80 112 150 192 242 299 352
#     4  10  21  38  61  87 118 157 197 238 286 344
#     4  11  24  40  58  81 112 153 202 249 293 348
#     4   9  17  31  53  85 123 157 192 233 276 329
#
# _framework density 19.565314000000001
#
# number of rings (size 3 to 8) (size 9 to 14) (size 15 to 20)
#    0.000    1.769    1.538    3.000    1.077    4.923 
#    0.000    3.077    0.000    0.462    0.000    6.462 
#    0.000    0.000    0.000    0.000    0.000    0.000 
#
# Total GULP energy -644809.045551 kJ/mol
# GULP energy per Si atom -12400.173953 kJ/mol
# Density = 1.952078 g / cm^3
# Si number density = 19.565314 Si / 1000 Ang^3
#
#
#
# Elastic Constant Matrix: (Units=GPa)
#
#
# Indices 1 2 3 4 5 6 
#
# 1 100.9435 35.8964 46.2982 0.0000 0.0000 0.0000
# 2 35.8964 83.5258 32.9979 0.0000 0.0000 0.0000
# 3 46.2982 32.9979 90.4262 0.0000 0.0000 0.0000
# 4 0.0000 0.0000 0.0000 10.4367 0.0000 0.0000
# 5 0.0000 0.0000 0.0000 0.0000 20.2825 0.0000
# 6 0.0000 0.0000 0.0000 0.0000 0.0000 29.6784
#
#
#
# Elastic Compliance Matrix: (Units=1/GPa)
#
#
# Indices 1 2 3 4 5 6 
#
# 1 0.013853 -0.003682 -0.005749 0.000000 0.000000 0.000000
# 2 -0.003682 0.014968 -0.003577 0.000000 0.000000 0.000000
# 3 -0.005749 -0.003577 0.015307 0.000000 0.000000 0.000000
# 4 0.000000 0.000000 0.000000 0.095816 0.000000 0.000000
# 5 0.000000 0.000000 0.000000 0.000000 0.049304 0.000000
# 6 0.000000 0.000000 0.000000 0.000000 0.000000 0.033695
#
#
# Mechanical properties :
#
#
# Convention : Reuss Voigt Hill
#
# Bulk Modulus (GPa) = 55.21112 56.14231 55.67672
# Shear Modulus (GPa) = 19.60822 22.72638 21.16730
#
# Velocity S-wave (km/s) = 3.16918 3.41187 3.29276
# Velocity P-wave (km/s) = 6.45536 6.65419 6.55553
#
# Compressibility (1/GPa) = 0.01811229
#
# Stress axis : x y z
#
# Youngs Moduli (GPa) = 72.18795 66.80983 65.32799
#
# Poissons Ratio (x) = 0.24601 0.37556
# Poissons Ratio (y) = 0.26581 0.23366
# Poissons Ratio (z) = 0.41500 0.23896
#
# Static dielectric constant tensor:
#      x y z
#    x 3.781610 0.000000 0.000000 
#    y 0.000000 3.570790 0.000000 
#    z 0.000000 0.000000 3.328020 
# 
# 
# High freq. dielectric constant tensor:
#      x y z
#    x 1.766660 0.000000 0.000000 
#    y 0.000000 1.765670 0.000000 
#    z 0.000000 0.000000 1.734010 
# 
# From -- ./inp_files/24966.got.cif
#   From: 2010.03.12/outbox.cif.g09.slc.cpg/sg47_13_cif.got.tgz:24966.got - 2010.04.14 03:12:58.
