data_PCOD8198332
_publ_section_title
;
Structure prediction by ZEFSAII (Michael W. Deem and Ramdas Pophale) SiO2 
 PCOD8198332
Probable space group: P M M M
;
_chemical_formula_sum "Si O2"
_cell_formula_units_Z 48
_cell_length_a 9.089297
_cell_length_b 8.957361
_cell_length_c 30.701170
_cell_angle_alpha 90.000000
_cell_angle_beta 90.000000
_cell_angle_gamma 90.000000
_cell_volume 2499.569971
_symmetry_space_group_name_H-M "P M M M"
_symmetry_group_IT_number 47
_symmetry_cell_setting 'orthorhombic'
loop_
_space_group_symop_operation_xyz
x,y,z
-x,-y,z
x,-y,-z
-x,y,-z
-x,-y,-z
x,y,-z
-x,y,z
x,-y,z
loop_
_atom_site_type_symbol
_atom_site_label
_atom_site_fract_x
_atom_site_fract_y
_atom_site_fract_z
Si Si1 0.668715 0.675016 0.586614
Si Si2 0.827037 0.829018 0.335204
Si Si3 0.828120 0.825598 0.080564
Si Si4 0.330107 0.676219 0.000000
Si Si5 0.329141 0.326169 0.159031
Si Si6 0.325070 0.168473 0.500000
Si Si7 0.669655 0.828935 0.247826
O O1 0.500000 0.723555 0.594164
O O2 0.683326 0.500000 0.580151
O O3 0.762363 0.724775 0.627707
O O4 0.735107 0.751157 0.543272
O O5 0.764753 0.775631 0.288838
O O6 0.000000 0.808800 0.334210
O O7 0.780469 0.000000 0.344288
O O8 0.770597 0.768323 0.126658
O O9 0.000000 0.790973 0.076651
O O10 0.794930 0.000000 0.076192
O O11 0.744801 0.740114 0.042711
O O12 0.310700 0.500000 0.000000
O O13 0.500000 0.723286 0.000000
O O14 0.500000 0.292160 0.149220
O O15 0.293509 0.500000 0.153508
O O16 0.287070 0.275895 0.207591
O O17 0.500000 0.177188 0.500000
O O18 0.266186 0.000000 0.500000
O O19 0.500000 0.808805 0.260598
O O20 0.704731 0.000000 0.235158
#
# Coordination Sequence:
#
# PCOD8198332 Si02
#       7
#     8   8   8   4   8   4   8
#     4  10  20  34  54  80 109 140 176 220 269 321
#     4  10  21  36  54  78 109 144 182 224 270 322
#     4  11  24  40  59  85 116 150 189 230 273 325
#     4  11  24  41  62  88 116 147 186 231 278 328
#     4  10  21  37  58  85 115 146 183 227 275 328
#     4   9  17  31  54  81 106 135 174 220 268 319
#     4   9  18  34  56  80 108 145 187 229 272 320
#
# _framework density 19.203302999999998
#
# number of rings (size 3 to 8) (size 9 to 14) (size 15 to 20)
#    0.000    2.000    0.000    3.250    0.000   10.333 
#    0.000    3.750    0.000    2.500    0.000    0.000 
#    0.000    0.000    0.000    0.000    0.000    0.000 
#
# Total GULP energy -595432.818312 kJ/mol
# GULP energy per Si atom -12404.850381 kJ/mol
# Density = 1.915960 g / cm^3
# Si number density = 19.203303 Si / 1000 Ang^3
#
#
#
# Elastic Constant Matrix: (Units=GPa)
#
#
# Indices 1 2 3 4 5 6 
#
# 1 85.4704 52.5901 64.1585 0.0000 0.0000 0.0000
# 2 52.5901 75.1388 51.4725 0.0000 0.0000 0.0000
# 3 64.1585 51.4725 132.2134 0.0000 0.0000 0.0000
# 4 0.0000 0.0000 0.0000 71.9999 0.0000 0.0000
# 5 0.0000 0.0000 0.0000 0.0000 -47.6886 0.0000
# 6 0.0000 0.0000 0.0000 0.0000 0.0000 26.5386
#
#
#
# Elastic Compliance Matrix: (Units=1/GPa)
#
#
# Indices 1 2 3 4 5 6 
#
# 1 0.024692 -0.012374 -0.007165 0.000000 0.000000 0.000000
# 2 -0.012374 0.024350 -0.003475 0.000000 0.000000 0.000000
# 3 -0.007165 -0.003475 0.012393 0.000000 0.000000 0.000000
# 4 0.000000 0.000000 0.000000 0.013889 0.000000 0.000000
# 5 0.000000 0.000000 0.000000 0.000000 -0.020969 0.000000
# 6 0.000000 0.000000 0.000000 0.000000 0.000000 0.037681
#
#
# Mechanical properties :
#
#
# Convention : Reuss Voigt Hill
#
# Bulk Modulus (GPa) = 64.90387 69.91832 67.41109
# Shear Modulus (GPa) = 34.91649 18.47675 26.69662
#
# Velocity S-wave (km/s) = 4.26873 3.10524 3.73260
# Velocity P-wave (km/s) = 7.62677 7.02462 7.33188
#
# Compressibility (1/GPa) = 0.01540740
#
# Stress axis : x y z
#
# Youngs Moduli (GPa) = 40.49911 41.06810 80.68907
#
# Poissons Ratio (x) = 0.50817 0.57812
# Poissons Ratio (y) = 0.50113 0.28040
# Poissons Ratio (z) = 0.29017 0.14272
#
# Static dielectric constant tensor:
#      x y z
#    x 3.438690 0.000000 0.000000 
#    y 0.000000 3.565070 0.000000 
#    z 0.000000 0.000000 3.646240 
# 
# 
# High freq. dielectric constant tensor:
#      x y z
#    x 1.735680 0.000000 0.000000 
#    y 0.000000 1.753140 0.000000 
#    z 0.000000 0.000000 1.762240 
# 
# From -- ./inp_files/2670.got.cif
#   From: 2010.03.12/outbox.cif.g09.slc.cpg/sg47_2_cif.got.tgz:2670.got - 2010.04.14 03:12:58.
