data_PCOD8198932
_publ_section_title
;
Structure prediction by ZEFSAII (Michael W. Deem and Ramdas Pophale) SiO2 
 PCOD8198932
Probable space group: P M M M
;
_chemical_formula_sum "Si O2"
_cell_formula_units_Z 44
_cell_length_a 17.284176
_cell_length_b 8.871058
_cell_length_c 14.555678
_cell_angle_alpha 90.000000
_cell_angle_beta 90.000000
_cell_angle_gamma 90.000000
_cell_volume 2231.806501
_symmetry_space_group_name_H-M "P M M M"
_symmetry_group_IT_number 47
_symmetry_cell_setting 'orthorhombic'
loop_
_space_group_symop_operation_xyz
x,y,z
-x,-y,z
x,-y,-z
-x,y,-z
-x,-y,-z
x,y,-z
-x,y,z
x,-y,z
loop_
_atom_site_type_symbol
_atom_site_label
_atom_site_fract_x
_atom_site_fract_y
_atom_site_fract_z
Si Si1 0.309823 0.676282 0.896766
Si Si2 0.845778 0.167804 0.854278
Si Si3 0.500000 0.678030 0.392774
Si Si4 0.911877 0.677166 0.500000
Si Si5 0.357220 0.179522 0.287969
Si Si6 0.808534 0.166428 0.646700
Si Si7 0.000000 0.662069 0.103875
O O1 0.313924 0.500000 0.874431
O O2 0.221052 0.727812 0.895295
O O3 0.358107 0.763198 0.817935
O O4 0.343008 0.708796 0.000000
O O5 0.844973 0.156804 0.745786
O O6 0.926795 0.237567 0.876914
O O7 0.837506 0.000000 0.896701
O O8 0.500000 0.500000 0.378344
O O9 0.500000 0.721695 0.500000
O O10 0.574269 0.747919 0.344744
O O11 0.918490 0.500000 0.500000
O O12 0.863005 0.725174 0.411517
O O13 0.000000 0.745114 0.500000
O O14 0.279185 0.228448 0.342014
O O15 0.365007 0.000000 0.284358
O O16 0.807011 0.000000 0.600998
O O17 0.000000 0.500000 0.158532
O O18 0.000000 0.615758 0.000000
#
# Coordination Sequence:
#
# PCOD8198932 Si02
#       7
#     8   8   4   4   8   8   4
#     4  10  20  36  60  89 122 160 199 243 299 360
#     4  10  21  36  55  80 109 147 197 247 296 354
#     4  11  25  43  66  97 130 163 199 246 306 365
#     4  11  25  39  55  84 115 150 199 249 300 355
#     4  10  22  41  65  94 125 161 205 250 299 358
#     4   9  21  40  60  83 112 152 195 241 297 353
#     4  11  23  35  49  74 109 148 189 239 300 357
#
# _framework density 19.714970999999998
#
# number of rings (size 3 to 8) (size 9 to 14) (size 15 to 20)
#    0.000    1.909    0.000    4.091    2.545   10.182 
#    0.000    0.455    0.000    2.727    0.000    0.000 
#    0.000    0.000    0.000    0.000    0.000    0.000 
#
# Total GULP energy -545408.689286 kJ/mol
# GULP energy per Si atom -12395.652029 kJ/mol
# Density = 1.967010 g / cm^3
# Si number density = 19.714971 Si / 1000 Ang^3
#
#
#
# Elastic Constant Matrix: (Units=GPa)
#
#
# Indices 1 2 3 4 5 6 
#
# 1 130.7984 54.1699 77.6682 0.0000 0.0000 0.0000
# 2 54.1699 107.9715 60.3408 0.0000 0.0000 0.0000
# 3 77.6682 60.3408 116.2217 0.0000 0.0000 0.0000
# 4 0.0000 0.0000 0.0000 33.5336 0.0000 0.0000
# 5 0.0000 0.0000 0.0000 0.0000 137.1124 0.0000
# 6 0.0000 0.0000 0.0000 0.0000 0.0000 34.9814
#
#
#
# Elastic Compliance Matrix: (Units=1/GPa)
#
#
# Indices 1 2 3 4 5 6 
#
# 1 0.013090 -0.002365 -0.007520 0.000000 0.000000 0.000000
# 2 -0.002365 0.013475 -0.005416 0.000000 0.000000 0.000000
# 3 -0.007520 -0.005416 0.016441 0.000000 0.000000 0.000000
# 4 0.000000 0.000000 0.000000 0.029821 0.000000 0.000000
# 5 0.000000 0.000000 0.000000 0.000000 0.007293 0.000000
# 6 0.000000 0.000000 0.000000 0.000000 0.000000 0.028587
#
#
# Mechanical properties :
#
#
# Convention : Reuss Voigt Hill
#
# Bulk Modulus (GPa) = 80.60982 82.14996 81.37989
# Shear Modulus (GPa) = 34.85708 51.97965 43.41837
#
# Velocity S-wave (km/s) = 4.20938 5.14031 4.69796
# Velocity P-wave (km/s) = 8.03751 8.77438 8.41401
#
# Compressibility (1/GPa) = 0.01240544
#
# Stress axis : x y z
#
# Youngs Moduli (GPa) = 76.39340 74.21348 60.82198
#
# Poissons Ratio (x) = 0.17550 0.45739
# Poissons Ratio (y) = 0.18065 0.32939
# Poissons Ratio (z) = 0.57448 0.40191
#
# Static dielectric constant tensor:
#      x y z
#    x 3.555740 0.000000 0.000000 
#    y 0.000000 3.989220 0.000000 
#    z 0.000000 0.000000 3.727120 
# 
# 
# High freq. dielectric constant tensor:
#      x y z
#    x 1.761040 0.000000 0.000000 
#    y 0.000000 1.782150 0.000000 
#    z 0.000000 0.000000 1.776420 
# 
# From -- ./inp_files/24372.got.cif
#   From: 2010.03.12/outbox.cif.g09.slc.cpg/sg47_13_cif.got.tgz:24372.got - 2010.04.14 03:12:58.
