data_PCOD8198850
_publ_section_title
;
Structure prediction by ZEFSAII (Michael W. Deem and Ramdas Pophale) SiO2 
 PCOD8198850
Probable space group: P M M M
;
_chemical_formula_sum "Si O2"
_cell_formula_units_Z 48
_cell_length_a 7.980946
_cell_length_b 18.903779
_cell_length_c 15.643881
_cell_angle_alpha 90.000000
_cell_angle_beta 90.000000
_cell_angle_gamma 90.000000
_cell_volume 2360.192943
_symmetry_space_group_name_H-M "P M M M"
_symmetry_group_IT_number 47
_symmetry_cell_setting 'orthorhombic'
loop_
_space_group_symop_operation_xyz
x,y,z
-x,-y,z
x,-y,-z
-x,y,-z
-x,-y,-z
x,y,-z
-x,y,z
x,-y,z
loop_
_atom_site_type_symbol
_atom_site_label
_atom_site_fract_x
_atom_site_fract_y
_atom_site_fract_z
Si Si1 0.192204 0.662577 0.407047
Si Si2 0.802187 0.919957 0.500000
Si Si3 0.696602 0.675918 0.096334
Si Si4 0.000000 0.920833 0.100494
Si Si5 0.690080 0.812156 0.636795
Si Si6 0.305777 0.170292 0.835351
Si Si7 0.804283 0.421413 0.247228
O O1 0.274682 0.644016 0.500000
O O2 0.197985 0.746468 0.391890
O O3 0.279263 0.620403 0.328061
O O4 0.000000 0.640196 0.410822
O O5 0.735807 0.882047 0.584739
O O6 0.000000 0.918753 0.500000
O O7 0.733171 0.000000 0.500000
O O8 0.500000 0.665413 0.100353
O O9 0.745674 0.754181 0.126117
O O10 0.777090 0.618492 0.158363
O O11 0.764234 0.663818 0.000000
O O12 0.173828 0.885473 0.129122
O O13 0.000000 0.000000 0.138209
O O14 0.000000 0.921408 0.000000
O O15 0.500000 0.789844 0.618873
O O16 0.720444 0.829154 0.734803
O O17 0.500000 0.151071 0.859301
O O18 0.724790 0.500000 0.242041
O O19 0.000000 0.426901 0.263172
#
# Coordination Sequence:
#
# PCOD8198850 Si02
#       7
#     8   4   8   4   8   8   8
#     4  10  20  35  59  86 116 157 203 249 301 365
#     4  11  25  41  59  87 124 163 202 249 305 372
#     4  10  21  38  61  88 118 157 204 253 309 372
#     4  11  26  44  66  97 128 164 207 257 322 382
#     4  11  22  37  61  89 120 159 201 253 309 365
#     4  10  23  42  66  95 127 165 213 263 312 375
#     4  10  22  38  57  86 122 159 202 254 310 370
#
# _framework density 20.337319999999998
#
# number of rings (size 3 to 8) (size 9 to 14) (size 15 to 20)
#    0.000    1.667    2.500    1.250    3.500    4.000 
#    0.000    5.833    0.000    0.000    0.000    2.333 
#    0.000    0.000    0.000    0.000    0.000    0.000 
#
# Total GULP energy -595114.068897 kJ/mol
# GULP energy per Si atom -12398.209769 kJ/mol
# Density = 2.029103 g / cm^3
# Si number density = 20.337320 Si / 1000 Ang^3
#
#
#
# Elastic Constant Matrix: (Units=GPa)
#
#
# Indices 1 2 3 4 5 6 
#
# 1 53.6452 36.3461 33.8025 0.0000 0.0000 0.0000
# 2 36.3461 162.1942 89.0289 0.0000 0.0000 0.0000
# 3 33.8025 89.0289 164.7524 0.0000 0.0000 0.0000
# 4 0.0000 0.0000 0.0000 39.6770 0.0000 0.0000
# 5 0.0000 0.0000 0.0000 0.0000 26.8355 0.0000
# 6 0.0000 0.0000 0.0000 0.0000 0.0000 4.3181
#
#
#
# Elastic Compliance Matrix: (Units=1/GPa)
#
#
# Indices 1 2 3 4 5 6 
#
# 1 0.022808 -0.003615 -0.002726 0.000000 0.000000 0.000000
# 2 -0.003615 0.009338 -0.004305 0.000000 0.000000 0.000000
# 3 -0.002726 -0.004305 0.008955 0.000000 0.000000 0.000000
# 4 0.000000 0.000000 0.000000 0.025204 0.000000 0.000000
# 5 0.000000 0.000000 0.000000 0.000000 0.037264 0.000000
# 6 0.000000 0.000000 0.000000 0.000000 0.000000 0.231586
#
#
# Mechanical properties :
#
#
# Convention : Reuss Voigt Hill
#
# Bulk Modulus (GPa) = 50.47858 77.66077 64.06968
# Shear Modulus (GPa) = 13.77224 28.92706 21.34965
#
# Velocity S-wave (km/s) = 2.60511 3.77552 3.24354
# Velocity P-wave (km/s) = 5.82438 7.56804 6.75273
#
# Compressibility (1/GPa) = 0.01981038
#
# Stress axis : x y z
#
# Youngs Moduli (GPa) = 43.84467 107.08653 111.66705
#
# Poissons Ratio (x) = 0.38707 0.30444
# Poissons Ratio (y) = 0.15848 0.48068
# Poissons Ratio (z) = 0.11953 0.46097
#
# Static dielectric constant tensor:
#      x y z
#    x 3.282410 0.000000 0.000000 
#    y 0.000000 3.824460 0.000000 
#    z 0.000000 0.000000 4.012990 
# 
# 
# High freq. dielectric constant tensor:
#      x y z
#    x 1.785660 0.000000 0.000000 
#    y 0.000000 1.788110 0.000000 
#    z 0.000000 0.000000 1.814880 
# 
# From -- ./inp_files/21148.got.cif
#   From: 2010.03.12/outbox.cif.g09.slc.cpg/sg47_11_cif.got.tgz:21148.got - 2010.04.14 03:12:58.
