data_PCOD8198033
_publ_section_title
;
Structure prediction by ZEFSAII (Michael W. Deem and Ramdas Pophale) SiO2 
 PCOD8198033
Probable space group: P M M M
;
_chemical_formula_sum "Si O2"
_cell_formula_units_Z 48
_cell_length_a 29.640090
_cell_length_b 9.710599
_cell_length_c 9.413336
_cell_angle_alpha 90.000000
_cell_angle_beta 90.000000
_cell_angle_gamma 90.000000
_cell_volume 2709.374874
_symmetry_space_group_name_H-M "P M M M"
_symmetry_group_IT_number 47
_symmetry_cell_setting 'orthorhombic'
loop_
_space_group_symop_operation_xyz
x,y,z
-x,-y,z
x,-y,-z
-x,y,-z
-x,-y,-z
x,y,-z
-x,y,z
x,-y,z
loop_
_atom_site_type_symbol
_atom_site_label
_atom_site_fract_x
_atom_site_fract_y
_atom_site_fract_z
Si Si1 0.220071 0.838144 0.833482
Si Si2 0.950537 0.336557 0.340690
Si Si3 0.706586 0.338656 0.668686
Si Si4 0.391989 0.745279 0.668844
Si Si5 0.551719 0.000000 0.330388
Si Si6 0.134074 0.342363 0.165507
Si Si7 0.549699 0.500000 0.669814
O O1 0.257499 0.757633 0.745150
O O2 0.173534 0.762917 0.793098
O O3 0.218113 0.000000 0.790809
O O4 0.230587 0.821863 0.000000
O O5 0.941163 0.283252 0.500000
O O6 0.950726 0.500000 0.337908
O O7 0.910793 0.282613 0.239855
O O8 0.000000 0.283155 0.289225
O O9 0.712178 0.323664 0.500000
O O10 0.711277 0.500000 0.712215
O O11 0.658857 0.277565 0.722794
O O12 0.390890 0.744775 0.500000
O O13 0.417644 0.877298 0.728668
O O14 0.423405 0.627579 0.730503
O O15 0.500000 0.000000 0.270826
O O16 0.548669 0.000000 0.500000
O O17 0.145924 0.500000 0.213997
O O18 0.124166 0.340288 0.000000
O O19 0.500000 0.500000 0.735211
O O20 0.547722 0.500000 0.500000
#
# Coordination Sequence:
#
# PCOD8198033 Si02
#       7
#     8   8   8   8   4   8   4
#     4  10  22  38  54  73  99 132 171 214 258 307
#     4   8  14  25  43  70 103 134 163 199 243 290
#     4  10  20  34  52  75 102 131 165 207 256 307
#     4   9  16  26  39  61  93 126 159 197 241 291
#     4   9  16  24  36  58  91 131 167 195 232 287
#     4   9  17  30  49  72  97 126 162 207 254 295
#     4   9  14  22  38  58  87 127 161 189 232 291
#
# _framework density 17.716263000000001
#
# number of rings (size 3 to 8) (size 9 to 14) (size 15 to 20)
#    0.000    2.833    0.833    1.500    1.167    4.333 
#    0.000    3.333    0.000    0.500    0.000    3.500 
#    0.000    4.000    0.000    0.000    0.000    0.000 
#
# Total GULP energy -594711.813457 kJ/mol
# GULP energy per Si atom -12389.829447 kJ/mol
# Density = 1.767594 g / cm^3
# Si number density = 17.716263 Si / 1000 Ang^3
#
#
#
# Elastic Constant Matrix: (Units=GPa)
#
#
# Indices 1 2 3 4 5 6 
#
# 1 192.2580 90.6296 54.0068 0.0000 0.0000 0.0000
# 2 90.6296 138.7659 32.7030 0.0000 0.0000 0.0000
# 3 54.0068 32.7030 30.7466 0.0000 0.0000 0.0000
# 4 0.0000 0.0000 0.0000 17.2775 0.0000 0.0000
# 5 0.0000 0.0000 0.0000 0.0000 -3.1168 0.0000
# 6 0.0000 0.0000 0.0000 0.0000 0.0000 25.0477
#
#
#
# Elastic Compliance Matrix: (Units=1/GPa)
#
#
# Indices 1 2 3 4 5 6 
#
# 1 0.011520 -0.003677 -0.016325 0.000000 0.000000 0.000000
# 2 -0.003677 0.010791 -0.005019 0.000000 0.000000 0.000000
# 3 -0.016325 -0.005019 0.066537 0.000000 0.000000 0.000000
# 4 0.000000 0.000000 0.000000 0.057879 0.000000 0.000000
# 5 0.000000 0.000000 0.000000 0.000000 -0.320837 0.000000
# 6 0.000000 0.000000 0.000000 0.000000 0.000000 0.039924
#
#
# Mechanical properties :
#
#
# Convention : Reuss Voigt Hill
#
# Bulk Modulus (GPa) = 25.76856 79.60548 52.68702
# Shear Modulus (GPa) = -70.21569 20.13707 -25.03931
#
# Velocity S-wave (km/s) = -6.30234 3.37507 -3.76354
# Velocity P-wave (km/s) = 6.19537 7.76011 3.30429
#
# Compressibility (1/GPa) = 0.03880697
#
# Stress axis : x y z
#
# Youngs Moduli (GPa) = 86.80265 92.67405 15.02916
#
# Poissons Ratio (x) = 0.34074 0.24535
# Poissons Ratio (y) = 0.31915 0.07543
# Poissons Ratio (z) = 1.41705 0.46512
#
# Static dielectric constant tensor:
#      x y z
#    x 3.640360 0.000000 0.000000 
#    y 0.000000 3.318070 0.000000 
#    z 0.000000 0.000000 2.902080 
# 
# 
# High freq. dielectric constant tensor:
#      x y z
#    x 1.704010 0.000000 0.000000 
#    y 0.000000 1.676210 0.000000 
#    z 0.000000 0.000000 1.637590 
# 
# From -- ./inp_files/13851.got.cif
#   From: 2010.03.12/outbox.cif.g09.slc.cpg/sg47_7_cif.got.tgz:13851.got - 2010.04.14 03:12:58.
