data_PCOD8198383
_publ_section_title
;
Structure prediction by ZEFSAII (Michael W. Deem and Ramdas Pophale) SiO2 
 PCOD8198383
Probable space group: P M M M
;
_chemical_formula_sum "Si O2"
_cell_formula_units_Z 52
_cell_length_a 8.783425
_cell_length_b 20.921548
_cell_length_c 14.301363
_cell_angle_alpha 90.000000
_cell_angle_beta 90.000000
_cell_angle_gamma 90.000000
_cell_volume 2628.059191
_symmetry_space_group_name_H-M "P M M M"
_symmetry_group_IT_number 47
_symmetry_cell_setting 'orthorhombic'
loop_
_space_group_symop_operation_xyz
x,y,z
-x,-y,z
x,-y,-z
-x,y,-z
-x,-y,-z
x,y,-z
-x,y,z
x,-y,z
loop_
_atom_site_type_symbol
_atom_site_label
_atom_site_fract_x
_atom_site_fract_y
_atom_site_fract_z
Si Si1 0.177237 0.865137 0.894258
Si Si2 0.320366 0.500000 0.106596
Si Si3 0.819217 0.681266 0.396909
Si Si4 0.675296 0.071350 0.268421
Si Si5 0.672688 0.266351 0.110275
Si Si6 0.171504 0.176218 0.390491
Si Si7 0.178009 0.381093 0.209910
O O1 0.226764 0.922236 0.826559
O O2 0.270056 0.803242 0.859679
O O3 0.000000 0.849868 0.885363
O O4 0.220503 0.884165 0.000000
O O5 0.500000 0.500000 0.100749
O O6 0.269146 0.438517 0.163973
O O7 0.254029 0.500000 0.000000
O O8 0.756556 0.660687 0.500000
O O9 0.761439 0.752640 0.369929
O O10 0.769343 0.629856 0.318163
O O11 0.000000 0.685690 0.401658
O O12 0.500000 0.081601 0.242853
O O13 0.722551 0.123111 0.344875
O O14 0.704575 0.000000 0.308132
O O15 0.500000 0.276775 0.145943
O O16 0.787080 0.317007 0.154171
O O17 0.682148 0.274812 0.000000
O O18 0.170938 0.163511 0.500000
O O19 0.000000 0.169662 0.350043
O O20 0.000000 0.396793 0.204134
#
# Coordination Sequence:
#
# PCOD8198383 Si02
#       7
#     8   4   8   8   8   8   8
#     4  10  21  37  57  80 105 136 180 234 284 330
#     4  11  25  43  58  75 110 158 195 225 272 329
#     4   8  16  33  57  85 113 138 170 217 273 327
#     4  11  24  38  52  74 107 147 186 226 279 343
#     4  10  20  34  54  81 113 146 177 216 274 338
#     4   9  18  35  60  86 111 142 181 226 275 329
#     4  11  21  34  58  87 112 144 187 232 271 312
#
# _framework density 19.786465
#
# number of rings (size 3 to 8) (size 9 to 14) (size 15 to 20)
#    0.000    2.077    0.000    4.385    0.000    7.692 
#    0.000    4.231    0.000    6.000    0.000    0.000 
#    0.000    0.000    0.000    0.000    0.000    0.000 
#
# Total GULP energy -644755.317693 kJ/mol
# GULP energy per Si atom -12399.140725 kJ/mol
# Density = 1.974143 g / cm^3
# Si number density = 19.786465 Si / 1000 Ang^3
#
#
#
# Elastic Constant Matrix: (Units=GPa)
#
#
# Indices 1 2 3 4 5 6 
#
# 1 56.8010 25.4131 32.2241 0.0000 0.0000 0.0000
# 2 25.4131 89.9525 74.1657 0.0000 0.0000 0.0000
# 3 32.2241 74.1657 93.9030 0.0000 0.0000 0.0000
# 4 0.0000 0.0000 0.0000 27.1996 0.0000 0.0000
# 5 0.0000 0.0000 0.0000 0.0000 22.1294 0.0000
# 6 0.0000 0.0000 0.0000 0.0000 0.0000 33.6830
#
#
#
# Elastic Compliance Matrix: (Units=1/GPa)
#
#
# Indices 1 2 3 4 5 6 
#
# 1 0.021861 0.000026 -0.007523 0.000000 0.000000 0.000000
# 2 0.000026 0.031872 -0.025182 0.000000 0.000000 0.000000
# 3 -0.007523 -0.025182 0.033120 0.000000 0.000000 0.000000
# 4 0.000000 0.000000 0.000000 0.036765 0.000000 0.000000
# 5 0.000000 0.000000 0.000000 0.000000 0.045189 0.000000
# 6 0.000000 0.000000 0.000000 0.000000 0.000000 0.029689
#
#
# Mechanical properties :
#
#
# Convention : Reuss Voigt Hill
#
# Bulk Modulus (GPa) = 46.51945 56.02913 51.27429
# Shear Modulus (GPa) = 18.44896 23.85931 21.15413
#
# Velocity S-wave (km/s) = 3.05684 3.47629 3.27329
# Velocity P-wave (km/s) = 6.00173 6.67017 6.34476
#
# Compressibility (1/GPa) = 0.02149639
#
# Stress axis : x y z
#
# Youngs Moduli (GPa) = 45.74281 31.37554 30.19337
#
# Poissons Ratio (x) = -0.00083 0.22714
# Poissons Ratio (y) = -0.00121 0.76033
# Poissons Ratio (z) = 0.34412 0.79010
#
# Static dielectric constant tensor:
#      x y z
#    x 3.509570 0.000000 0.000000 
#    y 0.000000 3.738830 0.000000 
#    z 0.000000 0.000000 3.904780 
# 
# 
# High freq. dielectric constant tensor:
#      x y z
#    x 1.760800 0.000000 0.000000 
#    y 0.000000 1.760460 0.000000 
#    z 0.000000 0.000000 1.781800 
# 
# From -- ./inp_files/21482.got.cif
#   From: 2010.03.12/outbox.cif.g09.slc.cpg/sg47_11_cif.got.tgz:21482.got - 2010.04.14 03:12:58.
