data_PCOD8198661
_publ_section_title
;
Structure prediction by ZEFSAII (Michael W. Deem and Ramdas Pophale) SiO2 
 PCOD8198661
Probable space group: P M M M
;
_chemical_formula_sum "Si O2"
_cell_formula_units_Z 52
_cell_length_a 9.478216
_cell_length_b 14.933444
_cell_length_c 20.006006
_cell_angle_alpha 90.000000
_cell_angle_beta 90.000000
_cell_angle_gamma 90.000000
_cell_volume 2831.698261
_symmetry_space_group_name_H-M "P M M M"
_symmetry_group_IT_number 47
_symmetry_cell_setting 'orthorhombic'
loop_
_space_group_symop_operation_xyz
x,y,z
-x,-y,z
x,-y,-z
-x,y,-z
-x,-y,-z
x,y,-z
-x,y,z
x,-y,z
loop_
_atom_site_type_symbol
_atom_site_label
_atom_site_fract_x
_atom_site_fract_y
_atom_site_fract_z
Si Si1 0.160084 0.600338 0.692721
Si Si2 0.839629 0.101500 0.766516
Si Si3 0.338728 0.859111 0.637971
Si Si4 0.336449 0.601494 0.077353
Si Si5 0.151497 0.000000 0.574766
Si Si6 0.339488 0.664413 0.423133
Si Si7 0.162564 0.711753 0.819389
O O1 0.170541 0.500000 0.722396
O O2 0.246143 0.600419 0.623201
O O3 0.218073 0.669302 0.749062
O O4 0.000000 0.626403 0.674727
O O5 0.726763 0.123564 0.710161
O O6 0.817670 0.179980 0.821421
O O7 0.000000 0.109111 0.738833
O O8 0.813709 0.000000 0.794779
O O9 0.500000 0.892550 0.639013
O O10 0.328266 0.759116 0.612771
O O11 0.245676 0.913807 0.586645
O O12 0.500000 0.615236 0.094026
O O13 0.291145 0.500000 0.095318
O O14 0.248800 0.672442 0.119369
O O15 0.306066 0.620886 0.000000
O O16 0.104467 0.000000 0.500000
O O17 0.000000 0.000000 0.615373
O O18 0.284109 0.666868 0.500000
O O19 0.500000 0.629762 0.422713
O O20 0.000000 0.684284 0.828772
#
# Coordination Sequence:
#
# PCOD8198661 Si02
#       7
#     8   8   8   8   4   8   8
#     4  10  21  36  54  78 106 137 179 228 275 327
#     4  10  20  35  56  80 109 143 181 223 271 327
#     4  11  21  34  53  75 100 130 172 228 282 332
#     4   9  19  36  58  87 122 155 186 222 267 321
#     4  11  23  35  49  71  99 133 172 217 278 347
#     4  10  22  38  53  71  99 136 178 226 280 335
#     4  10  20  35  57  84 115 147 182 226 271 323
#
# _framework density 18.363538999999999
#
# number of rings (size 3 to 8) (size 9 to 14) (size 15 to 20)
#    0.000    1.923    2.308    2.077    0.000    5.231 
#    0.000    2.308    0.000    0.462    0.000    3.231 
#    0.000    0.000    0.000    0.000    0.000    0.000 
#
# Total GULP energy -644456.726519 kJ/mol
# GULP energy per Si atom -12393.398587 kJ/mol
# Density = 1.832174 g / cm^3
# Si number density = 18.363539 Si / 1000 Ang^3
#
#
#
# Elastic Constant Matrix: (Units=GPa)
#
#
# Indices 1 2 3 4 5 6 
#
# 1 92.2473 44.4941 46.2651 0.0000 0.0000 0.0000
# 2 44.4941 113.6835 51.3747 0.0000 0.0000 0.0000
# 3 46.2651 51.3747 88.1837 0.0000 0.0000 0.0000
# 4 0.0000 0.0000 0.0000 30.0486 0.0000 0.0000
# 5 0.0000 0.0000 0.0000 0.0000 32.9555 0.0000
# 6 0.0000 0.0000 0.0000 0.0000 0.0000 27.4754
#
#
#
# Elastic Compliance Matrix: (Units=1/GPa)
#
#
# Indices 1 2 3 4 5 6 
#
# 1 0.015552 -0.003257 -0.006262 0.000000 0.000000 0.000000
# 2 -0.003257 0.012622 -0.005645 0.000000 0.000000 0.000000
# 3 -0.006262 -0.005645 0.017914 0.000000 0.000000 0.000000
# 4 0.000000 0.000000 0.000000 0.033279 0.000000 0.000000
# 5 0.000000 0.000000 0.000000 0.000000 0.030344 0.000000
# 6 0.000000 0.000000 0.000000 0.000000 0.000000 0.036396
#
#
# Mechanical properties :
#
#
# Convention : Reuss Voigt Hill
#
# Bulk Modulus (GPa) = 63.44880 64.26472 63.85676
# Shear Modulus (GPa) = 27.51981 28.22794 27.87388
#
# Velocity S-wave (km/s) = 3.87539 3.92493 3.90024
# Velocity P-wave (km/s) = 7.39266 7.45734 7.42507
#
# Compressibility (1/GPa) = 0.01576074
#
# Stress axis : x y z
#
# Youngs Moduli (GPa) = 64.30094 79.22685 55.82352
#
# Poissons Ratio (x) = 0.25805 0.34955
# Poissons Ratio (y) = 0.20943 0.31510
# Poissons Ratio (z) = 0.40263 0.44720
#
# Static dielectric constant tensor:
#      x y z
#    x 3.475980 0.000000 0.000000 
#    y 0.000000 3.425350 0.000000 
#    z 0.000000 0.000000 3.109340 
# 
# 
# High freq. dielectric constant tensor:
#      x y z
#    x 1.716360 0.000000 0.000000 
#    y 0.000000 1.719750 0.000000 
#    z 0.000000 0.000000 1.683070 
# 
# From -- ./inp_files/7046.got.cif
#   From: 2010.03.12/outbox.cif.g09.slc.cpg/sg47_4_cif.got.tgz:7046.got - 2010.04.14 03:12:58.
