data_PCOD8198419
_publ_section_title
;
Structure prediction by ZEFSAII (Michael W. Deem and Ramdas Pophale) SiO2 
 PCOD8198419
Probable space group: P M M M
;
_chemical_formula_sum "Si O2"
_cell_formula_units_Z 48
_cell_length_a 9.292070
_cell_length_b 7.862921
_cell_length_c 32.605022
_cell_angle_alpha 90.000000
_cell_angle_beta 90.000000
_cell_angle_gamma 90.000000
_cell_volume 2382.214604
_symmetry_space_group_name_H-M "P M M M"
_symmetry_group_IT_number 47
_symmetry_cell_setting 'orthorhombic'
loop_
_space_group_symop_operation_xyz
x,y,z
-x,-y,z
x,-y,-z
-x,y,-z
-x,-y,-z
x,y,-z
-x,y,z
x,-y,z
loop_
_atom_site_type_symbol
_atom_site_label
_atom_site_fract_x
_atom_site_fract_y
_atom_site_fract_z
Si Si1 0.829341 0.302046 0.591570
Si Si2 0.339066 0.203312 0.154418
Si Si3 0.337269 0.299727 0.000000
Si Si4 0.845723 0.305925 0.318476
Si Si5 0.669903 0.190670 0.244251
Si Si6 0.159609 0.800734 0.921112
Si Si7 0.665074 0.000000 0.451517
O O1 0.782899 0.500000 0.583607
O O2 0.789058 0.236212 0.637868
O O3 0.743531 0.173703 0.562455
O O4 0.000000 0.282750 0.584155
O O5 0.500000 0.271831 0.145481
O O6 0.285432 0.265168 0.199442
O O7 0.234318 0.278411 0.119406
O O8 0.341956 0.000000 0.154194
O O9 0.255922 0.234126 0.960313
O O10 0.338604 0.500000 0.000000
O O11 0.500000 0.227124 0.000000
O O12 0.875547 0.500000 0.327949
O O13 0.734484 0.295813 0.281361
O O14 0.000000 0.220487 0.306445
O O15 0.500000 0.196764 0.247824
O O16 0.728419 0.000000 0.248718
O O17 0.000000 0.720442 0.926504
O O18 0.145401 0.000000 0.914972
O O19 0.500000 0.000000 0.435570
O O20 0.669867 0.000000 0.500000
#
# Coordination Sequence:
#
# PCOD8198419 Si02
#       7
#     8   8   4   8   8   8   4
#     4   9  20  40  63  86 116 156 202 249 295 349
#     4   8  15  30  50  72 102 138 173 211 254 303
#     4  11  24  39  54  74 100 131 168 207 252 312
#     4   9  19  35  53  76 107 142 182 227 272 320
#     4   9  18  31  49  77 109 139 175 217 261 313
#     4  10  20  34  55  81 104 128 165 212 259 311
#     4  11  25  41  59  89 125 157 193 243 303 364
#
# _framework density 20.149317
#
# number of rings (size 3 to 8) (size 9 to 14) (size 15 to 20)
#    0.000    2.667    0.000    3.250    1.167    6.000 
#    0.000    5.833    0.000    1.000    0.000    0.000 
#    0.000    0.000    0.000    0.000    0.000    0.000 
#
# Total GULP energy -594788.364952 kJ/mol
# GULP energy per Si atom -12391.424270 kJ/mol
# Density = 2.010346 g / cm^3
# Si number density = 20.149317 Si / 1000 Ang^3
#
#
#
# Elastic Constant Matrix: (Units=GPa)
#
#
# Indices 1 2 3 4 5 6 
#
# 1 109.6624 30.2478 68.7314 0.0000 0.0000 0.0000
# 2 30.2478 53.5205 28.8589 0.0000 0.0000 0.0000
# 3 68.7314 28.8589 139.8081 0.0000 0.0000 0.0000
# 4 0.0000 0.0000 0.0000 -124.1199 0.0000 0.0000
# 5 0.0000 0.0000 0.0000 0.0000 14.6538 0.0000
# 6 0.0000 0.0000 0.0000 0.0000 0.0000 19.5714
#
#
#
# Elastic Compliance Matrix: (Units=1/GPa)
#
#
# Indices 1 2 3 4 5 6 
#
# 1 0.014194 -0.004793 -0.005989 0.000000 0.000000 0.000000
# 2 -0.004793 0.022643 -0.002318 0.000000 0.000000 0.000000
# 3 -0.005989 -0.002318 0.010575 0.000000 0.000000 0.000000
# 4 0.000000 0.000000 0.000000 -0.008057 0.000000 0.000000
# 5 0.000000 0.000000 0.000000 0.000000 0.068242 0.000000
# 6 0.000000 0.000000 0.000000 0.000000 0.000000 0.051095
#
#
# Mechanical properties :
#
#
# Convention : Reuss Voigt Hill
#
# Bulk Modulus (GPa) = 47.13909 62.07415 54.60662
# Shear Modulus (GPa) = 26.04677 -6.30207 9.87235
#
# Velocity S-wave (km/s) = 3.59930 -1.77044 2.21590
# Velocity P-wave (km/s) = 6.38114 5.16669 5.80575
#
# Compressibility (1/GPa) = 0.02121382
#
# Stress axis : x y z
#
# Youngs Moduli (GPa) = 70.45020 44.16390 94.56052
#
# Poissons Ratio (x) = 0.21167 0.56630
# Poissons Ratio (y) = 0.33766 0.21916
# Poissons Ratio (z) = 0.42191 0.10236
#
# Static dielectric constant tensor:
#      x y z
#    x 3.817920 0.000000 0.000000 
#    y 0.000000 3.459640 0.000000 
#    z 0.000000 0.000000 3.802610 
# 
# 
# High freq. dielectric constant tensor:
#      x y z
#    x 1.782190 0.000000 0.000000 
#    y 0.000000 1.764780 0.000000 
#    z 0.000000 0.000000 1.796670 
# 
# From -- ./inp_files/34110.got.cif
#   From: 2010.03.12/outbox.cif.g09.slc.cpg/sg47_18_cif.got.tgz:34110.got - 2010.04.14 03:12:58.
