data_PCOD8198764
_publ_section_title
;
Structure prediction by ZEFSAII (Michael W. Deem and Ramdas Pophale) SiO2 
 PCOD8198764
Probable space group: P M M M
;
_chemical_formula_sum "Si O2"
_cell_formula_units_Z 44
_cell_length_a 9.220587
_cell_length_b 28.415365
_cell_length_c 8.661739
_cell_angle_alpha 90.000000
_cell_angle_beta 90.000000
_cell_angle_gamma 90.000000
_cell_volume 2269.430578
_symmetry_space_group_name_H-M "P M M M"
_symmetry_group_IT_number 47
_symmetry_cell_setting 'orthorhombic'
loop_
_space_group_symop_operation_xyz
x,y,z
-x,-y,z
x,-y,-z
-x,y,-z
-x,-y,-z
x,y,-z
-x,y,z
x,-y,z
loop_
_atom_site_type_symbol
_atom_site_label
_atom_site_fract_x
_atom_site_fract_y
_atom_site_fract_z
Si Si1 0.833032 0.823205 0.180526
Si Si2 0.336369 0.909620 0.317180
Si Si3 0.668133 0.261630 0.320389
Si Si4 0.835683 0.000000 0.684145
Si Si5 0.836233 0.448638 0.183512
Si Si6 0.669105 0.640747 0.176343
O O1 0.743004 0.862173 0.270604
O O2 0.767633 0.772637 0.220675
O O3 0.000000 0.825140 0.234044
O O4 0.818300 0.832554 0.000000
O O5 0.342435 0.912263 0.500000
O O6 0.500000 0.910394 0.249822
O O7 0.247434 0.954159 0.251345
O O8 0.696081 0.252504 0.500000
O O9 0.500000 0.252962 0.277052
O O10 0.714961 0.314516 0.278015
O O11 0.836940 0.000000 0.500000
O O12 0.000000 0.000000 0.748451
O O13 0.779056 0.500000 0.241316
O O14 0.742297 0.405651 0.250491
O O15 0.000000 0.441480 0.240666
O O16 0.827797 0.447581 0.000000
O O17 0.500000 0.631542 0.185004
O O18 0.719340 0.649654 0.000000
#
# Coordination Sequence:
#
# PCOD8198764 Si02
#       6
#     8   8   8   4   8   8
#     4  11  24  39  55  78 107 138 174 217 264 312
#     4  10  20  35  57  84 112 143 180 219 259 306
#     4  10  21  37  56  77 102 134 172 213 259 313
#     4   9  17  31  54  83 114 147 180 216 258 303
#     4   8  14  25  42  66  96 128 162 202 248 297
#     4   9  17  29  47  72 100 129 163 206 254 302
#
# _framework density 19.388124000000001
#
# number of rings (size 3 to 8) (size 9 to 14) (size 15 to 20)
#    0.000    2.455    0.000    3.000    0.000    8.000 
#    0.000    4.091    0.000    3.273    0.000    3.818 
#    0.000    0.000    0.000    0.000    0.000    0.000 
#
# Total GULP energy -545578.200799 kJ/mol
# GULP energy per Si atom -12399.504564 kJ/mol
# Density = 1.934400 g / cm^3
# Si number density = 19.388124 Si / 1000 Ang^3
#
#
#
# Elastic Constant Matrix: (Units=GPa)
#
#
# Indices 1 2 3 4 5 6 
#
# 1 119.6163 73.3078 16.2527 0.0000 0.0000 0.0000
# 2 73.3078 143.9591 6.2747 0.0000 0.0000 0.0000
# 3 16.2527 6.2747 17.5362 0.0000 0.0000 0.0000
# 4 0.0000 0.0000 0.0000 -10.4564 0.0000 0.0000
# 5 0.0000 0.0000 0.0000 0.0000 19.0584 0.0000
# 6 0.0000 0.0000 0.0000 0.0000 0.0000 37.8358
#
#
#
# Elastic Compliance Matrix: (Units=1/GPa)
#
#
# Indices 1 2 3 4 5 6 
#
# 1 0.013810 -0.006577 -0.010446 0.000000 0.000000 0.000000
# 2 -0.006577 0.010189 0.002450 0.000000 0.000000 0.000000
# 3 -0.010446 0.002450 0.065830 0.000000 0.000000 0.000000
# 4 0.000000 0.000000 0.000000 -0.095635 0.000000 0.000000
# 5 0.000000 0.000000 0.000000 0.000000 0.052470 0.000000
# 6 0.000000 0.000000 0.000000 0.000000 0.000000 0.026430
#
#
# Mechanical properties :
#
#
# Convention : Reuss Voigt Hill
#
# Bulk Modulus (GPa) = 16.47922 52.53133 34.50527
# Shear Modulus (GPa) = 40.82693 21.63933 31.23313
#
# Velocity S-wave (km/s) = 4.59385 3.34445 4.01801
# Velocity P-wave (km/s) = 6.05442 6.48592 6.27388
#
# Compressibility (1/GPa) = 0.06068249
#
# Stress axis : x y z
#
# Youngs Moduli (GPa) = 72.40949 98.14557 15.19072
#
# Poissons Ratio (x) = 0.64553 0.15868
# Poissons Ratio (y) = 0.47626 -0.03722
# Poissons Ratio (z) = 0.75640 -0.24047
#
# Static dielectric constant tensor:
#      x y z
#    x 3.698800 0.000000 0.000000 
#    y 0.000000 3.846790 0.000000 
#    z 0.000000 0.000000 3.166890 
# 
# 
# High freq. dielectric constant tensor:
#      x y z
#    x 1.756600 0.000000 0.000000 
#    y 0.000000 1.773150 0.000000 
#    z 0.000000 0.000000 1.716580 
# 
# From -- ./inp_files/2256.got.cif
#   From: 2010.03.12/outbox.cif.g09.slc.cpg/sg47_2_cif.got.tgz:2256.got - 2010.04.14 03:12:58.
