data_PCOD8198628
_publ_section_title
;
Structure prediction by ZEFSAII (Michael W. Deem and Ramdas Pophale) SiO2 
 PCOD8198628
Probable space group: P M M M
;
_chemical_formula_sum "Si O2"
_cell_formula_units_Z 44
_cell_length_a 7.702755
_cell_length_b 14.299353
_cell_length_c 19.749180
_cell_angle_alpha 90.000000
_cell_angle_beta 90.000000
_cell_angle_gamma 90.000000
_cell_volume 2175.261835
_symmetry_space_group_name_H-M "P M M M"
_symmetry_group_IT_number 47
_symmetry_cell_setting 'orthorhombic'
loop_
_space_group_symop_operation_xyz
x,y,z
-x,-y,z
x,-y,-z
-x,y,-z
-x,-y,-z
x,y,-z
-x,y,z
x,-y,z
loop_
_atom_site_type_symbol
_atom_site_label
_atom_site_fract_x
_atom_site_fract_y
_atom_site_fract_z
Si Si1 0.294305 0.898285 0.286767
Si Si2 0.698084 0.295106 0.659492
Si Si3 0.197621 0.710195 0.073427
Si Si4 0.703708 0.104501 0.865168
Si Si5 0.205393 0.391810 0.204800
Si Si6 0.000000 0.607743 0.420227
O O1 0.500000 0.899338 0.281882
O O2 0.235652 0.812796 0.334748
O O3 0.221996 0.882772 0.210985
O O4 0.229044 0.000000 0.314698
O O5 0.500000 0.300228 0.631919
O O6 0.700263 0.342176 0.733022
O O7 0.824919 0.346352 0.607768
O O8 0.204588 0.821199 0.086423
O O9 0.282999 0.652554 0.135379
O O10 0.000000 0.677732 0.068895
O O11 0.286237 0.688458 0.000000
O O12 0.500000 0.123754 0.866885
O O13 0.746445 0.000000 0.891298
O O14 0.254786 0.500000 0.205427
O O15 0.000000 0.375449 0.212108
O O16 0.000000 0.500000 0.397443
O O17 0.000000 0.619645 0.500000
#
# Coordination Sequence:
#
# PCOD8198628 Si02
#       6
#     8   8   8   8   8   4
#     4   8  15  30  55  87 118 147 187 242 297 348
#     4  11  21  37  66  95 121 157 200 245 293 348
#     4  10  21  34  48  70 104 146 190 240 296 350
#     4   9  17  31  50  71  99 138 183 230 285 348
#     4  10  20  35  55  78 108 146 192 247 299 348
#     4  11  26  46  65  91 130 166 196 237 287 345
#
# _framework density 20.227450000000001
#
# number of rings (size 3 to 8) (size 9 to 14) (size 15 to 20)
#    0.000    2.273    2.727    1.636    0.000    3.273 
#    0.000    5.000    0.000    1.091    0.000    5.091 
#    0.000    0.000    0.000    0.000    0.000    0.000 
#
# Total GULP energy -545360.689965 kJ/mol
# GULP energy per Si atom -12394.561136 kJ/mol
# Density = 2.018141 g / cm^3
# Si number density = 20.227450 Si / 1000 Ang^3
#
#
#
# Elastic Constant Matrix: (Units=GPa)
#
#
# Indices 1 2 3 4 5 6 
#
# 1 56.0171 27.5583 26.0273 0.0000 0.0000 0.0000
# 2 27.5583 146.6555 53.1214 0.0000 0.0000 0.0000
# 3 26.0273 53.1214 83.9536 0.0000 0.0000 0.0000
# 4 0.0000 0.0000 0.0000 26.5941 0.0000 0.0000
# 5 0.0000 0.0000 0.0000 0.0000 7.3083 0.0000
# 6 0.0000 0.0000 0.0000 0.0000 0.0000 24.4830
#
#
#
# Elastic Compliance Matrix: (Units=1/GPa)
#
#
# Indices 1 2 3 4 5 6 
#
# 1 0.021340 -0.002093 -0.005291 0.000000 0.000000 0.000000
# 2 -0.002093 0.009052 -0.005078 0.000000 0.000000 0.000000
# 3 -0.005291 -0.005078 0.016765 0.000000 0.000000 0.000000
# 4 0.000000 0.000000 0.000000 0.037602 0.000000 0.000000
# 5 0.000000 0.000000 0.000000 0.000000 0.136832 0.000000
# 6 0.000000 0.000000 0.000000 0.000000 0.000000 0.040845
#
#
# Mechanical properties :
#
#
# Convention : Reuss Voigt Hill
#
# Bulk Modulus (GPa) = 44.98298 55.56001 50.27149
# Shear Modulus (GPa) = 16.96229 23.67168 20.31698
#
# Velocity S-wave (km/s) = 2.89896 3.42464 3.17271
# Velocity P-wave (km/s) = 5.78724 6.56999 6.19100
#
# Compressibility (1/GPa) = 0.02223063
#
# Stress axis : x y z
#
# Youngs Moduli (GPa) = 46.86022 110.47822 59.64798
#
# Poissons Ratio (x) = 0.23128 0.31561
# Poissons Ratio (y) = 0.09810 0.30291
# Poissons Ratio (z) = 0.24795 0.56105
#
# Static dielectric constant tensor:
#      x y z
#    x 3.388750 0.000000 0.000000 
#    y 0.000000 4.149410 0.000000 
#    z 0.000000 0.000000 3.489600 
# 
# 
# High freq. dielectric constant tensor:
#      x y z
#    x 1.771620 0.000000 0.000000 
#    y 0.000000 1.804670 0.000000 
#    z 0.000000 0.000000 1.753790 
# 
# From -- ./inp_files/26353.got.cif
#   From: 2010.03.12/outbox.cif.g09.slc.cpg/sg47_14_cif.got.tgz:26353.got - 2010.04.14 03:12:58.
