data_PCOD8198255
_publ_section_title
;
Structure prediction by ZEFSAII (Michael W. Deem and Ramdas Pophale) SiO2 
 PCOD8198255
Probable space group: P M M M
;
_chemical_formula_sum "Si O2"
_cell_formula_units_Z 52
_cell_length_a 23.383992
_cell_length_b 14.248435
_cell_length_c 8.939799
_cell_angle_alpha 90.000000
_cell_angle_beta 90.000000
_cell_angle_gamma 90.000000
_cell_volume 2978.609523
_symmetry_space_group_name_H-M "P M M M"
_symmetry_group_IT_number 47
_symmetry_cell_setting 'orthorhombic'
loop_
_space_group_symop_operation_xyz
x,y,z
-x,-y,z
x,-y,-z
-x,y,-z
-x,-y,-z
x,y,-z
-x,y,z
x,-y,z
loop_
_atom_site_type_symbol
_atom_site_label
_atom_site_fract_x
_atom_site_fract_y
_atom_site_fract_z
Si Si1 0.724343 0.221465 0.823394
Si Si2 0.109190 0.605848 0.174939
Si Si3 0.163665 0.107571 0.824264
Si Si4 0.376123 0.891152 0.676950
Si Si5 0.500000 0.889141 0.663293
Si Si6 0.230354 0.606134 0.326210
Si Si7 0.064288 0.219872 0.327925
O O1 0.780515 0.164381 0.771541
O O2 0.668468 0.167956 0.770549
O O3 0.723657 0.323178 0.744559
O O4 0.722410 0.234265 0.000000
O O5 0.087797 0.500000 0.207294
O O6 0.171272 0.623711 0.242105
O O7 0.065767 0.678259 0.249730
O O8 0.112972 0.626625 0.000000
O O9 0.107340 0.146478 0.745294
O O10 0.172454 0.000000 0.776408
O O11 0.154391 0.117922 0.000000
O O12 0.371272 0.870619 0.500000
O O13 0.439563 0.861314 0.740454
O O14 0.364094 0.000000 0.709541
O O15 0.500000 0.841869 0.500000
O O16 0.500000 0.000000 0.642205
O O17 0.221251 0.628018 0.500000
O O18 0.252348 0.500000 0.301120
O O19 0.081064 0.232724 0.500000
O O20 0.000000 0.180314 0.309771
#
# Coordination Sequence:
#
# PCOD8198255 Si02
#       7
#     8   8   8   8   4   8   8
#     4  11  21  33  52  79 109 139 172 210 255 309
#     4  10  20  35  56  80 104 131 163 201 252 313
#     4  10  22  39  56  74  99 134 173 212 256 306
#     4   9  17  30  50  76 107 145 185 221 257 298
#     4   7  12  26  47  71 102 141 184 223 255 294
#     4  10  20  34  54  79 105 133 167 208 254 305
#     4  11  24  39  55  76 101 131 170 214 259 309
#
# _framework density 17.457809999999998
#
# number of rings (size 3 to 8) (size 9 to 14) (size 15 to 20)
#    0.000    2.077    1.538    3.231    0.000    5.538 
#    0.000    3.462    0.000    1.385    0.000    0.538 
#    0.000    4.308    0.000    0.000    0.000    0.000 
#
# Total GULP energy -644688.044398 kJ/mol
# GULP energy per Si atom -12397.847008 kJ/mol
# Density = 1.741807 g / cm^3
# Si number density = 17.457810 Si / 1000 Ang^3
#
#
#
# Elastic Constant Matrix: (Units=GPa)
#
#
# Indices 1 2 3 4 5 6 
#
# 1 106.1876 47.0280 32.6792 0.0000 0.0000 0.0000
# 2 47.0280 95.3497 38.4362 0.0000 0.0000 0.0000
# 3 32.6792 38.4362 54.6080 0.0000 0.0000 0.0000
# 4 0.0000 0.0000 0.0000 27.6998 0.0000 0.0000
# 5 0.0000 0.0000 0.0000 0.0000 9.8882 0.0000
# 6 0.0000 0.0000 0.0000 0.0000 0.0000 18.0402
#
#
#
# Elastic Compliance Matrix: (Units=1/GPa)
#
#
# Indices 1 2 3 4 5 6 
#
# 1 0.012791 -0.004500 -0.004487 0.000000 0.000000 0.000000
# 2 -0.004500 0.016225 -0.008727 0.000000 0.000000 0.000000
# 3 -0.004487 -0.008727 0.027141 0.000000 0.000000 0.000000
# 4 0.000000 0.000000 0.000000 0.036101 0.000000 0.000000
# 5 0.000000 0.000000 0.000000 0.000000 0.101131 0.000000
# 6 0.000000 0.000000 0.000000 0.000000 0.000000 0.055432
#
#
# Mechanical properties :
#
#
# Convention : Reuss Voigt Hill
#
# Bulk Modulus (GPa) = 48.24467 54.71471 51.47969
# Shear Modulus (GPa) = 17.17275 20.32577 18.74926
#
# Velocity S-wave (km/s) = 3.13976 3.41586 3.28071
# Velocity P-wave (km/s) = 6.39055 6.85322 6.62592
#
# Compressibility (1/GPa) = 0.02072768
#
# Stress axis : x y z
#
# Youngs Moduli (GPa) = 78.17880 61.63252 36.84527
#
# Poissons Ratio (x) = 0.27734 0.16534
# Poissons Ratio (y) = 0.35180 0.32156
# Poissons Ratio (z) = 0.35082 0.53789
#
# Static dielectric constant tensor:
#      x y z
#    x 3.264080 0.000000 0.000000 
#    y 0.000000 3.296900 0.000000 
#    z 0.000000 0.000000 3.235290 
# 
# 
# High freq. dielectric constant tensor:
#      x y z
#    x 1.663460 0.000000 0.000000 
#    y 0.000000 1.667110 0.000000 
#    z 0.000000 0.000000 1.676020 
# 
# From -- ./inp_files/12492.got.cif
#   From: 2010.03.12/outbox.cif.g09.slc.cpg/sg47_7_cif.got.tgz:12492.got - 2010.04.14 03:12:58.
