data_PCOD8198288
_publ_section_title
;
Structure prediction by ZEFSAII (Michael W. Deem and Ramdas Pophale) SiO2 
 PCOD8198288
Probable space group: P M M M
;
_chemical_formula_sum "Si O2"
_cell_formula_units_Z 40
_cell_length_a 27.076747
_cell_length_b 9.102683
_cell_length_c 8.869010
_cell_angle_alpha 90.000000
_cell_angle_beta 90.000000
_cell_angle_gamma 90.000000
_cell_volume 2185.954159
_symmetry_space_group_name_H-M "P M M M"
_symmetry_group_IT_number 47
_symmetry_cell_setting 'orthorhombic'
loop_
_space_group_symop_operation_xyz
x,y,z
-x,-y,z
x,-y,-z
-x,y,-z
-x,-y,-z
x,y,-z
-x,y,z
x,-y,z
loop_
_atom_site_type_symbol
_atom_site_label
_atom_site_fract_x
_atom_site_fract_y
_atom_site_fract_z
Si Si1 0.000000 0.667620 0.178362
Si Si2 0.908537 0.170763 0.676415
Si Si3 0.556930 0.326716 0.000000
Si Si4 0.365898 0.165149 0.166054
Si Si5 0.181218 0.671063 0.175458
Si Si6 0.717752 0.331878 0.673556
O O1 0.048517 0.746127 0.237373
O O2 0.000000 0.500000 0.235098
O O3 0.000000 0.675748 0.000000
O O4 0.915149 0.197997 0.500000
O O5 0.856204 0.232446 0.728525
O O6 0.911546 0.000000 0.717422
O O7 0.582999 0.258146 0.150054
O O8 0.564476 0.500000 0.000000
O O9 0.500000 0.281112 0.000000
O O10 0.329754 0.235516 0.287725
O O11 0.378654 0.000000 0.218429
O O12 0.340014 0.164839 0.000000
O O13 0.171691 0.500000 0.210897
O O14 0.236008 0.717729 0.225489
O O15 0.174239 0.705763 0.000000
O O16 0.731933 0.307791 0.500000
O O17 0.704094 0.500000 0.708147
#
# Coordination Sequence:
#
# PCOD8198288 Si02
#       6
#     4   8   4   8   8   8
#     4  11  24  41  62  86 110 139 180 227 274 328
#     4  11  24  40  58  83 113 145 181 223 274 330
#     4   9  17  31  55  83 109 141 183 230 275 320
#     4   9  19  32  50  78 109 143 180 221 272 325
#     4  10  21  37  58  83 110 143 185 229 273 324
#     4  10  20  34  54  79 108 146 188 229 274 325
#
# _framework density 18.298645
#
# number of rings (size 3 to 8) (size 9 to 14) (size 15 to 20)
#    0.600    1.400    0.000    3.600    0.000   10.000 
#    0.000    0.000    0.000    0.600    0.000    4.200 
#    0.000    0.000    0.000    0.000    0.000    0.000 
#
# Total GULP energy -495989.534562 kJ/mol
# GULP energy per Si atom -12399.738364 kJ/mol
# Density = 1.825700 g / cm^3
# Si number density = 18.298645 Si / 1000 Ang^3
#
#
#
# Elastic Constant Matrix: (Units=GPa)
#
#
# Indices 1 2 3 4 5 6 
#
# 1 117.9128 70.9039 27.0043 0.0000 0.0000 0.0000
# 2 70.9039 119.8915 39.9382 0.0000 0.0000 0.0000
# 3 27.0043 39.9382 48.0353 0.0000 0.0000 0.0000
# 4 0.0000 0.0000 0.0000 28.6223 0.0000 0.0000
# 5 0.0000 0.0000 0.0000 0.0000 -677.4118 0.0000
# 6 0.0000 0.0000 0.0000 0.0000 0.0000 -53.3745
#
#
#
# Elastic Compliance Matrix: (Units=1/GPa)
#
#
# Indices 1 2 3 4 5 6 
#
# 1 0.013219 -0.007388 -0.001288 0.000000 0.000000 0.000000
# 2 -0.007388 0.015666 -0.008871 0.000000 0.000000 0.000000
# 3 -0.001288 -0.008871 0.028918 0.000000 0.000000 0.000000
# 4 0.000000 0.000000 0.000000 0.034938 0.000000 0.000000
# 5 0.000000 0.000000 0.000000 0.000000 -0.001476 0.000000
# 6 0.000000 0.000000 0.000000 0.000000 0.000000 -0.018736
#
#
# Mechanical properties :
#
#
# Convention : Reuss Voigt Hill
#
# Bulk Modulus (GPa) = 44.04031 62.39249 53.21640
# Shear Modulus (GPa) = 43.40528 -130.56660 -43.58066
#
# Velocity S-wave (km/s) = 4.87565 -8.45624 -4.88549
# Velocity P-wave (km/s) = 7.47099 7.82133 1.63669
#
# Compressibility (1/GPa) = 0.02270647
#
# Stress axis : x y z
#
# Youngs Moduli (GPa) = 75.65024 63.83415 34.58038
#
# Poissons Ratio (x) = 0.47163 0.04455
# Poissons Ratio (y) = 0.55894 0.30677
# Poissons Ratio (z) = 0.09746 0.56629
#
# Static dielectric constant tensor:
#      x y z
#    x 3.306430 0.000000 0.000000 
#    y 0.000000 3.465550 0.000000 
#    z 0.000000 0.000000 3.288780 
# 
# 
# High freq. dielectric constant tensor:
#      x y z
#    x 1.706470 0.000000 0.000000 
#    y 0.000000 1.718550 0.000000 
#    z 0.000000 0.000000 1.701730 
# 
# From -- ./inp_files/13032.got.cif
#   From: 2010.03.12/outbox.cif.g09.slc.cpg/sg47_7_cif.got.tgz:13032.got - 2010.04.14 03:12:58.
