data_PCOD8198505
_publ_section_title
;
Structure prediction by ZEFSAII (Michael W. Deem and Ramdas Pophale) SiO2 
 PCOD8198505
Probable space group: P M M M
;
_chemical_formula_sum "Si O2"
_cell_formula_units_Z 64
_cell_length_a 14.614029
_cell_length_b 8.711481
_cell_length_c 24.991561
_cell_angle_alpha 90.000000
_cell_angle_beta 90.000000
_cell_angle_gamma 90.000000
_cell_volume 3181.671531
_symmetry_space_group_name_H-M "P M M M"
_symmetry_group_IT_number 47
_symmetry_cell_setting 'orthorhombic'
loop_
_space_group_symop_operation_xyz
x,y,z
-x,-y,z
x,-y,-z
-x,y,-z
-x,-y,-z
x,y,-z
-x,y,z
x,-y,z
loop_
_atom_site_type_symbol
_atom_site_label
_atom_site_fract_x
_atom_site_fract_y
_atom_site_fract_z
Si Si1 0.393520 0.327950 0.560848
Si Si2 0.738331 0.822825 0.364389
Si Si3 0.396132 0.182030 0.158894
Si Si4 0.275302 0.678110 0.252055
Si Si5 0.102648 0.182436 0.559877
Si Si6 0.102603 0.824113 0.791885
Si Si7 0.898693 0.323530 0.904921
Si Si8 0.277261 0.822701 0.058872
O O1 0.362552 0.307313 0.500000
O O2 0.500000 0.299823 0.567269
O O3 0.367605 0.500000 0.580523
O O4 0.344536 0.196480 0.594637
O O5 0.708278 0.728031 0.312603
O O6 0.828925 0.755003 0.394168
O O7 0.751636 0.000000 0.348614
O O8 0.500000 0.247175 0.159102
O O9 0.343030 0.235612 0.211596
O O10 0.344665 0.241824 0.105091
O O11 0.398463 0.000000 0.158726
O O12 0.294933 0.500000 0.245220
O O13 0.169577 0.715222 0.240775
O O14 0.128382 0.243244 0.500000
O O15 0.000000 0.236547 0.574652
O O16 0.108727 0.000000 0.559153
O O17 0.109264 0.785076 0.853880
O O18 0.000000 0.797022 0.770173
O O19 0.132906 0.000000 0.783941
O O20 0.884223 0.500000 0.887832
O O21 0.817992 0.271246 0.944089
O O22 0.000000 0.303060 0.931322
O O23 0.254608 0.000000 0.070223
O O24 0.323305 0.802812 0.000000
#
# Coordination Sequence:
#
# PCOD8198505 Si02
#       8
#     8   8   8   8   8   8   8   8
#     4   9  19  37  59  82 112 150 188 231 291 357
#     4  11  22  35  56  86 117 150 194 244 291 342
#     4  10  22  42  66  88 113 148 193 244 298 358
#     4  12  25  40  59  84 117 156 196 240 294 353
#     4   8  15  30  53  82 116 152 190 233 282 335
#     4  10  20  36  60  86 113 148 190 236 284 337
#     4  10  20  34  55  85 120 158 195 231 278 335
#     4  10  21  37  60  90 122 155 192 238 292 350
#
# _framework density 20.115212
#
# number of rings (size 3 to 8) (size 9 to 14) (size 15 to 20)
#    0.000    2.000    1.250    3.375    0.000    4.500 
#    0.000    4.375    0.000    1.125    0.000    6.125 
#    0.000    0.000    0.000    0.000    0.000    0.000 
#
# Total GULP energy -793425.473693 kJ/mol
# GULP energy per Si atom -12397.273026 kJ/mol
# Density = 2.006943 g / cm^3
# Si number density = 20.115212 Si / 1000 Ang^3
#
#
#
# Elastic Constant Matrix: (Units=GPa)
#
#
# Indices 1 2 3 4 5 6 
#
# 1 107.4155 24.3884 62.2130 0.0000 0.0000 0.0000
# 2 24.3884 35.3520 16.3347 0.0000 0.0000 0.0000
# 3 62.2130 16.3347 115.9234 0.0000 0.0000 0.0000
# 4 0.0000 0.0000 0.0000 21.1186 0.0000 0.0000
# 5 0.0000 0.0000 0.0000 0.0000 10.7908 0.0000
# 6 0.0000 0.0000 0.0000 0.0000 0.0000 23.2793
#
#
#
# Elastic Compliance Matrix: (Units=1/GPa)
#
#
# Indices 1 2 3 4 5 6 
#
# 1 0.015005 -0.007093 -0.007054 0.000000 0.000000 0.000000
# 2 -0.007093 0.033609 -0.000929 0.000000 0.000000 0.000000
# 3 -0.007054 -0.000929 0.012543 0.000000 0.000000 0.000000
# 4 0.000000 0.000000 0.000000 0.047352 0.000000 0.000000
# 5 0.000000 0.000000 0.000000 0.000000 0.092671 0.000000
# 6 0.000000 0.000000 0.000000 0.000000 0.000000 0.042957
#
#
# Mechanical properties :
#
#
# Convention : Reuss Voigt Hill
#
# Bulk Modulus (GPa) = 32.25153 51.61813 41.93483
# Shear Modulus (GPa) = 17.56707 21.42141 19.49424
#
# Velocity S-wave (km/s) = 2.95841 3.26688 3.11646
# Velocity P-wave (km/s) = 5.26667 6.32036 5.81742
#
# Compressibility (1/GPa) = 0.03100628
#
# Stress axis : x y z
#
# Youngs Moduli (GPa) = 66.64337 29.75360 79.72712
#
# Poissons Ratio (x) = 0.21103 0.56236
# Poissons Ratio (y) = 0.47267 0.07411
# Poissons Ratio (z) = 0.47007 0.02766
#
# Static dielectric constant tensor:
#      x y z
#    x 3.857410 0.000000 0.000000 
#    y 0.000000 3.481720 0.000000 
#    z 0.000000 0.000000 3.639620 
# 
# 
# High freq. dielectric constant tensor:
#      x y z
#    x 1.788350 0.000000 0.000000 
#    y 0.000000 1.766750 0.000000 
#    z 0.000000 0.000000 1.782360 
# 
# From -- ./inp_files/32803.got.cif
#   From: 2010.03.12/outbox.cif.g09.slc.cpg/sg47_17_cif.got.tgz:32803.got - 2010.04.14 03:12:58.
