data_PCOD8198978
_publ_section_title
;
Structure prediction by ZEFSAII (Michael W. Deem and Ramdas Pophale) SiO2 
 PCOD8198978
Probable space group: P M M M
;
_chemical_formula_sum "Si O2"
_cell_formula_units_Z 48
_cell_length_a 8.990586
_cell_length_b 9.906705
_cell_length_c 28.853134
_cell_angle_alpha 90.000000
_cell_angle_beta 90.000000
_cell_angle_gamma 90.000000
_cell_volume 2569.864489
_symmetry_space_group_name_H-M "P M M M"
_symmetry_group_IT_number 47
_symmetry_cell_setting 'orthorhombic'
loop_
_space_group_symop_operation_xyz
x,y,z
-x,-y,z
x,-y,-z
-x,y,-z
-x,-y,-z
x,y,-z
-x,y,z
x,-y,z
loop_
_atom_site_type_symbol
_atom_site_label
_atom_site_fract_x
_atom_site_fract_y
_atom_site_fract_z
Si Si1 0.324254 0.653532 0.280357
Si Si2 0.176561 0.000000 0.050997
Si Si3 0.825908 0.741720 0.104818
Si Si4 0.173867 0.156797 0.206113
Si Si5 0.670531 0.154604 0.553825
Si Si6 0.675755 0.500000 0.946887
Si Si7 0.827877 0.654314 0.623840
O O1 0.500000 0.665290 0.280710
O O2 0.274342 0.500000 0.267235
O O3 0.261505 0.763207 0.245163
O O4 0.264882 0.692856 0.330787
O O5 0.233701 0.128689 0.078087
O O6 0.000000 0.000000 0.049119
O O7 0.247008 0.000000 0.000000
O O8 0.791014 0.764777 0.158644
O O9 0.730927 0.624347 0.082943
O O10 0.000000 0.713382 0.096701
O O11 0.000000 0.162624 0.217342
O O12 0.225652 0.000000 0.203513
O O13 0.705872 0.176109 0.500000
O O14 0.500000 0.192649 0.564562
O O15 0.779225 0.250908 0.581957
O O16 0.701305 0.000000 0.568051
O O17 0.500000 0.500000 0.948571
O O18 0.738639 0.500000 0.000000
O O19 0.797507 0.500000 0.609122
O O20 0.000000 0.679084 0.635008
#
# Coordination Sequence:
#
# PCOD8198978 Si02
#       7
#     8   4   8   8   8   4   8
#     4  10  22  39  59  83 111 147 190 231 277 334
#     4   9  16  30  57  87 111 137 177 229 274 317
#     4  10  20  37  60  86 111 142 184 228 274 327
#     4  10  21  38  59  85 115 143 179 227 280 334
#     4   9  19  36  57  82 114 153 195 236 280 334
#     4  11  25  41  55  79 117 153 185 225 272 325
#     4  10  21  37  57  83 114 148 189 237 287 335
#
# _framework density 18.67803
#
# number of rings (size 3 to 8) (size 9 to 14) (size 15 to 20)
#    0.000    2.167    0.833    2.250    1.167    6.000 
#    0.000    2.917    0.000    1.500    0.000    0.000 
#    0.000    0.000    0.000    0.000    0.000    0.000 
#
# Total GULP energy -595196.648668 kJ/mol
# GULP energy per Si atom -12399.930181 kJ/mol
# Density = 1.863552 g / cm^3
# Si number density = 18.678030 Si / 1000 Ang^3
#
#
#
# Elastic Constant Matrix: (Units=GPa)
#
#
# Indices 1 2 3 4 5 6 
#
# 1 57.2793 52.7085 47.5604 0.0000 0.0000 0.0000
# 2 52.7085 127.1607 69.6059 0.0000 0.0000 0.0000
# 3 47.5604 69.6059 109.5228 0.0000 0.0000 0.0000
# 4 0.0000 0.0000 0.0000 34.0273 0.0000 0.0000
# 5 0.0000 0.0000 0.0000 0.0000 31.1848 0.0000
# 6 0.0000 0.0000 0.0000 0.0000 0.0000 28.7577
#
#
#
# Elastic Compliance Matrix: (Units=1/GPa)
#
#
# Indices 1 2 3 4 5 6 
#
# 1 0.032754 -0.008880 -0.008580 0.000000 0.000000 0.000000
# 2 -0.008880 0.014467 -0.005338 0.000000 0.000000 0.000000
# 3 -0.008580 -0.005338 0.016249 0.000000 0.000000 0.000000
# 4 0.000000 0.000000 0.000000 0.029388 0.000000 0.000000
# 5 0.000000 0.000000 0.000000 0.000000 0.032067 0.000000
# 6 0.000000 0.000000 0.000000 0.000000 0.000000 0.034773
#
#
# Mechanical properties :
#
#
# Convention : Reuss Voigt Hill
#
# Bulk Modulus (GPa) = 55.94816 70.41248 63.18032
# Shear Modulus (GPa) = 23.66847 27.06648 25.36747
#
# Velocity S-wave (km/s) = 3.56361 3.81084 3.68930
# Velocity P-wave (km/s) = 6.85211 7.55932 7.21439
#
# Compressibility (1/GPa) = 0.01787369
#
# Stress axis : x y z
#
# Youngs Moduli (GPa) = 30.53085 69.12341 61.54308
#
# Poissons Ratio (x) = 0.61383 0.52802
# Poissons Ratio (y) = 0.27112 0.32852
# Poissons Ratio (z) = 0.26194 0.36898
#
# Static dielectric constant tensor:
#      x y z
#    x 3.276390 0.000000 0.000000 
#    y 0.000000 3.505400 0.000000 
#    z 0.000000 0.000000 3.493140 
# 
# 
# High freq. dielectric constant tensor:
#      x y z
#    x 1.714320 0.000000 0.000000 
#    y 0.000000 1.734900 0.000000 
#    z 0.000000 0.000000 1.733730 
# 
# From -- ./inp_files/2808.got.cif
#   From: 2010.03.12/outbox.cif.g09.slc.cpg/sg47_2_cif.got.tgz:2808.got - 2010.04.14 03:12:58.
