data_PCOD8198281
_publ_section_title
;
Structure prediction by ZEFSAII (Michael W. Deem and Ramdas Pophale) SiO2 
 PCOD8198281
Probable space group: P M M M
;
_chemical_formula_sum "Si O2"
_cell_formula_units_Z 48
_cell_length_a 9.079562
_cell_length_b 8.910475
_cell_length_c 30.704225
_cell_angle_alpha 90.000000
_cell_angle_beta 90.000000
_cell_angle_gamma 90.000000
_cell_volume 2484.070370
_symmetry_space_group_name_H-M "P M M M"
_symmetry_group_IT_number 47
_symmetry_cell_setting 'orthorhombic'
loop_
_space_group_symop_operation_xyz
x,y,z
-x,-y,z
x,-y,-z
-x,y,-z
-x,-y,-z
x,y,-z
-x,y,z
x,-y,z
loop_
_atom_site_type_symbol
_atom_site_label
_atom_site_fract_x
_atom_site_fract_y
_atom_site_fract_z
Si Si1 0.666379 0.678073 0.584928
Si Si2 0.829266 0.825117 0.335662
Si Si3 0.171715 0.824923 0.080552
Si Si4 0.331583 0.677440 0.000000
Si Si5 0.329046 0.325645 0.159156
Si Si6 0.166262 0.321103 0.500000
Si Si7 0.669358 0.827697 0.248364
O O1 0.500000 0.739830 0.583742
O O2 0.667869 0.500000 0.584517
O O3 0.745165 0.732186 0.628180
O O4 0.751420 0.741464 0.542704
O O5 0.769217 0.776078 0.288606
O O6 0.000000 0.784007 0.337969
O O7 0.799583 0.000000 0.343686
O O8 0.254174 0.737490 0.042836
O O9 0.230125 0.770816 0.126913
O O10 0.000000 0.788494 0.077171
O O11 0.203755 0.000000 0.075149
O O12 0.320192 0.500000 0.000000
O O13 0.500000 0.731695 0.000000
O O14 0.500000 0.291966 0.149344
O O15 0.292344 0.500000 0.153203
O O16 0.287711 0.276628 0.207890
O O17 0.167151 0.500000 0.500000
O O18 0.000000 0.258734 0.500000
O O19 0.500000 0.804778 0.261930
O O20 0.700477 0.000000 0.235430
#
# Coordination Sequence:
#
# PCOD8198281 Si02
#       7
#     8   8   8   4   8   4   8
#     4  10  20  34  54  79 106 138 178 222 267 319
#     4  10  21  36  54  78 109 143 179 222 272 324
#     4  11  24  40  59  85 116 150 189 230 273 325
#     4  11  24  41  62  88 116 147 186 231 278 328
#     4  10  21  37  58  85 115 146 183 227 274 325
#     4   9  17  31  52  77 106 139 174 216 268 323
#     4   9  18  34  55  77 105 144 185 223 266 319
#
# _framework density 19.323125000000001
#
# number of rings (size 3 to 8) (size 9 to 14) (size 15 to 20)
#    0.000    2.000    0.000    3.250    0.000   10.333 
#    0.000    3.750    0.000    2.500    0.000    0.000 
#    0.000    0.000    0.000    0.000    0.000    0.000 
#
# Total GULP energy -595423.407026 kJ/mol
# GULP energy per Si atom -12404.654313 kJ/mol
# Density = 1.927914 g / cm^3
# Si number density = 19.323125 Si / 1000 Ang^3
#
#
#
# Elastic Constant Matrix: (Units=GPa)
#
#
# Indices 1 2 3 4 5 6 
#
# 1 135.7082 41.6366 74.6297 0.0000 0.0000 0.0000
# 2 41.6366 37.9520 29.4073 0.0000 0.0000 0.0000
# 3 74.6297 29.4073 120.4692 0.0000 0.0000 0.0000
# 4 0.0000 0.0000 0.0000 39.6319 0.0000 0.0000
# 5 0.0000 0.0000 0.0000 0.0000 218.0243 0.0000
# 6 0.0000 0.0000 0.0000 0.0000 0.0000 27.7189
#
#
#
# Elastic Compliance Matrix: (Units=1/GPa)
#
#
# Indices 1 2 3 4 5 6 
#
# 1 0.013956 -0.010621 -0.006053 0.000000 0.000000 0.000000
# 2 -0.010621 0.040578 -0.003326 0.000000 0.000000 0.000000
# 3 -0.006053 -0.003326 0.012863 0.000000 0.000000 0.000000
# 4 0.000000 0.000000 0.000000 0.025232 0.000000 0.000000
# 5 0.000000 0.000000 0.000000 0.000000 0.004587 0.000000
# 6 0.000000 0.000000 0.000000 0.000000 0.000000 0.036076
#
#
# Mechanical properties :
#
#
# Convention : Reuss Voigt Hill
#
# Bulk Modulus (GPa) = 36.49999 65.05297 50.77648
# Shear Modulus (GPa) = 27.40869 66.97207 47.19038
#
# Velocity S-wave (km/s) = 3.77030 5.89358 4.94719
# Velocity P-wave (km/s) = 6.15499 8.94714 7.67904
#
# Compressibility (1/GPa) = 0.02739727
#
# Stress axis : x y z
#
# Youngs Moduli (GPa) = 71.65349 24.64383 77.74495
#
# Poissons Ratio (x) = 0.26174 0.47060
# Poissons Ratio (y) = 0.76101 0.25857
# Poissons Ratio (z) = 0.43372 0.08196
#
# Static dielectric constant tensor:
#      x y z
#    x 3.716510 0.000000 0.000000 
#    y 0.000000 3.414630 0.000000 
#    z 0.000000 0.000000 3.615410 
# 
# 
# High freq. dielectric constant tensor:
#      x y z
#    x 1.761730 0.000000 0.000000 
#    y 0.000000 1.740320 0.000000 
#    z 0.000000 0.000000 1.766980 
# 
# From -- ./inp_files/13808.got.cif
#   From: 2010.03.12/outbox.cif.g09.slc.cpg/sg47_7_cif.got.tgz:13808.got - 2010.04.14 03:12:58.
