data_PCOD8198351
_publ_section_title
;
Structure prediction by ZEFSAII (Michael W. Deem and Ramdas Pophale) SiO2 
 PCOD8198351
Probable space group: P M M M
;
_chemical_formula_sum "Si O2"
_cell_formula_units_Z 52
_cell_length_a 12.878767
_cell_length_b 8.433412
_cell_length_c 24.441155
_cell_angle_alpha 90.000000
_cell_angle_beta 90.000000
_cell_angle_gamma 90.000000
_cell_volume 2654.601460
_symmetry_space_group_name_H-M "P M M M"
_symmetry_group_IT_number 47
_symmetry_cell_setting 'orthorhombic'
loop_
_space_group_symop_operation_xyz
x,y,z
-x,-y,z
x,-y,-z
-x,y,-z
-x,-y,-z
x,y,-z
-x,y,z
x,-y,z
loop_
_atom_site_type_symbol
_atom_site_label
_atom_site_fract_x
_atom_site_fract_y
_atom_site_fract_z
Si Si1 0.500000 0.680574 0.637686
Si Si2 0.711872 0.815813 0.359278
Si Si3 0.116223 0.319259 0.159664
Si Si4 0.713226 0.815037 0.237574
Si Si5 0.736247 0.680508 0.063502
Si Si6 0.118692 0.315305 0.562055
Si Si7 0.384826 0.000000 0.935340
Si Si8 0.500000 0.319290 0.233334
O O1 0.500000 0.500000 0.620885
O O2 0.394625 0.754057 0.612834
O O3 0.500000 0.712623 0.702153
O O4 0.728122 0.740279 0.298555
O O5 0.809357 0.779864 0.397010
O O6 0.700360 0.000000 0.352463
O O7 0.115451 0.500000 0.179499
O O8 0.187825 0.224243 0.201274
O O9 0.157899 0.306238 0.097738
O O10 0.000000 0.247732 0.161039
O O11 0.606683 0.753106 0.209259
O O12 0.701873 0.000000 0.241946
O O13 0.687332 0.500000 0.072889
O O14 0.666939 0.831834 0.083437
O O15 0.764432 0.700910 0.000000
O O16 0.141674 0.261277 0.500000
O O17 0.141711 0.500000 0.568739
O O18 0.000000 0.276656 0.577280
O O19 0.500000 0.000000 0.909981
O O20 0.389487 0.000000 0.000000
O O21 0.500000 0.500000 0.216371
#
# Coordination Sequence:
#
# PCOD8198351 Si02
#       8
#     4   8   8   8   8   8   4   4
#     4   9  17  31  54  80 105 140 180 220 265 314
#     4  10  20  34  54  80 111 143 177 219 270 325
#     4  10  22  39  57  79 109 144 184 232 279 323
#     4  10  21  36  54  80 112 145 179 219 271 326
#     4   9  19  37  59  83 112 146 187 234 285 339
#     4   9  19  36  56  78 105 139 181 226 269 316
#     4   9  18  34  57  85 115 147 186 229 276 337
#     4   9  17  33  57  80 105 138 181 225 263 319
#
# _framework density 19.588628
#
# number of rings (size 3 to 8) (size 9 to 14) (size 15 to 20)
#    0.000    2.538    0.000    1.846    1.077    5.846 
#    1.385    7.308    0.000    3.692    0.000    0.000 
#    0.000    0.000    0.000    0.000    0.000    0.000 
#
# Total GULP energy -644441.356709 kJ/mol
# GULP energy per Si atom -12393.103014 kJ/mol
# Density = 1.954404 g / cm^3
# Si number density = 19.588628 Si / 1000 Ang^3
#
#
#
# Elastic Constant Matrix: (Units=GPa)
#
#
# Indices 1 2 3 4 5 6 
#
# 1 155.5369 61.6300 52.8486 0.0000 0.0000 0.0000
# 2 61.6300 98.9722 30.3248 0.0000 0.0000 0.0000
# 3 52.8486 30.3248 62.3959 0.0000 0.0000 0.0000
# 4 0.0000 0.0000 0.0000 24.2054 0.0000 0.0000
# 5 0.0000 0.0000 0.0000 0.0000 20.3771 0.0000
# 6 0.0000 0.0000 0.0000 0.0000 0.0000 3.6912
#
#
#
# Elastic Compliance Matrix: (Units=1/GPa)
#
#
# Indices 1 2 3 4 5 6 
#
# 1 0.010478 -0.004471 -0.006702 0.000000 0.000000 0.000000
# 2 -0.004471 0.013780 -0.002910 0.000000 0.000000 0.000000
# 3 -0.006702 -0.002910 0.023117 0.000000 0.000000 0.000000
# 4 0.000000 0.000000 0.000000 0.041313 0.000000 0.000000
# 5 0.000000 0.000000 0.000000 0.000000 0.049075 0.000000
# 6 0.000000 0.000000 0.000000 0.000000 0.000000 0.270916
#
#
# Mechanical properties :
#
#
# Convention : Reuss Voigt Hill
#
# Bulk Modulus (GPa) = 52.05853 67.39021 59.72437
# Shear Modulus (GPa) = 11.28036 21.12819 16.20428
#
# Velocity S-wave (km/s) = 2.40232 3.28776 2.87928
# Velocity P-wave (km/s) = 5.85905 6.99213 6.45052
#
# Compressibility (1/GPa) = 0.01920915
#
# Stress axis : x y z
#
# Youngs Moduli (GPa) = 95.43588 72.57032 43.25772
#
# Poissons Ratio (x) = 0.32449 0.28991
# Poissons Ratio (y) = 0.42673 0.12587
# Poissons Ratio (z) = 0.63959 0.21117
#
# Static dielectric constant tensor:
#      x y z
#    x 3.459800 0.000000 0.000000 
#    y 0.000000 3.663620 0.000000 
#    z 0.000000 0.000000 3.460920 
# 
# 
# High freq. dielectric constant tensor:
#      x y z
#    x 1.761650 0.000000 0.000000 
#    y 0.000000 1.769220 0.000000 
#    z 0.000000 0.000000 1.745240 
# 
# From -- ./inp_files/33633.got.cif
#   From: 2010.03.12/outbox.cif.g09.slc.cpg/sg47_17_cif.got.tgz:33633.got - 2010.04.14 03:12:58.
