data_PCOD8198252
_publ_section_title
;
Structure prediction by ZEFSAII (Michael W. Deem and Ramdas Pophale) SiO2 
 PCOD8198252
Probable space group: P M M M
;
_chemical_formula_sum "Si O2"
_cell_formula_units_Z 48
_cell_length_a 31.005060
_cell_length_b 9.141215
_cell_length_c 9.170437
_cell_angle_alpha 90.000000
_cell_angle_beta 90.000000
_cell_angle_gamma 90.000000
_cell_volume 2599.121199
_symmetry_space_group_name_H-M "P M M M"
_symmetry_group_IT_number 47
_symmetry_cell_setting 'orthorhombic'
loop_
_space_group_symop_operation_xyz
x,y,z
-x,-y,z
x,-y,-z
-x,y,-z
-x,-y,-z
x,y,-z
-x,y,z
x,-y,z
loop_
_atom_site_type_symbol
_atom_site_label
_atom_site_fract_x
_atom_site_fract_y
_atom_site_fract_z
Si Si1 0.668598 0.326105 0.664546
Si Si2 0.000000 0.674022 0.835512
Si Si3 0.083743 0.331424 0.330519
Si Si4 0.415507 0.329007 0.169591
Si Si5 0.753385 0.669995 0.829132
Si Si6 0.829340 0.827825 0.332375
Si Si7 0.500000 0.165039 0.826558
O O1 0.670137 0.265129 0.500000
O O2 0.667900 0.500000 0.666946
O O3 0.625693 0.267225 0.743506
O O4 0.710473 0.269624 0.750671
O O5 0.957174 0.732848 0.756141
O O6 0.000000 0.500000 0.827637
O O7 0.000000 0.732723 0.000000
O O8 0.073227 0.313234 0.500000
O O9 0.092914 0.500000 0.290184
O O10 0.125056 0.238225 0.283214
O O11 0.422808 0.500000 0.197024
O O12 0.457437 0.246459 0.231717
O O13 0.407622 0.295690 0.000000
O O14 0.761173 0.500000 0.792594
O O15 0.793352 0.761463 0.771310
O O16 0.747778 0.696197 0.000000
O O17 0.819247 0.785636 0.500000
O O18 0.831048 0.000000 0.309720
O O19 0.500000 0.000000 0.767164
O O20 0.500000 0.170496 0.000000
#
# Coordination Sequence:
#
# PCOD8198252 Si02
#       7
#     8   4   8   8   8   8   4
#     4   9  17  30  50  75 100 126 160 204 250 294
#     4   9  17  29  48  75 102 126 160 209 256 295
#     4   9  17  31  52  75  99 130 167 205 248 299
#     4   9  16  28  48  72  96 123 158 199 241 287
#     4  10  20  34  54  79 104 132 168 209 253 302
#     4  10  21  36  53  75 104 137 172 210 253 301
#     4   9  17  29  46  69  96 126 160 197 238 286
#
# _framework density 18.467779
#
# number of rings (size 3 to 8) (size 9 to 14) (size 15 to 20)
#    0.000    2.667    0.000    2.000    0.000    6.667 
#    0.000    3.333    0.000    8.500    0.000    0.000 
#    0.000    0.000    0.000    0.000    0.000    0.000 
#
# Total GULP energy -595276.885234 kJ/mol
# GULP energy per Si atom -12401.601776 kJ/mol
# Density = 1.842575 g / cm^3
# Si number density = 18.467779 Si / 1000 Ang^3
#
#
#
# Elastic Constant Matrix: (Units=GPa)
#
#
# Indices 1 2 3 4 5 6 
#
# 1 189.5816 56.5886 83.1041 0.0000 0.0000 0.0000
# 2 56.5886 56.1107 36.8530 0.0000 0.0000 0.0000
# 3 83.1041 36.8530 94.9084 0.0000 0.0000 0.0000
# 4 0.0000 0.0000 0.0000 16.0484 0.0000 0.0000
# 5 0.0000 0.0000 0.0000 0.0000 35.9300 0.0000
# 6 0.0000 0.0000 0.0000 0.0000 0.0000 -0.9629
#
#
#
# Elastic Compliance Matrix: (Units=1/GPa)
#
#
# Indices 1 2 3 4 5 6 
#
# 1 0.009740 -0.005667 -0.006329 0.000000 0.000000 0.000000
# 2 -0.005667 0.027220 -0.005607 0.000000 0.000000 0.000000
# 3 -0.006329 -0.005607 0.018255 0.000000 0.000000 0.000000
# 4 0.000000 0.000000 0.000000 0.062311 0.000000 0.000000
# 5 0.000000 0.000000 0.000000 0.000000 0.027832 0.000000
# 6 0.000000 0.000000 0.000000 0.000000 0.000000 -1.038561
#
#
# Mechanical properties :
#
#
# Convention : Reuss Voigt Hill
#
# Bulk Modulus (GPa) = 49.97515 77.07690 63.52602
# Shear Modulus (GPa) = -5.87319 21.14011 7.63346
#
# Velocity S-wave (km/s) = -1.78526 3.38702 2.03528
# Velocity P-wave (km/s) = 4.78225 7.55793 6.32425
#
# Compressibility (1/GPa) = 0.02000995
#
# Stress axis : x y z
#
# Youngs Moduli (GPa) = 102.66485 36.73774 54.77874
#
# Poissons Ratio (x) = 0.20819 0.34667
# Poissons Ratio (y) = 0.58179 0.30717
# Poissons Ratio (z) = 0.64972 0.20601
#
# Static dielectric constant tensor:
#      x y z
#    x 3.613690 0.000000 0.000000 
#    y 0.000000 3.095820 0.000000 
#    z 0.000000 0.000000 3.362270 
# 
# 
# High freq. dielectric constant tensor:
#      x y z
#    x 1.733440 0.000000 0.000000 
#    y 0.000000 1.681750 0.000000 
#    z 0.000000 0.000000 1.707600 
# 
# From -- ./inp_files/13864.got.cif
#   From: 2010.03.12/outbox.cif.g09.slc.cpg/sg47_7_cif.got.tgz:13864.got - 2010.04.14 03:12:58.
