data_PCOD8198585
_publ_section_title
;
Structure prediction by ZEFSAII (Michael W. Deem and Ramdas Pophale) SiO2 
 PCOD8198585
Probable space group: P M M M
;
_chemical_formula_sum "Si O2"
_cell_formula_units_Z 52
_cell_length_a 9.184982
_cell_length_b 20.818302
_cell_length_c 14.929245
_cell_angle_alpha 90.000000
_cell_angle_beta 90.000000
_cell_angle_gamma 90.000000
_cell_volume 2854.706468
_symmetry_space_group_name_H-M "P M M M"
_symmetry_group_IT_number 47
_symmetry_cell_setting 'orthorhombic'
loop_
_space_group_symop_operation_xyz
x,y,z
-x,-y,z
x,-y,-z
-x,y,-z
-x,-y,-z
x,y,-z
-x,y,z
x,-y,z
loop_
_atom_site_type_symbol
_atom_site_label
_atom_site_fract_x
_atom_site_fract_y
_atom_site_fract_z
Si Si1 0.665854 0.850571 0.848815
Si Si2 0.172025 0.407716 0.761150
Si Si3 0.828667 0.259784 0.764657
Si Si4 0.164158 0.819147 0.402502
Si Si5 0.827959 0.925718 0.000000
Si Si6 0.170824 0.500000 0.602914
Si Si7 0.336021 0.928425 0.333305
Si Si8 0.673306 0.500000 0.105937
O O1 0.500000 0.842000 0.882683
O O2 0.738266 0.779956 0.838792
O O3 0.672848 0.891093 0.759201
O O4 0.761610 0.891777 0.914818
O O5 0.217102 0.333664 0.763864
O O6 0.216945 0.438109 0.663957
O O7 0.258030 0.438370 0.844539
O O8 0.000000 0.418357 0.776238
O O9 0.778457 0.232710 0.668241
O O10 0.000000 0.251487 0.783279
O O11 0.178303 0.786765 0.500000
O O12 0.248412 0.886642 0.404735
O O13 0.000000 0.837167 0.378034
O O14 0.000000 0.917188 0.000000
O O15 0.781862 0.000000 0.000000
O O16 0.239300 0.500000 0.500000
O O17 0.000000 0.500000 0.588878
O O18 0.500000 0.933498 0.367807
O O19 0.268996 0.000000 0.323888
O O20 0.500000 0.500000 0.118616
O O21 0.714006 0.500000 0.000000
#
# Coordination Sequence:
#
# PCOD8198585 Si02
#       8
#     8   8   8   8   4   4   8   4
#     4  10  20  35  54  75 100 132 171 213 258 311
#     4   9  18  33  55  81 108 142 179 215 260 311
#     4   9  18  34  53  74 104 139 174 213 258 308
#     4   9  18  31  47  70 100 132 167 209 255 304
#     4  11  23  37  55  79 105 132 165 210 265 321
#     4   8  14  26  48  81 114 139 173 220 262 308
#     4   9  18  32  49  68  92 126 168 212 257 305
#     4  10  21  37  56  79 106 137 173 216 260 306
#
# _framework density 18.215534000000002
#
# number of rings (size 3 to 8) (size 9 to 14) (size 15 to 20)
#    0.000    2.692    0.000    1.846    0.000    4.615 
#    1.385    4.615    0.000    3.692    0.000    6.462 
#    0.000    0.000    0.000    0.000    0.000    0.000 
#
# Total GULP energy -644424.199282 kJ/mol
# GULP energy per Si atom -12392.773063 kJ/mol
# Density = 1.817407 g / cm^3
# Si number density = 18.215534 Si / 1000 Ang^3
#
#
#
# Elastic Constant Matrix: (Units=GPa)
#
#
# Indices 1 2 3 4 5 6 
#
# 1 63.8160 56.6068 44.2793 0.0000 0.0000 0.0000
# 2 56.6068 171.2848 56.0757 0.0000 0.0000 0.0000
# 3 44.2793 56.0757 102.0945 0.0000 0.0000 0.0000
# 4 0.0000 0.0000 0.0000 18.2447 0.0000 0.0000
# 5 0.0000 0.0000 0.0000 0.0000 25.4402 0.0000
# 6 0.0000 0.0000 0.0000 0.0000 0.0000 22.3924
#
#
#
# Elastic Compliance Matrix: (Units=1/GPa)
#
#
# Indices 1 2 3 4 5 6 
#
# 1 0.026888 -0.006179 -0.008267 0.000000 0.000000 0.000000
# 2 -0.006179 0.008538 -0.002010 0.000000 0.000000 0.000000
# 3 -0.008267 -0.002010 0.014484 0.000000 0.000000 0.000000
# 4 0.000000 0.000000 0.000000 0.054811 0.000000 0.000000
# 5 0.000000 0.000000 0.000000 0.000000 0.039308 0.000000
# 6 0.000000 0.000000 0.000000 0.000000 0.000000 0.044658
#
#
# Mechanical properties :
#
#
# Convention : Reuss Voigt Hill
#
# Bulk Modulus (GPa) = 58.83213 72.34656 65.58935
# Shear Modulus (GPa) = 22.00068 25.23101 23.61584
#
# Velocity S-wave (km/s) = 3.47911 3.72578 3.60455
# Velocity P-wave (km/s) = 6.96468 7.63621 7.30817
#
# Compressibility (1/GPa) = 0.01699751
#
# Stress axis : x y z
#
# Youngs Moduli (GPa) = 37.19158 117.11882 69.04005
#
# Poissons Ratio (x) = 0.72372 0.57079
# Poissons Ratio (y) = 0.22982 0.13875
# Poissons Ratio (z) = 0.30748 0.23537
#
# Static dielectric constant tensor:
#      x y z
#    x 3.375660 0.000000 0.000000 
#    y 0.000000 3.463880 0.000000 
#    z 0.000000 0.000000 3.354940 
# 
# 
# High freq. dielectric constant tensor:
#      x y z
#    x 1.694730 0.000000 0.000000 
#    y 0.000000 1.707080 0.000000 
#    z 0.000000 0.000000 1.703920 
# 
# From -- ./inp_files/21512.got.cif
#   From: 2010.03.12/outbox.cif.g09.slc.cpg/sg47_11_cif.got.tgz:21512.got - 2010.04.14 03:12:58.
