data_PCOD8198004
_publ_section_title
;
Structure prediction by ZEFSAII (Michael W. Deem and Ramdas Pophale) SiO2 
 PCOD8198004
Probable space group: P M M M
;
_chemical_formula_sum "Si O2"
_cell_formula_units_Z 40
_cell_length_a 9.377363
_cell_length_b 15.506716
_cell_length_c 14.806329
_cell_angle_alpha 90.000000
_cell_angle_beta 90.000000
_cell_angle_gamma 90.000000
_cell_volume 2153.019465
_symmetry_space_group_name_H-M "P M M M"
_symmetry_group_IT_number 47
_symmetry_cell_setting 'orthorhombic'
loop_
_space_group_symop_operation_xyz
x,y,z
-x,-y,z
x,-y,-z
-x,y,-z
-x,-y,-z
x,y,-z
-x,y,z
x,-y,z
loop_
_atom_site_type_symbol
_atom_site_label
_atom_site_fract_x
_atom_site_fract_y
_atom_site_fract_z
Si Si1 0.837431 0.832008 0.842503
Si Si2 0.161738 0.096989 0.646868
Si Si3 0.336486 0.739411 0.401333
Si Si4 0.654794 0.098048 0.000000
Si Si5 0.668361 0.500000 0.896051
Si Si6 0.331937 0.331482 0.787348
O O1 0.830913 0.889124 0.753420
O O2 0.749767 0.884346 0.914140
O O3 0.760435 0.740811 0.834688
O O4 0.000000 0.816350 0.873430
O O5 0.253479 0.170202 0.598657
O O6 0.000000 0.106646 0.612282
O O7 0.217798 0.000000 0.624517
O O8 0.309886 0.695434 0.500000
O O9 0.500000 0.765379 0.388705
O O10 0.294481 0.672493 0.320828
O O11 0.500000 0.147819 0.000000
O O12 0.614536 0.000000 0.000000
O O13 0.500000 0.500000 0.904050
O O14 0.719214 0.581077 0.835982
O O15 0.730447 0.500000 0.000000
O O16 0.500000 0.316109 0.802912
#
# Coordination Sequence:
#
# PCOD8198004 Si02
#       6
#     8   8   8   4   4   8
#     4  10  20  34  52  73 101 136 172 213 263 311
#     4   9  18  32  49  70  98 133 173 215 257 302
#     4   9  18  32  49  71 101 136 172 212 258 307
#     4  11  23  35  49  72 101 136 179 219 254 301
#     4   9  18  32  54  82 106 131 166 212 263 315
#     4   9  18  34  54  76 103 135 170 210 258 316
#
# _framework density 18.57856
#
# number of rings (size 3 to 8) (size 9 to 14) (size 15 to 20)
#    0.000    2.600    0.000    1.500    1.400    3.600 
#    0.000    3.000    0.000    3.600    0.000    0.000 
#    0.000    6.400    0.000    0.000    0.000    0.000 
#
# Total GULP energy -495610.533984 kJ/mol
# GULP energy per Si atom -12390.263350 kJ/mol
# Density = 1.853627 g / cm^3
# Si number density = 18.578560 Si / 1000 Ang^3
#
#
#
# Elastic Constant Matrix: (Units=GPa)
#
#
# Indices 1 2 3 4 5 6 
#
# 1 70.3558 27.5908 34.3519 0.0000 0.0000 0.0000
# 2 27.5908 103.6519 55.4866 0.0000 0.0000 0.0000
# 3 34.3519 55.4866 120.4846 0.0000 0.0000 0.0000
# 4 0.0000 0.0000 0.0000 51.4427 0.0000 0.0000
# 5 0.0000 0.0000 0.0000 0.0000 21.7946 0.0000
# 6 0.0000 0.0000 0.0000 0.0000 0.0000 12.4705
#
#
#
# Elastic Compliance Matrix: (Units=1/GPa)
#
#
# Indices 1 2 3 4 5 6 
#
# 1 0.017010 -0.002564 -0.003669 0.000000 0.000000 0.000000
# 2 -0.002564 0.013191 -0.005344 0.000000 0.000000 0.000000
# 3 -0.003669 -0.005344 0.011807 0.000000 0.000000 0.000000
# 4 0.000000 0.000000 0.000000 0.019439 0.000000 0.000000
# 5 0.000000 0.000000 0.000000 0.000000 0.045883 0.000000
# 6 0.000000 0.000000 0.000000 0.000000 0.000000 0.080189
#
#
# Mechanical properties :
#
#
# Convention : Reuss Voigt Hill
#
# Bulk Modulus (GPa) = 53.03749 58.81678 55.92713
# Shear Modulus (GPa) = 23.04600 28.94577 25.99588
#
# Velocity S-wave (km/s) = 3.52584 3.95146 3.74470
# Velocity P-wave (km/s) = 6.72198 7.24885 6.99038
#
# Compressibility (1/GPa) = 0.01885459
#
# Stress axis : x y z
#
# Youngs Moduli (GPa) = 58.78757 75.81098 84.69621
#
# Poissons Ratio (x) = 0.19436 0.31077
# Poissons Ratio (y) = 0.15072 0.45259
# Poissons Ratio (z) = 0.21570 0.40511
#
# Static dielectric constant tensor:
#      x y z
#    x 3.455890 0.000000 0.000000 
#    y 0.000000 3.285290 0.000000 
#    z 0.000000 0.000000 4.298730 
# 
# 
# High freq. dielectric constant tensor:
#      x y z
#    x 1.712970 0.000000 0.000000 
#    y 0.000000 1.699380 0.000000 
#    z 0.000000 0.000000 1.734370 
# 
# From -- ./inp_files/5710.got.cif
#   From: 2010.03.12/outbox.cif.g09.slc.cpg/sg47_3_cif.got.tgz:5710.got - 2010.04.14 03:12:58.
