data_PCOD8198901
_publ_section_title
;
Structure prediction by ZEFSAII (Michael W. Deem and Ramdas Pophale) SiO2 
 PCOD8198901
Probable space group: P M M M
;
_chemical_formula_sum "Si O2"
_cell_formula_units_Z 52
_cell_length_a 20.309074
_cell_length_b 9.045619
_cell_length_c 14.436961
_cell_angle_alpha 90.000000
_cell_angle_beta 90.000000
_cell_angle_gamma 90.000000
_cell_volume 2652.187334
_symmetry_space_group_name_H-M "P M M M"
_symmetry_group_IT_number 47
_symmetry_cell_setting 'orthorhombic'
loop_
_space_group_symop_operation_xyz
x,y,z
-x,-y,z
x,-y,-z
-x,y,-z
-x,-y,-z
x,y,-z
-x,y,z
x,-y,z
loop_
_atom_site_type_symbol
_atom_site_label
_atom_site_fract_x
_atom_site_fract_y
_atom_site_fract_z
Si Si1 0.249706 0.164794 0.648910
Si Si2 0.000000 0.824347 0.391642
Si Si3 0.573433 0.673908 0.207148
Si Si4 0.696373 0.836380 0.146142
Si Si5 0.822064 0.330752 0.100716
Si Si6 0.123449 0.324788 0.704542
Si Si7 0.371663 0.331689 0.400694
O O1 0.279855 0.156066 0.749800
O O2 0.186339 0.270599 0.646544
O O3 0.305791 0.235543 0.585803
O O4 0.230777 0.000000 0.613512
O O5 0.937927 0.758793 0.338362
O O6 0.000000 0.777349 0.500000
O O7 0.000000 0.000000 0.381806
O O8 0.500000 0.724091 0.178271
O O9 0.582188 0.500000 0.194448
O O10 0.626230 0.752902 0.140576
O O11 0.583194 0.720905 0.315175
O O12 0.752961 0.753391 0.089847
O O13 0.686917 0.000000 0.104319
O O14 0.803894 0.500000 0.120678
O O15 0.867925 0.277149 0.186429
O O16 0.858298 0.312065 0.000000
O O17 0.114071 0.500000 0.693698
O O18 0.409722 0.318310 0.500000
O O19 0.349733 0.500000 0.381779
#
# Coordination Sequence:
#
# PCOD8198901 Si02
#       7
#     8   4   8   8   8   8   8
#     4   9  17  30  48  69  95 128 165 207 256 307
#     4  11  25  43  60  79 108 148 189 225 262 303
#     4   9  17  29  45  64  89 127 172 214 262 320
#     4   9  17  29  47  72 100 130 166 208 252 301
#     4   9  18  34  58  87 115 141 170 208 259 317
#     4  10  20  36  59  84 110 141 178 219 260 306
#     4   9  17  28  42  63  91 122 162 215 269 319
#
# _framework density 19.606459000000001
#
# number of rings (size 3 to 8) (size 9 to 14) (size 15 to 20)
#    0.000    2.692    0.000    1.615    0.000    6.769 
#    0.000    1.923    0.000    2.769    0.000    7.538 
#    0.000    0.000    0.000    0.000    0.000    0.000 
#
# Total GULP energy -644342.607936 kJ/mol
# GULP energy per Si atom -12391.203999 kJ/mol
# Density = 1.956183 g / cm^3
# Si number density = 19.606459 Si / 1000 Ang^3
#
#
#
# Elastic Constant Matrix: (Units=GPa)
#
#
# Indices 1 2 3 4 5 6 
#
# 1 118.0937 47.3765 34.5383 0.0000 0.0000 0.0000
# 2 47.3765 86.6632 29.2180 0.0000 0.0000 0.0000
# 3 34.5383 29.2180 82.2322 0.0000 0.0000 0.0000
# 4 0.0000 0.0000 0.0000 12.5190 0.0000 0.0000
# 5 0.0000 0.0000 0.0000 0.0000 16.4233 0.0000
# 6 0.0000 0.0000 0.0000 0.0000 0.0000 23.2857
#
#
#
# Elastic Compliance Matrix: (Units=1/GPa)
#
#
# Indices 1 2 3 4 5 6 
#
# 1 0.011437 -0.005263 -0.002934 0.000000 0.000000 0.000000
# 2 -0.005263 0.015532 -0.003308 0.000000 0.000000 0.000000
# 3 -0.002934 -0.003308 0.014568 0.000000 0.000000 0.000000
# 4 0.000000 0.000000 0.000000 0.079879 0.000000 0.000000
# 5 0.000000 0.000000 0.000000 0.000000 0.060889 0.000000
# 6 0.000000 0.000000 0.000000 0.000000 0.000000 0.042945
#
#
# Mechanical properties :
#
#
# Convention : Reuss Voigt Hill
#
# Bulk Modulus (GPa) = 53.97461 56.58384 55.27922
# Shear Modulus (GPa) = 19.65134 22.16934 20.91034
#
# Velocity S-wave (km/s) = 3.16933 3.36626 3.26928
# Velocity P-wave (km/s) = 6.40169 6.63562 6.51970
#
# Compressibility (1/GPa) = 0.01852723
#
# Stress axis : x y z
#
# Youngs Moduli (GPa) = 87.43224 64.38513 68.64286
#
# Poissons Ratio (x) = 0.33889 0.20137
# Poissons Ratio (y) = 0.46020 0.22706
# Poissons Ratio (z) = 0.25650 0.21297
#
# Static dielectric constant tensor:
#      x y z
#    x 3.537740 0.000000 0.000000 
#    y 0.000000 3.751520 0.000000 
#    z 0.000000 0.000000 3.552050 
# 
# 
# High freq. dielectric constant tensor:
#      x y z
#    x 1.740520 0.000000 0.000000 
#    y 0.000000 1.764100 0.000000 
#    z 0.000000 0.000000 1.758890 
# 
# From -- ./inp_files/25008.got.cif
#   From: 2010.03.12/outbox.cif.g09.slc.cpg/sg47_13_cif.got.tgz:25008.got - 2010.04.14 03:12:58.
