data_PCOD8198699
_publ_section_title
;
Structure prediction by ZEFSAII (Michael W. Deem and Ramdas Pophale) SiO2 
 PCOD8198699
Probable space group: P M M M
;
_chemical_formula_sum "Si O2"
_cell_formula_units_Z 56
_cell_length_a 9.254028
_cell_length_b 14.343301
_cell_length_c 20.742558
_cell_angle_alpha 90.000000
_cell_angle_beta 90.000000
_cell_angle_gamma 90.000000
_cell_volume 2753.228362
_symmetry_space_group_name_H-M "P M M M"
_symmetry_group_IT_number 47
_symmetry_cell_setting 'orthorhombic'
loop_
_space_group_symop_operation_xyz
x,y,z
-x,-y,z
x,-y,-z
-x,y,-z
-x,-y,-z
x,y,-z
-x,y,z
x,-y,z
loop_
_atom_site_type_symbol
_atom_site_label
_atom_site_fract_x
_atom_site_fract_y
_atom_site_fract_z
Si Si1 0.670815 0.390347 0.181311
Si Si2 0.657086 0.846066 0.627199
Si Si3 0.848296 0.000000 0.426096
Si Si4 0.841878 0.395965 0.694867
Si Si5 0.666122 0.890362 0.768164
Si Si6 0.172203 0.221178 0.125410
Si Si7 0.338647 0.356681 0.426414
Si Si8 0.829551 0.106558 0.000000
O O1 0.500000 0.370841 0.181871
O O2 0.701088 0.500000 0.165831
O O3 0.733103 0.355794 0.250850
O O4 0.748761 0.322807 0.128982
O O5 0.500000 0.894323 0.624676
O O6 0.700477 0.835648 0.701859
O O7 0.655742 0.751267 0.588767
O O8 0.768177 0.906976 0.589895
O O9 0.880222 0.000000 0.500000
O O10 0.000000 0.000000 0.387987
O O11 0.871893 0.500000 0.717235
O O12 0.772256 0.401166 0.623836
O O13 0.000000 0.344244 0.693645
O O14 0.500000 0.874075 0.790137
O O15 0.777211 0.847192 0.818222
O O16 0.698121 0.000000 0.758761
O O17 0.000000 0.237043 0.128506
O O18 0.221474 0.166973 0.061136
O O19 0.285648 0.374064 0.500000
O O20 0.500000 0.399236 0.417672
O O21 0.000000 0.096303 0.000000
O O22 0.764037 0.000000 0.000000
#
# Coordination Sequence:
#
# PCOD8198699 Si02
#       8
#     8   8   4   8   8   8   8   4
#     4  10  21  39  63  90 121 156 193 241 300 357
#     4  10  20  37  56  74 100 139 183 227 279 337
#     4  11  23  35  49  73 103 134 173 224 279 333
#     4  10  21  37  58  84 112 144 186 238 295 352
#     4  10  20  35  56  85 117 149 192 247 300 350
#     4  11  22  37  62  92 122 161 202 243 292 343
#     4  10  21  35  53  78 107 145 192 238 288 351
#     4   9  20  40  62  89 130 172 207 241 282 339
#
# _framework density 20.339756999999999
#
# number of rings (size 3 to 8) (size 9 to 14) (size 15 to 20)
#    0.000    1.857    0.714    3.214    0.000    6.571 
#    0.000    3.214    0.000    4.714    0.000    0.000 
#    0.000    0.000    0.000    0.000    0.000    0.000 
#
# Total GULP energy -693955.789147 kJ/mol
# GULP energy per Si atom -12392.067663 kJ/mol
# Density = 2.029346 g / cm^3
# Si number density = 20.339757 Si / 1000 Ang^3
#
#
#
# Elastic Constant Matrix: (Units=GPa)
#
#
# Indices 1 2 3 4 5 6 
#
# 1 115.6642 42.9111 54.8716 0.0000 0.0000 0.0000
# 2 42.9111 96.7333 42.1594 0.0000 0.0000 0.0000
# 3 54.8716 42.1594 115.8776 0.0000 0.0000 0.0000
# 4 0.0000 0.0000 0.0000 29.3247 0.0000 0.0000
# 5 0.0000 0.0000 0.0000 0.0000 29.5441 0.0000
# 6 0.0000 0.0000 0.0000 0.0000 0.0000 33.1801
#
#
#
# Elastic Compliance Matrix: (Units=1/GPa)
#
#
# Indices 1 2 3 4 5 6 
#
# 1 0.012018 -0.003388 -0.004458 0.000000 0.000000 0.000000
# 2 -0.003388 0.013241 -0.003213 0.000000 0.000000 0.000000
# 3 -0.004458 -0.003213 0.011910 0.000000 0.000000 0.000000
# 4 0.000000 0.000000 0.000000 0.034101 0.000000 0.000000
# 5 0.000000 0.000000 0.000000 0.000000 0.033848 0.000000
# 6 0.000000 0.000000 0.000000 0.000000 0.000000 0.030139
#
#
# Mechanical properties :
#
#
# Convention : Reuss Voigt Hill
#
# Bulk Modulus (GPa) = 66.44496 67.57327 67.00911
# Shear Modulus (GPa) = 30.78993 30.96530 30.87761
#
# Velocity S-wave (km/s) = 3.89495 3.90603 3.90050
# Velocity P-wave (km/s) = 7.27777 7.32374 7.30079
#
# Compressibility (1/GPa) = 0.01505005
#
# Stress axis : x y z
#
# Youngs Moduli (GPa) = 83.21136 75.52284 83.96440
#
# Poissons Ratio (x) = 0.25588 0.37431
# Poissons Ratio (y) = 0.28193 0.26978
# Poissons Ratio (z) = 0.37096 0.24266
#
# Static dielectric constant tensor:
#      x y z
#    x 3.911390 0.000000 0.000000 
#    y 0.000000 3.374770 0.000000 
#    z 0.000000 0.000000 3.635290 
# 
# 
# High freq. dielectric constant tensor:
#      x y z
#    x 1.795300 0.000000 0.000000 
#    y 0.000000 1.802470 0.000000 
#    z 0.000000 0.000000 1.781690 
# 
# From -- ./inp_files/29778.got.cif
#   From: 2010.03.12/outbox.cif.g09.slc.cpg/sg47_15_cif.got.tgz:29778.got - 2010.04.14 03:12:58.
