data_PCOD8199089
_publ_section_title
;
Structure prediction by ZEFSAII (Michael W. Deem and Ramdas Pophale) SiO2 
 PCOD8199089
Probable space group: P M M M
;
_chemical_formula_sum "Si O2"
_cell_formula_units_Z 40
_cell_length_a 7.740127
_cell_length_b 27.349017
_cell_length_c 9.402633
_cell_angle_alpha 90.000000
_cell_angle_beta 90.000000
_cell_angle_gamma 90.000000
_cell_volume 1990.395096
_symmetry_space_group_name_H-M "P M M M"
_symmetry_group_IT_number 47
_symmetry_cell_setting 'orthorhombic'
loop_
_space_group_symop_operation_xyz
x,y,z
-x,-y,z
x,-y,-z
-x,y,-z
-x,-y,-z
x,y,-z
-x,y,z
x,-y,z
loop_
_atom_site_type_symbol
_atom_site_label
_atom_site_fract_x
_atom_site_fract_y
_atom_site_fract_z
Si Si1 0.195797 0.392766 0.334854
Si Si2 0.500000 0.557757 0.163905
Si Si3 0.205659 0.104895 0.340730
Si Si4 0.703216 0.285610 0.661785
Si Si5 0.700943 0.196347 0.843258
Si Si6 0.188470 0.000000 0.668446
O O1 0.248209 0.399639 0.500000
O O2 0.326760 0.423146 0.238656
O O3 0.204586 0.335724 0.293252
O O4 0.000000 0.411272 0.307468
O O5 0.500000 0.500000 0.176255
O O6 0.500000 0.575057 0.000000
O O7 0.271740 0.117659 0.500000
O O8 0.271538 0.145126 0.233065
O O9 0.281909 0.051486 0.290640
O O10 0.000000 0.102185 0.339928
O O11 0.746630 0.271830 0.500000
O O12 0.500000 0.293028 0.684402
O O13 0.782091 0.241576 0.755887
O O14 0.500000 0.206448 0.856257
O O15 0.786078 0.194406 0.000000
O O16 0.165505 0.000000 0.500000
O O17 0.000000 0.000000 0.741597
#
# Coordination Sequence:
#
# PCOD8199089 Si02
#       6
#     8   4   8   8   8   4
#     4  10  21  39  65  95 123 154 200 255 304 352
#     4  11  25  43  63  89 127 171 207 244 293 350
#     4   9  17  31  52  74  95 124 168 221 273 325
#     4   9  17  33  56  80 109 145 185 230 282 338
#     4  10  21  34  48  72 108 145 178 214 262 323
#     4   7  12  26  48  71  92 118 160 217 274 323
#
# _framework density 20.096513000000002
#
# number of rings (size 3 to 8) (size 9 to 14) (size 15 to 20)
#    0.000    2.600    1.000    2.100    0.000    4.800 
#    0.000    5.000    0.000    4.800    0.000    0.000 
#    0.000    0.000    0.000    0.000    0.000    0.000 
#
# Total GULP energy -495735.484417 kJ/mol
# GULP energy per Si atom -12393.387110 kJ/mol
# Density = 2.005077 g / cm^3
# Si number density = 20.096513 Si / 1000 Ang^3
#
#
#
# Elastic Constant Matrix: (Units=GPa)
#
#
# Indices 1 2 3 4 5 6 
#
# 1 56.7905 39.9733 37.4242 0.0000 0.0000 0.0000
# 2 39.9733 128.6240 82.2111 0.0000 0.0000 0.0000
# 3 37.4242 82.2111 129.6744 0.0000 0.0000 0.0000
# 4 0.0000 0.0000 0.0000 -1.8734 0.0000 0.0000
# 5 0.0000 0.0000 0.0000 0.0000 15.3816 0.0000
# 6 0.0000 0.0000 0.0000 0.0000 0.0000 36.1526
#
#
#
# Elastic Compliance Matrix: (Units=1/GPa)
#
#
# Indices 1 2 3 4 5 6 
#
# 1 0.023508 -0.004992 -0.003619 0.000000 0.000000 0.000000
# 2 -0.004992 0.014131 -0.007518 0.000000 0.000000 0.000000
# 3 -0.003619 -0.007518 0.013523 0.000000 0.000000 0.000000
# 4 0.000000 0.000000 0.000000 -0.533775 0.000000 0.000000
# 5 0.000000 0.000000 0.000000 0.000000 0.065013 0.000000
# 6 0.000000 0.000000 0.000000 0.000000 0.000000 0.027661
#
#
# Mechanical properties :
#
#
# Convention : Reuss Voigt Hill
#
# Bulk Modulus (GPa) = 52.90478 70.47845 61.69161
# Shear Modulus (GPa) = -14.22961 20.29751 3.03395
#
# Velocity S-wave (km/s) = -2.66383 3.18150 1.23003
# Velocity P-wave (km/s) = 4.11353 6.97439 5.72552
#
# Compressibility (1/GPa) = 0.01890188
#
# Stress axis : x y z
#
# Youngs Moduli (GPa) = 42.53945 70.76401 73.95026
#
# Poissons Ratio (x) = 0.35328 0.26765
# Poissons Ratio (y) = 0.21237 0.55598
# Poissons Ratio (z) = 0.15396 0.53202
#
# Static dielectric constant tensor:
#      x y z
#    x 3.467370 0.000000 0.000000 
#    y 0.000000 3.973160 0.000000 
#    z 0.000000 0.000000 3.802150 
# 
# 
# High freq. dielectric constant tensor:
#      x y z
#    x 1.766460 0.000000 0.000000 
#    y 0.000000 1.795680 0.000000 
#    z 0.000000 0.000000 1.763980 
# 
# From -- ./inp_files/1756.got.cif
#   From: 2010.03.12/outbox.cif.g09.slc.cpg/sg47_1_cif.got.tgz:1756.got - 2010.04.14 03:12:58.
