data_PCOD8199357
_publ_section_title
;
Structure prediction by ZEFSAII (Michael W. Deem and Ramdas Pophale) SiO2 
 PCOD8199357
Probable space group: P M M M
;
_chemical_formula_sum "Si O2"
_cell_formula_units_Z 52
_cell_length_a 21.210450
_cell_length_b 13.950337
_cell_length_c 9.047934
_cell_angle_alpha 90.000000
_cell_angle_beta 90.000000
_cell_angle_gamma 90.000000
_cell_volume 2677.219660
_symmetry_space_group_name_H-M "P M M M"
_symmetry_group_IT_number 47
_symmetry_cell_setting 'orthorhombic'
loop_
_space_group_symop_operation_xyz
x,y,z
-x,-y,z
x,-y,-z
-x,y,-z
-x,-y,-z
x,y,-z
-x,y,z
x,-y,z
loop_
_atom_site_type_symbol
_atom_site_label
_atom_site_fract_x
_atom_site_fract_y
_atom_site_fract_z
Si Si1 0.258209 0.787884 0.330135
Si Si2 0.426679 0.608688 0.332481
Si Si3 0.870047 0.891641 0.328442
Si Si4 0.927906 0.718203 0.170759
Si Si5 0.383920 0.787249 0.174055
Si Si6 0.821458 0.391487 0.672154
Si Si7 0.500000 0.113300 0.330611
O O1 0.280598 0.790399 0.500000
O O2 0.202248 0.862397 0.301037
O O3 0.315436 0.822381 0.226943
O O4 0.235319 0.680515 0.285526
O O5 0.402188 0.623878 0.500000
O O6 0.500000 0.635137 0.324153
O O7 0.414905 0.500000 0.281975
O O8 0.389210 0.676075 0.220646
O O9 0.886973 0.881364 0.500000
O O10 0.916627 0.822874 0.239690
O O11 0.879935 0.000000 0.272652
O O12 0.885101 0.636249 0.243218
O O13 0.000000 0.688077 0.196256
O O14 0.910292 0.724531 0.000000
O O15 0.437528 0.849222 0.251729
O O16 0.390840 0.798967 0.000000
O O17 0.836997 0.380107 0.500000
O O18 0.801416 0.500000 0.713012
O O19 0.500000 0.149234 0.500000
O O20 0.500000 0.000000 0.320605
#
# Coordination Sequence:
#
# PCOD8199357 Si02
#       7
#     8   8   8   8   8   8   4
#     4   9  19  36  57  81 111 147 186 227 273 333
#     4   9  18  34  57  81 106 142 184 219 257 315
#     4   9  19  37  60  83 106 138 186 239 283 325
#     4  10  21  35  52  80 118 155 188 224 274 337
#     4  12  24  37  57  87 119 146 176 225 284 337
#     4   9  19  37  60  84 110 146 194 241 278 315
#     4  11  25  45  66  83 104 143 191 232 274 331
#
# _framework density 19.423136
#
# number of rings (size 3 to 8) (size 9 to 14) (size 15 to 20)
#    0.000    2.231    0.769    3.462    0.000    7.077 
#    0.000    6.923    0.000    0.000    0.000    0.000 
#    0.000    0.000    0.000    0.000    0.000    0.000 
#
# Total GULP energy -644895.453386 kJ/mol
# GULP energy per Si atom -12401.835642 kJ/mol
# Density = 1.937893 g / cm^3
# Si number density = 19.423136 Si / 1000 Ang^3
#
#
#
# Elastic Constant Matrix: (Units=GPa)
#
#
# Indices 1 2 3 4 5 6 
#
# 1 83.2070 13.3271 47.0375 0.0000 0.0000 0.0000
# 2 13.3271 71.4125 26.0341 0.0000 0.0000 0.0000
# 3 47.0375 26.0341 104.1421 0.0000 0.0000 0.0000
# 4 0.0000 0.0000 0.0000 15.8880 0.0000 0.0000
# 5 0.0000 0.0000 0.0000 0.0000 14.4502 0.0000
# 6 0.0000 0.0000 0.0000 0.0000 0.0000 13.6825
#
#
#
# Elastic Compliance Matrix: (Units=1/GPa)
#
#
# Indices 1 2 3 4 5 6 
#
# 1 0.016149 -0.000390 -0.007196 0.000000 0.000000 0.000000
# 2 -0.000390 0.015417 -0.003678 0.000000 0.000000 0.000000
# 3 -0.007196 -0.003678 0.013772 0.000000 0.000000 0.000000
# 4 0.000000 0.000000 0.000000 0.062940 0.000000 0.000000
# 5 0.000000 0.000000 0.000000 0.000000 0.069203 0.000000
# 6 0.000000 0.000000 0.000000 0.000000 0.000000 0.073086
#
#
# Mechanical properties :
#
#
# Convention : Reuss Voigt Hill
#
# Bulk Modulus (GPa) = 43.84235 47.95100 45.89668
# Shear Modulus (GPa) = 17.81269 20.29502 19.05385
#
# Velocity S-wave (km/s) = 3.03163 3.23598 3.13547
# Velocity P-wave (km/s) = 5.90556 6.22119 6.06543
#
# Compressibility (1/GPa) = 0.02280899
#
# Stress axis : x y z
#
# Youngs Moduli (GPa) = 61.92389 64.86462 72.61120
#
# Poissons Ratio (x) = 0.02531 0.52253
# Poissons Ratio (y) = 0.02417 0.26704
# Poissons Ratio (z) = 0.44563 0.23855
#
# Static dielectric constant tensor:
#      x y z
#    x 3.420390 0.000000 0.000000 
#    y 0.000000 3.673580 0.000000 
#    z 0.000000 0.000000 3.454530 
# 
# 
# High freq. dielectric constant tensor:
#      x y z
#    x 1.753230 0.000000 0.000000 
#    y 0.000000 1.758890 0.000000 
#    z 0.000000 0.000000 1.746480 
# 
# From -- ./inp_files/11047.got.cif
#   From: 2010.03.12/outbox.cif.g09.slc.cpg/sg47_6_cif.got.tgz:11047.got - 2010.04.14 03:12:58.
