data_PCOD8199386
_publ_section_title
;
Structure prediction by ZEFSAII (Michael W. Deem and Ramdas Pophale) SiO2 
 PCOD8199386
Probable space group: P M M M
;
_chemical_formula_sum "Si O2"
_cell_formula_units_Z 48
_cell_length_a 9.113853
_cell_length_b 15.725805
_cell_length_c 17.189036
_cell_angle_alpha 90.000000
_cell_angle_beta 90.000000
_cell_angle_gamma 90.000000
_cell_volume 2463.578622
_symmetry_space_group_name_H-M "P M M M"
_symmetry_group_IT_number 47
_symmetry_cell_setting 'orthorhombic'
loop_
_space_group_symop_operation_xyz
x,y,z
-x,-y,z
x,-y,-z
-x,y,-z
-x,-y,-z
x,y,-z
-x,y,z
x,-y,z
loop_
_atom_site_type_symbol
_atom_site_label
_atom_site_fract_x
_atom_site_fract_y
_atom_site_fract_z
Si Si1 0.659296 0.401713 0.853995
Si Si2 0.671676 0.166787 0.000000
Si Si3 0.827691 0.656682 0.000000
Si Si4 0.839500 0.098917 0.141110
Si Si5 0.173891 0.904678 0.686848
Si Si6 0.673543 0.597654 0.682656
Si Si7 0.172268 0.255242 0.590296
O O1 0.500000 0.360029 0.875986
O O2 0.631611 0.500000 0.841750
O O3 0.776204 0.389030 0.921668
O O4 0.715368 0.368850 0.769934
O O5 0.763889 0.250967 0.000000
O O6 0.715705 0.117496 0.922232
O O7 0.500000 0.183669 0.000000
O O8 0.000000 0.656813 0.000000
O O9 0.782749 0.127207 0.226212
O O10 0.000000 0.141029 0.121217
O O11 0.866126 0.000000 0.144304
O O12 0.234693 0.832228 0.628633
O O13 0.000000 0.910841 0.680128
O O14 0.238484 0.000000 0.668485
O O15 0.500000 0.603493 0.670470
O O16 0.726563 0.500000 0.668477
O O17 0.752099 0.660115 0.622749
O O18 0.209675 0.249019 0.500000
O O19 0.000000 0.263621 0.606436
#
# Coordination Sequence:
#
# PCOD8199386 Si02
#       7
#     8   4   4   8   8   8   8
#     4   9  19  38  60  80 107 143 182 228 280 329
#     4  12  25  36  49  75 111 147 187 232 275 322
#     4  12  25  36  51  79 113 147 185 226 271 328
#     4   9  18  35  57  78 104 141 185 232 280 330
#     4   8  16  33  57  83 112 148 187 227 277 337
#     4   9  20  39  61  83 110 149 193 232 278 340
#     4  10  21  35  55  87 120 147 183 235 287 333
#
# _framework density 19.483851000000001
#
# number of rings (size 3 to 8) (size 9 to 14) (size 15 to 20)
#    0.000    2.500    0.000    4.000    2.333    4.667 
#    0.000    5.000    0.000    1.500    0.000    1.167 
#    0.000    0.000    0.000    0.000    0.000    0.000 
#
# Total GULP energy -594832.459773 kJ/mol
# GULP energy per Si atom -12392.342912 kJ/mol
# Density = 1.943950 g / cm^3
# Si number density = 19.483851 Si / 1000 Ang^3
#
#
#
# Elastic Constant Matrix: (Units=GPa)
#
#
# Indices 1 2 3 4 5 6 
#
# 1 68.7215 27.9256 50.8258 0.0000 0.0000 0.0000
# 2 27.9256 90.1822 66.6609 0.0000 0.0000 0.0000
# 3 50.8258 66.6609 149.4420 0.0000 0.0000 0.0000
# 4 0.0000 0.0000 0.0000 35.7932 0.0000 0.0000
# 5 0.0000 0.0000 0.0000 0.0000 11.8185 0.0000
# 6 0.0000 0.0000 0.0000 0.0000 0.0000 101.5204
#
#
#
# Elastic Compliance Matrix: (Units=1/GPa)
#
#
# Indices 1 2 3 4 5 6 
#
# 1 0.019616 -0.001705 -0.005911 0.000000 0.000000 0.000000
# 2 -0.001705 0.016692 -0.006866 0.000000 0.000000 0.000000
# 3 -0.005911 -0.006866 0.011764 0.000000 0.000000 0.000000
# 4 0.000000 0.000000 0.000000 0.027938 0.000000 0.000000
# 5 0.000000 0.000000 0.000000 0.000000 0.084613 0.000000
# 6 0.000000 0.000000 0.000000 0.000000 0.000000 0.009850
#
#
# Mechanical properties :
#
#
# Convention : Reuss Voigt Hill
#
# Bulk Modulus (GPa) = 52.33185 66.57448 59.45316
# Shear Modulus (GPa) = 24.29467 40.68864 32.49166
#
# Velocity S-wave (km/s) = 3.53500 4.57478 4.08808
# Velocity P-wave (km/s) = 6.60144 7.88340 7.27073
#
# Compressibility (1/GPa) = 0.01910882
#
# Stress axis : x y z
#
# Youngs Moduli (GPa) = 50.97879 59.91044 85.00208
#
# Poissons Ratio (x) = 0.10215 0.50244
# Poissons Ratio (y) = 0.08692 0.58359
# Poissons Ratio (z) = 0.30133 0.41132
#
# Static dielectric constant tensor:
#      x y z
#    x 3.199490 0.000000 0.000000 
#    y 0.000000 3.649310 0.000000 
#    z 0.000000 0.000000 3.441080 
# 
# 
# High freq. dielectric constant tensor:
#      x y z
#    x 1.730210 0.000000 0.000000 
#    y 0.000000 1.759010 0.000000 
#    z 0.000000 0.000000 1.765400 
# 
# From -- ./inp_files/26530.got.cif
#   From: 2010.03.12/outbox.cif.g09.slc.cpg/sg47_14_cif.got.tgz:26530.got - 2010.04.14 03:12:58.
