data_PCOD8199289
_publ_section_title
;
Structure prediction by ZEFSAII (Michael W. Deem and Ramdas Pophale) SiO2 
 PCOD8199289
Probable space group: P M M M
;
_chemical_formula_sum "Si O2"
_cell_formula_units_Z 52
_cell_length_a 11.667526
_cell_length_b 8.713860
_cell_length_c 28.377723
_cell_angle_alpha 90.000000
_cell_angle_beta 90.000000
_cell_angle_gamma 90.000000
_cell_volume 2885.140058
_symmetry_space_group_name_H-M "P M M M"
_symmetry_group_IT_number 47
_symmetry_cell_setting 'orthorhombic'
loop_
_space_group_symop_operation_xyz
x,y,z
-x,-y,z
x,-y,-z
-x,y,-z
-x,-y,-z
x,y,-z
-x,y,z
x,-y,z
loop_
_atom_site_type_symbol
_atom_site_label
_atom_site_fract_x
_atom_site_fract_y
_atom_site_fract_z
Si Si1 0.272484 0.678673 0.186225
Si Si2 0.728382 0.819819 0.360307
Si Si3 0.500000 0.179668 0.780015
Si Si4 0.500000 0.680351 0.323652
Si Si5 0.865425 0.181162 0.102055
Si Si6 0.128029 0.817763 0.552275
Si Si7 0.133191 0.323196 0.278771
Si Si8 0.867101 0.178128 0.000000
O O1 0.302351 0.500000 0.185328
O O2 0.389716 0.772304 0.190043
O O3 0.207239 0.723758 0.139054
O O4 0.191926 0.721468 0.229902
O O5 0.610198 0.732652 0.352610
O O6 0.782835 0.755828 0.408982
O O7 0.817230 0.786495 0.318726
O O8 0.703710 0.000000 0.362467
O O9 0.500000 0.255738 0.728887
O O10 0.500000 0.000000 0.771831
O O11 0.500000 0.500000 0.318854
O O12 0.000000 0.217554 0.108511
O O13 0.843820 0.000000 0.108326
O O14 0.820145 0.240743 0.050253
O O15 0.167460 0.764288 0.500000
O O16 0.000000 0.753968 0.562891
O O17 0.124076 0.000000 0.554852
O O18 0.157488 0.500000 0.292153
O O19 0.000000 0.288801 0.273139
O O20 0.000000 0.212685 0.000000
O O21 0.842414 0.000000 0.000000
#
# Coordination Sequence:
#
# PCOD8199289 Si02
#       8
#     8   8   4   4   8   8   8   4
#     4  11  22  36  54  77 109 147 179 215 270 329
#     4  11  21  34  56  83 106 137 183 230 266 309
#     4  12  24  40  60  80 100 134 186 233 266 312
#     4  12  24  40  57  75 105 146 180 218 273 328
#     4   9  17  31  53  81 112 146 185 228 269 314
#     4   8  15  30  53  82 114 142 170 214 272 322
#     4  10  21  35  51  74 109 148 176 207 263 328
#     4   7  12  26  49  76 107 144 183 223 271 317
#
# _framework density 18.023388000000001
#
# number of rings (size 3 to 8) (size 9 to 14) (size 15 to 20)
#    0.000    2.077    1.538    4.615    0.000    2.462 
#    0.000    0.769    0.000    6.000    0.000    8.615 
#    0.000    0.000    0.000    0.000    0.000    0.000 
#
# Total GULP energy -644634.837318 kJ/mol
# GULP energy per Si atom -12396.823795 kJ/mol
# Density = 1.798237 g / cm^3
# Si number density = 18.023388 Si / 1000 Ang^3
#
#
#
# Elastic Constant Matrix: (Units=GPa)
#
#
# Indices 1 2 3 4 5 6 
#
# 1 113.4473 37.3530 63.5173 0.0000 0.0000 0.0000
# 2 37.3530 71.8356 40.0510 0.0000 0.0000 0.0000
# 3 63.5173 40.0510 153.1958 0.0000 0.0000 0.0000
# 4 0.0000 0.0000 0.0000 1.2080 0.0000 0.0000
# 5 0.0000 0.0000 0.0000 0.0000 -8.3957 0.0000
# 6 0.0000 0.0000 0.0000 0.0000 0.0000 21.8757
#
#
#
# Elastic Compliance Matrix: (Units=1/GPa)
#
#
# Indices 1 2 3 4 5 6 
#
# 1 0.012485 -0.004221 -0.004073 0.000000 0.000000 0.000000
# 2 -0.004221 0.017723 -0.002883 0.000000 0.000000 0.000000
# 3 -0.004073 -0.002883 0.008970 0.000000 0.000000 0.000000
# 4 0.000000 0.000000 0.000000 0.827831 0.000000 0.000000
# 5 0.000000 0.000000 0.000000 0.000000 -0.119109 0.000000
# 6 0.000000 0.000000 0.000000 0.000000 0.000000 0.045713
#
#
# Mechanical properties :
#
#
# Convention : Reuss Voigt Hill
#
# Bulk Modulus (GPa) = 59.44084 68.92458 64.18271
# Shear Modulus (GPa) = 6.08587 16.10809 11.09698
#
# Velocity S-wave (km/s) = 1.83956 2.99278 2.48402
# Velocity P-wave (km/s) = 6.12890 7.08993 6.62686
#
# Compressibility (1/GPa) = 0.01682345
#
# Stress axis : x y z
#
# Youngs Moduli (GPa) = 80.09749 56.42354 111.48191
#
# Poissons Ratio (x) = 0.23817 0.45405
# Poissons Ratio (y) = 0.33810 0.32144
# Poissons Ratio (z) = 0.32622 0.16269
#
# Static dielectric constant tensor:
#      x y z
#    x 3.361970 0.000000 0.000000 
#    y 0.000000 3.146450 0.000000 
#    z 0.000000 0.000000 3.678270 
# 
# 
# High freq. dielectric constant tensor:
#      x y z
#    x 1.689300 0.000000 0.000000 
#    y 0.000000 1.681510 0.000000 
#    z 0.000000 0.000000 1.708160 
# 
# From -- ./inp_files/33676.got.cif
#   From: 2010.03.12/outbox.cif.g09.slc.cpg/sg47_17_cif.got.tgz:33676.got - 2010.04.14 03:12:58.
