data_PCOD8199285
_publ_section_title
;
Structure prediction by ZEFSAII (Michael W. Deem and Ramdas Pophale) SiO2 
 PCOD8199285
Probable space group: P M M M
;
_chemical_formula_sum "Si O2"
_cell_formula_units_Z 48
_cell_length_a 15.526423
_cell_length_b 17.196546
_cell_length_c 9.384468
_cell_angle_alpha 90.000000
_cell_angle_beta 90.000000
_cell_angle_gamma 90.000000
_cell_volume 2505.660908
_symmetry_space_group_name_H-M "P M M M"
_symmetry_group_IT_number 47
_symmetry_cell_setting 'orthorhombic'
loop_
_space_group_symop_operation_xyz
x,y,z
-x,-y,z
x,-y,-z
-x,y,-z
-x,-y,-z
x,y,-z
-x,y,z
x,-y,z
loop_
_atom_site_type_symbol
_atom_site_label
_atom_site_fract_x
_atom_site_fract_y
_atom_site_fract_z
Si Si1 0.599348 0.685342 0.167649
Si Si2 0.900275 0.164842 0.154902
Si Si3 0.741095 0.410018 0.333553
Si Si4 0.166436 0.000000 0.833387
Si Si5 0.400066 0.142049 0.844746
Si Si6 0.098305 0.691570 0.666596
Si Si7 0.339295 0.000000 0.330961
O O1 0.500000 0.672676 0.217286
O O2 0.661423 0.626929 0.250044
O O3 0.633094 0.772931 0.203663
O O4 0.607041 0.669410 0.000000
O O5 0.886418 0.076888 0.207748
O O6 0.864920 0.228894 0.263974
O O7 0.000000 0.179169 0.139235
O O8 0.855689 0.177028 0.000000
O O9 0.724361 0.396156 0.500000
O O10 0.744717 0.500000 0.293369
O O11 0.834601 0.375561 0.288937
O O12 0.244172 0.000000 0.725730
O O13 0.192707 0.000000 0.000000
O O14 0.500000 0.151722 0.869428
O O15 0.384171 0.077847 0.725497
O O16 0.359197 0.118376 0.000000
O O17 0.099027 0.706637 0.500000
O O18 0.000000 0.669949 0.715564
O O19 0.344001 0.000000 0.500000
#
# Coordination Sequence:
#
# PCOD8199285 Si02
#       7
#     8   8   8   4   8   8   4
#     4   9  20  39  62  86 111 144 187 232 280 335
#     4   9  18  34  56  79 103 137 183 230 273 319
#     4  10  22  38  57  84 116 149 185 227 278 336
#     4  10  21  35  51  74 107 147 185 222 268 322
#     4   9  19  38  60  78 102 141 185 226 272 327
#     4   9  19  36  57  81 112 149 187 228 276 330
#     4  12  25  34  47  78 115 146 181 226 270 316
#
# _framework density 19.156623
#
# number of rings (size 3 to 8) (size 9 to 14) (size 15 to 20)
#    0.000    2.500    0.000    2.250    2.333    5.667 
#    0.000    5.000    0.000    2.500    0.000    3.500 
#    0.000    0.000    0.000    0.000    0.000    0.000 
#
# Total GULP energy -594861.092033 kJ/mol
# GULP energy per Si atom -12392.939417 kJ/mol
# Density = 1.911302 g / cm^3
# Si number density = 19.156623 Si / 1000 Ang^3
#
#
#
# Elastic Constant Matrix: (Units=GPa)
#
#
# Indices 1 2 3 4 5 6 
#
# 1 85.7319 64.6334 42.3299 0.0000 0.0000 0.0000
# 2 64.6334 168.3390 67.8728 0.0000 0.0000 0.0000
# 3 42.3299 67.8728 73.1099 0.0000 0.0000 0.0000
# 4 0.0000 0.0000 0.0000 32.0537 0.0000 0.0000
# 5 0.0000 0.0000 0.0000 0.0000 26.9255 0.0000
# 6 0.0000 0.0000 0.0000 0.0000 0.0000 35.6453
#
#
#
# Elastic Compliance Matrix: (Units=1/GPa)
#
#
# Indices 1 2 3 4 5 6 
#
# 1 0.018139 -0.004363 -0.006452 0.000000 0.000000 0.000000
# 2 -0.004363 0.010544 -0.007262 0.000000 0.000000 0.000000
# 3 -0.006452 -0.007262 0.024155 0.000000 0.000000 0.000000
# 4 0.000000 0.000000 0.000000 0.031198 0.000000 0.000000
# 5 0.000000 0.000000 0.000000 0.000000 0.037140 0.000000
# 6 0.000000 0.000000 0.000000 0.000000 0.000000 0.028054
#
#
# Mechanical properties :
#
#
# Convention : Reuss Voigt Hill
#
# Bulk Modulus (GPa) = 59.93716 75.20588 67.57152
# Shear Modulus (GPa) = 26.18550 29.08122 27.63336
#
# Velocity S-wave (km/s) = 3.70119 3.90048 3.80214
# Velocity P-wave (km/s) = 7.04422 7.72196 7.39086
#
# Compressibility (1/GPa) = 0.01668414
#
# Stress axis : x y z
#
# Youngs Moduli (GPa) = 55.12905 94.84361 41.39847
#
# Poissons Ratio (x) = 0.41382 0.26709
# Poissons Ratio (y) = 0.24054 0.30064
# Poissons Ratio (z) = 0.35568 0.68877
#
# Static dielectric constant tensor:
#      x y z
#    x 3.526000 0.000000 0.000000 
#    y 0.000000 3.332360 0.000000 
#    z 0.000000 0.000000 3.464930 
# 
# 
# High freq. dielectric constant tensor:
#      x y z
#    x 1.746000 0.000000 0.000000 
#    y 0.000000 1.748650 0.000000 
#    z 0.000000 0.000000 1.731510 
# 
# From -- ./inp_files/9151.got.cif
#   From: 2010.03.12/outbox.cif.g09.slc.cpg/sg47_5_cif.got.tgz:9151.got - 2010.04.14 03:12:58.
