data_PCOD8199882
_publ_section_title
;
Structure prediction by ZEFSAII (Michael W. Deem and Ramdas Pophale) SiO2 
 PCOD8199882
Probable space group: P M M M
;
_chemical_formula_sum "Si O2"
_cell_formula_units_Z 48
_cell_length_a 28.649342
_cell_length_b 8.766799
_cell_length_c 9.971510
_cell_angle_alpha 90.000000
_cell_angle_beta 90.000000
_cell_angle_gamma 90.000000
_cell_volume 2504.474593
_symmetry_space_group_name_H-M "P M M M"
_symmetry_group_IT_number 47
_symmetry_cell_setting 'orthorhombic'
loop_
_space_group_symop_operation_xyz
x,y,z
-x,-y,z
x,-y,-z
-x,y,-z
-x,-y,-z
x,y,-z
-x,y,z
x,-y,z
loop_
_atom_site_type_symbol
_atom_site_label
_atom_site_fract_x
_atom_site_fract_y
_atom_site_fract_z
Si Si1 0.374754 0.824879 0.652276
Si Si2 0.445999 0.324551 0.153476
Si Si3 0.947354 0.318904 0.500000
Si Si4 0.054867 0.829133 0.000000
Si Si5 0.797810 0.180130 0.846002
Si Si6 0.893984 0.319586 0.239041
Si Si7 0.722715 0.678459 0.653537
O O1 0.391637 0.796786 0.500000
O O2 0.416761 0.784008 0.750432
O O3 0.330609 0.719418 0.685697
O O4 0.360195 0.000000 0.674440
O O5 0.500000 0.283989 0.174408
O O6 0.436515 0.500000 0.191136
O O7 0.431333 0.293563 0.000000
O O8 0.951012 0.500000 0.500000
O O9 0.917876 0.259896 0.374233
O O10 0.000000 0.250047 0.500000
O O11 0.071065 0.734467 0.873838
O O12 0.000000 0.839798 0.000000
O O13 0.076834 0.000000 0.000000
O O14 0.843313 0.248059 0.776434
O O15 0.753817 0.231560 0.759460
O O16 0.801281 0.000000 0.843263
O O17 0.793407 0.238579 0.000000
O O18 0.888450 0.500000 0.235888
O O19 0.735230 0.725601 0.500000
O O20 0.730507 0.500000 0.675109
#
# Coordination Sequence:
#
# PCOD8199882 Si02
#       7
#     8   8   4   4   8   8   8
#     4  10  21  37  57  84 118 153 192 238 292 350
#     4   9  19  36  57  82 114 154 200 246 291 342
#     4   9  20  38  59  87 119 147 185 237 284 331
#     4  11  23  39  59  85 119 155 191 235 286 339
#     4  11  24  41  60  85 119 153 188 233 289 347
#     4  11  22  38  62  88 115 150 193 237 284 340
#     4  10  22  40  63  88 114 148 194 242 288 342
#
# _framework density 19.165697000000002
#
# number of rings (size 3 to 8) (size 9 to 14) (size 15 to 20)
#    0.000    1.833    0.833    3.250    1.167    6.000 
#    0.000    3.750    0.000    3.000    0.000    0.000 
#    0.000    0.000    0.000    0.000    0.000    0.000 
#
# Total GULP energy -595319.317114 kJ/mol
# GULP energy per Si atom -12402.485773 kJ/mol
# Density = 1.912208 g / cm^3
# Si number density = 19.165697 Si / 1000 Ang^3
#
#
#
# Elastic Constant Matrix: (Units=GPa)
#
#
# Indices 1 2 3 4 5 6 
#
# 1 98.6353 32.5796 69.9299 0.0000 0.0000 0.0000
# 2 32.5796 61.0555 40.9153 0.0000 0.0000 0.0000
# 3 69.9299 40.9153 144.1349 0.0000 0.0000 0.0000
# 4 0.0000 0.0000 0.0000 29.9048 0.0000 0.0000
# 5 0.0000 0.0000 0.0000 0.0000 43.8512 0.0000
# 6 0.0000 0.0000 0.0000 0.0000 0.0000 31.7024
#
#
#
# Elastic Compliance Matrix: (Units=1/GPa)
#
#
# Indices 1 2 3 4 5 6 
#
# 1 0.016279 -0.004191 -0.006708 0.000000 0.000000 0.000000
# 2 -0.004191 0.021305 -0.004015 0.000000 0.000000 0.000000
# 3 -0.006708 -0.004015 0.011332 0.000000 0.000000 0.000000
# 4 0.000000 0.000000 0.000000 0.033439 0.000000 0.000000
# 5 0.000000 0.000000 0.000000 0.000000 0.022804 0.000000
# 6 0.000000 0.000000 0.000000 0.000000 0.000000 0.031543
#
#
# Mechanical properties :
#
#
# Convention : Reuss Voigt Hill
#
# Bulk Modulus (GPa) = 52.38755 65.63057 59.00906
# Shear Modulus (GPa) = 28.91958 31.78508 30.35233
#
# Velocity S-wave (km/s) = 3.88870 4.07681 3.98386
# Velocity P-wave (km/s) = 6.89609 7.51522 7.21230
#
# Compressibility (1/GPa) = 0.01908851
#
# Stress axis : x y z
#
# Youngs Moduli (GPa) = 61.43036 46.93706 88.24450
#
# Poissons Ratio (x) = 0.19671 0.59196
# Poissons Ratio (y) = 0.25745 0.35426
# Poissons Ratio (z) = 0.41209 0.18843
#
# Static dielectric constant tensor:
#      x y z
#    x 3.489280 0.000000 0.000000 
#    y 0.000000 3.532110 0.000000 
#    z 0.000000 0.000000 3.617540 
# 
# 
# High freq. dielectric constant tensor:
#      x y z
#    x 1.751270 0.000000 0.000000 
#    y 0.000000 1.747030 0.000000 
#    z 0.000000 0.000000 1.755280 
# 
# From -- ./inp_files/2562.got.cif
#   From: 2010.03.12/outbox.cif.g09.slc.cpg/sg47_2_cif.got.tgz:2562.got - 2010.04.14 03:12:58.
