data_PCOD8199780
_publ_section_title
;
Structure prediction by ZEFSAII (Michael W. Deem and Ramdas Pophale) SiO2 
 PCOD8199780
Probable space group: P M M M
;
_chemical_formula_sum "Si O2"
_cell_formula_units_Z 52
_cell_length_a 12.596192
_cell_length_b 8.948505
_cell_length_c 26.071001
_cell_angle_alpha 90.000000
_cell_angle_beta 90.000000
_cell_angle_gamma 90.000000
_cell_volume 2938.647290
_symmetry_space_group_name_H-M "P M M M"
_symmetry_group_IT_number 47
_symmetry_cell_setting 'orthorhombic'
loop_
_space_group_symop_operation_xyz
x,y,z
-x,-y,z
x,-y,-z
-x,y,-z
-x,-y,-z
x,y,-z
-x,y,z
x,-y,z
loop_
_atom_site_type_symbol
_atom_site_label
_atom_site_fract_x
_atom_site_fract_y
_atom_site_fract_z
Si Si1 0.500000 0.673540 0.213036
Si Si2 0.618375 0.823380 0.500000
Si Si3 0.305128 0.177360 0.609463
Si Si4 0.120172 0.828693 0.772401
Si Si5 0.123110 0.326240 0.668001
Si Si6 0.376775 0.672943 0.057762
Si Si7 0.309156 0.173472 0.155313
Si Si8 0.500000 0.674785 0.333294
O O1 0.500000 0.500000 0.199521
O O2 0.604700 0.743079 0.189150
O O3 0.500000 0.705230 0.273100
O O4 0.500000 0.753279 0.500000
O O5 0.680416 0.770158 0.550632
O O6 0.608207 0.000000 0.500000
O O7 0.190048 0.234375 0.626559
O O8 0.395410 0.250300 0.644098
O O9 0.312809 0.000000 0.615337
O O10 0.154679 0.725355 0.725026
O O11 0.193854 0.793355 0.820921
O O12 0.000000 0.793554 0.789546
O O13 0.132821 0.000000 0.754400
O O14 0.150435 0.500000 0.663026
O O15 0.000000 0.292327 0.656927
O O16 0.500000 0.699001 0.070958
O O17 0.347464 0.500000 0.063601
O O18 0.306388 0.768039 0.097011
O O19 0.352038 0.727460 0.000000
O O20 0.337483 0.000000 0.155296
O O21 0.500000 0.500000 0.346374
#
# Coordination Sequence:
#
# PCOD8199780 Si02
#       8
#     4   4   8   8   8   8   8   4
#     4  11  23  35  47  69 107 146 168 200 257 316
#     4   9  18  36  57  80 107 137 178 221 261 312
#     4  11  21  36  59  81 105 140 179 221 265 315
#     4   9  19  36  56  78 106 141 179 217 261 315
#     4  10  21  37  56  80 110 141 177 222 269 318
#     4   9  18  33  52  73 101 140 178 211 257 314
#     4  11  21  32  51  79 106 132 171 220 262 305
#     4  11  23  36  52  78 111 142 176 215 263 320
#
# _framework density 17.695218000000001
#
# number of rings (size 3 to 8) (size 9 to 14) (size 15 to 20)
#    0.000    1.923    1.538    3.231    0.000    6.154 
#    0.000    3.077    0.000    2.769    0.000    3.231 
#    0.000    0.000    0.000    0.000    0.000    0.000 
#
# Total GULP energy -644949.708002 kJ/mol
# GULP energy per Si atom -12402.879000 kJ/mol
# Density = 1.765494 g / cm^3
# Si number density = 17.695218 Si / 1000 Ang^3
#
#
#
# Elastic Constant Matrix: (Units=GPa)
#
#
# Indices 1 2 3 4 5 6 
#
# 1 94.7839 46.8300 71.2779 0.0000 0.0000 0.0000
# 2 46.8300 86.7265 68.4939 0.0000 0.0000 0.0000
# 3 71.2779 68.4939 139.8164 0.0000 0.0000 0.0000
# 4 0.0000 0.0000 0.0000 24.4704 0.0000 0.0000
# 5 0.0000 0.0000 0.0000 0.0000 -57.6350 0.0000
# 6 0.0000 0.0000 0.0000 0.0000 0.0000 17.7983
#
#
#
# Elastic Compliance Matrix: (Units=1/GPa)
#
#
# Indices 1 2 3 4 5 6 
#
# 1 0.017928 -0.004016 -0.007172 0.000000 0.000000 0.000000
# 2 -0.004016 0.019707 -0.007606 0.000000 0.000000 0.000000
# 3 -0.007172 -0.007606 0.014535 0.000000 0.000000 0.000000
# 4 0.000000 0.000000 0.000000 0.040866 0.000000 0.000000
# 5 0.000000 0.000000 0.000000 0.000000 -0.017351 0.000000
# 6 0.000000 0.000000 0.000000 0.000000 0.000000 0.056185
#
#
# Mechanical properties :
#
#
# Convention : Reuss Voigt Hill
#
# Bulk Modulus (GPa) = 68.58860 77.17003 72.87931
# Shear Modulus (GPa) = 28.68297 5.90843 17.29570
#
# Velocity S-wave (km/s) = 4.03046 1.82927 3.12977
# Velocity P-wave (km/s) = 7.77848 6.94025 7.37129
#
# Compressibility (1/GPa) = 0.01457968
#
# Stress axis : x y z
#
# Youngs Moduli (GPa) = 55.77811 50.74464 68.80036
#
# Poissons Ratio (x) = 0.20381 0.49345
# Poissons Ratio (y) = 0.22403 0.52332
# Poissons Ratio (z) = 0.40005 0.38598
#
# Static dielectric constant tensor:
#      x y z
#    x 3.305360 0.000000 0.000000 
#    y 0.000000 3.331680 0.000000 
#    z 0.000000 0.000000 3.407940 
# 
# 
# High freq. dielectric constant tensor:
#      x y z
#    x 1.675450 0.000000 0.000000 
#    y 0.000000 1.688430 0.000000 
#    z 0.000000 0.000000 1.687320 
# 
# From -- ./inp_files/33613.got.cif
#   From: 2010.03.12/outbox.cif.g09.slc.cpg/sg47_17_cif.got.tgz:33613.got - 2010.04.14 03:12:58.
