data_PCOD8199480
_publ_section_title
;
Structure prediction by ZEFSAII (Michael W. Deem and Ramdas Pophale) SiO2 
 PCOD8199480
Probable space group: P M M M
;
_chemical_formula_sum "Si O2"
_cell_formula_units_Z 40
_cell_length_a 8.933774
_cell_length_b 13.122026
_cell_length_c 17.691116
_cell_angle_alpha 90.000000
_cell_angle_beta 90.000000
_cell_angle_gamma 90.000000
_cell_volume 2073.915636
_symmetry_space_group_name_H-M "P M M M"
_symmetry_group_IT_number 47
_symmetry_cell_setting 'orthorhombic'
loop_
_space_group_symop_operation_xyz
x,y,z
-x,-y,z
x,-y,-z
-x,y,-z
-x,-y,-z
x,y,-z
-x,y,z
x,-y,z
loop_
_atom_site_type_symbol
_atom_site_label
_atom_site_fract_x
_atom_site_fract_y
_atom_site_fract_z
Si Si1 0.336169 0.000000 0.589706
Si Si2 0.321113 0.219713 0.584612
Si Si3 0.325534 0.383211 0.294096
Si Si4 0.176718 0.699266 0.853729
Si Si5 0.334902 0.617970 0.000000
Si Si6 0.673437 0.884728 0.086410
O O1 0.256631 0.892019 0.612306
O O2 0.500000 0.000000 0.627934
O O3 0.353287 0.000000 0.500000
O O4 0.262854 0.244705 0.500000
O O5 0.500000 0.213387 0.584024
O O6 0.265274 0.309412 0.639515
O O7 0.500000 0.363738 0.277524
O O8 0.297340 0.500000 0.318795
O O9 0.233228 0.359281 0.219534
O O10 0.232268 0.816516 0.855279
O O11 0.000000 0.695120 0.855860
O O12 0.242596 0.644338 0.926135
O O13 0.363538 0.500000 0.000000
O O14 0.500000 0.672122 0.000000
O O15 0.500000 0.877937 0.108159
O O16 0.730989 0.000000 0.094444
O O17 0.699199 0.846341 0.000000
#
# Coordination Sequence:
#
# PCOD8199480 Si02
#       6
#     4   8   8   8   4   8
#     4   7  10  20  42  74 109 136 163 212 273 327
#     4   8  14  27  50  79 108 138 177 227 280 331
#     4  10  21  36  53  76 110 148 186 232 282 330
#     4  12  24  37  55  80 111 146 183 227 274 328
#     4  11  23  39  60  81 102 135 183 236 284 331
#     4   9  18  35  60  85 109 140 179 223 271 327
#
# _framework density 19.287189000000001
#
# number of rings (size 3 to 8) (size 9 to 14) (size 15 to 20)
#    0.000    2.400    1.000    4.500    0.000    4.400 
#    1.800    3.000    0.000    0.600    0.000    1.400 
#    0.000    2.400    0.000    0.000    0.000    0.000 
#
# Total GULP energy -495744.848529 kJ/mol
# GULP energy per Si atom -12393.621213 kJ/mol
# Density = 1.924329 g / cm^3
# Si number density = 19.287189 Si / 1000 Ang^3
#
#
#
# Elastic Constant Matrix: (Units=GPa)
#
#
# Indices 1 2 3 4 5 6 
#
# 1 75.8639 44.6712 37.1358 0.0000 0.0000 0.0000
# 2 44.6712 151.9352 69.9639 0.0000 0.0000 0.0000
# 3 37.1358 69.9639 108.5171 0.0000 0.0000 0.0000
# 4 0.0000 0.0000 0.0000 52.9727 0.0000 0.0000
# 5 0.0000 0.0000 0.0000 0.0000 27.8687 0.0000
# 6 0.0000 0.0000 0.0000 0.0000 0.0000 7.7720
#
#
#
# Elastic Compliance Matrix: (Units=1/GPa)
#
#
# Indices 1 2 3 4 5 6 
#
# 1 0.016911 -0.003281 -0.003672 0.000000 0.000000 0.000000
# 2 -0.003281 0.009998 -0.005323 0.000000 0.000000 0.000000
# 3 -0.003672 -0.005323 0.013903 0.000000 0.000000 0.000000
# 4 0.000000 0.000000 0.000000 0.018878 0.000000 0.000000
# 5 0.000000 0.000000 0.000000 0.000000 0.035882 0.000000
# 6 0.000000 0.000000 0.000000 0.000000 0.000000 0.128668
#
#
# Mechanical properties :
#
#
# Convention : Reuss Voigt Hill
#
# Bulk Modulus (GPa) = 61.49892 71.09535 66.29714
# Shear Modulus (GPa) = 19.66869 30.02569 24.84719
#
# Velocity S-wave (km/s) = 3.19686 3.94987 3.59315
# Velocity P-wave (km/s) = 6.75142 7.59891 7.18767
#
# Compressibility (1/GPa) = 0.01626045
#
# Stress axis : x y z
#
# Youngs Moduli (GPa) = 59.13341 100.02406 71.92521
#
# Poissons Ratio (x) = 0.32822 0.26408
# Poissons Ratio (y) = 0.19404 0.38284
# Poissons Ratio (z) = 0.21711 0.53241
#
# Static dielectric constant tensor:
#      x y z
#    x 3.076220 0.000000 0.000000 
#    y 0.000000 4.033830 0.000000 
#    z 0.000000 0.000000 3.331000 
# 
# 
# High freq. dielectric constant tensor:
#      x y z
#    x 1.703160 0.000000 0.000000 
#    y 0.000000 1.777980 0.000000 
#    z 0.000000 0.000000 1.730260 
# 
# From -- ./inp_files/20709.got.cif
#   From: 2010.03.12/outbox.cif.g09.slc.cpg/sg47_11_cif.got.tgz:20709.got - 2010.04.14 03:12:58.
