data_PCOD8199662
_publ_section_title
;
Structure prediction by ZEFSAII (Michael W. Deem and Ramdas Pophale) SiO2 
 PCOD8199662
Probable space group: P M M M
;
_chemical_formula_sum "Si O2"
_cell_formula_units_Z 44
_cell_length_a 9.292619
_cell_length_b 29.390125
_cell_length_c 7.886091
_cell_angle_alpha 90.000000
_cell_angle_beta 90.000000
_cell_angle_gamma 90.000000
_cell_volume 2153.780044
_symmetry_space_group_name_H-M "P M M M"
_symmetry_group_IT_number 47
_symmetry_cell_setting 'orthorhombic'
loop_
_space_group_symop_operation_xyz
x,y,z
-x,-y,z
x,-y,-z
-x,y,-z
-x,-y,-z
x,y,-z
-x,y,z
x,-y,z
loop_
_atom_site_type_symbol
_atom_site_label
_atom_site_fract_x
_atom_site_fract_y
_atom_site_fract_z
Si Si1 0.335565 0.198076 0.301606
Si Si2 0.842073 0.282207 0.304708
Si Si3 0.834294 0.946275 0.500000
Si Si4 0.332139 0.098971 0.192499
Si Si5 0.163416 0.551568 0.300931
Si Si6 0.338912 0.634785 0.193266
O O1 0.307415 0.189672 0.500000
O O2 0.500000 0.211569 0.267744
O O3 0.242468 0.239529 0.223553
O O4 0.293025 0.152221 0.204059
O O5 0.861000 0.270785 0.500000
O O6 0.756461 0.329163 0.293104
O O7 0.000000 0.287107 0.218951
O O8 0.760174 0.928738 0.328223
O O9 0.000000 0.930216 0.500000
O O10 0.821026 0.000000 0.500000
O O11 0.500000 0.091520 0.235831
O O12 0.297585 0.082534 0.000000
O O13 0.179569 0.559355 0.500000
O O14 0.204521 0.500000 0.251806
O O15 0.271279 0.584732 0.204656
O O16 0.000000 0.562011 0.244350
O O17 0.500000 0.633783 0.270082
O O18 0.343252 0.650386 0.000000
#
# Coordination Sequence:
#
# PCOD8199662 Si02
#       6
#     8   8   4   8   8   8
#     4   9  17  33  57  85 119 155 192 237 292 352
#     4  10  21  36  56  83 113 147 189 234 280 335
#     4  11  25  43  63  89 127 171 211 259 314 369
#     4  10  21  39  65  95 125 161 208 260 312 369
#     4   9  19  37  60  83 105 132 171 220 274 335
#     4  11  24  38  52  75 109 146 184 228 276 328
#
# _framework density 20.429198
#
# number of rings (size 3 to 8) (size 9 to 14) (size 15 to 20)
#    0.000    2.091    0.909    2.455    0.000    8.727 
#    0.000    6.364    0.000    0.000    0.000    0.000 
#    0.000    0.000    0.000    0.000    0.000    0.000 
#
# Total GULP energy -545598.117920 kJ/mol
# GULP energy per Si atom -12399.957225 kJ/mol
# Density = 2.038270 g / cm^3
# Si number density = 20.429198 Si / 1000 Ang^3
#
#
#
# Elastic Constant Matrix: (Units=GPa)
#
#
# Indices 1 2 3 4 5 6 
#
# 1 149.1557 77.6360 43.9084 0.0000 0.0000 0.0000
# 2 77.6360 111.9005 38.1278 0.0000 0.0000 0.0000
# 3 43.9084 38.1278 69.2540 0.0000 0.0000 0.0000
# 4 0.0000 0.0000 0.0000 8.3882 0.0000 0.0000
# 5 0.0000 0.0000 0.0000 0.0000 18.9730 0.0000
# 6 0.0000 0.0000 0.0000 0.0000 0.0000 41.4666
#
#
#
# Elastic Compliance Matrix: (Units=1/GPa)
#
#
# Indices 1 2 3 4 5 6 
#
# 1 0.011126 -0.006543 -0.003452 0.000000 0.000000 0.000000
# 2 -0.006543 0.014848 -0.004026 0.000000 0.000000 0.000000
# 3 -0.003452 -0.004026 0.018845 0.000000 0.000000 0.000000
# 4 0.000000 0.000000 0.000000 0.119216 0.000000 0.000000
# 5 0.000000 0.000000 0.000000 0.000000 0.052706 0.000000
# 6 0.000000 0.000000 0.000000 0.000000 0.000000 0.024116
#
#
# Mechanical properties :
#
#
# Convention : Reuss Voigt Hill
#
# Bulk Modulus (GPa) = 59.60661 72.18382 65.89522
# Shear Modulus (GPa) = 18.21549 25.14143 21.67846
#
# Velocity S-wave (km/s) = 2.98927 3.51188 3.26106
# Velocity P-wave (km/s) = 6.41520 7.20103 6.81944
#
# Compressibility (1/GPa) = 0.01677666
#
# Stress axis : x y z
#
# Youngs Moduli (GPa) = 89.87662 67.34935 53.06524
#
# Poissons Ratio (x) = 0.44068 0.18318
# Poissons Ratio (y) = 0.58808 0.21364
# Poissons Ratio (z) = 0.31025 0.27115
#
# Static dielectric constant tensor:
#      x y z
#    x 3.942990 0.000000 0.000000 
#    y 0.000000 3.662130 0.000000 
#    z 0.000000 0.000000 3.549250 
# 
# 
# High freq. dielectric constant tensor:
#      x y z
#    x 1.798700 0.000000 0.000000 
#    y 0.000000 1.800550 0.000000 
#    z 0.000000 0.000000 1.787830 
# 
# From -- ./inp_files/2128.got.cif
#   From: 2010.03.12/outbox.cif.g09.slc.cpg/sg47_2_cif.got.tgz:2128.got - 2010.04.14 03:12:58.
