data_PCOD8199602
_publ_section_title
;
Structure prediction by ZEFSAII (Michael W. Deem and Ramdas Pophale) SiO2 
 PCOD8199602
Probable space group: P M M M
;
_chemical_formula_sum "Si O2"
_cell_formula_units_Z 40
_cell_length_a 14.224129
_cell_length_b 14.745579
_cell_length_c 9.596847
_cell_angle_alpha 90.000000
_cell_angle_beta 90.000000
_cell_angle_gamma 90.000000
_cell_volume 2012.871652
_symmetry_space_group_name_H-M "P M M M"
_symmetry_group_IT_number 47
_symmetry_cell_setting 'orthorhombic'
loop_
_space_group_symop_operation_xyz
x,y,z
-x,-y,z
x,-y,-z
-x,y,-z
-x,-y,-z
x,y,-z
-x,y,z
x,-y,z
loop_
_atom_site_type_symbol
_atom_site_label
_atom_site_fract_x
_atom_site_fract_y
_atom_site_fract_z
Si Si1 0.729459 0.604866 0.839409
Si Si2 0.106404 0.262630 0.839887
Si Si3 0.611671 0.265159 0.659244
Si Si4 0.111759 0.099680 0.656373
Si Si5 0.611702 0.100729 0.155887
O O1 0.738613 0.500000 0.801054
O O2 0.831040 0.649159 0.810399
O O3 0.651064 0.647753 0.739825
O O4 0.698816 0.619045 0.000000
O O5 0.151370 0.177640 0.757163
O O6 0.000000 0.285260 0.791231
O O7 0.108168 0.233959 0.000000
O O8 0.647016 0.264754 0.500000
O O9 0.500000 0.270563 0.666739
O O10 0.650597 0.173876 0.733847
O O11 0.146192 0.120524 0.500000
O O12 0.000000 0.100181 0.663338
O O13 0.148289 0.000000 0.703873
O O14 0.500000 0.102074 0.157063
O O15 0.647136 0.000000 0.198539
O O16 0.647451 0.125645 0.000000
#
# Coordination Sequence:
#
# PCOD8199602 Si02
#       5
#     8   8   8   8   8
#     4  10  22  39  57  77 102 135 176 220 267 320
#     4   9  18  33  54  80 107 134 168 213 262 309
#     4  10  21  36  55  80 109 140 174 216 265 312
#     4   8  14  26  46  73 105 140 174 206 245 298
#     4   8  14  27  50  79 109 141 175 210 251 303
#
# _framework density 19.872105000000001
#
# number of rings (size 3 to 8) (size 9 to 14) (size 15 to 20)
#    0.000    3.000    0.000    1.800    0.000    4.000 
#    0.000    9.000    0.000    1.200    0.000    4.200 
#    0.000    0.000    0.000    0.000    0.000    0.000 
#
# Total GULP energy -495901.304923 kJ/mol
# GULP energy per Si atom -12397.532623 kJ/mol
# Density = 1.982688 g / cm^3
# Si number density = 19.872105 Si / 1000 Ang^3
#
#
#
# Elastic Constant Matrix: (Units=GPa)
#
#
# Indices 1 2 3 4 5 6 
#
# 1 38.0500 33.6332 35.8552 0.0000 0.0000 0.0000
# 2 33.6332 183.1063 97.4426 0.0000 0.0000 0.0000
# 3 35.8552 97.4426 124.4805 0.0000 0.0000 0.0000
# 4 0.0000 0.0000 0.0000 16.0578 0.0000 0.0000
# 5 0.0000 0.0000 0.0000 0.0000 19.7059 0.0000
# 6 0.0000 0.0000 0.0000 0.0000 0.0000 -13.1594
#
#
#
# Elastic Compliance Matrix: (Units=1/GPa)
#
#
# Indices 1 2 3 4 5 6 
#
# 1 0.036453 -0.001899 -0.009013 0.000000 0.000000 0.000000
# 2 -0.001899 0.009460 -0.006858 0.000000 0.000000 0.000000
# 3 -0.009013 -0.006858 0.015998 0.000000 0.000000 0.000000
# 4 0.000000 0.000000 0.000000 0.062275 0.000000 0.000000
# 5 0.000000 0.000000 0.000000 0.000000 0.050746 0.000000
# 6 0.000000 0.000000 0.000000 0.000000 0.000000 -0.075991
#
#
# Mechanical properties :
#
#
# Convention : Reuss Voigt Hill
#
# Bulk Modulus (GPa) = 37.92181 75.49986 56.71084
# Shear Modulus (GPa) = 34.89861 16.43456 25.66658
#
# Velocity S-wave (km/s) = 4.19520 2.87891 3.59777
# Velocity P-wave (km/s) = 6.52615 7.00901 6.77189
#
# Compressibility (1/GPa) = 0.02637005
#
# Stress axis : x y z
#
# Youngs Moduli (GPa) = 27.43234 105.71137 62.50822
#
# Poissons Ratio (x) = 0.20078 0.56340
# Poissons Ratio (y) = 0.05210 0.42868
# Poissons Ratio (z) = 0.24725 0.72496
#
# Static dielectric constant tensor:
#      x y z
#    x 3.366180 0.000000 0.000000 
#    y 0.000000 3.790980 0.000000 
#    z 0.000000 0.000000 3.749410 
# 
# 
# High freq. dielectric constant tensor:
#      x y z
#    x 1.761830 0.000000 0.000000 
#    y 0.000000 1.771650 0.000000 
#    z 0.000000 0.000000 1.770770 
# 
# From -- ./inp_files/3701.got.cif
#   From: 2010.03.12/outbox.cif.g09.slc.cpg/sg47_2_cif.got.tgz:3701.got - 2010.04.14 03:12:58.
