data_PCOD8199726
_publ_section_title
;
Structure prediction by ZEFSAII (Michael W. Deem and Ramdas Pophale) SiO2 
 PCOD8199726
Probable space group: P M M M
;
_chemical_formula_sum "Si O2"
_cell_formula_units_Z 44
_cell_length_a 8.981862
_cell_length_b 9.439171
_cell_length_c 28.340185
_cell_angle_alpha 90.000000
_cell_angle_beta 90.000000
_cell_angle_gamma 90.000000
_cell_volume 2402.718614
_symmetry_space_group_name_H-M "P M M M"
_symmetry_group_IT_number 47
_symmetry_cell_setting 'orthorhombic'
loop_
_space_group_symop_operation_xyz
x,y,z
-x,-y,z
x,-y,-z
-x,y,-z
-x,-y,-z
x,y,-z
-x,y,z
x,-y,z
loop_
_atom_site_type_symbol
_atom_site_label
_atom_site_fract_x
_atom_site_fract_y
_atom_site_fract_z
Si Si1 0.328689 0.837643 0.445188
Si Si2 0.324442 0.837417 0.715440
Si Si3 0.178142 0.340894 0.899000
Si Si4 0.174129 0.335208 0.367175
Si Si5 0.836516 0.331462 0.000000
Si Si6 0.172246 0.835443 0.188834
O O1 0.300023 0.808105 0.500000
O O2 0.500000 0.807178 0.431967
O O3 0.222632 0.733320 0.416548
O O4 0.289672 0.000000 0.432602
O O5 0.500000 0.821683 0.716311
O O6 0.260433 0.739213 0.674958
O O7 0.260832 0.783608 0.765271
O O8 0.276063 0.000000 0.706039
O O9 0.232373 0.500000 0.888274
O O10 0.238798 0.242888 0.857007
O O11 0.000000 0.334832 0.901764
O O12 0.243215 0.287917 0.950318
O O13 0.216337 0.500000 0.367963
O O14 0.000000 0.311331 0.359815
O O15 0.852801 0.500000 0.000000
O O16 0.000000 0.261329 0.000000
O O17 0.000000 0.796977 0.196808
O O18 0.196797 0.000000 0.179715
#
# Coordination Sequence:
#
# PCOD8199726 Si02
#       6
#     8   8   8   8   4   8
#     4   9  19  37  60  84 109 139 176 213 247 289
#     4  10  21  37  56  75  96 128 170 211 251 300
#     4   8  13  22  38  60  87 120 155 190 231 283
#     4  11  24  38  53  78 110 139 168 207 254 300
#     4   7  10  18  33  55  84 117 152 188 228 277
#     4   9  17  29  45  67  95 123 152 193 246 296
#
# _framework density 18.31259
#
# number of rings (size 3 to 8) (size 9 to 14) (size 15 to 20)
#    0.000    2.818    0.000    3.273    0.000    6.545 
#    0.000    5.000    0.000    2.727    0.000    0.636 
#    0.000    5.091    0.000    0.000    0.000    0.000 
#
# Total GULP energy -545399.705708 kJ/mol
# GULP energy per Si atom -12395.447857 kJ/mol
# Density = 1.827091 g / cm^3
# Si number density = 18.312590 Si / 1000 Ang^3
#
#
#
# Elastic Constant Matrix: (Units=GPa)
#
#
# Indices 1 2 3 4 5 6 
#
# 1 43.6565 32.4884 40.2847 0.0000 0.0000 0.0000
# 2 32.4884 77.5820 67.2024 0.0000 0.0000 0.0000
# 3 40.2847 67.2024 148.8117 0.0000 0.0000 0.0000
# 4 0.0000 0.0000 0.0000 28.4363 0.0000 0.0000
# 5 0.0000 0.0000 0.0000 0.0000 -2.8750 0.0000
# 6 0.0000 0.0000 0.0000 0.0000 0.0000 20.8460
#
#
#
# Elastic Compliance Matrix: (Units=1/GPa)
#
#
# Indices 1 2 3 4 5 6 
#
# 1 0.035181 -0.010648 -0.004715 0.000000 0.000000 0.000000
# 2 -0.010648 0.024394 -0.008134 0.000000 0.000000 0.000000
# 3 -0.004715 -0.008134 0.011669 0.000000 0.000000 0.000000
# 4 0.000000 0.000000 0.000000 0.035166 0.000000 0.000000
# 5 0.000000 0.000000 0.000000 0.000000 -0.347821 0.000000
# 6 0.000000 0.000000 0.000000 0.000000 0.000000 0.047971
#
#
# Mechanical properties :
#
#
# Convention : Reuss Voigt Hill
#
# Bulk Modulus (GPa) = 41.23592 61.11124 51.17358
# Shear Modulus (GPa) = -36.13734 17.95311 -9.09212
#
# Velocity S-wave (km/s) = -4.44707 3.13448 -2.23064
# Velocity P-wave (km/s) = 1.94985 6.82229 4.62286
#
# Compressibility (1/GPa) = 0.02425070
#
# Stress axis : x y z
#
# Youngs Moduli (GPa) = 28.42418 40.99345 85.69366
#
# Poissons Ratio (x) = 0.43651 0.40407
# Poissons Ratio (y) = 0.30267 0.69700
# Poissons Ratio (z) = 0.13403 0.33343
#
# Static dielectric constant tensor:
#      x y z
#    x 3.071760 0.000000 0.000000 
#    y 0.000000 3.315280 0.000000 
#    z 0.000000 0.000000 3.769340 
# 
# 
# High freq. dielectric constant tensor:
#      x y z
#    x 1.675320 0.000000 0.000000 
#    y 0.000000 1.694450 0.000000 
#    z 0.000000 0.000000 1.732390 
# 
# From -- ./inp_files/2327.got.cif
#   From: 2010.03.12/outbox.cif.g09.slc.cpg/sg47_2_cif.got.tgz:2327.got - 2010.04.14 03:12:58.
