data_PCOD8199040
_publ_section_title
;
Structure prediction by ZEFSAII (Michael W. Deem and Ramdas Pophale) SiO2 
 PCOD8199040
Probable space group: P M M M
;
_chemical_formula_sum "Si O2"
_cell_formula_units_Z 52
_cell_length_a 7.948819
_cell_length_b 28.515631
_cell_length_c 13.969636
_cell_angle_alpha 90.000000
_cell_angle_beta 90.000000
_cell_angle_gamma 90.000000
_cell_volume 3166.435779
_symmetry_space_group_name_H-M "P M M M"
_symmetry_group_IT_number 47
_symmetry_cell_setting 'orthorhombic'
loop_
_space_group_symop_operation_xyz
x,y,z
-x,-y,z
x,-y,-z
-x,y,-z
-x,-y,-z
x,y,-z
-x,y,z
x,-y,z
loop_
_atom_site_type_symbol
_atom_site_label
_atom_site_fract_x
_atom_site_fract_y
_atom_site_fract_z
Si Si1 0.801337 0.217671 0.893539
Si Si2 0.805762 0.641619 0.604732
Si Si3 0.198473 0.399029 0.892615
Si Si4 0.306465 0.447630 0.290156
Si Si5 0.811958 0.113426 0.114054
Si Si6 0.500000 0.053040 0.114181
Si Si7 0.199253 0.306746 0.213955
O O1 0.761097 0.165890 0.852258
O O2 0.725065 0.256955 0.821781
O O3 0.000000 0.224396 0.901669
O O4 0.722910 0.223800 0.000000
O O5 0.718302 0.646920 0.500000
O O6 0.793084 0.588535 0.643115
O O7 0.724662 0.677852 0.682230
O O8 0.000000 0.653568 0.593768
O O9 0.285897 0.435834 0.822065
O O10 0.248266 0.346034 0.863695
O O11 0.000000 0.406005 0.884609
O O12 0.263299 0.408368 0.000000
O O13 0.500000 0.444499 0.318860
O O14 0.236638 0.500000 0.308739
O O15 0.669670 0.078001 0.153634
O O16 0.000000 0.099646 0.152066
O O17 0.816459 0.112712 0.000000
O O18 0.500000 0.000000 0.152630
O O19 0.500000 0.054545 0.000000
O O20 0.000000 0.303205 0.223898
#
# Coordination Sequence:
#
# PCOD8199040 Si02
#       7
#     8   8   8   8   8   4   8
#     4   8  12  19  35  57  78 102 131 162 196 236
#     4   9  18  32  49  67  84 102 128 166 207 247
#     4   9  17  29  46  66  86 108 133 163 198 239
#     4  10  21  34  46  61  81 106 135 165 200 244
#     4   8  14  23  34  50  72 100 137 177 213 249
#     4   9  16  24  34  48  70 104 143 183 220 245
#     4   8  13  23  41  63  83 103 130 160 194 243
#
# _framework density 16.422249999999998
#
# number of rings (size 3 to 8) (size 9 to 14) (size 15 to 20)
#    0.000    3.308    0.000    2.769    0.000    4.615 
#    0.000    4.615    6.769    0.000    0.000    0.000 
#    0.000    0.000    0.000    0.000    0.000    1.538 
#
# Total GULP energy -644304.001607 kJ/mol
# GULP energy per Si atom -12390.461569 kJ/mol
# Density = 1.638487 g / cm^3
# Si number density = 16.422250 Si / 1000 Ang^3
#
#
#
# Elastic Constant Matrix: (Units=GPa)
#
#
# Indices 1 2 3 4 5 6 
#
# 1 40.1276 31.4371 10.3445 0.0000 0.0000 0.0000
# 2 31.4371 124.9627 38.5587 0.0000 0.0000 0.0000
# 3 10.3445 38.5587 86.6723 0.0000 0.0000 0.0000
# 4 0.0000 0.0000 0.0000 10.4621 0.0000 0.0000
# 5 0.0000 0.0000 0.0000 0.0000 4.6635 0.0000
# 6 0.0000 0.0000 0.0000 0.0000 0.0000 3.4292
#
#
#
# Elastic Compliance Matrix: (Units=1/GPa)
#
#
# Indices 1 2 3 4 5 6 
#
# 1 0.031043 -0.007727 -0.000267 0.000000 0.000000 0.000000
# 2 -0.007727 0.011199 -0.004060 0.000000 0.000000 0.000000
# 3 -0.000267 -0.004060 0.013376 0.000000 0.000000 0.000000
# 4 0.000000 0.000000 0.000000 0.095584 0.000000 0.000000
# 5 0.000000 0.000000 0.000000 0.000000 0.214433 0.000000
# 6 0.000000 0.000000 0.000000 0.000000 0.000000 0.291617
#
#
# Mechanical properties :
#
#
# Convention : Reuss Voigt Hill
#
# Bulk Modulus (GPa) = 31.73696 45.82701 38.78198
# Shear Modulus (GPa) = 7.22686 15.13909 11.18297
#
# Velocity S-wave (km/s) = 2.10005 3.03952 2.61236
# Velocity P-wave (km/s) = 5.02472 6.34699 5.72416
#
# Compressibility (1/GPa) = 0.03150901
#
# Stress axis : x y z
#
# Youngs Moduli (GPa) = 32.21332 89.29332 74.76172
#
# Poissons Ratio (x) = 0.68997 0.01999
# Poissons Ratio (y) = 0.24891 0.30353
# Poissons Ratio (z) = 0.00862 0.36253
#
# Static dielectric constant tensor:
#      x y z
#    x 2.931870 0.000000 0.000000 
#    y 0.000000 3.227200 0.000000 
#    z 0.000000 0.000000 3.137280 
# 
# 
# High freq. dielectric constant tensor:
#      x y z
#    x 1.615440 0.000000 0.000000 
#    y 0.000000 1.619710 0.000000 
#    z 0.000000 0.000000 1.587930 
# 
# From -- ./inp_files/8036.got.cif
#   From: 2010.03.12/outbox.cif.g09.slc.cpg/sg47_5_cif.got.tgz:8036.got - 2010.04.14 03:12:58.
