data_PCOD8199026
_publ_section_title
;
Structure prediction by ZEFSAII (Michael W. Deem and Ramdas Pophale) SiO2 
 PCOD8199026
Probable space group: P M M M
;
_chemical_formula_sum "Si O2"
_cell_formula_units_Z 36
_cell_length_a 9.282248
_cell_length_b 12.757410
_cell_length_c 16.527329
_cell_angle_alpha 90.000000
_cell_angle_beta 90.000000
_cell_angle_gamma 90.000000
_cell_volume 1957.124047
_symmetry_space_group_name_H-M "P M M M"
_symmetry_group_IT_number 47
_symmetry_cell_setting 'orthorhombic'
loop_
_space_group_symop_operation_xyz
x,y,z
-x,-y,z
x,-y,-z
-x,y,-z
-x,-y,-z
x,y,-z
-x,y,z
x,-y,z
loop_
_atom_site_type_symbol
_atom_site_label
_atom_site_fract_x
_atom_site_fract_y
_atom_site_fract_z
Si Si1 0.166022 0.187406 0.089939
Si Si2 0.662356 0.616316 0.127745
Si Si3 0.667071 0.884453 0.759048
Si Si4 0.336446 0.329449 0.311136
Si Si5 0.165136 0.500000 0.595447
O O1 0.225626 0.305579 0.086945
O O2 0.250203 0.118851 0.155663
O O3 0.000000 0.190524 0.115810
O O4 0.183894 0.138223 0.000000
O O5 0.500000 0.648371 0.102652
O O6 0.698444 0.500000 0.096509
O O7 0.676221 0.616932 0.224332
O O8 0.500000 0.864539 0.779639
O O9 0.716918 0.792638 0.697160
O O10 0.691992 0.000000 0.720252
O O11 0.500000 0.333973 0.343899
O O12 0.237381 0.393127 0.372739
O O13 0.180568 0.500000 0.500000
O O14 0.000000 0.500000 0.623675
#
# Coordination Sequence:
#
# PCOD8199026 Si02
#       5
#     8   8   8   8   4
#     4  10  21  33  44  66 101 136 172 216 263 309
#     4   9  17  31  50  70  94 128 172 217 260 307
#     4   9  19  36  57  78  99 129 173 221 263 305
#     4   9  17  33  55  78 104 132 167 209 253 300
#     4  11  23  35  51  81 116 143 166 195 237 294
#
# _framework density 18.394337
#
# number of rings (size 3 to 8) (size 9 to 14) (size 15 to 20)
#    0.000    2.556    1.111    2.333    0.000    8.000 
#    0.000    4.444    0.000    0.667    0.000    4.667 
#    0.000    0.000    0.000    0.000    0.000    0.000 
#
# Total GULP energy -446223.409537 kJ/mol
# GULP energy per Si atom -12395.094709 kJ/mol
# Density = 1.835247 g / cm^3
# Si number density = 18.394337 Si / 1000 Ang^3
#
#
#
# Elastic Constant Matrix: (Units=GPa)
#
#
# Indices 1 2 3 4 5 6 
#
# 1 90.4018 46.1217 37.9510 0.0000 0.0000 0.0000
# 2 46.1217 143.7166 33.7361 0.0000 0.0000 0.0000
# 3 37.9510 33.7361 57.7190 0.0000 0.0000 0.0000
# 4 0.0000 0.0000 0.0000 7.6938 0.0000 0.0000
# 5 0.0000 0.0000 0.0000 0.0000 -11.4343 0.0000
# 6 0.0000 0.0000 0.0000 0.0000 0.0000 9.0466
#
#
#
# Elastic Compliance Matrix: (Units=1/GPa)
#
#
# Indices 1 2 3 4 5 6 
#
# 1 0.016440 -0.003174 -0.008954 0.000000 0.000000 0.000000
# 2 -0.003174 0.008677 -0.002985 0.000000 0.000000 0.000000
# 3 -0.008954 -0.002985 0.024958 0.000000 0.000000 0.000000
# 4 0.000000 0.000000 0.000000 0.129975 0.000000 0.000000
# 5 0.000000 0.000000 0.000000 0.000000 -0.087456 0.000000
# 6 0.000000 0.000000 0.000000 0.000000 0.000000 0.110539
#
#
# Mechanical properties :
#
#
# Convention : Reuss Voigt Hill
#
# Bulk Modulus (GPa) = 50.38169 58.60611 54.49390
# Shear Modulus (GPa) = 20.83550 12.66314 16.74932
#
# Velocity S-wave (km/s) = 3.36923 2.62663 3.02084
# Velocity P-wave (km/s) = 6.52571 6.41319 6.46970
#
# Compressibility (1/GPa) = 0.01984848
#
# Stress axis : x y z
#
# Youngs Moduli (GPa) = 60.82652 115.24156 40.06794
#
# Poissons Ratio (x) = 0.36578 0.35879
# Poissons Ratio (y) = 0.19307 0.11960
# Poissons Ratio (z) = 0.54467 0.34398
#
# Static dielectric constant tensor:
#      x y z
#    x 3.368680 0.000000 0.000000 
#    y 0.000000 3.566730 0.000000 
#    z 0.000000 0.000000 3.001090 
# 
# 
# High freq. dielectric constant tensor:
#      x y z
#    x 1.709100 0.000000 0.000000 
#    y 0.000000 1.722290 0.000000 
#    z 0.000000 0.000000 1.673870 
# 
# From -- ./inp_files/20577.got.cif
#   From: 2010.03.12/outbox.cif.g09.slc.cpg/sg47_11_cif.got.tgz:20577.got - 2010.04.14 03:12:58.
