data_PCOD8199440
_publ_section_title
;
Structure prediction by ZEFSAII (Michael W. Deem and Ramdas Pophale) SiO2 
 PCOD8199440
Probable space group: P M M M
;
_chemical_formula_sum "Si O2"
_cell_formula_units_Z 44
_cell_length_a 27.912812
_cell_length_b 9.487084
_cell_length_c 9.301793
_cell_angle_alpha 90.000000
_cell_angle_beta 90.000000
_cell_angle_gamma 90.000000
_cell_volume 2463.218893
_symmetry_space_group_name_H-M "P M M M"
_symmetry_group_IT_number 47
_symmetry_cell_setting 'orthorhombic'
loop_
_space_group_symop_operation_xyz
x,y,z
-x,-y,z
x,-y,-z
-x,y,-z
-x,-y,-z
x,y,-z
-x,y,z
x,-y,z
loop_
_atom_site_type_symbol
_atom_site_label
_atom_site_fract_x
_atom_site_fract_y
_atom_site_fract_z
Si Si1 0.274436 0.164640 0.667155
Si Si2 0.911646 0.332875 0.841184
Si Si3 0.195760 0.664372 0.832895
Si Si4 0.000000 0.331483 0.660384
Si Si5 0.368884 0.164586 0.833600
Si Si6 0.555555 0.337242 0.663469
O O1 0.279966 0.201270 0.500000
O O2 0.229727 0.246678 0.731191
O O3 0.322238 0.216091 0.747480
O O4 0.265669 0.000000 0.693368
O O5 0.915544 0.500000 0.848211
O O6 0.858371 0.291968 0.788973
O O7 0.952213 0.271100 0.736188
O O8 0.921006 0.270705 0.000000
O O9 0.204792 0.500000 0.803940
O O10 0.205195 0.699985 0.000000
O O11 0.000000 0.500000 0.662802
O O12 0.000000 0.271940 0.500000
O O13 0.414991 0.244710 0.774943
O O14 0.377925 0.000000 0.809726
O O15 0.361280 0.202138 0.000000
O O16 0.567612 0.292201 0.500000
O O17 0.500000 0.310717 0.696192
O O18 0.568732 0.500000 0.686860
#
# Coordination Sequence:
#
# PCOD8199440 Si02
#       6
#     8   8   8   4   8   8
#     4  10  21  36  53  73  98 130 167 204 245 295
#     4   8  14  25  40  59  87 122 156 191 234 285
#     4   9  18  32  50  73  99 127 162 203 246 293
#     4   9  15  21  33  57  88 121 156 193 234 280
#     4  10  21  36  54  76 101 130 166 207 247 288
#     4   9  19  36  56  78 105 136 168 201 240 289
#
# _framework density 17.862805000000002
#
# number of rings (size 3 to 8) (size 9 to 14) (size 15 to 20)
#    0.000    2.818    0.000    3.000    0.000    6.182 
#    0.000    4.545    0.000    0.000    0.000    0.636 
#    0.000    5.091    0.000    0.000    0.000    0.000 
#
# Total GULP energy -545566.033277 kJ/mol
# GULP energy per Si atom -12399.228029 kJ/mol
# Density = 1.782215 g / cm^3
# Si number density = 17.862805 Si / 1000 Ang^3
#
#
#
# Elastic Constant Matrix: (Units=GPa)
#
#
# Indices 1 2 3 4 5 6 
#
# 1 137.1468 47.2444 91.1915 0.0000 0.0000 0.0000
# 2 47.2444 37.0287 46.3718 0.0000 0.0000 0.0000
# 3 91.1915 46.3718 136.4925 0.0000 0.0000 0.0000
# 4 0.0000 0.0000 0.0000 27.0204 0.0000 0.0000
# 5 0.0000 0.0000 0.0000 0.0000 35.9725 0.0000
# 6 0.0000 0.0000 0.0000 0.0000 0.0000 -25.0700
#
#
#
# Elastic Compliance Matrix: (Units=1/GPa)
#
#
# Indices 1 2 3 4 5 6 
#
# 1 0.015677 -0.011984 -0.006402 0.000000 0.000000 0.000000
# 2 -0.011984 0.056166 -0.011075 0.000000 0.000000 0.000000
# 3 -0.006402 -0.011075 0.015366 0.000000 0.000000 0.000000
# 4 0.000000 0.000000 0.000000 0.037009 0.000000 0.000000
# 5 0.000000 0.000000 0.000000 0.000000 0.027799 0.000000
# 6 0.000000 0.000000 0.000000 0.000000 0.000000 -0.039888
#
#
# Mechanical properties :
#
#
# Convention : Reuss Voigt Hill
#
# Bulk Modulus (GPa) = 35.35292 75.58705 55.46998
# Shear Modulus (GPa) = 27.70386 15.97528 21.83957
#
# Velocity S-wave (km/s) = 3.94245 2.99378 3.50040
# Velocity P-wave (km/s) = 6.36853 7.37275 6.88897
#
# Compressibility (1/GPa) = 0.02828621
#
# Stress axis : x y z
#
# Youngs Moduli (GPa) = 63.78898 17.80442 65.07667
#
# Poissons Ratio (x) = 0.21337 0.41664
# Poissons Ratio (y) = 0.76444 0.72074
# Poissons Ratio (z) = 0.40840 0.19719
#
# Static dielectric constant tensor:
#      x y z
#    x 3.432330 0.000000 0.000000 
#    y 0.000000 2.928050 0.000000 
#    z 0.000000 0.000000 3.417170 
# 
# 
# High freq. dielectric constant tensor:
#      x y z
#    x 1.703810 0.000000 0.000000 
#    y 0.000000 1.652000 0.000000 
#    z 0.000000 0.000000 1.696930 
# 
# From -- ./inp_files/2232.got.cif
#   From: 2010.03.12/outbox.cif.g09.slc.cpg/sg47_2_cif.got.tgz:2232.got - 2010.04.14 03:12:58.
