data_PCOD8199844
_publ_section_title
;
Structure prediction by ZEFSAII (Michael W. Deem and Ramdas Pophale) SiO2 
 PCOD8199844
Probable space group: P M M M
;
_chemical_formula_sum "Si O2"
_cell_formula_units_Z 44
_cell_length_a 9.239045
_cell_length_b 28.472246
_cell_length_c 9.170821
_cell_angle_alpha 90.000000
_cell_angle_beta 90.000000
_cell_angle_gamma 90.000000
_cell_volume 2412.442809
_symmetry_space_group_name_H-M "P M M M"
_symmetry_group_IT_number 47
_symmetry_cell_setting 'orthorhombic'
loop_
_space_group_symop_operation_xyz
x,y,z
-x,-y,z
x,-y,-z
-x,y,-z
-x,-y,-z
x,y,-z
-x,y,z
x,-y,z
loop_
_atom_site_type_symbol
_atom_site_label
_atom_site_fract_x
_atom_site_fract_y
_atom_site_fract_z
Si Si1 0.832385 0.322391 0.167418
Si Si2 0.328982 0.500000 0.830547
Si Si3 0.833574 0.858468 0.828381
Si Si4 0.663168 0.768544 0.173530
Si Si5 0.168122 0.417272 0.329703
Si Si6 0.828000 0.051341 0.335448
O O1 0.742050 0.278456 0.228691
O O2 0.792194 0.366290 0.267990
O O3 0.000000 0.308860 0.180360
O O4 0.791996 0.334414 0.000000
O O5 0.500000 0.500000 0.808913
O O6 0.264910 0.545772 0.755054
O O7 0.285419 0.500000 0.000000
O O8 0.745003 0.814327 0.764738
O O9 0.766402 0.906465 0.763027
O O10 0.000000 0.851468 0.781888
O O11 0.816833 0.862203 0.000000
O O12 0.500000 0.768624 0.233399
O O13 0.667774 0.769602 0.000000
O O14 0.206002 0.418987 0.500000
O O15 0.000000 0.429125 0.302108
O O16 0.774457 0.059525 0.500000
O O17 0.000000 0.051796 0.328080
O O18 0.772741 0.000000 0.279900
#
# Coordination Sequence:
#
# PCOD8199844 Si02
#       6
#     8   4   8   8   8   8
#     4   9  17  31  52  75  98 127 164 203 241 284
#     4  11  24  39  56  80 108 139 176 213 248 292
#     4   9  16  26  43  67  91 115 148 191 234 275
#     4   9  17  29  46  68  94 124 157 194 236 282
#     4  10  21  37  57  81 108 137 169 207 253 301
#     4   8  14  25  41  62  88 116 146 183 229 278
#
# _framework density 18.238772999999998
#
# number of rings (size 3 to 8) (size 9 to 14) (size 15 to 20)
#    0.000    2.818    0.000    2.182    0.000    6.182 
#    0.000    4.545    0.000    6.545    0.000    3.818 
#    0.000    0.000    0.000    0.000    0.000    0.000 
#
# Total GULP energy -545518.299116 kJ/mol
# GULP energy per Si atom -12398.143162 kJ/mol
# Density = 1.819726 g / cm^3
# Si number density = 18.238773 Si / 1000 Ang^3
#
#
#
# Elastic Constant Matrix: (Units=GPa)
#
#
# Indices 1 2 3 4 5 6 
#
# 1 79.2643 80.1992 42.4078 0.0000 0.0000 0.0000
# 2 80.1992 185.1461 68.1264 0.0000 0.0000 0.0000
# 3 42.4078 68.1264 71.7873 0.0000 0.0000 0.0000
# 4 0.0000 0.0000 0.0000 -5.9295 0.0000 0.0000
# 5 0.0000 0.0000 0.0000 0.0000 14.5759 0.0000
# 6 0.0000 0.0000 0.0000 0.0000 0.0000 4.0909
#
#
#
# Elastic Compliance Matrix: (Units=1/GPa)
#
#
# Indices 1 2 3 4 5 6 
#
# 1 0.024412 -0.008095 -0.006739 0.000000 0.000000 0.000000
# 2 -0.008095 0.010983 -0.005641 0.000000 0.000000 0.000000
# 3 -0.006739 -0.005641 0.023265 0.000000 0.000000 0.000000
# 4 0.000000 0.000000 0.000000 -0.168647 0.000000 0.000000
# 5 0.000000 0.000000 0.000000 0.000000 0.068607 0.000000
# 6 0.000000 0.000000 0.000000 0.000000 0.000000 0.244446
#
#
# Mechanical properties :
#
#
# Convention : Reuss Voigt Hill
#
# Bulk Modulus (GPa) = 56.46691 79.74050 68.10370
# Shear Modulus (GPa) = 20.00652 12.24507 16.12579
#
# Velocity S-wave (km/s) = 3.31557 2.59390 2.97669
# Velocity P-wave (km/s) = 6.75902 7.26542 7.01679
#
# Compressibility (1/GPa) = 0.01770949
#
# Stress axis : x y z
#
# Youngs Moduli (GPa) = 40.96404 91.04801 42.98341
#
# Poissons Ratio (x) = 0.73699 0.28967
# Poissons Ratio (y) = 0.33159 0.24248
# Poissons Ratio (z) = 0.27607 0.51363
#
# Static dielectric constant tensor:
#      x y z
#    x 3.206980 0.000000 0.000000 
#    y 0.000000 3.732350 0.000000 
#    z 0.000000 0.000000 3.199530 
# 
# 
# High freq. dielectric constant tensor:
#      x y z
#    x 1.681240 0.000000 0.000000 
#    y 0.000000 1.726120 0.000000 
#    z 0.000000 0.000000 1.683440 
# 
# From -- ./inp_files/1996.got.cif
#   From: 2010.03.12/outbox.cif.g09.slc.cpg/sg47_1_cif.got.tgz:1996.got - 2010.04.14 03:12:58.
