data_PCOD8199198
_publ_section_title
;
Structure prediction by ZEFSAII (Michael W. Deem and Ramdas Pophale) SiO2 
 PCOD8199198
Probable space group: P M M M
;
_chemical_formula_sum "Si O2"
_cell_formula_units_Z 44
_cell_length_a 9.185056
_cell_length_b 9.089635
_cell_length_c 28.751469
_cell_angle_alpha 90.000000
_cell_angle_beta 90.000000
_cell_angle_gamma 90.000000
_cell_volume 2400.425832
_symmetry_space_group_name_H-M "P M M M"
_symmetry_group_IT_number 47
_symmetry_cell_setting 'orthorhombic'
loop_
_space_group_symop_operation_xyz
x,y,z
-x,-y,z
x,-y,-z
-x,y,-z
-x,-y,-z
x,y,-z
-x,y,z
x,-y,z
loop_
_atom_site_type_symbol
_atom_site_label
_atom_site_fract_x
_atom_site_fract_y
_atom_site_fract_z
Si Si1 0.326959 0.169368 0.850459
Si Si2 0.669108 0.171855 0.416885
Si Si3 0.331434 0.330306 0.677398
Si Si4 0.828224 0.329800 0.500000
Si Si5 0.336838 0.825384 0.950825
Si Si6 0.164726 0.674126 0.231722
O O1 0.500000 0.191223 0.847929
O O2 0.266588 0.224580 0.901523
O O3 0.250449 0.267245 0.812336
O O4 0.285438 0.000000 0.841646
O O5 0.500000 0.203389 0.427365
O O6 0.713686 0.232910 0.366594
O O7 0.764854 0.254258 0.454496
O O8 0.704382 0.000000 0.418797
O O9 0.500000 0.309623 0.690061
O O10 0.295417 0.500000 0.666032
O O11 0.239649 0.270185 0.720914
O O12 0.782955 0.500000 0.500000
O O13 0.000000 0.308617 0.500000
O O14 0.500000 0.762424 0.952671
O O15 0.343508 0.000000 0.948913
O O16 0.257784 0.775972 0.000000
O O17 0.171312 0.500000 0.229676
O O18 0.000000 0.733046 0.230819
#
# Coordination Sequence:
#
# PCOD8199198 Si02
#       6
#     8   8   8   4   8   8
#     4   9  17  29  48  74  99 124 159 204 251 299
#     4  10  21  37  58  84 111 137 167 207 255 303
#     4   9  18  34  55  76  99 131 171 211 250 295
#     4  11  24  39  56  80 110 145 182 215 246 286
#     4   7  10  19  38  65  94 120 149 192 246 297
#     4  10  21  35  50  70  99 135 171 206 246 295
#
# _framework density 18.330079999999999
#
# number of rings (size 3 to 8) (size 9 to 14) (size 15 to 20)
#    0.000    2.818    0.000    3.273    0.000    5.818 
#    0.000    3.636    0.000    1.091    0.000    6.364 
#    0.000    0.000    0.000    0.000    0.000    0.000 
#
# Total GULP energy -545240.182768 kJ/mol
# GULP energy per Si atom -12391.822336 kJ/mol
# Density = 1.828836 g / cm^3
# Si number density = 18.330080 Si / 1000 Ang^3
#
#
#
# Elastic Constant Matrix: (Units=GPa)
#
#
# Indices 1 2 3 4 5 6 
#
# 1 54.5279 30.1239 60.6374 0.0000 0.0000 0.0000
# 2 30.1239 54.9514 56.9677 0.0000 0.0000 0.0000
# 3 60.6374 56.9677 182.0431 0.0000 0.0000 0.0000
# 4 0.0000 0.0000 0.0000 32.5056 0.0000 0.0000
# 5 0.0000 0.0000 0.0000 0.0000 -7.1570 0.0000
# 6 0.0000 0.0000 0.0000 0.0000 0.0000 20.4530
#
#
#
# Elastic Compliance Matrix: (Units=1/GPa)
#
#
# Indices 1 2 3 4 5 6 
#
# 1 0.032277 -0.009693 -0.007718 0.000000 0.000000 0.000000
# 2 -0.009693 0.029847 -0.006112 0.000000 0.000000 0.000000
# 3 -0.007718 -0.006112 0.009977 0.000000 0.000000 0.000000
# 4 0.000000 0.000000 0.000000 0.030764 0.000000 0.000000
# 5 0.000000 0.000000 0.000000 0.000000 -0.139723 0.000000
# 6 0.000000 0.000000 0.000000 0.000000 0.000000 0.048893
#
#
# Mechanical properties :
#
#
# Convention : Reuss Voigt Hill
#
# Bulk Modulus (GPa) = 39.91081 65.22005 52.56543
# Shear Modulus (GPa) = 74.15028 18.74654 46.44841
#
# Velocity S-wave (km/s) = 6.36715 3.20147 5.03935
# Velocity P-wave (km/s) = 8.71061 7.02310 7.91198
#
# Compressibility (1/GPa) = 0.02505587
#
# Stress axis : x y z
#
# Youngs Moduli (GPa) = 30.98217 33.50389 100.23476
#
# Poissons Ratio (x) = 0.32474 0.77361
# Poissons Ratio (y) = 0.30030 0.61261
# Poissons Ratio (z) = 0.23912 0.20477
#
# Static dielectric constant tensor:
#      x y z
#    x 3.202730 0.000000 0.000000 
#    y 0.000000 3.166360 0.000000 
#    z 0.000000 0.000000 3.836100 
# 
# 
# High freq. dielectric constant tensor:
#      x y z
#    x 1.681330 0.000000 0.000000 
#    y 0.000000 1.686810 0.000000 
#    z 0.000000 0.000000 1.738390 
# 
# From -- ./inp_files/2309.got.cif
#   From: 2010.03.12/outbox.cif.g09.slc.cpg/sg47_2_cif.got.tgz:2309.got - 2010.04.14 03:12:58.
