data_PCOD8199603
_publ_section_title
;
Structure prediction by ZEFSAII (Michael W. Deem and Ramdas Pophale) SiO2 
 PCOD8199603
Probable space group: P M M M
;
_chemical_formula_sum "Si O2"
_cell_formula_units_Z 64
_cell_length_a 14.642772
_cell_length_b 24.207370
_cell_length_c 9.181881
_cell_angle_alpha 90.000000
_cell_angle_beta 90.000000
_cell_angle_gamma 90.000000
_cell_volume 3254.637082
_symmetry_space_group_name_H-M "P M M M"
_symmetry_group_IT_number 47
_symmetry_cell_setting 'orthorhombic'
loop_
_space_group_symop_operation_xyz
x,y,z
-x,-y,z
x,-y,-z
-x,y,-z
-x,-y,-z
x,y,-z
-x,y,z
x,-y,z
loop_
_atom_site_type_symbol
_atom_site_label
_atom_site_fract_x
_atom_site_fract_y
_atom_site_fract_z
Si Si1 0.244803 0.937092 0.330507
Si Si2 0.891588 0.758371 0.339297
Si Si3 0.395616 0.149881 0.669106
Si Si4 0.894247 0.364574 0.670583
Si Si5 0.893103 0.136048 0.168615
Si Si6 0.748382 0.435258 0.168563
Si Si7 0.393081 0.365727 0.669742
Si Si8 0.608524 0.742746 0.164260
O O1 0.221729 0.932100 0.500000
O O2 0.336176 0.903533 0.290402
O O3 0.157681 0.914562 0.244439
O O4 0.262356 0.000000 0.283466
O O5 0.852694 0.772185 0.500000
O O6 0.859866 0.697425 0.289112
O O7 0.856080 0.805409 0.229993
O O8 0.000000 0.757608 0.345695
O O9 0.388317 0.165578 0.500000
O O10 0.500000 0.136330 0.712173
O O11 0.355736 0.201496 0.759643
O O12 0.877341 0.375821 0.500000
O O13 0.838527 0.407134 0.767457
O O14 0.000000 0.372532 0.710227
O O15 0.000000 0.128705 0.200467
O O16 0.870074 0.135046 0.000000
O O17 0.760013 0.500000 0.190063
O O18 0.658630 0.416644 0.256291
O O19 0.736870 0.419126 0.000000
O O20 0.368761 0.362703 0.500000
O O21 0.500000 0.374933 0.696060
O O22 0.356620 0.309567 0.743900
O O23 0.500000 0.743229 0.165428
O O24 0.646799 0.739380 0.000000
#
# Coordination Sequence:
#
# PCOD8199603 Si02
#       8
#     8   8   8   8   8   8   8   8
#     4  10  22  38  55  77 104 139 185 228 267 316
#     4   8  15  31  56  84 111 138 172 216 267 323
#     4   9  18  34  56  81 110 142 176 219 269 319
#     4   9  19  37  61  87 114 146 184 228 277 325
#     4  10  21  36  55  80 109 141 176 217 268 322
#     4  11  25  41  56  79 112 150 191 231 273 326
#     4  10  21  38  61  86 111 142 182 229 279 329
#     4   9  17  31  54  84 115 144 176 216 266 327
#
# _framework density 19.664252000000001
#
# number of rings (size 3 to 8) (size 9 to 14) (size 15 to 20)
#    0.000    2.500    0.000    2.250    0.000    7.500 
#    0.000    7.500    0.000    0.000    0.000    2.625 
#    0.000    0.000    0.000    0.000    0.000    0.000 
#
# Total GULP energy -793696.667574 kJ/mol
# GULP energy per Si atom -12401.510431 kJ/mol
# Density = 1.961950 g / cm^3
# Si number density = 19.664252 Si / 1000 Ang^3
#
#
#
# Elastic Constant Matrix: (Units=GPa)
#
#
# Indices 1 2 3 4 5 6 
#
# 1 67.4478 36.2748 38.8696 0.0000 0.0000 0.0000
# 2 36.2748 99.6047 43.1370 0.0000 0.0000 0.0000
# 3 38.8696 43.1370 88.9013 0.0000 0.0000 0.0000
# 4 0.0000 0.0000 0.0000 22.3082 0.0000 0.0000
# 5 0.0000 0.0000 0.0000 0.0000 25.6752 0.0000
# 6 0.0000 0.0000 0.0000 0.0000 0.0000 30.0864
#
#
#
# Elastic Compliance Matrix: (Units=1/GPa)
#
#
# Indices 1 2 3 4 5 6 
#
# 1 0.021460 -0.004750 -0.007078 0.000000 0.000000 0.000000
# 2 -0.004750 0.013762 -0.004601 0.000000 0.000000 0.000000
# 3 -0.007078 -0.004601 0.016575 0.000000 0.000000 0.000000
# 4 0.000000 0.000000 0.000000 0.044827 0.000000 0.000000
# 5 0.000000 0.000000 0.000000 0.000000 0.038948 0.000000
# 6 0.000000 0.000000 0.000000 0.000000 0.000000 0.033238
#
#
# Mechanical properties :
#
#
# Convention : Reuss Voigt Hill
#
# Bulk Modulus (GPa) = 52.79878 54.72406 53.76142
# Shear Modulus (GPa) = 24.04067 24.79212 24.41640
#
# Velocity S-wave (km/s) = 3.50030 3.55459 3.52755
# Velocity P-wave (km/s) = 6.57606 6.68853 6.63253
#
# Compressibility (1/GPa) = 0.01893983
#
# Stress axis : x y z
#
# Youngs Moduli (GPa) = 46.59844 72.66289 60.33008
#
# Poissons Ratio (x) = 0.34516 0.42701
# Poissons Ratio (y) = 0.22135 0.27757
# Poissons Ratio (z) = 0.32982 0.33431
#
# Static dielectric constant tensor:
#      x y z
#    x 3.454600 0.000000 0.000000 
#    y 0.000000 3.637720 0.000000 
#    z 0.000000 0.000000 3.653700 
# 
# 
# High freq. dielectric constant tensor:
#      x y z
#    x 1.762850 0.000000 0.000000 
#    y 0.000000 1.764330 0.000000 
#    z 0.000000 0.000000 1.766190 
# 
# From -- ./inp_files/7885.got.cif
#   From: 2010.03.12/outbox.cif.g09.slc.cpg/sg47_4_cif.got.tgz:7885.got - 2010.04.14 03:12:58.
