data_PCOD8199484
_publ_section_title
;
Structure prediction by ZEFSAII (Michael W. Deem and Ramdas Pophale) SiO2 
 PCOD8199484
Probable space group: P M M M
;
_chemical_formula_sum "Si O2"
_cell_formula_units_Z 48
_cell_length_a 9.849878
_cell_length_b 9.080925
_cell_length_c 28.830592
_cell_angle_alpha 90.000000
_cell_angle_beta 90.000000
_cell_angle_gamma 90.000000
_cell_volume 2578.781229
_symmetry_space_group_name_H-M "P M M M"
_symmetry_group_IT_number 47
_symmetry_cell_setting 'orthorhombic'
loop_
_space_group_symop_operation_xyz
x,y,z
-x,-y,z
x,-y,-z
-x,y,-z
-x,-y,-z
x,y,-z
-x,y,z
x,-y,z
loop_
_atom_site_type_symbol
_atom_site_label
_atom_site_fract_x
_atom_site_fract_y
_atom_site_fract_z
Si Si1 0.656337 0.325225 0.124714
Si Si2 0.750524 0.173447 0.599497
Si Si3 0.845519 0.673989 0.791955
Si Si4 0.846844 0.170250 0.054246
Si Si5 0.000000 0.332581 0.554926
Si Si6 0.844561 0.831444 0.300184
Si Si7 0.500000 0.674428 0.553490
O O1 0.500000 0.268871 0.127262
O O2 0.659279 0.500000 0.122020
O O3 0.741443 0.267508 0.169109
O O4 0.731370 0.264089 0.079466
O O5 0.874249 0.241483 0.572467
O O6 0.756731 0.204859 0.654492
O O7 0.624757 0.258103 0.579764
O O8 0.743035 0.000000 0.589506
O O9 0.842523 0.500000 0.789701
O O10 0.793106 0.734019 0.742693
O O11 0.000000 0.729595 0.802334
O O12 0.000000 0.220682 0.068454
O O13 0.827240 0.000000 0.067173
O O14 0.825577 0.196179 0.000000
O O15 0.000000 0.500000 0.574461
O O16 0.000000 0.337114 0.500000
O O17 0.000000 0.794597 0.312722
O O18 0.828113 0.000000 0.285153
O O19 0.500000 0.500000 0.558229
O O20 0.500000 0.722984 0.500000
#
# Coordination Sequence:
#
# PCOD8199484 Si02
#       7
#     8   8   8   8   4   8   4
#     4  10  21  36  53  78 115 151 185 228 276 329
#     4  11  22  39  61  85 114 149 189 232 281 340
#     4   9  18  33  54  78 104 141 186 227 271 325
#     4   9  19  36  57  81 109 143 187 236 282 331
#     4  11  23  37  57  87 119 149 185 233 282 331
#     4   9  18  35  57  83 112 139 176 228 279 327
#     4  11  25  43  59  81 115 151 189 233 282 337
#
# _framework density 18.613444000000001
#
# number of rings (size 3 to 8) (size 9 to 14) (size 15 to 20)
#    0.000    2.167    0.833    2.500    0.000    7.333 
#    1.500    4.167    0.000    0.000    0.000    0.000 
#    0.000    0.000    0.000    0.000    0.000    0.000 
#
# Total GULP energy -595155.110680 kJ/mol
# GULP energy per Si atom -12399.064806 kJ/mol
# Density = 1.857108 g / cm^3
# Si number density = 18.613444 Si / 1000 Ang^3
#
#
#
# Elastic Constant Matrix: (Units=GPa)
#
#
# Indices 1 2 3 4 5 6 
#
# 1 142.6312 34.4731 68.0114 0.0000 0.0000 0.0000
# 2 34.4731 35.7639 37.2563 0.0000 0.0000 0.0000
# 3 68.0114 37.2563 108.5584 0.0000 0.0000 0.0000
# 4 0.0000 0.0000 0.0000 27.1328 0.0000 0.0000
# 5 0.0000 0.0000 0.0000 0.0000 28.3879 0.0000
# 6 0.0000 0.0000 0.0000 0.0000 0.0000 32.1987
#
#
#
# Elastic Compliance Matrix: (Units=1/GPa)
#
#
# Indices 1 2 3 4 5 6 
#
# 1 0.010568 -0.005120 -0.004863 0.000000 0.000000 0.000000
# 2 -0.005120 0.046001 -0.012579 0.000000 0.000000 0.000000
# 3 -0.004863 -0.012579 0.016576 0.000000 0.000000 0.000000
# 4 0.000000 0.000000 0.000000 0.036856 0.000000 0.000000
# 5 0.000000 0.000000 0.000000 0.000000 0.035226 0.000000
# 6 0.000000 0.000000 0.000000 0.000000 0.000000 0.031057
#
#
# Mechanical properties :
#
#
# Convention : Reuss Voigt Hill
#
# Bulk Modulus (GPa) = 35.69080 62.93726 49.31403
# Shear Modulus (GPa) = 21.66866 27.35806 24.51336
#
# Velocity S-wave (km/s) = 3.41565 3.83796 3.63295
# Velocity P-wave (km/s) = 5.89677 7.31615 6.64447
#
# Compressibility (1/GPa) = 0.02801842
#
# Stress axis : x y z
#
# Youngs Moduli (GPa) = 94.62904 21.73889 60.32904
#
# Poissons Ratio (x) = 0.11130 0.29341
# Poissons Ratio (y) = 0.48448 0.75891
# Poissons Ratio (z) = 0.46023 0.27346
#
# Static dielectric constant tensor:
#      x y z
#    x 3.448120 0.000000 0.000000 
#    y 0.000000 3.435160 0.000000 
#    z 0.000000 0.000000 3.533660 
# 
# 
# High freq. dielectric constant tensor:
#      x y z
#    x 1.719680 0.000000 0.000000 
#    y 0.000000 1.721310 0.000000 
#    z 0.000000 0.000000 1.731360 
# 
# From -- ./inp_files/2758.got.cif
#   From: 2010.03.12/outbox.cif.g09.slc.cpg/sg47_2_cif.got.tgz:2758.got - 2010.04.14 03:12:58.
