data_PCOD8199788
_publ_section_title
;
Structure prediction by ZEFSAII (Michael W. Deem and Ramdas Pophale) SiO2 
 PCOD8199788
Probable space group: P M M M
;
_chemical_formula_sum "Si O2"
_cell_formula_units_Z 52
_cell_length_a 9.071340
_cell_length_b 14.294608
_cell_length_c 20.258604
_cell_angle_alpha 90.000000
_cell_angle_beta 90.000000
_cell_angle_gamma 90.000000
_cell_volume 2626.958490
_symmetry_space_group_name_H-M "P M M M"
_symmetry_group_IT_number 47
_symmetry_cell_setting 'orthorhombic'
loop_
_space_group_symop_operation_xyz
x,y,z
-x,-y,z
x,-y,-z
-x,y,-z
-x,-y,-z
x,y,-z
-x,y,z
x,-y,z
loop_
_atom_site_type_symbol
_atom_site_label
_atom_site_fract_x
_atom_site_fract_y
_atom_site_fract_z
Si Si1 0.829452 0.281557 0.926599
Si Si2 0.665263 0.889512 0.500000
Si Si3 0.674508 0.395512 0.572904
Si Si4 0.173410 0.108510 0.632826
Si Si5 0.675310 0.271687 0.693446
Si Si6 0.334291 0.898380 0.078465
Si Si7 0.828824 0.607243 0.801290
O O1 0.760642 0.187731 0.894280
O O2 0.798288 0.368213 0.878061
O O3 0.000000 0.260079 0.932630
O O4 0.765322 0.304765 0.000000
O O5 0.500000 0.844866 0.500000
O O6 0.752586 0.856865 0.564669
O O7 0.652806 0.000000 0.500000
O O8 0.721267 0.358164 0.500000
O O9 0.500000 0.400431 0.578136
O O10 0.739015 0.500000 0.583797
O O11 0.735556 0.327957 0.629557
O O12 0.246887 0.169855 0.691173
O O13 0.000000 0.126624 0.628489
O O14 0.207936 0.000000 0.647411
O O15 0.500000 0.259382 0.694460
O O16 0.725605 0.327071 0.757845
O O17 0.500000 0.885412 0.104638
O O18 0.273297 0.000000 0.102803
O O19 0.330494 0.896225 0.000000
O O20 0.783405 0.500000 0.789952
O O21 0.000000 0.624224 0.783496
#
# Coordination Sequence:
#
# PCOD8199788 Si02
#       7
#     8   4   8   8   8   8   8
#     4   9  18  33  55  83 110 139 183 234 280 332
#     4   9  17  31  53  81 112 147 190 237 281 327
#     4   8  15  29  49  75 106 136 170 217 270 318
#     4  10  21  37  56  80 114 154 193 235 286 341
#     4  11  22  35  57  84 110 144 188 234 281 337
#     4   8  14  26  46  74 109 145 175 207 257 320
#     4  10  22  40  59  79 109 148 185 227 285 348
#
# _framework density 19.794754999999999
#
# number of rings (size 3 to 8) (size 9 to 14) (size 15 to 20)
#    0.000    2.692    0.000    2.538    1.077    4.000 
#    0.000    3.846    0.000    0.923    0.000    6.462 
#    0.000    0.000    0.000    0.000    0.000    0.000 
#
# Total GULP energy -644585.827041 kJ/mol
# GULP energy per Si atom -12395.881289 kJ/mol
# Density = 1.974970 g / cm^3
# Si number density = 19.794755 Si / 1000 Ang^3
#
#
#
# Elastic Constant Matrix: (Units=GPa)
#
#
# Indices 1 2 3 4 5 6 
#
# 1 78.4542 49.3267 38.5196 0.0000 0.0000 0.0000
# 2 49.3267 103.6925 50.1281 0.0000 0.0000 0.0000
# 3 38.5196 50.1281 82.2449 0.0000 0.0000 0.0000
# 4 0.0000 0.0000 0.0000 32.7361 0.0000 0.0000
# 5 0.0000 0.0000 0.0000 0.0000 24.6667 0.0000
# 6 0.0000 0.0000 0.0000 0.0000 0.0000 25.4251
#
#
#
# Elastic Compliance Matrix: (Units=1/GPa)
#
#
# Indices 1 2 3 4 5 6 
#
# 1 0.019502 -0.006892 -0.004933 0.000000 0.000000 0.000000
# 2 -0.006892 0.016108 -0.006590 0.000000 0.000000 0.000000
# 3 -0.004933 -0.006590 0.018486 0.000000 0.000000 0.000000
# 4 0.000000 0.000000 0.000000 0.030547 0.000000 0.000000
# 5 0.000000 0.000000 0.000000 0.000000 0.040541 0.000000
# 6 0.000000 0.000000 0.000000 0.000000 0.000000 0.039331
#
#
# Mechanical properties :
#
#
# Convention : Reuss Voigt Hill
#
# Bulk Modulus (GPa) = 57.91892 60.03780 58.97836
# Shear Modulus (GPa) = 24.14293 24.99339 24.56816
#
# Velocity S-wave (km/s) = 3.49616 3.55720 3.52681
# Velocity P-wave (km/s) = 6.75431 6.87514 6.81499
#
# Compressibility (1/GPa) = 0.01726551
#
# Stress axis : x y z
#
# Youngs Moduli (GPa) = 51.27784 62.07950 54.09599
#
# Poissons Ratio (x) = 0.42787 0.26684
# Poissons Ratio (y) = 0.35342 0.35649
# Poissons Ratio (z) = 0.25294 0.40910
#
# Static dielectric constant tensor:
#      x y z
#    x 3.429040 0.000000 0.000000 
#    y 0.000000 3.875330 0.000000 
#    z 0.000000 0.000000 3.531390 
# 
# 
# High freq. dielectric constant tensor:
#      x y z
#    x 1.751240 0.000000 0.000000 
#    y 0.000000 1.779800 0.000000 
#    z 0.000000 0.000000 1.751800 
# 
# From -- ./inp_files/29605.got.cif
#   From: 2010.03.12/outbox.cif.g09.slc.cpg/sg47_15_cif.got.tgz:29605.got - 2010.04.14 03:12:58.
