data_PCOD8199004
_publ_section_title
;
Structure prediction by ZEFSAII (Michael W. Deem and Ramdas Pophale) SiO2 
 PCOD8199004
Probable space group: P M M M
;
_chemical_formula_sum "Si O2"
_cell_formula_units_Z 32
_cell_length_a 22.283749
_cell_length_b 9.184385
_cell_length_c 7.870315
_cell_angle_alpha 90.000000
_cell_angle_beta 90.000000
_cell_angle_gamma 90.000000
_cell_volume 1610.758580
_symmetry_space_group_name_H-M "P M M M"
_symmetry_group_IT_number 47
_symmetry_cell_setting 'orthorhombic'
loop_
_space_group_symop_operation_xyz
x,y,z
-x,-y,z
x,-y,-z
-x,y,-z
-x,-y,-z
x,y,-z
-x,y,z
x,-y,z
loop_
_atom_site_type_symbol
_atom_site_label
_atom_site_fract_x
_atom_site_fract_y
_atom_site_fract_z
Si Si1 0.259555 0.171521 0.691492
Si Si2 0.132806 0.171075 0.808787
Si Si3 0.386495 0.837366 0.199814
Si Si4 0.929191 0.667683 0.500000
Si Si5 0.500000 0.663127 0.203038
O O1 0.246690 0.220866 0.500000
O O2 0.202349 0.223209 0.800788
O O3 0.322675 0.238903 0.754728
O O4 0.266380 0.000000 0.710318
O O5 0.094125 0.257276 0.671606
O O6 0.127977 0.000000 0.765421
O O7 0.109180 0.203288 0.000000
O O8 0.440720 0.742341 0.275801
O O9 0.390926 0.000000 0.278288
O O10 0.392926 0.846380 0.000000
O O11 0.908648 0.500000 0.500000
O O12 0.000000 0.683252 0.500000
O O13 0.500000 0.500000 0.274294
O O14 0.500000 0.664492 0.000000
#
# Coordination Sequence:
#
# PCOD8199004 Si02
#       5
#     8   8   8   4   4
#     4   9  16  29  52  81 110 138 173 226 287 340
#     4  10  20  37  64  94 121 152 194 245 297 346
#     4   9  16  27  46  71  96 127 171 219 270 333
#     4  11  25  43  61  85 123 166 201 236 281 339
#     4   9  17  29  44  63  92 130 172 221 274 325
#
# _framework density 19.866416000000001
#
# number of rings (size 3 to 8) (size 9 to 14) (size 15 to 20)
#    0.000    2.500    1.250    1.500    0.000    6.500 
#    0.000    4.375    0.000    6.750    0.000    0.000 
#    0.000    0.000    0.000    0.000    0.000    0.000 
#
# Total GULP energy -396642.008519 kJ/mol
# GULP energy per Si atom -12395.062766 kJ/mol
# Density = 1.982120 g / cm^3
# Si number density = 19.866416 Si / 1000 Ang^3
#
#
#
# Elastic Constant Matrix: (Units=GPa)
#
#
# Indices 1 2 3 4 5 6 
#
# 1 126.9246 59.0425 48.8281 0.0000 0.0000 0.0000
# 2 59.0425 84.2966 39.3335 0.0000 0.0000 0.0000
# 3 48.8281 39.3335 88.5578 0.0000 0.0000 0.0000
# 4 0.0000 0.0000 0.0000 11.7824 0.0000 0.0000
# 5 0.0000 0.0000 0.0000 0.0000 30.3345 0.0000
# 6 0.0000 0.0000 0.0000 0.0000 0.0000 4.7698
#
#
#
# Elastic Compliance Matrix: (Units=1/GPa)
#
#
# Indices 1 2 3 4 5 6 
#
# 1 0.012639 -0.007065 -0.003831 0.000000 0.000000 0.000000
# 2 -0.007065 0.018913 -0.004505 0.000000 0.000000 0.000000
# 3 -0.003831 -0.004505 0.015405 0.000000 0.000000 0.000000
# 4 0.000000 0.000000 0.000000 0.084872 0.000000 0.000000
# 5 0.000000 0.000000 0.000000 0.000000 0.032966 0.000000
# 6 0.000000 0.000000 0.000000 0.000000 0.000000 0.209654
#
#
# Mechanical properties :
#
#
# Convention : Reuss Voigt Hill
#
# Bulk Modulus (GPa) = 61.89714 66.02078 63.95896
# Shear Modulus (GPa) = 12.17624 19.54899 15.86261
#
# Velocity S-wave (km/s) = 2.47838 3.14032 2.82878
# Velocity P-wave (km/s) = 6.27807 6.81566 6.55238
#
# Compressibility (1/GPa) = 0.01615584
#
# Stress axis : x y z
#
# Youngs Moduli (GPa) = 79.12114 52.87253 64.91324
#
# Poissons Ratio (x) = 0.37354 0.24866
# Poissons Ratio (y) = 0.55899 0.29244
# Poissons Ratio (z) = 0.30309 0.23820
#
# Static dielectric constant tensor:
#      x y z
#    x 3.845470 0.000000 0.000000 
#    y 0.000000 3.433420 0.000000 
#    z 0.000000 0.000000 3.461140 
# 
# 
# High freq. dielectric constant tensor:
#      x y z
#    x 1.787600 0.000000 0.000000 
#    y 0.000000 1.730560 0.000000 
#    z 0.000000 0.000000 1.767080 
# 
# From -- ./inp_files/12016.got.cif
#   From: 2010.03.12/outbox.cif.g09.slc.cpg/sg47_7_cif.got.tgz:12016.got - 2010.04.14 03:12:58.
