data_PCOD8199573
_publ_section_title
;
Structure prediction by ZEFSAII (Michael W. Deem and Ramdas Pophale) SiO2 
 PCOD8199573
Probable space group: P M M M
;
_chemical_formula_sum "Si O2"
_cell_formula_units_Z 48
_cell_length_a 9.246414
_cell_length_b 10.169757
_cell_length_c 27.331874
_cell_angle_alpha 90.000000
_cell_angle_beta 90.000000
_cell_angle_gamma 90.000000
_cell_volume 2570.119522
_symmetry_space_group_name_H-M "P M M M"
_symmetry_group_IT_number 47
_symmetry_cell_setting 'orthorhombic'
loop_
_space_group_symop_operation_xyz
x,y,z
-x,-y,z
x,-y,-z
-x,y,-z
-x,-y,-z
x,y,-z
-x,y,z
x,-y,z
loop_
_atom_site_type_symbol
_atom_site_label
_atom_site_fract_x
_atom_site_fract_y
_atom_site_fract_z
Si Si1 0.660511 0.500000 0.442413
Si Si2 0.664377 0.144603 0.359024
Si Si3 0.668752 0.649676 0.279132
Si Si4 0.170035 0.756945 0.556216
Si Si5 0.168568 0.649593 0.819827
Si Si6 0.830786 0.848106 0.904402
Si Si7 0.337764 0.844254 0.000000
O O1 0.500000 0.500000 0.417912
O O2 0.643382 0.500000 0.500000
O O3 0.750960 0.625176 0.425701
O O4 0.500000 0.179950 0.374450
O O5 0.725534 0.251962 0.321042
O O6 0.764484 0.134827 0.407542
O O7 0.670580 0.000000 0.334540
O O8 0.500000 0.671352 0.269685
O O9 0.702845 0.500000 0.295419
O O10 0.748939 0.686496 0.229439
O O11 0.206037 0.793549 0.500000
O O12 0.000000 0.740502 0.563394
O O13 0.205000 0.500000 0.836577
O O14 0.219626 0.753406 0.860589
O O15 0.000000 0.665429 0.809015
O O16 0.746125 0.796152 0.951890
O O17 0.000000 0.832800 0.915375
O O18 0.792823 0.000000 0.891550
O O19 0.500000 0.785735 0.000000
O O20 0.341619 0.000000 0.000000
#
# Coordination Sequence:
#
# PCOD8199573 Si02
#       7
#     4   8   8   8   8   8   4
#     4   9  17  31  53  79 105 135 171 209 249 296
#     4  10  22  38  55  78 107 139 177 219 263 315
#     4   9  19  36  56  76 100 133 171 213 262 314
#     4  10  21  36  54  79 110 140 173 215 263 313
#     4   9  18  33  52  75 102 131 166 209 257 310
#     4   9  17  30  49  72  99 134 173 210 250 299
#     4   9  17  29  46  71 102 134 172 215 254 294
#
# _framework density 18.676175000000001
#
# number of rings (size 3 to 8) (size 9 to 14) (size 15 to 20)
#    0.000    2.667    0.000    1.000    1.167    5.667 
#    0.000    2.083    0.000    2.500    0.000    0.000 
#    0.000    0.000    0.000    0.000    0.000    0.000 
#
# Total GULP energy -595127.504877 kJ/mol
# GULP energy per Si atom -12398.489685 kJ/mol
# Density = 1.863367 g / cm^3
# Si number density = 18.676175 Si / 1000 Ang^3
#
#
#
# Elastic Constant Matrix: (Units=GPa)
#
#
# Indices 1 2 3 4 5 6 
#
# 1 75.7195 39.4846 61.2150 0.0000 0.0000 0.0000
# 2 39.4846 98.7335 74.7879 0.0000 0.0000 0.0000
# 3 61.2150 74.7879 138.0162 0.0000 0.0000 0.0000
# 4 0.0000 0.0000 0.0000 33.2440 0.0000 0.0000
# 5 0.0000 0.0000 0.0000 0.0000 34.5416 0.0000
# 6 0.0000 0.0000 0.0000 0.0000 0.0000 18.8943
#
#
#
# Elastic Compliance Matrix: (Units=1/GPa)
#
#
# Indices 1 2 3 4 5 6 
#
# 1 0.020884 -0.002265 -0.008035 0.000000 0.000000 0.000000
# 2 -0.002265 0.017426 -0.008438 0.000000 0.000000 0.000000
# 3 -0.008035 -0.008438 0.015382 0.000000 0.000000 0.000000
# 4 0.000000 0.000000 0.000000 0.030081 0.000000 0.000000
# 5 0.000000 0.000000 0.000000 0.000000 0.028951 0.000000
# 6 0.000000 0.000000 0.000000 0.000000 0.000000 0.052926
#
#
# Mechanical properties :
#
#
# Convention : Reuss Voigt Hill
#
# Bulk Modulus (GPa) = 61.67287 73.71603 67.69445
# Shear Modulus (GPa) = 23.97736 26.46810 25.22273
#
# Velocity S-wave (km/s) = 3.58697 3.76867 3.67894
# Velocity P-wave (km/s) = 7.08866 7.64810 7.37369
#
# Compressibility (1/GPa) = 0.01621458
#
# Stress axis : x y z
#
# Youngs Moduli (GPa) = 47.88371 57.38685 65.01212
#
# Poissons Ratio (x) = 0.12999 0.52239
# Poissons Ratio (y) = 0.10847 0.54856
# Poissons Ratio (z) = 0.38476 0.48422
#
# Static dielectric constant tensor:
#      x y z
#    x 3.428330 0.000000 0.000000 
#    y 0.000000 3.446730 0.000000 
#    z 0.000000 0.000000 3.358750 
# 
# 
# High freq. dielectric constant tensor:
#      x y z
#    x 1.722940 0.000000 0.000000 
#    y 0.000000 1.718640 0.000000 
#    z 0.000000 0.000000 1.716740 
# 
# From -- ./inp_files/34061.got.cif
#   From: 2010.03.12/outbox.cif.g09.slc.cpg/sg47_18_cif.got.tgz:34061.got - 2010.04.14 03:12:58.
