data_PCOD8199477
_publ_section_title
;
Structure prediction by ZEFSAII (Michael W. Deem and Ramdas Pophale) SiO2 
 PCOD8199477
Probable space group: P M M M
;
_chemical_formula_sum "Si O2"
_cell_formula_units_Z 44
_cell_length_a 29.884137
_cell_length_b 9.240570
_cell_length_c 7.921660
_cell_angle_alpha 90.000000
_cell_angle_beta 90.000000
_cell_angle_gamma 90.000000
_cell_volume 2187.538365
_symmetry_space_group_name_H-M "P M M M"
_symmetry_group_IT_number 47
_symmetry_cell_setting 'orthorhombic'
loop_
_space_group_symop_operation_xyz
x,y,z
-x,-y,z
x,-y,-z
-x,y,-z
-x,-y,-z
x,y,-z
-x,y,z
x,-y,z
loop_
_atom_site_type_symbol
_atom_site_label
_atom_site_fract_x
_atom_site_fract_y
_atom_site_fract_z
Si Si1 0.050380 0.336267 0.801481
Si Si2 0.702103 0.164900 0.803259
Si Si3 0.213864 0.659464 0.694793
Si Si4 0.867107 0.840902 0.694881
Si Si5 0.549782 0.671181 0.500000
Si Si6 0.611589 0.330719 0.193177
O O1 0.059844 0.500000 0.741476
O O2 0.084362 0.229953 0.710586
O O3 0.000000 0.291027 0.750529
O O4 0.057017 0.323720 0.000000
O O5 0.741068 0.249377 0.709428
O O6 0.655603 0.241702 0.760466
O O7 0.700117 0.000000 0.737601
O O8 0.712437 0.170825 0.000000
O O9 0.202935 0.637408 0.500000
O O10 0.219007 0.500000 0.779774
O O11 0.171934 0.743571 0.780983
O O12 0.855439 0.859208 0.500000
O O13 0.867352 0.000000 0.780871
O O14 0.546612 0.500000 0.500000
O O15 0.500000 0.739370 0.500000
O O16 0.574317 0.721424 0.672500
O O17 0.622487 0.500000 0.215191
O O18 0.595647 0.298569 0.000000
#
# Coordination Sequence:
#
# PCOD8199477 Si02
#       6
#     8   8   8   8   4   8
#     4   9  19  36  56  77 101 132 173 218 263 314
#     4  10  21  36  54  78 108 141 178 220 268 322
#     4  10  21  36  55  78 104 137 176 217 262 314
#     4  10  21  36  53  76 107 139 173 214 262 318
#     4   9  18  32  53  83 113 143 187 237 282 333
#     4   9  18  33  53  78 110 146 185 232 281 330
#
# _framework density 20.113935000000001
#
# number of rings (size 3 to 8) (size 9 to 14) (size 15 to 20)
#    0.000    2.455    0.000    2.182    1.273    5.455 
#    0.000    4.545    0.000    1.091    0.000    2.545 
#    0.000    0.000    0.000    0.000    0.000    0.000 
#
# Total GULP energy -545502.647981 kJ/mol
# GULP energy per Si atom -12397.787454 kJ/mol
# Density = 2.006815 g / cm^3
# Si number density = 20.113935 Si / 1000 Ang^3
#
#
#
# Elastic Constant Matrix: (Units=GPa)
#
#
# Indices 1 2 3 4 5 6 
#
# 1 160.1212 83.5836 44.1867 0.0000 0.0000 0.0000
# 2 83.5836 139.6465 29.0311 0.0000 0.0000 0.0000
# 3 44.1867 29.0311 53.2105 0.0000 0.0000 0.0000
# 4 0.0000 0.0000 0.0000 18.3503 0.0000 0.0000
# 5 0.0000 0.0000 0.0000 0.0000 -71.8814 0.0000
# 6 0.0000 0.0000 0.0000 0.0000 0.0000 8.3300
#
#
#
# Elastic Compliance Matrix: (Units=1/GPa)
#
#
# Indices 1 2 3 4 5 6 
#
# 1 0.010542 -0.005064 -0.005991 0.000000 0.000000 0.000000
# 2 -0.005064 0.010510 -0.001529 0.000000 0.000000 0.000000
# 3 -0.005991 -0.001529 0.024603 0.000000 0.000000 0.000000
# 4 0.000000 0.000000 0.000000 0.054495 0.000000 0.000000
# 5 0.000000 0.000000 0.000000 0.000000 -0.013912 0.000000
# 6 0.000000 0.000000 0.000000 0.000000 0.000000 0.120048
#
#
# Mechanical properties :
#
#
# Convention : Reuss Voigt Hill
#
# Bulk Modulus (GPa) = 48.81353 74.06453 61.43903
# Shear Modulus (GPa) = 20.98345 4.03823 12.51084
#
# Velocity S-wave (km/s) = 3.23341 1.41846 2.49670
# Velocity P-wave (km/s) = 6.18556 6.29167 6.23884
#
# Compressibility (1/GPa) = 0.02048612
#
# Stress axis : x y z
#
# Youngs Moduli (GPa) = 94.85645 95.14806 40.64621
#
# Poissons Ratio (x) = 0.48187 0.24353
# Poissons Ratio (y) = 0.48039 0.06213
# Poissons Ratio (z) = 0.56832 0.14544
#
# Static dielectric constant tensor:
#      x y z
#    x 3.720290 0.000000 0.000000 
#    y 0.000000 3.876090 0.000000 
#    z 0.000000 0.000000 3.476240 
# 
# 
# High freq. dielectric constant tensor:
#      x y z
#    x 1.785480 0.000000 0.000000 
#    y 0.000000 1.782360 0.000000 
#    z 0.000000 0.000000 1.770930 
# 
# From -- ./inp_files/1976.got.cif
#   From: 2010.03.12/outbox.cif.g09.slc.cpg/sg47_1_cif.got.tgz:1976.got - 2010.04.14 03:12:58.
