data_PCOD8199595
_publ_section_title
;
Structure prediction by ZEFSAII (Michael W. Deem and Ramdas Pophale) SiO2 
 PCOD8199595
Probable space group: P M M M
;
_chemical_formula_sum "Si O2"
_cell_formula_units_Z 56
_cell_length_a 9.492105
_cell_length_b 22.424595
_cell_length_c 13.118223
_cell_angle_alpha 90.000000
_cell_angle_beta 90.000000
_cell_angle_gamma 90.000000
_cell_volume 2792.300481
_symmetry_space_group_name_H-M "P M M M"
_symmetry_group_IT_number 47
_symmetry_cell_setting 'orthorhombic'
loop_
_space_group_symop_operation_xyz
x,y,z
-x,-y,z
x,-y,-z
-x,y,-z
-x,-y,-z
x,y,-z
-x,y,z
x,-y,z
loop_
_atom_site_type_symbol
_atom_site_label
_atom_site_fract_x
_atom_site_fract_y
_atom_site_fract_z
Si Si1 0.000000 0.429523 0.619548
Si Si2 0.661018 0.838934 0.114186
Si Si3 0.662282 0.068167 0.282813
Si Si4 0.500000 0.429553 0.119451
Si Si5 0.343466 0.268174 0.616192
Si Si6 0.749514 0.627971 0.250185
Si Si7 0.155044 0.838196 0.618602
Si Si8 0.842435 0.268520 0.885560
O O1 0.140561 0.409787 0.681229
O O2 0.000000 0.500000 0.617692
O O3 0.000000 0.406222 0.500000
O O4 0.500000 0.819019 0.118035
O O5 0.687890 0.899635 0.175129
O O6 0.745834 0.783573 0.162544
O O7 0.712784 0.852389 0.000000
O O8 0.500000 0.072629 0.317712
O O9 0.759660 0.100678 0.365258
O O10 0.710512 0.000000 0.272061
O O11 0.500000 0.500000 0.117465
O O12 0.359324 0.410040 0.181258
O O13 0.500000 0.406271 0.000000
O O14 0.303732 0.282109 0.500000
O O15 0.500000 0.240828 0.625239
O O16 0.339383 0.330538 0.674476
O O17 0.237524 0.219075 0.663597
O O18 0.837664 0.670075 0.175503
O O19 0.138393 0.829004 0.500000
O O20 0.000000 0.841221 0.669962
O O21 0.000000 0.243735 0.884850
O O22 0.789622 0.282169 0.000000
#
# Coordination Sequence:
#
# PCOD8199595 Si02
#       8
#     4   8   8   4   8   8   8   8
#     4  11  26  46  67  95 131 171 219 268 314 378
#     4   9  19  35  56  83 116 151 191 243 301 357
#     4  10  21  36  55  79 110 152 201 246 296 359
#     4  11  26  46  67  95 131 171 219 268 312 374
#     4  10  21  37  59  89 121 153 195 249 311 378
#     4  12  22  41  66  93 125 169 210 260 320 373
#     4  10  22  38  57  83 116 152 193 246 306 363
#     4  10  21  36  56  86 120 153 195 247 307 375
#
# _framework density 20.055149
#
# number of rings (size 3 to 8) (size 9 to 14) (size 15 to 20)
#    0.000    1.714    1.429    2.571    2.000    4.571 
#    0.000    2.857    0.000    3.429    0.000    3.000 
#    0.000    0.000    0.000    0.000    0.000    0.000 
#
# Total GULP energy -694165.366358 kJ/mol
# GULP energy per Si atom -12395.810114 kJ/mol
# Density = 2.000950 g / cm^3
# Si number density = 20.055149 Si / 1000 Ang^3
#
#
#
# Elastic Constant Matrix: (Units=GPa)
#
#
# Indices 1 2 3 4 5 6 
#
# 1 115.8886 55.6909 51.1652 0.0000 0.0000 0.0000
# 2 55.6909 122.9141 40.2545 0.0000 0.0000 0.0000
# 3 51.1652 40.2545 98.4713 0.0000 0.0000 0.0000
# 4 0.0000 0.0000 0.0000 32.9306 0.0000 0.0000
# 5 0.0000 0.0000 0.0000 0.0000 31.0979 0.0000
# 6 0.0000 0.0000 0.0000 0.0000 0.0000 28.4317
#
#
#
# Elastic Compliance Matrix: (Units=1/GPa)
#
#
# Indices 1 2 3 4 5 6 
#
# 1 0.012830 -0.004191 -0.004953 0.000000 0.000000 0.000000
# 2 -0.004191 0.010762 -0.002222 0.000000 0.000000 0.000000
# 3 -0.004953 -0.002222 0.013637 0.000000 0.000000 0.000000
# 4 0.000000 0.000000 0.000000 0.030367 0.000000 0.000000
# 5 0.000000 0.000000 0.000000 0.000000 0.032157 0.000000
# 6 0.000000 0.000000 0.000000 0.000000 0.000000 0.035172
#
#
# Mechanical properties :
#
#
# Convention : Reuss Voigt Hill
#
# Bulk Modulus (GPa) = 68.97824 70.16614 69.57219
# Shear Modulus (GPa) = 30.77133 31.16959 30.97046
#
# Velocity S-wave (km/s) = 3.92131 3.94660 3.93398
# Velocity P-wave (km/s) = 7.41425 7.47196 7.44316
#
# Compressibility (1/GPa) = 0.01449732
#
# Stress axis : x y z
#
# Youngs Moduli (GPa) = 77.94412 92.91691 73.32896
#
# Poissons Ratio (x) = 0.38940 0.36320
# Poissons Ratio (y) = 0.32665 0.16294
# Poissons Ratio (z) = 0.38606 0.20646
#
# Static dielectric constant tensor:
#      x y z
#    x 3.781300 0.000000 0.000000 
#    y 0.000000 3.530270 0.000000 
#    z 0.000000 0.000000 3.823930 
# 
# 
# High freq. dielectric constant tensor:
#      x y z
#    x 1.787220 0.000000 0.000000 
#    y 0.000000 1.769560 0.000000 
#    z 0.000000 0.000000 1.801230 
# 
# From -- ./inp_files/21640.got.cif
#   From: 2010.03.12/outbox.cif.g09.slc.cpg/sg47_11_cif.got.tgz:21640.got - 2010.04.14 03:12:58.
