data_PCOD8199358
_publ_section_title
;
Structure prediction by ZEFSAII (Michael W. Deem and Ramdas Pophale) SiO2 
 PCOD8199358
Probable space group: P M M M
;
_chemical_formula_sum "Si O2"
_cell_formula_units_Z 48
_cell_length_a 29.689155
_cell_length_b 9.779792
_cell_length_c 8.333926
_cell_angle_alpha 90.000000
_cell_angle_beta 90.000000
_cell_angle_gamma 90.000000
_cell_volume 2419.786754
_symmetry_space_group_name_H-M "P M M M"
_symmetry_group_IT_number 47
_symmetry_cell_setting 'orthorhombic'
loop_
_space_group_symop_operation_xyz
x,y,z
-x,-y,z
x,-y,-z
-x,y,-z
-x,-y,-z
x,y,-z
-x,y,z
x,-y,z
loop_
_atom_site_type_symbol
_atom_site_label
_atom_site_fract_x
_atom_site_fract_y
_atom_site_fract_z
Si Si1 0.547642 0.662200 0.179214
Si Si2 0.052719 0.500000 0.679992
Si Si3 0.800599 0.343719 0.313999
Si Si4 0.104822 0.740127 0.813666
Si Si5 0.355534 0.345049 0.192482
Si Si6 0.050913 0.000000 0.809229
Si Si7 0.723621 0.154438 0.811707
O O1 0.500000 0.707615 0.266306
O O2 0.549234 0.500000 0.169802
O O3 0.595269 0.706208 0.260426
O O4 0.546119 0.723036 0.000000
O O5 0.074223 0.500000 0.500000
O O6 0.067663 0.626678 0.785607
O O7 0.000000 0.500000 0.664369
O O8 0.788396 0.338303 0.500000
O O9 0.795122 0.500000 0.249134
O O10 0.851115 0.292490 0.288689
O O11 0.768712 0.238840 0.221273
O O12 0.080344 0.874072 0.747002
O O13 0.118274 0.751310 0.000000
O O14 0.344332 0.500000 0.251661
O O15 0.318419 0.239959 0.261400
O O16 0.356674 0.344289 0.000000
O O17 0.000000 0.000000 0.736466
O O18 0.047025 0.000000 0.000000
O O19 0.725754 0.000000 0.737863
O O20 0.717310 0.141670 0.000000
#
# Coordination Sequence:
#
# PCOD8199358 Si02
#       7
#     8   4   8   8   8   4   8
#     4   7   9  14  28  54  88 125 166 211 259 309
#     4  11  23  39  59  87 123 155 185 223 264 309
#     4  11  24  41  59  80 108 138 173 222 279 331
#     4  11  22  38  63  89 113 146 185 224 267 316
#     4   8  13  23  41  65  94 131 174 220 265 310
#     4   9  20  38  59  87 119 145 177 221 260 301
#     4  10  21  35  53  77 105 138 179 223 266 319
#
# _framework density 19.836459999999999
#
# number of rings (size 3 to 8) (size 9 to 14) (size 15 to 20)
#    0.000    2.500    0.833    3.750    1.167    3.333 
#    0.000    1.250    0.000    3.500    0.000    3.500 
#    0.000    0.667    0.000    7.667    0.000    8.833 
#
# Total GULP energy -594647.441824 kJ/mol
# GULP energy per Si atom -12388.488371 kJ/mol
# Density = 1.979131 g / cm^3
# Si number density = 19.836460 Si / 1000 Ang^3
#
#
#
# Elastic Constant Matrix: (Units=GPa)
#
#
# Indices 1 2 3 4 5 6 
#
# 1 146.2930 75.8999 3.6273 0.0000 0.0000 0.0000
# 2 75.8999 153.7331 7.1270 0.0000 0.0000 0.0000
# 3 3.6273 7.1270 16.5811 0.0000 0.0000 0.0000
# 4 0.0000 0.0000 0.0000 10.7445 0.0000 0.0000
# 5 0.0000 0.0000 0.0000 0.0000 -0.0897 0.0000
# 6 0.0000 0.0000 0.0000 0.0000 0.0000 25.4618
#
#
#
# Elastic Compliance Matrix: (Units=1/GPa)
#
#
# Indices 1 2 3 4 5 6 
#
# 1 0.009190 -0.004534 -0.000061 0.000000 0.000000 0.000000
# 2 -0.004534 0.008874 -0.002822 0.000000 0.000000 0.000000
# 3 -0.000061 -0.002822 0.061536 0.000000 0.000000 0.000000
# 4 0.000000 0.000000 0.000000 0.093071 0.000000 0.000000
# 5 0.000000 0.000000 0.000000 0.000000-11.152875 0.000000
# 6 0.000000 0.000000 0.000000 0.000000 0.000000 0.039275
#
#
# Mechanical properties :
#
#
# Convention : Reuss Voigt Hill
#
# Bulk Modulus (GPa) = 15.44074 54.43508 34.93791
# Shear Modulus (GPa) = -0.45853 22.55353 11.04750
#
# Velocity S-wave (km/s) = -0.48131 3.37556 2.36250
# Velocity P-wave (km/s) = 2.73716 6.53407 5.00930
#
# Compressibility (1/GPa) = 0.06476374
#
# Stress axis : x y z
#
# Youngs Moduli (GPa) = 108.81965 112.68646 16.25063
#
# Poissons Ratio (x) = 0.51093 0.00100
# Poissons Ratio (y) = 0.49340 0.04587
# Poissons Ratio (z) = 0.00668 0.31805
#
# Static dielectric constant tensor:
#      x y z
#    x 4.103050 0.000000 0.000000 
#    y 0.000000 3.707250 0.000000 
#    z 0.000000 0.000000 3.134010 
# 
# 
# High freq. dielectric constant tensor:
#      x y z
#    x 1.797830 0.000000 0.000000 
#    y 0.000000 1.756400 0.000000 
#    z 0.000000 0.000000 1.722330 
# 
# From -- ./inp_files/13986.got.cif
#   From: 2010.03.12/outbox.cif.g09.slc.cpg/sg47_7_cif.got.tgz:13986.got - 2010.04.14 03:12:58.
