data_PCOD8200818
_publ_section_title
;
Structure prediction by ZEFSAII (Michael W. Deem and Ramdas Pophale) SiO2 
 PCOD8200818
Probable space group: P M M M
;
_chemical_formula_sum "Si O2"
_cell_formula_units_Z 64
_cell_length_a 30.714574
_cell_length_b 9.303382
_cell_length_c 20.423226
_cell_angle_alpha 90.000000
_cell_angle_beta 90.000000
_cell_angle_gamma 90.000000
_cell_volume 5835.924880
_symmetry_space_group_name_H-M "P M M M"
_symmetry_group_IT_number 47
_symmetry_cell_setting 'orthorhombic'
loop_
_space_group_symop_operation_xyz
x,y,z
-x,-y,z
x,-y,-z
-x,y,-z
-x,-y,-z
x,y,-z
-x,y,z
x,-y,z
loop_
_atom_site_type_symbol
_atom_site_label
_atom_site_fract_x
_atom_site_fract_y
_atom_site_fract_z
Si Si1 0.787429 0.337015 0.921934
Si Si2 0.704560 0.162589 0.077893
Si Si3 0.129324 0.837948 0.921884
Si Si4 0.549638 0.333284 0.180419
Si Si5 0.379583 0.666344 0.924913
Si Si6 0.551879 0.838618 0.693746
Si Si7 0.048160 0.338589 0.922146
Si Si8 0.448225 0.338575 0.572268
O O1 0.787080 0.500000 0.894897
O O2 0.745513 0.251996 0.894433
O O3 0.830282 0.255779 0.895731
O O4 0.786929 0.338507 0.000000
O O5 0.660401 0.238975 0.101652
O O6 0.706181 0.000000 0.105291
O O7 0.706377 0.161940 0.000000
O O8 0.084699 0.768799 0.893986
O O9 0.133353 0.000000 0.894864
O O10 0.129107 0.838527 0.000000
O O11 0.500000 0.290054 0.163997
O O12 0.553051 0.500000 0.199029
O O13 0.577882 0.294665 0.116873
O O14 0.568125 0.245601 0.242175
O O15 0.366325 0.500000 0.917383
O O16 0.390769 0.703424 0.000000
O O17 0.500000 0.836043 0.691320
O O18 0.571281 0.764555 0.628326
O O19 0.570055 0.000000 0.696811
O O20 0.057672 0.500000 0.896765
O O21 0.000000 0.288261 0.898810
O O22 0.050058 0.338217 0.000000
O O23 0.433323 0.284729 0.500000
O O24 0.500000 0.338179 0.576016
O O25 0.431010 0.500000 0.584516
#
# Coordination Sequence:
#
# PCOD8200818 Si02
#       8
#     8   8   8   8   8   8   8   8
#     4   9  15  22  32  43  54  67  81  97 119 149
#     4   9  16  25  36  48  60  71  82  99 127 162
#     4   9  15  20  26  37  51  64  79  99 121 145
#     4   9  17  28  40  51  63  80  99 118 140 166
#     4   9  17  28  40  52  63  74  91 115 142 172
#     4   9  16  24  34  48  65  83 101 120 139 159
#     4   8  13  20  27  33  43  61  83 103 121 141
#     4   8  13  21  33  48  65  84 103 120 137 157
#
# _framework density 10.966556000000001
#
# number of rings (size 3 to 8) (size 9 to 14) (size 15 to 20)
#    0.000    3.250    0.000    2.250    0.000    7.250 
#    0.000    3.750    0.000    0.000    0.000    3.500 
#    0.000    0.000    0.000    0.000    0.000    0.000 
#
# Total GULP energy -793261.877439 kJ/mol
# GULP energy per Si atom -12394.716835 kJ/mol
# Density = 1.094160 g / cm^3
# Si number density = 10.966556 Si / 1000 Ang^3
#
#
#
# Elastic Constant Matrix: (Units=GPa)
#
#
# Indices 1 2 3 4 5 6 
#
# 1 68.5491 45.0825 22.8023 0.0000 0.0000 0.0000
# 2 45.0825 86.6273 27.7898 0.0000 0.0000 0.0000
# 3 22.8023 27.7898 38.5998 0.0000 0.0000 0.0000
# 4 0.0000 0.0000 0.0000 7.5109 0.0000 0.0000
# 5 0.0000 0.0000 0.0000 0.0000 0.2529 0.0000
# 6 0.0000 0.0000 0.0000 0.0000 0.0000 15.1319
#
#
#
# Elastic Compliance Matrix: (Units=1/GPa)
#
#
# Indices 1 2 3 4 5 6 
#
# 1 0.023395 -0.010067 -0.006573 0.000000 0.000000 0.000000
# 2 -0.010067 0.019342 -0.007979 0.000000 0.000000 0.000000
# 3 -0.006573 -0.007979 0.035534 0.000000 0.000000 0.000000
# 4 0.000000 0.000000 0.000000 0.133139 0.000000 0.000000
# 5 0.000000 0.000000 0.000000 0.000000 3.953446 0.000000
# 6 0.000000 0.000000 0.000000 0.000000 0.000000 0.066086
#
#
# Mechanical properties :
#
#
# Convention : Reuss Voigt Hill
#
# Bulk Modulus (GPa) = 34.44135 42.79170 38.61652
# Shear Modulus (GPa) = 1.16554 11.11927 6.14240
#
# Velocity S-wave (km/s) = 1.03205 3.18767 2.36922
# Velocity P-wave (km/s) = 5.73534 7.25625 6.54016
#
# Compressibility (1/GPa) = 0.02903487
#
# Stress axis : x y z
#
# Youngs Moduli (GPa) = 42.74423 51.70079 28.14222
#
# Poissons Ratio (x) = 0.52045 0.18497
# Poissons Ratio (y) = 0.43029 0.22453
# Poissons Ratio (z) = 0.28095 0.41250
#
# Static dielectric constant tensor:
#      x y z
#    x 2.305540 0.000000 0.000000 
#    y 0.000000 2.544330 0.000000 
#    z 0.000000 0.000000 2.018750 
# 
# 
# High freq. dielectric constant tensor:
#      x y z
#    x 1.394070 0.000000 0.000000 
#    y 0.000000 1.428780 0.000000 
#    z 0.000000 0.000000 1.352560 
# 
# From -- ./inp_files/31599.got.cif
#   From: 2010.03.12/outbox.cif.g09.slc.cpg/sg47_16_cif.got.tgz:31599.got - 2010.04.14 03:12:58.
