data_PCOD8200678
_publ_section_title
;
Structure prediction by ZEFSAII (Michael W. Deem and Ramdas Pophale) SiO2 
 PCOD8200678
Probable space group: P M M M
;
_chemical_formula_sum "Si O2"
_cell_formula_units_Z 52
_cell_length_a 9.732784
_cell_length_b 9.858993
_cell_length_c 33.692959
_cell_angle_alpha 90.000000
_cell_angle_beta 90.000000
_cell_angle_gamma 90.000000
_cell_volume 3233.023020
_symmetry_space_group_name_H-M "P M M M"
_symmetry_group_IT_number 47
_symmetry_cell_setting 'orthorhombic'
loop_
_space_group_symop_operation_xyz
x,y,z
-x,-y,z
x,-y,-z
-x,y,-z
-x,-y,-z
x,y,-z
-x,y,z
x,-y,z
loop_
_atom_site_type_symbol
_atom_site_label
_atom_site_fract_x
_atom_site_fract_y
_atom_site_fract_z
Si Si1 0.336611 0.349058 0.741257
Si Si2 0.652820 0.338685 0.345933
Si Si3 0.836926 0.348165 0.956074
Si Si4 0.340493 0.843219 0.811271
Si Si5 0.154341 0.337274 0.585178
Si Si6 0.159544 0.156877 0.886472
Si Si7 0.836851 0.351491 0.500000
O O1 0.500000 0.354145 0.740347
O O2 0.279193 0.500000 0.750907
O O3 0.287181 0.299487 0.697592
O O4 0.284410 0.244282 0.774358
O O5 0.500000 0.278519 0.351953
O O6 0.647554 0.500000 0.348851
O O7 0.749233 0.277155 0.380291
O O8 0.787102 0.500000 0.944977
O O9 0.781818 0.242494 0.923556
O O10 0.000000 0.343057 0.956762
O O11 0.781326 0.308425 0.000000
O O12 0.500000 0.812174 0.820684
O O13 0.249685 0.800635 0.848803
O O14 0.318662 0.000000 0.800316
O O15 0.159292 0.500000 0.583893
O O16 0.204927 0.279312 0.541807
O O17 0.000000 0.287844 0.594346
O O18 0.000000 0.189364 0.877392
O O19 0.180284 0.000000 0.897269
O O20 0.767846 0.500000 0.500000
O O21 0.000000 0.367637 0.500000
#
# Coordination Sequence:
#
# PCOD8200678 Si02
#       7
#     8   8   8   8   8   8   4
#     4   8  14  25  40  56  74  98 127 156 188 228
#     4   8  13  21  32  45  62  85 113 145 180 216
#     4   8  14  25  41  61  84 108 133 161 192 225
#     4   9  17  29  44  60  78 102 132 162 190 225
#     4   8  12  18  28  41  59  85 116 147 177 211
#     4   9  17  28  42  61  83 104 127 158 195 230
#     4   7  10  16  25  37  55  83 116 143 170 210
#
# _framework density 16.084018
#
# number of rings (size 3 to 8) (size 9 to 14) (size 15 to 20)
#    0.000    3.769    0.000    2.308    0.000    0.923 
#    0.000    2.692    0.000    3.692    0.000    3.231 
#    0.000    0.000    0.000    0.692    0.000   16.769 
#
# Total GULP energy -644211.627092 kJ/mol
# GULP energy per Si atom -12388.685136 kJ/mol
# Density = 1.604741 g / cm^3
# Si number density = 16.084018 Si / 1000 Ang^3
#
#
#
# Elastic Constant Matrix: (Units=GPa)
#
#
# Indices 1 2 3 4 5 6 
#
# 1 44.4244 21.8683 55.8777 0.0000 0.0000 0.0000
# 2 21.8683 45.4284 65.2115 0.0000 0.0000 0.0000
# 3 55.8777 65.2115 184.5358 0.0000 0.0000 0.0000
# 4 0.0000 0.0000 0.0000 4.9356 0.0000 0.0000
# 5 0.0000 0.0000 0.0000 0.0000 21.6263 0.0000
# 6 0.0000 0.0000 0.0000 0.0000 0.0000 8.5534
#
#
#
# Elastic Compliance Matrix: (Units=1/GPa)
#
#
# Indices 1 2 3 4 5 6 
#
# 1 0.036626 -0.003472 -0.009863 0.000000 0.000000 0.000000
# 2 -0.003472 0.045004 -0.014852 0.000000 0.000000 0.000000
# 3 -0.009863 -0.014852 0.013654 0.000000 0.000000 0.000000
# 4 0.000000 0.000000 0.000000 0.202610 0.000000 0.000000
# 5 0.000000 0.000000 0.000000 0.000000 0.046240 0.000000
# 6 0.000000 0.000000 0.000000 0.000000 0.000000 0.116912
#
#
# Mechanical properties :
#
#
# Convention : Reuss Voigt Hill
#
# Bulk Modulus (GPa) = 25.70143 62.25596 43.97869
# Shear Modulus (GPa) = 9.42700 15.78513 12.60607
#
# Velocity S-wave (km/s) = 2.42360 3.13616 2.80261
# Velocity P-wave (km/s) = 4.88323 7.20449 6.15429
#
# Compressibility (1/GPa) = 0.03890834
#
# Stress axis : x y z
#
# Youngs Moduli (GPa) = 27.30328 22.22013 73.23806
#
# Poissons Ratio (x) = 0.07716 0.72236
# Poissons Ratio (y) = 0.09481 1.08775
# Poissons Ratio (z) = 0.26930 0.33002
#
# Static dielectric constant tensor:
#      x y z
#    x 2.804510 0.000000 0.000000 
#    y 0.000000 2.765710 0.000000 
#    z 0.000000 0.000000 3.540990 
# 
# 
# High freq. dielectric constant tensor:
#      x y z
#    x 1.577800 0.000000 0.000000 
#    y 0.000000 1.571570 0.000000 
#    z 0.000000 0.000000 1.636060 
# 
# From -- ./inp_files/34298.got.cif
#   From: 2010.03.12/outbox.cif.g09.slc.cpg/sg47_18_cif.got.tgz:34298.got - 2010.04.14 03:12:58.
