data_PCOD8200363
_publ_section_title
;
Structure prediction by ZEFSAII (Michael W. Deem and Ramdas Pophale) SiO2 
 PCOD8200363
Probable space group: P M M M
;
_chemical_formula_sum "Si O2"
_cell_formula_units_Z 56
_cell_length_a 8.789694
_cell_length_b 22.772690
_cell_length_c 14.381586
_cell_angle_alpha 90.000000
_cell_angle_beta 90.000000
_cell_angle_gamma 90.000000
_cell_volume 2878.689826
_symmetry_space_group_name_H-M "P M M M"
_symmetry_group_IT_number 47
_symmetry_cell_setting 'orthorhombic'
loop_
_space_group_symop_operation_xyz
x,y,z
-x,-y,z
x,-y,-z
-x,y,-z
-x,-y,-z
x,y,-z
-x,y,z
x,-y,z
loop_
_atom_site_type_symbol
_atom_site_label
_atom_site_fract_x
_atom_site_fract_y
_atom_site_fract_z
Si Si1 0.826787 0.286068 0.107965
Si Si2 0.821271 0.848287 0.894811
Si Si3 0.180215 0.000000 0.392351
Si Si4 0.677655 0.608498 0.793217
Si Si5 0.680242 0.892473 0.281740
Si Si6 0.679984 0.216303 0.603249
Si Si7 0.319479 0.346344 0.601872
Si Si8 0.820853 0.500000 0.104237
O O1 0.774294 0.219196 0.124723
O O2 0.713455 0.328199 0.163444
O O3 0.000000 0.295672 0.141968
O O4 0.814875 0.302297 0.000000
O O5 0.732306 0.892148 0.825840
O O6 0.000000 0.856286 0.880209
O O7 0.775510 0.865478 0.000000
O O8 0.244001 0.056266 0.339919
O O9 0.234300 0.000000 0.500000
O O10 0.000000 0.000000 0.385703
O O11 0.500000 0.595273 0.804060
O O12 0.728241 0.609376 0.684241
O O13 0.769877 0.557887 0.842888
O O14 0.500000 0.899749 0.288175
O O15 0.742980 0.831304 0.324438
O O16 0.730248 0.196748 0.500000
O O17 0.500000 0.217989 0.610631
O O18 0.746603 0.281249 0.624343
O O19 0.260225 0.368100 0.500000
O O20 0.500000 0.341310 0.598706
O O21 0.000000 0.500000 0.099500
O O22 0.752124 0.500000 0.000000
#
# Coordination Sequence:
#
# PCOD8200363 Si02
#       8
#     8   8   4   8   8   8   8   4
#     4   9  18  33  53  78 111 150 183 212 259 323
#     4   9  19  36  56  79 111 150 187 221 263 323
#     4  11  25  43  60  79 108 147 187 224 266 325
#     4  11  21  33  54  82 107 134 175 227 272 307
#     4  11  21  34  56  84 112 142 181 232 282 321
#     4   8  14  26  47  77 111 142 169 203 255 316
#     4   8  15  29  49  76 110 141 167 201 253 316
#     4  11  25  43  58  71  96 138 179 213 262 331
#
# _framework density 19.453292999999999
#
# number of rings (size 3 to 8) (size 9 to 14) (size 15 to 20)
#    0.000    2.429    0.000    4.714    0.000    5.714 
#    0.000    2.143    0.000    6.000    0.000    8.000 
#    0.000    0.000    0.000    0.000    0.000    0.000 
#
# Total GULP energy -694193.971626 kJ/mol
# GULP energy per Si atom -12396.320922 kJ/mol
# Density = 1.940902 g / cm^3
# Si number density = 19.453293 Si / 1000 Ang^3
#
#
#
# Elastic Constant Matrix: (Units=GPa)
#
#
# Indices 1 2 3 4 5 6 
#
# 1 48.3497 30.5959 40.7656 0.0000 0.0000 0.0000
# 2 30.5959 82.5050 78.6815 0.0000 0.0000 0.0000
# 3 40.7656 78.6815 158.2558 0.0000 0.0000 0.0000
# 4 0.0000 0.0000 0.0000 31.9648 0.0000 0.0000
# 5 0.0000 0.0000 0.0000 0.0000 19.3353 0.0000
# 6 0.0000 0.0000 0.0000 0.0000 0.0000 18.4959
#
#
#
# Elastic Compliance Matrix: (Units=1/GPa)
#
#
# Indices 1 2 3 4 5 6 
#
# 1 0.028256 -0.006726 -0.003934 0.000000 0.000000 0.000000
# 2 -0.006726 0.024650 -0.010523 0.000000 0.000000 0.000000
# 3 -0.003934 -0.010523 0.012564 0.000000 0.000000 0.000000
# 4 0.000000 0.000000 0.000000 0.031284 0.000000 0.000000
# 5 0.000000 0.000000 0.000000 0.000000 0.051719 0.000000
# 6 0.000000 0.000000 0.000000 0.000000 0.000000 0.054066
#
#
# Mechanical properties :
#
#
# Convention : Reuss Voigt Hill
#
# Bulk Modulus (GPa) = 43.28399 65.46626 54.37513
# Shear Modulus (GPa) = 19.79350 23.23038 21.51194
#
# Velocity S-wave (km/s) = 3.19327 3.45941 3.32900
# Velocity P-wave (km/s) = 5.99120 7.04860 6.54130
#
# Compressibility (1/GPa) = 0.02310323
#
# Stress axis : x y z
#
# Youngs Moduli (GPa) = 35.39019 40.56787 79.59202
#
# Poissons Ratio (x) = 0.27288 0.31315
# Poissons Ratio (y) = 0.23805 0.83753
# Poissons Ratio (z) = 0.13924 0.42689
#
# Static dielectric constant tensor:
#      x y z
#    x 3.218070 0.000000 0.000000 
#    y 0.000000 3.532010 0.000000 
#    z 0.000000 0.000000 3.934720 
# 
# 
# High freq. dielectric constant tensor:
#      x y z
#    x 1.729530 0.000000 0.000000 
#    y 0.000000 1.741510 0.000000 
#    z 0.000000 0.000000 1.775390 
# 
# From -- ./inp_files/21686.got.cif
#   From: 2010.03.12/outbox.cif.g09.slc.cpg/sg47_11_cif.got.tgz:21686.got - 2010.04.14 03:12:58.
