data_PCOD8200876
_publ_section_title
;
Structure prediction by ZEFSAII (Michael W. Deem and Ramdas Pophale) SiO2 
 PCOD8200876
Probable space group: P M M M
;
_chemical_formula_sum "Si O2"
_cell_formula_units_Z 52
_cell_length_a 9.928461
_cell_length_b 33.665998
_cell_length_c 9.569280
_cell_angle_alpha 90.000000
_cell_angle_beta 90.000000
_cell_angle_gamma 90.000000
_cell_volume 3198.546655
_symmetry_space_group_name_H-M "P M M M"
_symmetry_group_IT_number 47
_symmetry_cell_setting 'orthorhombic'
loop_
_space_group_symop_operation_xyz
x,y,z
-x,-y,z
x,-y,-z
-x,y,-z
-x,-y,-z
x,y,-z
-x,y,z
x,-y,z
loop_
_atom_site_type_symbol
_atom_site_label
_atom_site_fract_x
_atom_site_fract_y
_atom_site_fract_z
Si Si1 0.649913 0.145148 0.333911
Si Si2 0.159584 0.000000 0.841487
Si Si3 0.849217 0.544164 0.833758
Si Si4 0.349789 0.389552 0.166927
Si Si5 0.659910 0.232347 0.654891
Si Si6 0.842996 0.075126 0.663058
Si Si7 0.339610 0.302177 0.844960
O O1 0.644582 0.146947 0.500000
O O2 0.500000 0.134333 0.277001
O O3 0.695584 0.188908 0.280670
O O4 0.758090 0.112855 0.283315
O O5 0.208952 0.961535 0.756191
O O6 0.000000 0.000000 0.846603
O O7 0.218216 0.000000 0.000000
O O8 0.804324 0.500000 0.785141
O O9 0.748679 0.576952 0.769423
O O10 0.000000 0.553198 0.779848
O O11 0.846071 0.546330 0.000000
O O12 0.500000 0.398203 0.223866
O O13 0.299709 0.345728 0.214963
O O14 0.351184 0.390491 0.000000
O O15 0.721850 0.237005 0.500000
O O16 0.500000 0.236364 0.647252
O O17 0.722530 0.267344 0.749354
O O18 0.815871 0.065453 0.500000
O O19 0.000000 0.084252 0.688331
O O20 0.500000 0.299397 0.850664
O O21 0.279746 0.296298 0.000000
#
# Coordination Sequence:
#
# PCOD8200876 Si02
#       7
#     8   4   8   8   8   8   8
#     4   8  14  25  41  61  83 104 127 158 195 230
#     4   9  17  29  44  61  82 108 134 159 192 232
#     4   8  13  20  29  42  62  89 119 148 179 218
#     4   8  13  20  30  45  65  89 116 146 181 219
#     4   8  13  22  37  55  74  98 127 155 183 220
#     4   9  16  27  45  65  80  98 130 166 192 221
#     4   8  13  21  33  50  72  96 122 152 184 218
#
# _framework density 16.257383999999998
#
# number of rings (size 3 to 8) (size 9 to 14) (size 15 to 20)
#    0.000    3.769    0.000    2.538    0.000    1.231 
#    0.000    2.692    0.000    4.615    0.000    0.000 
#    0.000    0.615    0.000    7.692    0.000    8.923 
#
# Total GULP energy -644285.969036 kJ/mol
# GULP energy per Si atom -12390.114789 kJ/mol
# Density = 1.622038 g / cm^3
# Si number density = 16.257384 Si / 1000 Ang^3
#
#
#
# Elastic Constant Matrix: (Units=GPa)
#
#
# Indices 1 2 3 4 5 6 
#
# 1 53.8891 67.0328 19.9893 0.0000 0.0000 0.0000
# 2 67.0328 180.8125 48.3247 0.0000 0.0000 0.0000
# 3 19.9893 48.3247 42.6032 0.0000 0.0000 0.0000
# 4 0.0000 0.0000 0.0000 16.1267 0.0000 0.0000
# 5 0.0000 0.0000 0.0000 0.0000 6.3114 0.0000
# 6 0.0000 0.0000 0.0000 0.0000 0.0000 13.1406
#
#
#
# Elastic Compliance Matrix: (Units=1/GPa)
#
#
# Indices 1 2 3 4 5 6 
#
# 1 0.034610 -0.012185 -0.002418 0.000000 0.000000 0.000000
# 2 -0.012185 0.012226 -0.008151 0.000000 0.000000 0.000000
# 3 -0.002418 -0.008151 0.033853 0.000000 0.000000 0.000000
# 4 0.000000 0.000000 0.000000 0.062009 0.000000 0.000000
# 5 0.000000 0.000000 0.000000 0.000000 0.158442 0.000000
# 6 0.000000 0.000000 0.000000 0.000000 0.000000 0.076100
#
#
# Mechanical properties :
#
#
# Convention : Reuss Voigt Hill
#
# Bulk Modulus (GPa) = 28.42387 60.88871 44.65629
# Shear Modulus (GPa) = 11.50811 16.57961 14.04386
#
# Velocity S-wave (km/s) = 2.66347 3.19693 2.94231
# Velocity P-wave (km/s) = 5.19426 7.15272 6.25067
#
# Compressibility (1/GPa) = 0.03518169
#
# Stress axis : x y z
#
# Youngs Moduli (GPa) = 28.89305 81.78957 29.53965
#
# Poissons Ratio (x) = 0.99661 0.07142
# Poissons Ratio (y) = 0.35206 0.24079
# Poissons Ratio (z) = 0.06985 0.66669
#
# Static dielectric constant tensor:
#      x y z
#    x 2.877780 0.000000 0.000000 
#    y 0.000000 3.500050 0.000000 
#    z 0.000000 0.000000 2.819590 
# 
# 
# High freq. dielectric constant tensor:
#      x y z
#    x 1.582960 0.000000 0.000000 
#    y 0.000000 1.642400 0.000000 
#    z 0.000000 0.000000 1.573600 
# 
# From -- ./inp_files/4557.got.cif
#   From: 2010.03.12/outbox.cif.g09.slc.cpg/sg47_3_cif.got.tgz:4557.got - 2010.04.14 03:12:58.
