data_PCOD8200161
_publ_section_title
;
Structure prediction by ZEFSAII (Michael W. Deem and Ramdas Pophale) SiO2 
 PCOD8200161
Probable space group: P M M M
;
_chemical_formula_sum "Si O2"
_cell_formula_units_Z 64
_cell_length_a 9.060434
_cell_length_b 19.012248
_cell_length_c 18.664034
_cell_angle_alpha 90.000000
_cell_angle_beta 90.000000
_cell_angle_gamma 90.000000
_cell_volume 3215.051905
_symmetry_space_group_name_H-M "P M M M"
_symmetry_group_IT_number 47
_symmetry_cell_setting 'orthorhombic'
loop_
_space_group_symop_operation_xyz
x,y,z
-x,-y,z
x,-y,-z
-x,y,-z
-x,-y,-z
x,y,-z
-x,y,z
x,-y,z
loop_
_atom_site_type_symbol
_atom_site_label
_atom_site_fract_x
_atom_site_fract_y
_atom_site_fract_z
Si Si1 0.828785 0.679570 0.833065
Si Si2 0.329394 0.656554 0.416941
Si Si3 0.339133 0.423456 0.916507
Si Si4 0.825221 0.420110 0.294531
Si Si5 0.828180 0.918886 0.847962
Si Si6 0.673131 0.202259 0.918307
Si Si7 0.324631 0.814586 0.579141
Si Si8 0.328036 0.080655 0.299573
O O1 0.798625 0.624762 0.896529
O O2 0.768398 0.639107 0.762162
O O3 0.739542 0.749267 0.854863
O O4 0.000000 0.698896 0.827591
O O5 0.303846 0.639077 0.500000
O O6 0.500000 0.648607 0.396146
O O7 0.236749 0.600564 0.371884
O O8 0.273716 0.735865 0.399744
O O9 0.500000 0.391430 0.892959
O O10 0.318983 0.500000 0.880459
O O11 0.337941 0.432646 0.000000
O O12 0.773195 0.500000 0.275442
O O13 0.000000 0.417633 0.296526
O O14 0.746202 0.874226 0.909077
O O15 0.762763 0.899450 0.770655
O O16 0.000000 0.900224 0.847599
O O17 0.799342 0.000000 0.866554
O O18 0.500000 0.196497 0.905641
O O19 0.706358 0.228901 0.000000
O O20 0.262833 0.834150 0.500000
O O21 0.500000 0.816703 0.576264
O O22 0.264890 0.870576 0.636675
O O23 0.500000 0.095411 0.284399
O O24 0.301898 0.000000 0.322311
#
# Coordination Sequence:
#
# PCOD8200161 Si02
#       8
#     8   8   8   8   8   8   8   8
#     4  11  23  38  57  83 115 148 184 230 282 341
#     4   9  19  36  57  82 112 147 191 242 291 339
#     4   9  18  33  53  77 107 145 187 229 275 329
#     4  10  23  41  58  81 114 149 187 234 287 342
#     4  10  22  40  61  86 118 155 193 237 289 340
#     4  11  25  43  63  88 117 150 189 234 285 341
#     4   8  15  29  50  79 115 152 192 241 291 335
#     4   9  17  30  52  83 117 155 199 242 285 337
#
# _framework density 19.906365000000001
#
# number of rings (size 3 to 8) (size 9 to 14) (size 15 to 20)
#    0.000    2.375    0.000    3.000    1.750    6.500 
#    0.000    4.375    0.000    1.125    0.000    1.750 
#    0.000    0.000    0.000    0.000    0.000    0.000 
#
# Total GULP energy -793273.342555 kJ/mol
# GULP energy per Si atom -12394.895977 kJ/mol
# Density = 1.986106 g / cm^3
# Si number density = 19.906365 Si / 1000 Ang^3
#
#
#
# Elastic Constant Matrix: (Units=GPa)
#
#
# Indices 1 2 3 4 5 6 
#
# 1 58.4689 42.1927 39.2406 0.0000 0.0000 0.0000
# 2 42.1927 103.0273 59.2830 0.0000 0.0000 0.0000
# 3 39.2406 59.2830 87.0517 0.0000 0.0000 0.0000
# 4 0.0000 0.0000 0.0000 10.4881 0.0000 0.0000
# 5 0.0000 0.0000 0.0000 0.0000 24.8094 0.0000
# 6 0.0000 0.0000 0.0000 0.0000 0.0000 28.7577
#
#
#
# Elastic Compliance Matrix: (Units=1/GPa)
#
#
# Indices 1 2 3 4 5 6 
#
# 1 0.027056 -0.006680 -0.007647 0.000000 0.000000 0.000000
# 2 -0.006680 0.017610 -0.008981 0.000000 0.000000 0.000000
# 3 -0.007647 -0.008981 0.021051 0.000000 0.000000 0.000000
# 4 0.000000 0.000000 0.000000 0.095346 0.000000 0.000000
# 5 0.000000 0.000000 0.000000 0.000000 0.040307 0.000000
# 6 0.000000 0.000000 0.000000 0.000000 0.000000 0.034773
#
#
# Mechanical properties :
#
#
# Convention : Reuss Voigt Hill
#
# Bulk Modulus (GPa) = 52.35608 58.88672 55.62140
# Shear Modulus (GPa) = 17.29352 19.99980 18.64666
#
# Velocity S-wave (km/s) = 2.95064 3.17313 3.06391
# Velocity P-wave (km/s) = 6.16171 6.56286 6.36544
#
# Compressibility (1/GPa) = 0.01909998
#
# Stress axis : x y z
#
# Youngs Moduli (GPa) = 36.96083 56.78690 47.50441
#
# Poissons Ratio (x) = 0.37934 0.36326
# Poissons Ratio (y) = 0.24690 0.42665
# Poissons Ratio (z) = 0.28263 0.51001
#
# Static dielectric constant tensor:
#      x y z
#    x 3.440440 0.000000 0.000000 
#    y 0.000000 3.792710 0.000000 
#    z 0.000000 0.000000 3.668590 
# 
# 
# High freq. dielectric constant tensor:
#      x y z
#    x 1.756510 0.000000 0.000000 
#    y 0.000000 1.784370 0.000000 
#    z 0.000000 0.000000 1.772940 
# 
# From -- ./inp_files/27046.got.cif
#   From: 2010.03.12/outbox.cif.g09.slc.cpg/sg47_14_cif.got.tgz:27046.got - 2010.04.14 03:12:58.
