data_PCOD8200391
_publ_section_title
;
Structure prediction by ZEFSAII (Michael W. Deem and Ramdas Pophale) SiO2 
 PCOD8200391
Probable space group: P M M M
;
_chemical_formula_sum "Si O2"
_cell_formula_units_Z 52
_cell_length_a 9.267996
_cell_length_b 10.724254
_cell_length_c 30.213466
_cell_angle_alpha 90.000000
_cell_angle_beta 90.000000
_cell_angle_gamma 90.000000
_cell_volume 3002.987181
_symmetry_space_group_name_H-M "P M M M"
_symmetry_group_IT_number 47
_symmetry_cell_setting 'orthorhombic'
loop_
_space_group_symop_operation_xyz
x,y,z
-x,-y,z
x,-y,-z
-x,y,-z
-x,-y,-z
x,y,-z
-x,y,z
x,-y,z
loop_
_atom_site_type_symbol
_atom_site_label
_atom_site_fract_x
_atom_site_fract_y
_atom_site_fract_z
Si Si1 0.341371 0.146254 0.081577
Si Si2 0.159705 0.644447 0.337321
Si Si3 0.839347 0.850864 0.000000
Si Si4 0.668620 0.000000 0.451344
Si Si5 0.842277 0.357759 0.500000
Si Si6 0.169627 0.357389 0.764240
Si Si7 0.330033 0.739268 0.582431
Si Si8 0.328532 0.857077 0.818935
O O1 0.500000 0.207145 0.076300
O O2 0.280026 0.171326 0.130662
O O3 0.355607 0.000000 0.073861
O O4 0.237500 0.203002 0.044040
O O5 0.152934 0.500000 0.348440
O O6 0.207472 0.666113 0.286937
O O7 0.278575 0.704448 0.368788
O O8 0.000000 0.702056 0.345704
O O9 0.000000 0.796884 0.000000
O O10 0.840257 0.000000 0.000000
O O11 0.714788 0.882282 0.422909
O O12 0.500000 0.000000 0.459816
O O13 0.743973 0.000000 0.500000
O O14 0.879849 0.500000 0.500000
O O15 0.750172 0.333245 0.543752
O O16 0.000000 0.288047 0.500000
O O17 0.216148 0.500000 0.777525
O O18 0.253617 0.249540 0.790093
O O19 0.000000 0.341982 0.772876
O O20 0.500000 0.713690 0.578170
O O21 0.500000 0.845247 0.814081
O O22 0.282294 0.000000 0.805813
#
# Coordination Sequence:
#
# PCOD8200391 Si02
#       8
#     8   8   4   4   4   8   8   8
#     4   8  14  25  40  59  90 131 167 202 250 305
#     4   9  19  37  56  74 101 131 158 197 248 293
#     4   9  15  21  33  59  92 125 166 211 250 294
#     4   9  18  36  54  70 100 134 156 188 236 275
#     4  11  23  36  51  74 104 131 154 191 242 285
#     4   9  19  36  56  76 101 136 174 210 254 311
#     4  11  21  35  56  77  98 127 164 199 234 282
#     4   9  18  32  50  75 105 135 171 215 261 308
#
# _framework density 17.316092999999999
#
# number of rings (size 3 to 8) (size 9 to 14) (size 15 to 20)
#    0.000    2.692    0.769    3.231    0.000    5.538 
#    1.385    5.000    0.000    0.000    0.000    0.538 
#    0.000    4.308    0.000    0.000    0.000    0.000 
#
# Total GULP energy -644361.005740 kJ/mol
# GULP energy per Si atom -12391.557803 kJ/mol
# Density = 1.727668 g / cm^3
# Si number density = 17.316093 Si / 1000 Ang^3
#
#
#
# Elastic Constant Matrix: (Units=GPa)
#
#
# Indices 1 2 3 4 5 6 
#
# 1 93.3112 46.1939 64.2487 0.0000 0.0000 0.0000
# 2 46.1939 86.6746 63.6818 0.0000 0.0000 0.0000
# 3 64.2487 63.6818 125.8576 0.0000 0.0000 0.0000
# 4 0.0000 0.0000 0.0000 7.9369 0.0000 0.0000
# 5 0.0000 0.0000 0.0000 0.0000 32.5667 0.0000
# 6 0.0000 0.0000 0.0000 0.0000 0.0000 6.9048
#
#
#
# Elastic Compliance Matrix: (Units=1/GPa)
#
#
# Indices 1 2 3 4 5 6 
#
# 1 0.017521 -0.004403 -0.006716 0.000000 0.000000 0.000000
# 2 -0.004403 0.019471 -0.007604 0.000000 0.000000 0.000000
# 3 -0.006716 -0.007604 0.015222 0.000000 0.000000 0.000000
# 4 0.000000 0.000000 0.000000 0.125994 0.000000 0.000000
# 5 0.000000 0.000000 0.000000 0.000000 0.030706 0.000000
# 6 0.000000 0.000000 0.000000 0.000000 0.000000 0.144826
#
#
# Mechanical properties :
#
#
# Convention : Reuss Voigt Hill
#
# Bulk Modulus (GPa) = 67.72212 72.67692 70.19952
# Shear Modulus (GPa) = 12.62273 18.26295 15.44284
#
# Velocity S-wave (km/s) = 2.70285 3.25111 2.98958
# Velocity P-wave (km/s) = 6.99534 7.49365 7.24878
#
# Compressibility (1/GPa) = 0.01476622
#
# Stress axis : x y z
#
# Youngs Moduli (GPa) = 57.07369 51.35777 65.69585
#
# Poissons Ratio (x) = 0.22615 0.44123
# Poissons Ratio (y) = 0.25132 0.49957
# Poissons Ratio (z) = 0.38332 0.39054
#
# Static dielectric constant tensor:
#      x y z
#    x 3.279440 0.000000 0.000000 
#    y 0.000000 3.004360 0.000000 
#    z 0.000000 0.000000 3.971150 
# 
# 
# High freq. dielectric constant tensor:
#      x y z
#    x 1.667810 0.000000 0.000000 
#    y 0.000000 1.637760 0.000000 
#    z 0.000000 0.000000 1.673460 
# 
# From -- ./inp_files/33341.got.cif
#   From: 2010.03.12/outbox.cif.g09.slc.cpg/sg47_17_cif.got.tgz:33341.got - 2010.04.14 03:12:58.
