data_PCOD8200115
_publ_section_title
;
Structure prediction by ZEFSAII (Michael W. Deem and Ramdas Pophale) SiO2 
 PCOD8200115
Probable space group: P M M M
;
_chemical_formula_sum "Si O2"
_cell_formula_units_Z 56
_cell_length_a 9.291923
_cell_length_b 21.136805
_cell_length_c 14.279304
_cell_angle_alpha 90.000000
_cell_angle_beta 90.000000
_cell_angle_gamma 90.000000
_cell_volume 2804.477646
_symmetry_space_group_name_H-M "P M M M"
_symmetry_group_IT_number 47
_symmetry_cell_setting 'orthorhombic'
loop_
_space_group_symop_operation_xyz
x,y,z
-x,-y,z
x,-y,-z
-x,y,-z
-x,-y,-z
x,y,-z
-x,y,z
x,-y,z
loop_
_atom_site_type_symbol
_atom_site_label
_atom_site_fract_x
_atom_site_fract_y
_atom_site_fract_z
Si Si1 0.160404 0.749645 0.111179
Si Si2 0.333299 0.693254 0.389716
Si Si3 0.336193 0.869298 0.895169
Si Si4 0.334627 0.370407 0.104632
Si Si5 0.335018 0.070990 0.293001
Si Si6 0.166591 0.182692 0.389616
Si Si7 0.667439 0.431653 0.290864
O O1 0.239678 0.812559 0.145662
O O2 0.245346 0.688294 0.145743
O O3 0.000000 0.748739 0.153318
O O4 0.158551 0.749445 0.000000
O O5 0.314421 0.686549 0.500000
O O6 0.500000 0.702629 0.361020
O O7 0.245338 0.753953 0.351448
O O8 0.266420 0.628837 0.344876
O O9 0.500000 0.845007 0.899062
O O10 0.317882 0.925408 0.820231
O O11 0.288011 0.891403 0.000000
O O12 0.500000 0.348935 0.102364
O O13 0.309751 0.426659 0.178393
O O14 0.284788 0.391520 0.000000
O O15 0.500000 0.085361 0.321429
O O16 0.233017 0.119920 0.345121
O O17 0.291321 0.000000 0.323018
O O18 0.188952 0.177360 0.500000
O O19 0.000000 0.187111 0.361683
O O20 0.500000 0.432738 0.316007
O O21 0.735124 0.500000 0.321282
#
# Coordination Sequence:
#
# PCOD8200115 Si02
#       7
#     8   8   8   8   8   8   8
#     4   9  17  29  46  70  99 132 175 225 270 309
#     4   9  18  34  57  82 106 135 173 219 271 324
#     4   9  18  33  53  77 108 145 182 220 264 316
#     4   9  17  29  46  69 100 138 177 217 263 314
#     4  10  22  38  57  84 115 147 183 223 270 323
#     4  10  22  40  61  84 110 142 181 226 276 329
#     4   9  18  31  49  77 108 137 174 220 268 318
#
# _framework density 19.968067999999999
#
# number of rings (size 3 to 8) (size 9 to 14) (size 15 to 20)
#    0.000    2.714    0.000    0.857    2.000    4.571 
#    0.000    5.714    0.000    1.714    0.000    7.000 
#    0.000    0.000    0.000    0.000    0.000    0.000 
#
# Total GULP energy -694108.351899 kJ/mol
# GULP energy per Si atom -12394.791998 kJ/mol
# Density = 1.992262 g / cm^3
# Si number density = 19.968068 Si / 1000 Ang^3
#
#
#
# Elastic Constant Matrix: (Units=GPa)
#
#
# Indices 1 2 3 4 5 6 
#
# 1 83.1119 60.7231 28.0835 0.0000 0.0000 0.0000
# 2 60.7231 162.4618 50.8681 0.0000 0.0000 0.0000
# 3 28.0835 50.8681 45.0726 0.0000 0.0000 0.0000
# 4 0.0000 0.0000 0.0000 22.8621 0.0000 0.0000
# 5 0.0000 0.0000 0.0000 0.0000 16.1303 0.0000
# 6 0.0000 0.0000 0.0000 0.0000 0.0000 4.7445
#
#
#
# Elastic Compliance Matrix: (Units=1/GPa)
#
#
# Indices 1 2 3 4 5 6 
#
# 1 0.017363 -0.004798 -0.005404 0.000000 0.000000 0.000000
# 2 -0.004798 0.010845 -0.009250 0.000000 0.000000 0.000000
# 3 -0.005404 -0.009250 0.035992 0.000000 0.000000 0.000000
# 4 0.000000 0.000000 0.000000 0.043741 0.000000 0.000000
# 5 0.000000 0.000000 0.000000 0.000000 0.061995 0.000000
# 6 0.000000 0.000000 0.000000 0.000000 0.000000 0.210772
#
#
# Mechanical properties :
#
#
# Convention : Reuss Voigt Hill
#
# Bulk Modulus (GPa) = 39.52934 63.33286 51.43110
# Shear Modulus (GPa) = 11.68105 18.81215 15.24660
#
# Velocity S-wave (km/s) = 2.42127 3.07271 2.76624
# Velocity P-wave (km/s) = 5.25890 6.66143 6.00128
#
# Compressibility (1/GPa) = 0.02529766
#
# Stress axis : x y z
#
# Youngs Moduli (GPa) = 57.59255 92.21040 27.78359
#
# Poissons Ratio (x) = 0.44242 0.15014
# Poissons Ratio (y) = 0.27632 0.25699
# Poissons Ratio (z) = 0.31122 0.85292
#
# Static dielectric constant tensor:
#      x y z
#    x 3.536400 0.000000 0.000000 
#    y 0.000000 3.655920 0.000000 
#    z 0.000000 0.000000 3.631500 
# 
# 
# High freq. dielectric constant tensor:
#      x y z
#    x 1.749750 0.000000 0.000000 
#    y 0.000000 1.771950 0.000000 
#    z 0.000000 0.000000 1.783260 
# 
# From -- ./inp_files/7302.got.cif
#   From: 2010.03.12/outbox.cif.g09.slc.cpg/sg47_4_cif.got.tgz:7302.got - 2010.04.14 03:12:58.
