data_PCOD8200303
_publ_section_title
;
Structure prediction by ZEFSAII (Michael W. Deem and Ramdas Pophale) SiO2 
 PCOD8200303
Probable space group: P M M M
;
_chemical_formula_sum "Si O2"
_cell_formula_units_Z 48
_cell_length_a 18.109013
_cell_length_b 9.336240
_cell_length_c 21.877313
_cell_angle_alpha 90.000000
_cell_angle_beta 90.000000
_cell_angle_gamma 90.000000
_cell_volume 3698.799311
_symmetry_space_group_name_H-M "P M M M"
_symmetry_group_IT_number 47
_symmetry_cell_setting 'orthorhombic'
loop_
_space_group_symop_operation_xyz
x,y,z
-x,-y,z
x,-y,-z
-x,y,-z
-x,-y,-z
x,y,-z
-x,y,z
x,-y,z
loop_
_atom_site_type_symbol
_atom_site_label
_atom_site_fract_x
_atom_site_fract_y
_atom_site_fract_z
Si Si1 0.587643 0.341256 0.112585
Si Si2 0.781064 0.166210 0.569571
Si Si3 0.080803 0.661628 0.427361
Si Si4 0.413339 0.665848 0.249265
Si Si5 0.588256 0.839912 0.000000
Si Si6 0.500000 0.334234 0.427646
Si Si7 0.630871 0.169452 0.636918
O O1 0.500000 0.347241 0.108356
O O2 0.619487 0.500000 0.100402
O O3 0.609830 0.288995 0.180466
O O4 0.619791 0.236395 0.060829
O O5 0.765948 0.216954 0.500000
O O6 0.852633 0.242956 0.598993
O O7 0.710453 0.205682 0.609621
O O8 0.798666 0.000000 0.571515
O O9 0.081922 0.669958 0.500000
O O10 0.093652 0.500000 0.404909
O O11 0.000000 0.715820 0.404146
O O12 0.500000 0.689515 0.260535
O O13 0.392831 0.500000 0.261187
O O14 0.369313 0.771156 0.294098
O O15 0.500000 0.837517 0.000000
O O16 0.619296 0.000000 0.000000
O O17 0.500000 0.500000 0.405374
O O18 0.500000 0.324775 0.500000
O O19 0.428241 0.254081 0.403173
O O20 0.613627 0.000000 0.635728
#
# Coordination Sequence:
#
# PCOD8200303 Si02
#       7
#     8   8   8   8   4   4   8
#     4   8  14  24  37  50  66  90 114 140 176 217
#     4   9  18  30  41  55  75  96 118 145 181 227
#     4   8  14  25  41  60  78  93 111 137 171 213
#     4   9  17  29  42  54  69  91 122 156 186 223
#     4   9  15  21  31  51  73  89 107 139 176 213
#     4  11  23  35  45  55  67  88 121 158 195 235
#     4  11  21  31  43  57  73  94 120 155 195 229
#
# _framework density 12.977183999999999
#
# number of rings (size 3 to 8) (size 9 to 14) (size 15 to 20)
#    0.000    2.833    0.833    3.000    0.000    4.667 
#    0.000    5.000    0.000    0.000    0.000    0.000 
#    0.000    0.000    0.000    0.000    0.000    0.000 
#
# Total GULP energy -594948.812451 kJ/mol
# GULP energy per Si atom -12394.766926 kJ/mol
# Density = 1.294765 g / cm^3
# Si number density = 12.977184 Si / 1000 Ang^3
#
#
#
# Elastic Constant Matrix: (Units=GPa)
#
#
# Indices 1 2 3 4 5 6 
#
# 1 78.4754 48.3005 34.6682 0.0000 0.0000 0.0000
# 2 48.3005 81.5986 49.7631 0.0000 0.0000 0.0000
# 3 34.6682 49.7631 83.9678 0.0000 0.0000 0.0000
# 4 0.0000 0.0000 0.0000 20.3116 0.0000 0.0000
# 5 0.0000 0.0000 0.0000 0.0000 2.7281 0.0000
# 6 0.0000 0.0000 0.0000 0.0000 0.0000 18.0585
#
#
#
# Elastic Compliance Matrix: (Units=1/GPa)
#
#
# Indices 1 2 3 4 5 6 
#
# 1 0.020252 -0.010787 -0.001969 0.000000 0.000000 0.000000
# 2 -0.010787 0.024937 -0.010325 0.000000 0.000000 0.000000
# 3 -0.001969 -0.010325 0.018841 0.000000 0.000000 0.000000
# 4 0.000000 0.000000 0.000000 0.049233 0.000000 0.000000
# 5 0.000000 0.000000 0.000000 0.000000 0.366553 0.000000
# 6 0.000000 0.000000 0.000000 0.000000 0.000000 0.055376
#
#
# Mechanical properties :
#
#
# Convention : Reuss Voigt Hill
#
# Bulk Modulus (GPa) = 55.96412 56.61172 56.28792
# Shear Modulus (GPa) = 8.51340 15.64031 12.07685
#
# Velocity S-wave (km/s) = 2.56408 3.47539 3.05392
# Velocity P-wave (km/s) = 7.21004 7.73454 7.47689
#
# Compressibility (1/GPa) = 0.01786859
#
# Stress axis : x y z
#
# Youngs Moduli (GPa) = 49.37831 40.10088 53.07515
#
# Poissons Ratio (x) = 0.43257 0.10448
# Poissons Ratio (y) = 0.53265 0.54801
# Poissons Ratio (z) = 0.09720 0.41405
#
# Static dielectric constant tensor:
#      x y z
#    x 2.481200 0.000000 0.000000 
#    y 0.000000 2.762770 0.000000 
#    z 0.000000 0.000000 2.622500 
# 
# 
# High freq. dielectric constant tensor:
#      x y z
#    x 1.450320 0.000000 0.000000 
#    y 0.000000 1.503390 0.000000 
#    z 0.000000 0.000000 1.475890 
# 
# From -- ./inp_files/31239.got.cif
#   From: 2010.03.12/outbox.cif.g09.slc.cpg/sg47_16_cif.got.tgz:31239.got - 2010.04.14 03:12:58.
