data_PCOD8200827
_publ_section_title
;
Structure prediction by ZEFSAII (Michael W. Deem and Ramdas Pophale) SiO2 
 PCOD8200827
Probable space group: P M M M
;
_chemical_formula_sum "Si O2"
_cell_formula_units_Z 44
_cell_length_a 9.175631
_cell_length_b 9.225102
_cell_length_c 28.699917
_cell_angle_alpha 90.000000
_cell_angle_beta 90.000000
_cell_angle_gamma 90.000000
_cell_volume 2429.336960
_symmetry_space_group_name_H-M "P M M M"
_symmetry_group_IT_number 47
_symmetry_cell_setting 'orthorhombic'
loop_
_space_group_symop_operation_xyz
x,y,z
-x,-y,z
x,-y,-z
-x,y,-z
-x,-y,-z
x,y,-z
-x,y,z
x,-y,z
loop_
_atom_site_type_symbol
_atom_site_label
_atom_site_fract_x
_atom_site_fract_y
_atom_site_fract_z
Si Si1 0.173316 0.662830 0.551422
Si Si2 0.664332 0.672354 0.000000
Si Si3 0.826192 0.336012 0.728606
Si Si4 0.173940 0.163094 0.360981
Si Si5 0.826493 0.836182 0.181977
Si Si6 0.829775 0.331566 0.908981
O O1 0.224713 0.715713 0.500000
O O2 0.230380 0.500000 0.560777
O O3 0.236522 0.768423 0.591160
O O4 0.000000 0.663098 0.553593
O O5 0.745894 0.729618 0.045968
O O6 0.668774 0.500000 0.000000
O O7 0.500000 0.732035 0.000000
O O8 0.766092 0.500000 0.729362
O O9 0.767284 0.256262 0.682453
O O10 0.765151 0.250756 0.773523
O O11 0.000000 0.336553 0.729060
O O12 0.000000 0.163692 0.361295
O O13 0.233819 0.000000 0.356564
O O14 0.771366 0.757431 0.135298
O O15 0.000000 0.835884 0.183298
O O16 0.765945 0.000000 0.183207
O O17 0.796101 0.500000 0.899728
O O18 0.000000 0.306008 0.917724
#
# Coordination Sequence:
#
# PCOD8200827 Si02
#       6
#     8   4   8   8   8   8
#     4   8  13  20  27  33  43  63  94 132 173 218
#     4   9  17  29  46  67  88 110 138 171 202 232
#     4   9  15  22  32  45  62  84 109 138 176 224
#     4   9  15  20  26  37  53  73  98 131 174 223
#     4   9  16  25  37  54  75  96 119 150 188 229
#     4   9  16  27  44  64  84 107 136 167 199 237
#
# _framework density 18.111937000000001
#
# number of rings (size 3 to 8) (size 9 to 14) (size 15 to 20)
#    0.000    3.182    0.000    2.455    0.000    8.000 
#    0.000    2.273    0.000    3.273    0.000    0.000 
#    0.000    0.000    0.000    0.000    0.000    0.000 
#
# Total GULP energy -545429.393829 kJ/mol
# GULP energy per Si atom -12396.122587 kJ/mol
# Density = 1.807071 g / cm^3
# Si number density = 18.111937 Si / 1000 Ang^3
#
#
#
# Elastic Constant Matrix: (Units=GPa)
#
#
# Indices 1 2 3 4 5 6 
#
# 1 16.2727 14.4815 23.0866 0.0000 0.0000 0.0000
# 2 14.4815 143.4454 103.6128 0.0000 0.0000 0.0000
# 3 23.0866 103.6128 207.2217 0.0000 0.0000 0.0000
# 4 0.0000 0.0000 0.0000 23.2929 0.0000 0.0000
# 5 0.0000 0.0000 0.0000 0.0000 0.3297 0.0000
# 6 0.0000 0.0000 0.0000 0.0000 0.0000 3.0719
#
#
#
# Elastic Compliance Matrix: (Units=1/GPa)
#
#
# Indices 1 2 3 4 5 6 
#
# 1 0.073495 -0.002356 -0.007010 0.000000 0.000000 0.000000
# 2 -0.002356 0.010988 -0.005232 0.000000 0.000000 0.000000
# 3 -0.007010 -0.005232 0.008223 0.000000 0.000000 0.000000
# 4 0.000000 0.000000 0.000000 0.042932 0.000000 0.000000
# 5 0.000000 0.000000 0.000000 0.000000 3.033457 0.000000
# 6 0.000000 0.000000 0.000000 0.000000 0.000000 0.325529
#
#
# Mechanical properties :
#
#
# Convention : Reuss Voigt Hill
#
# Bulk Modulus (GPa) = 15.74561 72.14461 43.94511
# Shear Modulus (GPa) = 1.41044 20.38948 10.89996
#
# Velocity S-wave (km/s) = 0.88342 3.35886 2.45584
# Velocity P-wave (km/s) = 3.12297 7.41361 5.68835
#
# Compressibility (1/GPa) = 0.06350976
#
# Stress axis : x y z
#
# Youngs Moduli (GPa) = 13.60642 91.00801 121.61628
#
# Poissons Ratio (x) = 0.21444 0.85252
# Poissons Ratio (y) = 0.03206 0.63625
# Poissons Ratio (z) = 0.09538 0.47612
#
# Static dielectric constant tensor:
#      x y z
#    x 2.512570 0.000000 0.000000 
#    y 0.000000 3.433050 0.000000 
#    z 0.000000 0.000000 3.690260 
# 
# 
# High freq. dielectric constant tensor:
#      x y z
#    x 1.606160 0.000000 0.000000 
#    y 0.000000 1.699110 0.000000 
#    z 0.000000 0.000000 1.723940 
# 
# From -- ./inp_files/33882.got.cif
#   From: 2010.03.12/outbox.cif.g09.slc.cpg/sg47_17_cif.got.tgz:33882.got - 2010.04.14 03:12:58.
