data_PCOD8200428
_publ_section_title
;
Structure prediction by ZEFSAII (Michael W. Deem and Ramdas Pophale) SiO2 
 PCOD8200428
Probable space group: P M M M
;
_chemical_formula_sum "Si O2"
_cell_formula_units_Z 44
_cell_length_a 13.964367
_cell_length_b 20.720568
_cell_length_c 9.459046
_cell_angle_alpha 90.000000
_cell_angle_beta 90.000000
_cell_angle_gamma 90.000000
_cell_volume 2736.971328
_symmetry_space_group_name_H-M "P M M M"
_symmetry_group_IT_number 47
_symmetry_cell_setting 'orthorhombic'
loop_
_space_group_symop_operation_xyz
x,y,z
-x,-y,z
x,-y,-z
-x,y,-z
-x,-y,-z
x,y,-z
-x,y,z
x,-y,z
loop_
_atom_site_type_symbol
_atom_site_label
_atom_site_fract_x
_atom_site_fract_y
_atom_site_fract_z
Si Si1 0.389839 0.810207 0.164105
Si Si2 0.279839 0.318606 0.167312
Si Si3 0.386188 0.929149 0.659394
Si Si4 0.887733 0.359772 0.664157
Si Si5 0.386929 0.426625 0.661048
Si Si6 0.896279 0.500000 0.665352
O O1 0.500000 0.799056 0.206923
O O2 0.333471 0.746685 0.210037
O O3 0.344553 0.872217 0.243060
O O4 0.378765 0.824661 0.000000
O O5 0.174069 0.312744 0.236822
O O6 0.337349 0.378775 0.229752
O O7 0.271215 0.327233 0.000000
O O8 0.351397 0.916374 0.500000
O O9 0.500000 0.928508 0.667636
O O10 0.349421 0.000000 0.710196
O O11 0.870547 0.343243 0.500000
O O12 0.845597 0.431999 0.702523
O O13 0.000000 0.353864 0.701090
O O14 0.359237 0.407695 0.500000
O O15 0.500000 0.421617 0.682917
O O16 0.352465 0.500000 0.691101
O O17 0.915537 0.500000 0.500000
O O18 0.000000 0.500000 0.741210
#
# Coordination Sequence:
#
# PCOD8200428 Si02
#       6
#     8   8   8   8   8   4
#     4   9  18  31  44  61  90 127 160 184 211 257
#     4  11  22  32  45  67  95 122 149 186 233 278
#     4   8  14  25  42  65  91 117 147 185 224 256
#     4   9  18  33  51  68  86 112 148 189 233 282
#     4   9  19  35  51  65  83 113 156 198 230 267
#     4   7  12  26  47  65  78  97 130 175 225 272
#
# _framework density 16.076163999999999
#
# number of rings (size 3 to 8) (size 9 to 14) (size 15 to 20)
#    0.000    3.000    0.000    3.273    1.273    3.636 
#    0.000    4.545    0.000    1.636    0.000    0.000 
#    0.000    0.727    0.000    8.000    0.000    6.182 
#
# Total GULP energy -545236.227979 kJ/mol
# GULP energy per Si atom -12391.732454 kJ/mol
# Density = 1.603957 g / cm^3
# Si number density = 16.076164 Si / 1000 Ang^3
#
#
#
# Elastic Constant Matrix: (Units=GPa)
#
#
# Indices 1 2 3 4 5 6 
#
# 1 52.4075 51.7538 41.5639 0.0000 0.0000 0.0000
# 2 51.7538 125.7570 66.7193 0.0000 0.0000 0.0000
# 3 41.5639 66.7193 74.2321 0.0000 0.0000 0.0000
# 4 0.0000 0.0000 0.0000 31.1182 0.0000 0.0000
# 5 0.0000 0.0000 0.0000 0.0000 22.8588 0.0000
# 6 0.0000 0.0000 0.0000 0.0000 0.0000 7.0223
#
#
#
# Elastic Compliance Matrix: (Units=1/GPa)
#
#
# Indices 1 2 3 4 5 6 
#
# 1 0.038484 -0.008421 -0.013979 0.000000 0.000000 0.000000
# 2 -0.008421 0.017043 -0.010603 0.000000 0.000000 0.000000
# 3 -0.013979 -0.010603 0.030828 0.000000 0.000000 0.000000
# 4 0.000000 0.000000 0.000000 0.032136 0.000000 0.000000
# 5 0.000000 0.000000 0.000000 0.000000 0.043747 0.000000
# 6 0.000000 0.000000 0.000000 0.000000 0.000000 0.142403
#
#
# Mechanical properties :
#
#
# Convention : Reuss Voigt Hill
#
# Bulk Modulus (GPa) = 49.14264 63.60785 56.37524
# Shear Modulus (GPa) = 13.24753 18.35716 15.80235
#
# Velocity S-wave (km/s) = 2.87374 3.38285 3.13863
# Velocity P-wave (km/s) = 6.45338 7.41017 6.94827
#
# Compressibility (1/GPa) = 0.02034893
#
# Stress axis : x y z
#
# Youngs Moduli (GPa) = 25.98484 58.67654 32.43813
#
# Poissons Ratio (x) = 0.49413 0.45345
# Poissons Ratio (y) = 0.21882 0.34393
# Poissons Ratio (z) = 0.36324 0.62212
#
# Static dielectric constant tensor:
#      x y z
#    x 2.869500 0.000000 0.000000 
#    y 0.000000 3.262320 0.000000 
#    z 0.000000 0.000000 2.953270 
# 
# 
# High freq. dielectric constant tensor:
#      x y z
#    x 1.591410 0.000000 0.000000 
#    y 0.000000 1.609460 0.000000 
#    z 0.000000 0.000000 1.608090 
# 
# From -- ./inp_files/6175.got.cif
#   From: 2010.03.12/outbox.cif.g09.slc.cpg/sg47_4_cif.got.tgz:6175.got - 2010.04.14 03:12:58.
