data_PCOD8200756
_publ_section_title
;
Structure prediction by ZEFSAII (Michael W. Deem and Ramdas Pophale) SiO2 
 PCOD8200756
Probable space group: P M M M
;
_chemical_formula_sum "Si O2"
_cell_formula_units_Z 40
_cell_length_a 14.631372
_cell_length_b 22.721389
_cell_length_c 7.715513
_cell_angle_alpha 90.000000
_cell_angle_beta 90.000000
_cell_angle_gamma 90.000000
_cell_volume 2564.984451
_symmetry_space_group_name_H-M "P M M M"
_symmetry_group_IT_number 47
_symmetry_cell_setting 'orthorhombic'
loop_
_space_group_symop_operation_xyz
x,y,z
-x,-y,z
x,-y,-z
-x,y,-z
-x,-y,-z
x,y,-z
-x,y,z
x,-y,z
loop_
_atom_site_type_symbol
_atom_site_label
_atom_site_fract_x
_atom_site_fract_y
_atom_site_fract_z
Si Si1 0.603004 0.000000 0.793672
Si Si2 0.390877 0.566325 0.500000
Si Si3 0.398250 0.777261 0.205559
Si Si4 0.712873 0.113048 0.206772
Si Si5 0.099569 0.066442 0.205980
Si Si6 0.391129 0.352931 0.807288
O O1 0.654243 0.057957 0.723680
O O2 0.500000 0.000000 0.720980
O O3 0.602901 0.000000 0.000000
O O4 0.352656 0.500000 0.500000
O O5 0.500000 0.566717 0.500000
O O6 0.353274 0.599189 0.328554
O O7 0.500000 0.787235 0.283101
O O8 0.330113 0.826665 0.282189
O O9 0.360563 0.712359 0.254724
O O10 0.404112 0.782403 0.000000
O O11 0.817471 0.107058 0.275624
O O12 0.710895 0.113867 0.000000
O O13 0.000000 0.090111 0.270276
O O14 0.114351 0.000000 0.274016
O O15 0.101760 0.065661 0.000000
O O16 0.500000 0.353979 0.813397
O O17 0.352741 0.367583 0.000000
#
# Coordination Sequence:
#
# PCOD8200756 Si02
#       6
#     4   4   8   8   8   8
#     4   9  14  16  19  31  51  72  99 143 190 222
#     4   9  16  24  36  54  72  93 124 157 184 211
#     4   8  13  20  29  40  57  84 115 146 180 219
#     4   9  13  17  24  35  51  76 110 144 183 224
#     4   8  12  17  23  31  47  74 108 143 179 222
#     4   8  14  24  35  48  69  95 122 153 186 218
#
# _framework density 15.594637000000001
#
# number of rings (size 3 to 8) (size 9 to 14) (size 15 to 20)
#    0.000    3.600    1.000    2.400    0.000    2.800 
#    0.000    2.000    0.000    0.000    0.000    0.000 
#    0.000    0.800    0.000    8.500    0.000   28.900 
#
# Total GULP energy -495558.106725 kJ/mol
# GULP energy per Si atom -12388.952668 kJ/mol
# Density = 1.555914 g / cm^3
# Si number density = 15.594637 Si / 1000 Ang^3
#
#
#
# Elastic Constant Matrix: (Units=GPa)
#
#
# Indices 1 2 3 4 5 6 
#
# 1 94.9014 53.5944 13.5699 0.0000 0.0000 0.0000
# 2 53.5944 139.3584 37.3545 0.0000 0.0000 0.0000
# 3 13.5699 37.3545 40.0748 0.0000 0.0000 0.0000
# 4 0.0000 0.0000 0.0000 -8.6978 0.0000 0.0000
# 5 0.0000 0.0000 0.0000 0.0000 -0.8884 0.0000
# 6 0.0000 0.0000 0.0000 0.0000 0.0000 6.4520
#
#
#
# Elastic Compliance Matrix: (Units=1/GPa)
#
#
# Indices 1 2 3 4 5 6 
#
# 1 0.013465 -0.005274 0.000356 0.000000 0.000000 0.000000
# 2 -0.005274 0.011631 -0.009056 0.000000 0.000000 0.000000
# 3 0.000356 -0.009056 0.033274 0.000000 0.000000 0.000000
# 4 0.000000 0.000000 0.000000 -0.114972 0.000000 0.000000
# 5 0.000000 0.000000 0.000000 0.000000 -1.125609 0.000000
# 6 0.000000 0.000000 0.000000 0.000000 0.000000 0.154991
#
#
# Mechanical properties :
#
#
# Convention : Reuss Voigt Hill
#
# Bulk Modulus (GPa) = 32.86959 53.70803 43.28881
# Shear Modulus (GPa) = -5.05494 10.69421 2.81964
#
# Velocity S-wave (km/s) = -1.80236 2.62155 1.34611
# Velocity P-wave (km/s) = 4.09780 6.60895 5.49864
#
# Compressibility (1/GPa) = 0.03042326
#
# Stress axis : x y z
#
# Youngs Moduli (GPa) = 74.26896 85.97439 30.05350
#
# Poissons Ratio (x) = 0.45341 -0.01071
# Poissons Ratio (y) = 0.39168 0.27217
# Poissons Ratio (z) = -0.02648 0.77859
#
# Static dielectric constant tensor:
#      x y z
#    x 3.003400 0.000000 0.000000 
#    y 0.000000 3.114970 0.000000 
#    z 0.000000 0.000000 2.710310 
# 
# 
# High freq. dielectric constant tensor:
#      x y z
#    x 1.551190 0.000000 0.000000 
#    y 0.000000 1.580470 0.000000 
#    z 0.000000 0.000000 1.574030 
# 
# From -- ./inp_files/6669.got.cif
#   From: 2010.03.12/outbox.cif.g09.slc.cpg/sg47_4_cif.got.tgz:6669.got - 2010.04.14 03:12:58.
