data_PCOD8200626
_publ_section_title
;
Structure prediction by ZEFSAII (Michael W. Deem and Ramdas Pophale) SiO2 
 PCOD8200626
Probable space group: P M M M
;
_chemical_formula_sum "Si O2"
_cell_formula_units_Z 40
_cell_length_a 28.802961
_cell_length_b 9.447738
_cell_length_c 7.605671
_cell_angle_alpha 90.000000
_cell_angle_beta 90.000000
_cell_angle_gamma 90.000000
_cell_volume 2069.676710
_symmetry_space_group_name_H-M "P M M M"
_symmetry_group_IT_number 47
_symmetry_cell_setting 'orthorhombic'
loop_
_space_group_symop_operation_xyz
x,y,z
-x,-y,z
x,-y,-z
-x,y,-z
-x,-y,-z
x,y,-z
-x,y,z
x,-y,z
loop_
_atom_site_type_symbol
_atom_site_label
_atom_site_fract_x
_atom_site_fract_y
_atom_site_fract_z
Si Si1 0.864507 0.348667 0.799360
Si Si2 0.397830 0.838022 0.500000
Si Si3 0.288067 0.163244 0.500000
Si Si4 0.553956 0.662625 0.797949
Si Si5 0.050840 0.841068 0.293091
Si Si6 0.236946 0.667443 0.795769
O O1 0.877653 0.500000 0.709847
O O2 0.907460 0.244748 0.788067
O O3 0.815313 0.291751 0.726000
O O4 0.853262 0.377945 0.000000
O O5 0.342955 0.828305 0.500000
O O6 0.416195 0.763565 0.324700
O O7 0.414942 0.000000 0.500000
O O8 0.271257 0.241671 0.323684
O O9 0.270978 0.000000 0.500000
O O10 0.500000 0.687838 0.757668
O O11 0.567068 0.500000 0.758448
O O12 0.565302 0.699889 0.000000
O O13 0.055945 0.838271 0.500000
O O14 0.000000 0.779584 0.238209
O O15 0.054902 0.000000 0.221448
O O16 0.245445 0.500000 0.768092
O O17 0.245155 0.709182 0.000000
#
# Coordination Sequence:
#
# PCOD8200626 Si02
#       6
#     8   4   4   8   8   8
#     4   9  19  35  54  77 102 128 164 214 268 318
#     4  11  24  38  53  82 122 157 191 234 285 340
#     4  11  25  40  56  83 117 153 190 232 287 341
#     4   9  19  37  61  88 117 152 196 242 284 328
#     4   9  19  34  49  70 103 138 170 205 248 306
#     4   9  20  40  62  83 109 142 185 236 285 338
#
# _framework density 19.326688000000001
#
# number of rings (size 3 to 8) (size 9 to 14) (size 15 to 20)
#    0.000    2.600    0.000    3.300    1.400    7.200 
#    0.000   10.000    0.000    0.000    0.000    0.000 
#    0.000    0.000    0.000    0.000    0.000    0.000 
#
# Total GULP energy -495716.609742 kJ/mol
# GULP energy per Si atom -12392.915244 kJ/mol
# Density = 1.928270 g / cm^3
# Si number density = 19.326688 Si / 1000 Ang^3
#
#
#
# Elastic Constant Matrix: (Units=GPa)
#
#
# Indices 1 2 3 4 5 6 
#
# 1 97.6068 62.9271 47.3083 0.0000 0.0000 0.0000
# 2 62.9271 105.8374 56.8530 0.0000 0.0000 0.0000
# 3 47.3083 56.8530 94.2843 0.0000 0.0000 0.0000
# 4 0.0000 0.0000 0.0000 22.7598 0.0000 0.0000
# 5 0.0000 0.0000 0.0000 0.0000 -21.8705 0.0000
# 6 0.0000 0.0000 0.0000 0.0000 0.0000 36.0633
#
#
#
# Elastic Compliance Matrix: (Units=1/GPa)
#
#
# Indices 1 2 3 4 5 6 
#
# 1 0.017443 -0.008386 -0.003696 0.000000 0.000000 0.000000
# 2 -0.008386 0.018007 -0.006650 0.000000 0.000000 0.000000
# 3 -0.003696 -0.006650 0.016471 0.000000 0.000000 0.000000
# 4 0.000000 0.000000 0.000000 0.043937 0.000000 0.000000
# 5 0.000000 0.000000 0.000000 0.000000 -0.045724 0.000000
# 6 0.000000 0.000000 0.000000 0.000000 0.000000 0.027729
#
#
# Mechanical properties :
#
#
# Convention : Reuss Voigt Hill
#
# Bulk Modulus (GPa) = 69.17129 70.21171 69.69150
# Shear Modulus (GPa) = 41.61674 16.09986 28.85830
#
# Velocity S-wave (km/s) = 4.64543 2.88937 3.86837
# Velocity P-wave (km/s) = 8.04000 6.89486 7.48935
#
# Compressibility (1/GPa) = 0.01445686
#
# Stress axis : x y z
#
# Youngs Moduli (GPa) = 57.33114 55.53527 60.71408
#
# Poissons Ratio (x) = 0.46569 0.22437
# Poissons Ratio (y) = 0.48075 0.40377
# Poissons Ratio (z) = 0.21187 0.36933
#
# Static dielectric constant tensor:
#      x y z
#    x 6.555530 0.000000 0.000000 
#    y 0.000000 3.906790 0.000000 
#    z 0.000000 0.000000 3.496990 
# 
# 
# High freq. dielectric constant tensor:
#      x y z
#    x 1.754310 0.000000 0.000000 
#    y 0.000000 1.744180 0.000000 
#    z 0.000000 0.000000 1.755830 
# 
# From -- ./inp_files/13007.got.cif
#   From: 2010.03.12/outbox.cif.g09.slc.cpg/sg47_7_cif.got.tgz:13007.got - 2010.04.14 03:12:58.
