data_PCOD8200924
_publ_section_title
;
Structure prediction by ZEFSAII (Michael W. Deem and Ramdas Pophale) SiO2 
 PCOD8200924
Probable space group: P M M M
;
_chemical_formula_sum "Si O2"
_cell_formula_units_Z 36
_cell_length_a 9.650913
_cell_length_b 9.778589
_cell_length_c 23.265222
_cell_angle_alpha 90.000000
_cell_angle_beta 90.000000
_cell_angle_gamma 90.000000
_cell_volume 2195.592782
_symmetry_space_group_name_H-M "P M M M"
_symmetry_group_IT_number 47
_symmetry_cell_setting 'orthorhombic'
loop_
_space_group_symop_operation_xyz
x,y,z
-x,-y,z
x,-y,-z
-x,y,-z
-x,-y,-z
x,y,-z
-x,y,z
x,-y,z
loop_
_atom_site_type_symbol
_atom_site_label
_atom_site_fract_x
_atom_site_fract_y
_atom_site_fract_z
Si Si1 0.343330 0.336595 0.500000
Si Si2 0.661898 0.659009 0.165721
Si Si3 0.845024 0.337644 0.730096
Si Si4 0.155734 0.662674 0.397267
Si Si5 0.664581 0.153287 0.063635
O O1 0.343097 0.500000 0.500000
O O2 0.500000 0.279962 0.500000
O O3 0.264238 0.278966 0.556293
O O4 0.500000 0.685545 0.175310
O O5 0.694020 0.500000 0.155077
O O6 0.738906 0.717690 0.222105
O O7 0.721529 0.740401 0.110698
O O8 0.841401 0.500000 0.729889
O O9 0.801318 0.285036 0.666508
O O10 0.000000 0.286191 0.744835
O O11 0.158197 0.500000 0.398787
O O12 0.000000 0.713116 0.412248
O O13 0.500000 0.158453 0.063279
O O14 0.714956 0.000000 0.079114
O O15 0.719547 0.194457 0.000000
#
# Coordination Sequence:
#
# PCOD8200924 Si02
#       5
#     4   8   8   8   8
#     4   9  15  19  25  41  63  87 118 157 196 225
#     4   9  16  24  37  59  80  96 122 163 201 226
#     4   8  14  24  36  49  68  97 128 155 189 234
#     4   8  13  21  31  41  57  87 125 156 181 219
#     4   8  14  25  40  57  78 104 130 154 186 232
#
# _framework density 16.396484000000001
#
# number of rings (size 3 to 8) (size 9 to 14) (size 15 to 20)
#    0.000    3.667    0.000    2.333    0.000    2.667 
#    0.000    6.667    0.000    1.333    0.000    4.667 
#    0.000    0.000    0.000    1.000    0.000   21.333 
#
# Total GULP energy -446064.749017 kJ/mol
# GULP energy per Si atom -12390.687473 kJ/mol
# Density = 1.635916 g / cm^3
# Si number density = 16.396484 Si / 1000 Ang^3
#
#
#
# Elastic Constant Matrix: (Units=GPa)
#
#
# Indices 1 2 3 4 5 6 
#
# 1 76.7477 21.8970 78.1641 0.0000 0.0000 0.0000
# 2 21.8970 27.4653 42.5912 0.0000 0.0000 0.0000
# 3 78.1641 42.5912 175.8927 0.0000 0.0000 0.0000
# 4 0.0000 0.0000 0.0000 2.3637 0.0000 0.0000
# 5 0.0000 0.0000 0.0000 0.0000 21.7382 0.0000
# 6 0.0000 0.0000 0.0000 0.0000 0.0000 4.4351
#
#
#
# Elastic Compliance Matrix: (Units=1/GPa)
#
#
# Indices 1 2 3 4 5 6 
#
# 1 0.024097 -0.004173 -0.009698 0.000000 0.000000 0.000000
# 2 -0.004173 0.059024 -0.012438 0.000000 0.000000 0.000000
# 3 -0.009698 -0.012438 0.013007 0.000000 0.000000 0.000000
# 4 0.000000 0.000000 0.000000 0.423073 0.000000 0.000000
# 5 0.000000 0.000000 0.000000 0.000000 0.046002 0.000000
# 6 0.000000 0.000000 0.000000 0.000000 0.000000 0.225475
#
#
# Mechanical properties :
#
#
# Convention : Reuss Voigt Hill
#
# Bulk Modulus (GPa) = 22.98285 62.82337 42.90311
# Shear Modulus (GPa) = 5.82887 14.87096 10.34991
#
# Velocity S-wave (km/s) = 1.88750 3.01484 2.51515
# Velocity P-wave (km/s) = 4.33562 7.10756 5.88706
#
# Compressibility (1/GPa) = 0.04351071
#
# Stress axis : x y z
#
# Youngs Moduli (GPa) = 41.49844 16.94217 76.88310
#
# Poissons Ratio (x) = 0.07069 0.74562
# Poissons Ratio (y) = 0.17316 0.95628
# Poissons Ratio (z) = 0.40246 0.21073
#
# Static dielectric constant tensor:
#      x y z
#    x 3.020160 0.000000 0.000000 
#    y 0.000000 2.583300 0.000000 
#    z 0.000000 0.000000 3.627550 
# 
# 
# High freq. dielectric constant tensor:
#      x y z
#    x 1.607710 0.000000 0.000000 
#    y 0.000000 1.561840 0.000000 
#    z 0.000000 0.000000 1.648690 
# 
# From -- ./inp_files/1458.got.cif
#   From: 2010.03.12/outbox.cif.g09.slc.cpg/sg47_1_cif.got.tgz:1458.got - 2010.04.14 03:12:58.
