data_PCOD8200052
_publ_section_title
;
Structure prediction by ZEFSAII (Michael W. Deem and Ramdas Pophale) SiO2 
 PCOD8200052
Probable space group: P M M M
;
_chemical_formula_sum "Si O2"
_cell_formula_units_Z 56
_cell_length_a 15.432124
_cell_length_b 9.228482
_cell_length_c 20.030909
_cell_angle_alpha 90.000000
_cell_angle_beta 90.000000
_cell_angle_gamma 90.000000
_cell_volume 2852.703479
_symmetry_space_group_name_H-M "P M M M"
_symmetry_group_IT_number 47
_symmetry_cell_setting 'orthorhombic'
loop_
_space_group_symop_operation_xyz
x,y,z
-x,-y,z
x,-y,-z
-x,y,-z
-x,-y,-z
x,y,-z
-x,y,z
x,-y,z
loop_
_atom_site_type_symbol
_atom_site_label
_atom_site_fract_x
_atom_site_fract_y
_atom_site_fract_z
Si Si1 0.653209 0.834865 0.699090
Si Si2 0.758463 0.171566 0.076810
Si Si3 0.404643 0.172196 0.159245
Si Si4 0.858661 0.837408 0.713283
Si Si5 0.665802 0.331489 0.573086
Si Si6 0.841419 0.835161 0.428788
Si Si7 0.901806 0.333922 0.159766
O O1 0.609622 0.768894 0.765695
O O2 0.755756 0.818352 0.708538
O O3 0.617547 0.749518 0.634048
O O4 0.624956 0.000000 0.689233
O O5 0.669787 0.231791 0.109942
O O6 0.841122 0.242500 0.111346
O O7 0.766802 0.000000 0.085915
O O8 0.756943 0.217885 0.000000
O O9 0.500000 0.221996 0.133933
O O10 0.397811 0.000000 0.160365
O O11 0.898057 0.807054 0.638446
O O12 0.898527 0.724373 0.764645
O O13 0.882319 0.000000 0.737337
O O14 0.621879 0.302636 0.500000
O O15 0.665704 0.500000 0.589972
O O16 0.763828 0.277543 0.569723
O O17 0.893246 0.819758 0.500000
O O18 0.803986 0.000000 0.422693
O O19 0.871063 0.500000 0.159831
O O20 0.000000 0.320024 0.133326
#
# Coordination Sequence:
#
# PCOD8200052 Si02
#       7
#     8   8   8   8   8   8   8
#     4   9  16  28  48  73 103 139 177 219 267 318
#     4  10  21  39  63  89 115 142 175 216 265 322
#     4   9  17  32  56  86 117 144 174 216 265 318
#     4   9  16  29  51  77 105 139 182 229 273 320
#     4   9  16  24  37  63  98 135 179 228 272 315
#     4   8  14  25  42  67 100 136 174 219 272 325
#     4  11  24  39  56  80 111 148 187 226 270 320
#
# _framework density 19.630502
#
# number of rings (size 3 to 8) (size 9 to 14) (size 15 to 20)
#    0.000    2.714    1.429    1.714    0.000    5.143 
#    0.000    2.857    0.000    2.571    0.000    7.000 
#    0.000    0.000    0.000    0.000    0.000    0.000 
#
# Total GULP energy -693825.883826 kJ/mol
# GULP energy per Si atom -12389.747925 kJ/mol
# Density = 1.958582 g / cm^3
# Si number density = 19.630502 Si / 1000 Ang^3
#
#
#
# Elastic Constant Matrix: (Units=GPa)
#
#
# Indices 1 2 3 4 5 6 
#
# 1 75.4934 21.4652 52.6812 0.0000 0.0000 0.0000
# 2 21.4652 58.0656 53.3674 0.0000 0.0000 0.0000
# 3 52.6812 53.3674 176.9586 0.0000 0.0000 0.0000
# 4 0.0000 0.0000 0.0000 18.0596 0.0000 0.0000
# 5 0.0000 0.0000 0.0000 0.0000 0.5707 0.0000
# 6 0.0000 0.0000 0.0000 0.0000 0.0000 7.2805
#
#
#
# Elastic Compliance Matrix: (Units=1/GPa)
#
#
# Indices 1 2 3 4 5 6 
#
# 1 0.016929 -0.002250 -0.004361 0.000000 0.000000 0.000000
# 2 -0.002250 0.024125 -0.006606 0.000000 0.000000 0.000000
# 3 -0.004361 -0.006606 0.008942 0.000000 0.000000 0.000000
# 4 0.000000 0.000000 0.000000 0.055372 0.000000 0.000000
# 5 0.000000 0.000000 0.000000 0.000000 1.752163 0.000000
# 6 0.000000 0.000000 0.000000 0.000000 0.000000 0.137354
#
#
# Mechanical properties :
#
#
# Convention : Reuss Voigt Hill
#
# Bulk Modulus (GPa) = 42.44145 62.83835 52.63990
# Shear Modulus (GPa) = 2.46406 17.38240 9.92323
#
# Velocity S-wave (km/s) = 1.12158 2.97893 2.25077
# Velocity P-wave (km/s) = 4.83160 6.62662 5.79898
#
# Compressibility (1/GPa) = 0.02356187
#
# Stress axis : x y z
#
# Youngs Moduli (GPa) = 59.06879 41.45085 111.83580
#
# Poissons Ratio (x) = 0.09325 0.48777
# Poissons Ratio (y) = 0.13289 0.73877
# Poissons Ratio (z) = 0.25763 0.27382
#
# Static dielectric constant tensor:
#      x y z
#    x 3.253100 0.000000 0.000000 
#    y 0.000000 3.355040 0.000000 
#    z 0.000000 0.000000 4.113940 
# 
# 
# High freq. dielectric constant tensor:
#      x y z
#    x 1.728930 0.000000 0.000000 
#    y 0.000000 1.737120 0.000000 
#    z 0.000000 0.000000 1.783520 
# 
# From -- ./inp_files/25128.got.cif
#   From: 2010.03.12/outbox.cif.g09.slc.cpg/sg47_13_cif.got.tgz:25128.got - 2010.04.14 03:12:58.
