data_PCOD8200895
_publ_section_title
;
Structure prediction by ZEFSAII (Michael W. Deem and Ramdas Pophale) SiO2 
 PCOD8200895
Probable space group: P M M M
;
_chemical_formula_sum "Si O2"
_cell_formula_units_Z 44
_cell_length_a 9.495059
_cell_length_b 28.406376
_cell_length_c 9.791526
_cell_angle_alpha 90.000000
_cell_angle_beta 90.000000
_cell_angle_gamma 90.000000
_cell_volume 2640.972509
_symmetry_space_group_name_H-M "P M M M"
_symmetry_group_IT_number 47
_symmetry_cell_setting 'orthorhombic'
loop_
_space_group_symop_operation_xyz
x,y,z
-x,-y,z
x,-y,-z
-x,y,-z
-x,-y,-z
x,y,-z
-x,y,z
x,-y,z
loop_
_atom_site_type_symbol
_atom_site_label
_atom_site_fract_x
_atom_site_fract_y
_atom_site_fract_z
Si Si1 0.168053 0.632601 0.347759
Si Si2 0.663988 0.176968 0.657168
Si Si3 0.167507 0.447807 0.847084
Si Si4 0.663528 0.910738 0.158773
Si Si5 0.843679 0.264321 0.337557
Si Si6 0.840814 0.000000 0.161940
O O1 0.228426 0.624532 0.500000
O O2 0.232777 0.591866 0.251879
O O3 0.212388 0.684208 0.289897
O O4 0.000000 0.630301 0.351582
O O5 0.705138 0.166019 0.500000
O O6 0.500000 0.187215 0.671653
O O7 0.710595 0.133536 0.750932
O O8 0.741830 0.223169 0.714880
O O9 0.214741 0.500000 0.797967
O O10 0.000000 0.444674 0.845457
O O11 0.223414 0.438464 0.000000
O O12 0.500000 0.923519 0.182148
O O13 0.757221 0.954049 0.212607
O O14 0.692500 0.899320 0.000000
O O15 0.849034 0.265087 0.500000
O O16 0.000000 0.254643 0.278733
O O17 0.000000 0.000000 0.221249
O O18 0.843925 0.000000 0.000000
#
# Coordination Sequence:
#
# PCOD8200895 Si02
#       6
#     8   8   8   8   8   4
#     4   8  13  21  33  48  66  92 127 160 188 226
#     4   9  17  29  45  64  84 107 137 170 201 236
#     4   8  13  20  29  43  67  98 126 153 191 236
#     4   9  17  30  47  64  83 109 138 166 200 241
#     4   8  14  25  40  57  79 107 134 161 199 244
#     4   9  17  29  46  67  88 110 138 171 202 234
#
# _framework density 16.660530000000001
#
# number of rings (size 3 to 8) (size 9 to 14) (size 15 to 20)
#    0.000    3.545    0.000    1.909    0.000    2.182 
#    0.000    3.182    0.000    3.818    0.000    0.000 
#    0.000    0.727    0.000    9.091    0.000   10.545 
#
# Total GULP energy -545298.536836 kJ/mol
# GULP energy per Si atom -12393.148564 kJ/mol
# Density = 1.662261 g / cm^3
# Si number density = 16.660530 Si / 1000 Ang^3
#
#
#
# Elastic Constant Matrix: (Units=GPa)
#
#
# Indices 1 2 3 4 5 6 
#
# 1 42.8921 57.1859 24.2429 0.0000 0.0000 0.0000
# 2 57.1859 189.3973 71.4228 0.0000 0.0000 0.0000
# 3 24.2429 71.4228 59.4734 0.0000 0.0000 0.0000
# 4 0.0000 0.0000 0.0000 25.9602 0.0000 0.0000
# 5 0.0000 0.0000 0.0000 0.0000 9.4940 0.0000
# 6 0.0000 0.0000 0.0000 0.0000 0.0000 7.8427
#
#
#
# Elastic Compliance Matrix: (Units=1/GPa)
#
#
# Indices 1 2 3 4 5 6 
#
# 1 0.039362 -0.010663 -0.003239 0.000000 0.000000 0.000000
# 2 -0.010663 0.012539 -0.010712 0.000000 0.000000 0.000000
# 3 -0.003239 -0.010712 0.030998 0.000000 0.000000 0.000000
# 4 0.000000 0.000000 0.000000 0.038521 0.000000 0.000000
# 5 0.000000 0.000000 0.000000 0.000000 0.105329 0.000000
# 6 0.000000 0.000000 0.000000 0.000000 0.000000 0.127507
#
#
# Mechanical properties :
#
#
# Convention : Reuss Voigt Hill
#
# Bulk Modulus (GPa) = 29.69904 66.38511 48.04208
# Shear Modulus (GPa) = 12.05667 17.92013 14.98840
#
# Velocity S-wave (km/s) = 2.69302 3.28320 3.00265
# Velocity P-wave (km/s) = 5.24733 7.36918 6.39685
#
# Compressibility (1/GPa) = 0.03367112
#
# Stress axis : x y z
#
# Youngs Moduli (GPa) = 25.40521 79.75138 32.25965
#
# Poissons Ratio (x) = 0.85041 0.10450
# Poissons Ratio (y) = 0.27090 0.34555
# Poissons Ratio (z) = 0.08229 0.85427
#
# Static dielectric constant tensor:
#      x y z
#    x 2.853290 0.000000 0.000000 
#    y 0.000000 3.487050 0.000000 
#    z 0.000000 0.000000 3.029380 
# 
# 
# High freq. dielectric constant tensor:
#      x y z
#    x 1.598130 0.000000 0.000000 
#    y 0.000000 1.656520 0.000000 
#    z 0.000000 0.000000 1.612200 
# 
# From -- ./inp_files/1992.got.cif
#   From: 2010.03.12/outbox.cif.g09.slc.cpg/sg47_1_cif.got.tgz:1992.got - 2010.04.14 03:12:58.
