data_PCOD8200725
_publ_section_title
;
Structure prediction by ZEFSAII (Michael W. Deem and Ramdas Pophale) SiO2 
 PCOD8200725
Probable space group: P M M M
;
_chemical_formula_sum "Si O2"
_cell_formula_units_Z 40
_cell_length_a 12.717400
_cell_length_b 9.321242
_cell_length_c 20.003540
_cell_angle_alpha 90.000000
_cell_angle_beta 90.000000
_cell_angle_gamma 90.000000
_cell_volume 2371.258899
_symmetry_space_group_name_H-M "P M M M"
_symmetry_group_IT_number 47
_symmetry_cell_setting 'orthorhombic'
loop_
_space_group_symop_operation_xyz
x,y,z
-x,-y,z
x,-y,-z
-x,y,-z
-x,-y,-z
x,y,-z
-x,y,z
x,-y,z
loop_
_atom_site_type_symbol
_atom_site_label
_atom_site_fract_x
_atom_site_fract_y
_atom_site_fract_z
Si Si1 0.500000 0.655978 0.078943
Si Si2 0.879400 0.667886 0.188941
Si Si3 0.702287 0.166729 0.423067
Si Si4 0.880397 0.166861 0.679482
Si Si5 0.500000 0.662527 0.420517
Si Si6 0.725487 0.671832 0.074728
O O1 0.500000 0.500000 0.114184
O O2 0.610306 0.734572 0.097747
O O3 0.500000 0.634260 0.000000
O O4 0.861132 0.500000 0.199949
O O5 0.841861 0.746937 0.255766
O O6 0.812369 0.727654 0.126572
O O7 0.000000 0.703763 0.172653
O O8 0.725551 0.205127 0.500000
O O9 0.806479 0.209530 0.382374
O O10 0.604083 0.256854 0.394265
O O11 0.673938 0.000000 0.414725
O O12 0.000000 0.208552 0.660102
O O13 0.871283 0.000000 0.696673
O O14 0.500000 0.500000 0.393293
O O15 0.500000 0.667302 0.500000
O O16 0.719783 0.500000 0.074379
O O17 0.754927 0.726250 0.000000
#
# Coordination Sequence:
#
# PCOD8200725 Si02
#       6
#     4   8   8   8   4   8
#     4   7  10  18  33  54  80 106 130 163 210 254
#     4   9  17  28  42  61  86 115 144 176 216 261
#     4   9  17  30  49  70  90 115 150 189 224 261
#     4   9  18  32  48  65  88 119 150 182 225 272
#     4   9  17  29  46  69  96 122 146 177 222 271
#     4   8  13  22  38  60  84 109 139 176 215 254
#
# _framework density 16.868677000000002
#
# number of rings (size 3 to 8) (size 9 to 14) (size 15 to 20)
#    0.000    3.400    0.000    1.500    0.000    2.800 
#    0.000    5.000    0.000    1.800    0.000    8.400 
#    0.000    2.400    0.000    0.000    0.000    0.000 
#
# Total GULP energy -495706.408729 kJ/mol
# GULP energy per Si atom -12392.660218 kJ/mol
# Density = 1.683028 g / cm^3
# Si number density = 16.868677 Si / 1000 Ang^3
#
#
#
# Elastic Constant Matrix: (Units=GPa)
#
#
# Indices 1 2 3 4 5 6 
#
# 1 130.2981 40.5941 80.3250 0.0000 0.0000 0.0000
# 2 40.5941 37.6544 33.7945 0.0000 0.0000 0.0000
# 3 80.3250 33.7945 99.8530 0.0000 0.0000 0.0000
# 4 0.0000 0.0000 0.0000 16.7893 0.0000 0.0000
# 5 0.0000 0.0000 0.0000 0.0000 15.2867 0.0000
# 6 0.0000 0.0000 0.0000 0.0000 0.0000 16.6031
#
#
#
# Elastic Compliance Matrix: (Units=1/GPa)
#
#
# Indices 1 2 3 4 5 6 
#
# 1 0.017000 -0.008695 -0.010733 0.000000 0.000000 0.000000
# 2 -0.008695 0.042590 -0.007420 0.000000 0.000000 0.000000
# 3 -0.010733 -0.007420 0.021160 0.000000 0.000000 0.000000
# 4 0.000000 0.000000 0.000000 0.059562 0.000000 0.000000
# 5 0.000000 0.000000 0.000000 0.000000 0.065417 0.000000
# 6 0.000000 0.000000 0.000000 0.000000 0.000000 0.060230
#
#
# Mechanical properties :
#
#
# Convention : Reuss Voigt Hill
#
# Bulk Modulus (GPa) = 36.96162 64.13697 50.54930
# Shear Modulus (GPa) = 15.21279 17.27527 16.24403
#
# Velocity S-wave (km/s) = 3.00632 3.20363 3.10654
# Velocity P-wave (km/s) = 5.83177 7.19640 6.54972
#
# Compressibility (1/GPa) = 0.02705509
#
# Stress axis : x y z
#
# Youngs Moduli (GPa) = 58.82418 23.47956 47.25981
#
# Poissons Ratio (x) = 0.20415 0.50722
# Poissons Ratio (y) = 0.51145 0.35067
# Poissons Ratio (z) = 0.63133 0.17422
#
# Static dielectric constant tensor:
#      x y z
#    x 3.502530 0.000000 0.000000 
#    y 0.000000 2.865150 0.000000 
#    z 0.000000 0.000000 3.059220 
# 
# 
# High freq. dielectric constant tensor:
#      x y z
#    x 1.663260 0.000000 0.000000 
#    y 0.000000 1.612530 0.000000 
#    z 0.000000 0.000000 1.628450 
# 
# From -- ./inp_files/30336.got.cif
#   From: 2010.03.12/outbox.cif.g09.slc.cpg/sg47_16_cif.got.tgz:30336.got - 2010.04.14 03:12:58.
