data_PCOD8200393
_publ_section_title
;
Structure prediction by ZEFSAII (Michael W. Deem and Ramdas Pophale) SiO2 
 PCOD8200393
Probable space group: P M M M
;
_chemical_formula_sum "Si O2"
_cell_formula_units_Z 52
_cell_length_a 10.382720
_cell_length_b 9.142548
_cell_length_c 28.803167
_cell_angle_alpha 90.000000
_cell_angle_beta 90.000000
_cell_angle_gamma 90.000000
_cell_volume 2734.126686
_symmetry_space_group_name_H-M "P M M M"
_symmetry_group_IT_number 47
_symmetry_cell_setting 'orthorhombic'
loop_
_space_group_symop_operation_xyz
x,y,z
-x,-y,z
x,-y,-z
-x,y,-z
-x,-y,-z
x,y,-z
-x,y,z
x,-y,z
loop_
_atom_site_type_symbol
_atom_site_label
_atom_site_fract_x
_atom_site_fract_y
_atom_site_fract_z
Si Si1 0.644500 0.168628 0.886786
Si Si2 0.851246 0.327667 0.284906
Si Si3 0.855286 0.672601 0.947391
Si Si4 0.647720 0.339964 0.550200
Si Si5 0.646820 0.168930 0.221932
Si Si6 0.218832 0.828033 0.620092
Si Si7 0.000000 0.826967 0.449063
O O1 0.500000 0.219027 0.901074
O O2 0.750519 0.259407 0.913778
O O3 0.664382 0.194450 0.832471
O O4 0.663324 0.000000 0.899572
O O5 0.831748 0.500000 0.289968
O O6 0.753402 0.269318 0.246106
O O7 0.814096 0.250731 0.332480
O O8 0.000000 0.290577 0.271749
O O9 0.843843 0.500000 0.943512
O O10 0.000000 0.722047 0.932886
O O11 0.827428 0.723688 0.000000
O O12 0.703492 0.279566 0.500000
O O13 0.500000 0.364337 0.542151
O O14 0.710206 0.500000 0.561345
O O15 0.653908 0.230436 0.594864
O O16 0.500000 0.211588 0.236803
O O17 0.671786 0.000000 0.235107
O O18 0.121102 0.774808 0.580305
O O19 0.221388 0.000000 0.629921
O O20 0.000000 0.754237 0.500000
O O21 0.000000 0.000000 0.453117
#
# Coordination Sequence:
#
# PCOD8200393 Si02
#       7
#     8   8   8   8   8   8   4
#     4   9  19  36  57  83 114 146 185 237 291 343
#     4  11  24  40  58  82 114 147 183 228 278 334
#     4   9  19  35  53  77 114 158 200 241 284 334
#     4   9  19  36  55  76 106 141 174 211 257 311
#     4   9  20  40  63  85 111 145 187 234 286 344
#     4  11  21  35  56  79 106 138 173 216 263 313
#     4   9  18  32  51  77 105 131 163 207 256 303
#
# _framework density 19.01887
#
# number of rings (size 3 to 8) (size 9 to 14) (size 15 to 20)
#    0.000    2.385    0.769    3.231    0.000    5.538 
#    0.000    7.692    0.000    1.846    0.000    0.000 
#    0.000    0.000    0.000    0.000    0.000    0.000 
#
# Total GULP energy -644296.179858 kJ/mol
# GULP energy per Si atom -12390.311151 kJ/mol
# Density = 1.897558 g / cm^3
# Si number density = 19.018870 Si / 1000 Ang^3
#
#
#
# Elastic Constant Matrix: (Units=GPa)
#
#
# Indices 1 2 3 4 5 6 
#
# 1 113.6383 56.4034 62.7905 0.0000 0.0000 0.0000
# 2 56.4034 85.8416 49.6020 0.0000 0.0000 0.0000
# 3 62.7905 49.6020 88.1475 0.0000 0.0000 0.0000
# 4 0.0000 0.0000 0.0000 37.6665 0.0000 0.0000
# 5 0.0000 0.0000 0.0000 0.0000 40.0826 0.0000
# 6 0.0000 0.0000 0.0000 0.0000 0.0000 31.6757
#
#
#
# Elastic Compliance Matrix: (Units=1/GPa)
#
#
# Indices 1 2 3 4 5 6 
#
# 1 0.016327 -0.005939 -0.008289 0.000000 0.000000 0.000000
# 2 -0.005939 0.019422 -0.006699 0.000000 0.000000 0.000000
# 3 -0.008289 -0.006699 0.021019 0.000000 0.000000 0.000000
# 4 0.000000 0.000000 0.000000 0.026549 0.000000 0.000000
# 5 0.000000 0.000000 0.000000 0.000000 0.024949 0.000000
# 6 0.000000 0.000000 0.000000 0.000000 0.000000 0.031570
#
#
# Mechanical properties :
#
#
# Convention : Reuss Voigt Hill
#
# Bulk Modulus (GPa) = 67.04409 69.46882 68.25646
# Shear Modulus (GPa) = 26.78665 29.80705 28.29685
#
# Velocity S-wave (km/s) = 3.75697 3.96313 3.86142
# Velocity P-wave (km/s) = 7.35851 7.58600 7.47312
#
# Compressibility (1/GPa) = 0.01491556
#
# Stress axis : x y z
#
# Youngs Moduli (GPa) = 61.24684 51.48734 47.57677
#
# Poissons Ratio (x) = 0.30576 0.39436
# Poissons Ratio (y) = 0.36372 0.31872
# Poissons Ratio (z) = 0.50766 0.34491
#
# Static dielectric constant tensor:
#      x y z
#    x 3.636380 0.000000 0.000000 
#    y 0.000000 3.394170 0.000000 
#    z 0.000000 0.000000 3.508730 
# 
# 
# High freq. dielectric constant tensor:
#      x y z
#    x 1.745680 0.000000 0.000000 
#    y 0.000000 1.732460 0.000000 
#    z 0.000000 0.000000 1.740730 
# 
# From -- ./inp_files/33570.got.cif
#   From: 2010.03.12/outbox.cif.g09.slc.cpg/sg47_17_cif.got.tgz:33570.got - 2010.04.14 03:12:58.
