data_PCOD8200615
_publ_section_title
;
Structure prediction by ZEFSAII (Michael W. Deem and Ramdas Pophale) SiO2 
 PCOD8200615
Probable space group: P M M M
;
_chemical_formula_sum "Si O2"
_cell_formula_units_Z 48
_cell_length_a 30.761688
_cell_length_b 9.376165
_cell_length_c 9.360829
_cell_angle_alpha 90.000000
_cell_angle_beta 90.000000
_cell_angle_gamma 90.000000
_cell_volume 2699.912665
_symmetry_space_group_name_H-M "P M M M"
_symmetry_group_IT_number 47
_symmetry_cell_setting 'orthorhombic'
loop_
_space_group_symop_operation_xyz
x,y,z
-x,-y,z
x,-y,-z
-x,y,-z
-x,-y,-z
x,y,-z
-x,y,z
x,-y,z
loop_
_atom_site_type_symbol
_atom_site_label
_atom_site_fract_x
_atom_site_fract_y
_atom_site_fract_z
Si Si1 0.047701 0.830427 0.838922
Si Si2 0.790441 0.657574 0.669610
Si Si3 0.693363 0.332353 0.334608
Si Si4 0.128971 0.834535 0.333380
Si Si5 0.379639 0.833167 0.832214
Si Si6 0.449411 0.663528 0.335949
O O1 0.086005 0.767994 0.740113
O O2 0.000000 0.776443 0.786530
O O3 0.048355 0.000000 0.831547
O O4 0.055978 0.778031 0.000000
O O5 0.792474 0.652512 0.500000
O O6 0.799004 0.500000 0.732092
O O7 0.742312 0.710055 0.713337
O O8 0.827744 0.761164 0.730311
O O9 0.685121 0.293331 0.500000
O O10 0.685236 0.500000 0.310471
O O11 0.661953 0.241382 0.236285
O O12 0.123861 0.804675 0.500000
O O13 0.133839 0.000000 0.297994
O O14 0.423443 0.768366 0.766796
O O15 0.378134 0.000000 0.797116
O O16 0.379495 0.803198 0.000000
O O17 0.436944 0.695534 0.500000
O O18 0.500000 0.692138 0.309683
O O19 0.437598 0.500000 0.299460
#
# Coordination Sequence:
#
# PCOD8200615 Si02
#       6
#     8   8   8   8   8   8
#     4   8  14  25  40  58  83 116 150 182 221 270
#     4   8  15  29  48  69  93 120 149 185 232 283
#     4   9  18  34  56  77  95 123 167 210 244 286
#     4   9  16  25  41  67  92 112 142 186 229 268
#     4  11  24  37  49  73 109 141 167 200 245 293
#     4   9  19  37  60  83 104 129 167 211 248 287
#
# _framework density 17.778352999999999
#
# number of rings (size 3 to 8) (size 9 to 14) (size 15 to 20)
#    0.000    3.000    0.000    3.000    0.000    5.667 
#    0.000    6.667    0.000    4.000    0.000    3.500 
#    0.000    0.000    0.000    0.000    0.000    0.000 
#
# Total GULP energy -594999.383087 kJ/mol
# GULP energy per Si atom -12395.820481 kJ/mol
# Density = 1.773789 g / cm^3
# Si number density = 17.778353 Si / 1000 Ang^3
#
#
#
# Elastic Constant Matrix: (Units=GPa)
#
#
# Indices 1 2 3 4 5 6 
#
# 1 161.9540 71.7193 69.3954 0.0000 0.0000 0.0000
# 2 71.7193 74.7881 54.3875 0.0000 0.0000 0.0000
# 3 69.3954 54.3875 74.7340 0.0000 0.0000 0.0000
# 4 0.0000 0.0000 0.0000 21.1711 0.0000 0.0000
# 5 0.0000 0.0000 0.0000 0.0000 5.1122 0.0000
# 6 0.0000 0.0000 0.0000 0.0000 0.0000 20.4378
#
#
#
# Elastic Compliance Matrix: (Units=1/GPa)
#
#
# Indices 1 2 3 4 5 6 
#
# 1 0.011802 -0.007112 -0.005783 0.000000 0.000000 0.000000
# 2 -0.007112 0.032689 -0.017185 0.000000 0.000000 0.000000
# 3 -0.005783 -0.017185 0.031257 0.000000 0.000000 0.000000
# 4 0.000000 0.000000 0.000000 0.047234 0.000000 0.000000
# 5 0.000000 0.000000 0.000000 0.000000 0.195611 0.000000
# 6 0.000000 0.000000 0.000000 0.000000 0.000000 0.048929
#
#
# Mechanical properties :
#
#
# Convention : Reuss Voigt Hill
#
# Bulk Modulus (GPa) = 64.15474 78.05340 71.10407
# Shear Modulus (GPa) = 11.55056 17.07582 14.31319
#
# Velocity S-wave (km/s) = 2.55168 3.10253 2.84049
# Velocity P-wave (km/s) = 6.69669 7.53878 7.13018
#
# Compressibility (1/GPa) = 0.01558731
#
# Stress axis : x y z
#
# Youngs Moduli (GPa) = 84.73003 30.59142 31.99261
#
# Poissons Ratio (x) = 0.21757 0.18502
# Poissons Ratio (y) = 0.60262 0.54980
# Poissons Ratio (z) = 0.49001 0.52572
#
# Static dielectric constant tensor:
#      x y z
#    x 3.689350 0.000000 0.000000 
#    y 0.000000 3.181160 0.000000 
#    z 0.000000 0.000000 3.125290 
# 
# 
# High freq. dielectric constant tensor:
#      x y z
#    x 1.707550 0.000000 0.000000 
#    y 0.000000 1.663780 0.000000 
#    z 0.000000 0.000000 1.664180 
# 
# From -- ./inp_files/13793.got.cif
#   From: 2010.03.12/outbox.cif.g09.slc.cpg/sg47_7_cif.got.tgz:13793.got - 2010.04.14 03:12:58.
