data_PCOD8200335
_publ_section_title
;
Structure prediction by ZEFSAII (Michael W. Deem and Ramdas Pophale) SiO2 
 PCOD8200335
Probable space group: P M M M
;
_chemical_formula_sum "Si O2"
_cell_formula_units_Z 40
_cell_length_a 12.519031
_cell_length_b 22.334497
_cell_length_c 9.289339
_cell_angle_alpha 90.000000
_cell_angle_beta 90.000000
_cell_angle_gamma 90.000000
_cell_volume 2597.357339
_symmetry_space_group_name_H-M "P M M M"
_symmetry_group_IT_number 47
_symmetry_cell_setting 'orthorhombic'
loop_
_space_group_symop_operation_xyz
x,y,z
-x,-y,z
x,-y,-z
-x,y,-z
-x,-y,-z
x,y,-z
-x,y,z
x,-y,z
loop_
_atom_site_type_symbol
_atom_site_label
_atom_site_fract_x
_atom_site_fract_y
_atom_site_fract_z
Si Si1 0.121394 0.240337 0.333509
Si Si2 0.000000 0.570941 0.834046
Si Si3 0.805125 0.370021 0.330500
Si Si4 0.117689 0.000000 0.828393
Si Si5 0.872137 0.128053 0.161916
Si Si6 0.623443 0.569404 0.164177
O O1 0.123995 0.225021 0.500000
O O2 0.188506 0.299435 0.297021
O O3 0.173356 0.182911 0.255262
O O4 0.000000 0.251811 0.281257
O O5 0.104493 0.594738 0.755015
O O6 0.000000 0.500000 0.824476
O O7 0.000000 0.592380 0.000000
O O8 0.819129 0.382721 0.500000
O O9 0.690124 0.391346 0.276178
O O10 0.174200 0.063081 0.782515
O O11 0.000000 0.000000 0.758981
O O12 0.107354 0.000000 0.000000
O O13 0.000000 0.125328 0.171411
O O14 0.833892 0.140025 0.000000
O O15 0.500000 0.584524 0.190407
O O16 0.646451 0.500000 0.194872
O O17 0.655990 0.584814 0.000000
#
# Coordination Sequence:
#
# PCOD8200335 Si02
#       6
#     8   4   8   4   8   8
#     4   9  17  29  39  53  83 116 142 174 214 252
#     4  11  23  35  47  65  89 116 147 182 221 265
#     4  11  21  33  48  67  91 118 147 182 222 263
#     4   7  10  18  31  49  73  97 130 179 218 239
#     4   8  13  21  35  53  72 101 141 178 210 246
#     4   9  19  36  54  70  89 112 140 179 226 271
#
# _framework density 15.400269
#
# number of rings (size 3 to 8) (size 9 to 14) (size 15 to 20)
#    0.000    2.800    1.000    3.300    0.000    5.600 
#    0.000    1.500    0.000    3.000    0.000    0.000 
#    0.000    0.000    0.000    0.900    0.000   17.700 
#
# Total GULP energy -495698.536918 kJ/mol
# GULP energy per Si atom -12392.463423 kJ/mol
# Density = 1.536522 g / cm^3
# Si number density = 15.400269 Si / 1000 Ang^3
#
#
#
# Elastic Constant Matrix: (Units=GPa)
#
#
# Indices 1 2 3 4 5 6 
#
# 1 48.9764 41.7401 33.2998 0.0000 0.0000 0.0000
# 2 41.7401 133.8044 67.1822 0.0000 0.0000 0.0000
# 3 33.2998 67.1822 78.4773 0.0000 0.0000 0.0000
# 4 0.0000 0.0000 0.0000 17.5290 0.0000 0.0000
# 5 0.0000 0.0000 0.0000 0.0000 20.2158 0.0000
# 6 0.0000 0.0000 0.0000 0.0000 0.0000 8.3109
#
#
#
# Elastic Compliance Matrix: (Units=1/GPa)
#
#
# Indices 1 2 3 4 5 6 
#
# 1 0.030721 -0.005329 -0.008474 0.000000 0.000000 0.000000
# 2 -0.005329 0.014032 -0.009751 0.000000 0.000000 0.000000
# 3 -0.008474 -0.009751 0.024686 0.000000 0.000000 0.000000
# 4 0.000000 0.000000 0.000000 0.057048 0.000000 0.000000
# 5 0.000000 0.000000 0.000000 0.000000 0.049466 0.000000
# 6 0.000000 0.000000 0.000000 0.000000 0.000000 0.120324
#
#
# Mechanical properties :
#
#
# Convention : Reuss Voigt Hill
#
# Bulk Modulus (GPa) = 44.78042 60.63357 52.70699
# Shear Modulus (GPa) = 14.25197 17.14687 15.69942
#
# Velocity S-wave (km/s) = 3.04540 3.34040 3.19631
# Velocity P-wave (km/s) = 6.44257 7.37123 6.92249
#
# Compressibility (1/GPa) = 0.02233119
#
# Stress axis : x y z
#
# Youngs Moduli (GPa) = 32.55116 71.26624 40.50884
#
# Poissons Ratio (x) = 0.37975 0.34327
# Poissons Ratio (y) = 0.17345 0.39501
# Poissons Ratio (z) = 0.27583 0.69493
#
# Static dielectric constant tensor:
#      x y z
#    x 2.543480 0.000000 0.000000 
#    y 0.000000 3.293270 0.000000 
#    z 0.000000 0.000000 2.954560 
# 
# 
# High freq. dielectric constant tensor:
#      x y z
#    x 1.530920 0.000000 0.000000 
#    y 0.000000 1.604400 0.000000 
#    z 0.000000 0.000000 1.588200 
# 
# From -- ./inp_files/4062.got.cif
#   From: 2010.03.12/outbox.cif.g09.slc.cpg/sg47_3_cif.got.tgz:4062.got - 2010.04.14 03:12:58.
