data_PCOD8201430
_publ_section_title
;
Structure prediction by ZEFSAII (Michael W. Deem and Ramdas Pophale) SiO2 
 PCOD8201430
Probable space group: P N N N
;
_chemical_formula_sum "Si O2"
_cell_formula_units_Z 64
_cell_length_a 33.357044
_cell_length_b 9.153396
_cell_length_c 10.747541
_cell_angle_alpha 90.000000
_cell_angle_beta 90.000000
_cell_angle_gamma 90.000000
_cell_volume 3281.549199
_symmetry_space_group_name_H-M "P N N N"
_symmetry_group_IT_number 48
_space_group.IT_coordinate_system_code '2'
_symmetry_cell_setting 'orthorhombic'
loop_
_space_group_symop_operation_xyz
x,y,z
1/2-x,1/2-y,z
x,1/2-y,1/2-z
1/2-x,y,1/2-z
-x,-y,-z
1/2+x,1/2+y,-z
-x,1/2+y,1/2+z
1/2+x,-y,1/2+z
loop_
_atom_site_type_symbol
_atom_site_label
_atom_site_fract_x
_atom_site_fract_y
_atom_site_fract_z
Si Si1 0.086151 0.922966 0.987039
Si Si2 0.250000 0.092377 0.608655
Si Si3 0.705862 0.078746 0.750000
Si Si4 0.550285 0.075638 0.750000
Si Si5 0.086151 0.577034 0.987039
Si Si6 0.534829 0.424043 0.250000
Si Si7 0.675394 0.422208 0.489486
Si Si8 0.675394 0.422208 0.010514
O O1 0.086502 0.750000 0.993080
O O2 0.057695 0.977004 0.875114
O O3 0.072546 0.979924 0.123867
O O4 0.131015 0.977147 0.952526
O O5 0.250000 0.250000 0.536681
O O6 0.250000 0.131908 0.750000
O O7 0.209933 0.001158 0.585768
O O8 0.290068 0.001159 0.585768
O O9 0.712641 0.250000 0.750000
O O10 0.750000 0.003702 0.750000
O O11 0.680285 0.031053 0.867687
O O12 0.680285 0.031053 0.632313
O O13 0.546139 0.250000 0.750000
O O14 0.507022 0.004276 0.750000
O O15 0.572546 0.020076 0.876133
O O16 0.057695 0.522996 0.875113
O O17 0.131015 0.522853 0.952526
O O18 0.529174 0.250000 0.250000
O O19 0.680527 0.250000 0.467337
#
# Coordination Sequence:
#
# PCOD8201430 Si02
#       8
#     8   8   8   8   8   8   8   8
#     4   9  19  33  55  83 110 137 178 230 269 310
#     4  11  25  40  51  72 112 151 180 223 272 317
#     4   9  15  27  50  83 107 122 164 227 272 305
#     4  10  19  36  57  81 110 145 177 210 272 339
#     4   9  19  33  55  83 110 137 178 230 269 310
#     4  10  20  35  53  80 111 139 177 229 270 308
#     4  10  19  35  59  82 105 140 183 225 269 321
#     4  10  19  35  59  82 105 140 183 225 269 321
#
# _framework density 19.502983
#
# number of rings (size 3 to 8) (size 9 to 14) (size 15 to 20)
#    0.000    2.250    1.250    1.875    1.750    4.000 
#    0.000    3.750    0.000    0.000    0.000    0.000 
#    0.000    0.000    0.000    0.000    0.000    0.000 
#
# Total GULP energy -793116.263843 kJ/mol
# GULP energy per Si atom -12392.441623 kJ/mol
# Density = 1.945859 g / cm^3
# Si number density = 19.502983 Si / 1000 Ang^3
#
#
#
# Elastic Constant Matrix: (Units=GPa)
#
#
# Indices 1 2 3 4 5 6 
#
# 1 179.4131 42.6546 56.5718 0.0000 0.0000 0.0000
# 2 42.6546 43.9160 25.8264 0.0000 0.0000 0.0000
# 3 56.5718 25.8264 120.6334 0.0000 0.0000 0.0000
# 4 0.0000 0.0000 0.0000 12.8306 0.0000 0.0000
# 5 0.0000 0.0000 0.0000 0.0000 22.8066 0.0000
# 6 0.0000 0.0000 0.0000 0.0000 0.0000 32.6087
#
#
#
# Elastic Compliance Matrix: (Units=1/GPa)
#
#
# Indices 1 2 3 4 5 6 
#
# 1 0.007777 -0.006188 -0.002322 0.000000 0.000000 0.000000
# 2 -0.006188 0.030974 -0.003729 0.000000 0.000000 0.000000
# 3 -0.002322 -0.003729 0.010177 0.000000 0.000000 0.000000
# 4 0.000000 0.000000 0.000000 0.077939 0.000000 0.000000
# 5 0.000000 0.000000 0.000000 0.000000 0.043847 0.000000
# 6 0.000000 0.000000 0.000000 0.000000 0.000000 0.030667
#
#
# Mechanical properties :
#
#
# Convention : Reuss Voigt Hill
#
# Bulk Modulus (GPa) = 40.90150 66.00757 53.45454
# Shear Modulus (GPa) = 21.36659 28.24316 24.80488
#
# Velocity S-wave (km/s) = 3.31351 3.80958 3.57017
# Velocity P-wave (km/s) = 5.97131 7.29855 6.66804
#
# Compressibility (1/GPa) = 0.02444898
#
# Stress axis : x y z
#
# Youngs Moduli (GPa) = 128.58121 32.28487 98.26000
#
# Poissons Ratio (x) = 0.19978 0.22819
# Poissons Ratio (y) = 0.79567 0.36645
# Poissons Ratio (z) = 0.29861 0.12040
#
# Static dielectric constant tensor:
#      x y z
#    x 3.766720 0.000000 0.000000 
#    y 0.000000 3.116450 0.000000 
#    z 0.000000 0.000000 3.768420 
# 
# 
# High freq. dielectric constant tensor:
#      x y z
#    x 1.775650 0.000000 0.000000 
#    y 0.000000 1.709360 0.000000 
#    z 0.000000 0.000000 1.771050 
# 
# From -- ./inp_files/23857.got.cif
#   From: 2010.06.25/outbox.cif.g09.slc.cpg/sg48_12_cif.got.tgz:23857.got - 2010.06.26 18:06:46.
