data_PCOD8201928
_publ_section_title
;
Structure prediction by ZEFSAII (Michael W. Deem and Ramdas Pophale) SiO2 
 PCOD8201928
Probable space group: P N N N
;
_chemical_formula_sum "Si O2"
_cell_formula_units_Z 32
_cell_length_a 15.306204
_cell_length_b 10.176736
_cell_length_c 8.426636
_cell_angle_alpha 90.000000
_cell_angle_beta 90.000000
_cell_angle_gamma 90.000000
_cell_volume 1312.593472
_symmetry_space_group_name_H-M "P N N N"
_symmetry_group_IT_number 48
_space_group.IT_coordinate_system_code '2'
_symmetry_cell_setting 'orthorhombic'
loop_
_space_group_symop_operation_xyz
x,y,z
1/2-x,1/2-y,z
x,1/2-y,1/2-z
1/2-x,y,1/2-z
-x,-y,-z
1/2+x,1/2+y,-z
-x,1/2+y,1/2+z
1/2+x,-y,1/2+z
loop_
_atom_site_type_symbol
_atom_site_label
_atom_site_fract_x
_atom_site_fract_y
_atom_site_fract_z
Si Si1 0.391069 0.805258 0.425218
Si Si2 0.724591 0.553586 0.923073
Si Si3 0.164091 0.575262 0.845890
Si Si4 0.922312 0.871563 0.132427
O O1 0.393906 0.750000 0.250000
O O2 0.379655 0.698027 0.564246
O O3 0.483430 0.879091 0.453027
O O4 0.310969 0.904715 0.424037
O O5 0.750000 0.606037 0.750000
O O6 0.811591 0.541573 0.030327
O O7 0.653079 0.650974 0.999402
O O8 0.250000 0.621482 0.750000
O O9 0.095152 0.510635 0.722899
O O10 0.917094 0.750000 0.250000
#
# Coordination Sequence:
#
# PCOD8201928 Si02
#       4
#     8   8   8   8
#     4  11  22  41  73 106 141 172 237 299 350 401
#     4  11  22  42  71 102 135 177 238 290 349 407
#     4  10  23  42  73 104 136 182 233 290 350 407
#     4  10  25  45  69  97 150 189 229 281 356 426
#
# _framework density 24.379216
#
# number of rings (size 3 to 8) (size 9 to 14) (size 15 to 20)
#    0.000    1.500    2.500    1.500    0.000   15.500 
#    0.000    2.500    0.000    0.000    0.000    0.000 
#    0.000    0.000    0.000    0.000    0.000    0.000 
#
# Total GULP energy -396752.322326 kJ/mol
# GULP energy per Si atom -12398.510073 kJ/mol
# Density = 2.432373 g / cm^3
# Si number density = 24.379216 Si / 1000 Ang^3
#
#
#
# Elastic Constant Matrix: (Units=GPa)
#
#
# Indices 1 2 3 4 5 6 
#
# 1 115.3598 31.4175 57.9550 0.0000 0.0000 0.0000
# 2 31.4175 91.0589 26.4054 0.0000 0.0000 0.0000
# 3 57.9550 26.4054 162.1677 0.0000 0.0000 0.0000
# 4 0.0000 0.0000 0.0000 20.9275 0.0000 0.0000
# 5 0.0000 0.0000 0.0000 0.0000 20.7858 0.0000
# 6 0.0000 0.0000 0.0000 0.0000 0.0000 43.1688
#
#
#
# Elastic Compliance Matrix: (Units=1/GPa)
#
#
# Indices 1 2 3 4 5 6 
#
# 1 0.011226 -0.002844 -0.003549 0.000000 0.000000 0.000000
# 2 -0.002844 0.012247 -0.000978 0.000000 0.000000 0.000000
# 3 -0.003549 -0.000978 0.007594 0.000000 0.000000 0.000000
# 4 0.000000 0.000000 0.000000 0.047784 0.000000 0.000000
# 5 0.000000 0.000000 0.000000 0.000000 0.048110 0.000000
# 6 0.000000 0.000000 0.000000 0.000000 0.000000 0.023165
#
#
# Mechanical properties :
#
#
# Convention : Reuss Voigt Hill
#
# Bulk Modulus (GPa) = 61.25439 66.68246 63.96842
# Shear Modulus (GPa) = 29.35854 33.83033 31.59443
#
# Velocity S-wave (km/s) = 3.47399 3.72919 3.60385
# Velocity P-wave (km/s) = 6.42430 6.77894 6.60400
#
# Compressibility (1/GPa) = 0.01632536
#
# Stress axis : x y z
#
# Youngs Moduli (GPa) = 89.07906 81.65453 131.68450
#
# Poissons Ratio (x) = 0.23224 0.46732
# Poissons Ratio (y) = 0.25335 0.12874
# Poissons Ratio (z) = 0.31612 0.07983
#
# Static dielectric constant tensor:
#      x y z
#    x 4.825680 0.000000 0.000000 
#    y 0.000000 4.124520 0.000000 
#    z 0.000000 0.000000 4.914630 
# 
# 
# High freq. dielectric constant tensor:
#      x y z
#    x 1.962850 0.000000 0.000000 
#    y 0.000000 1.962190 0.000000 
#    z 0.000000 0.000000 1.994000 
# 
# From -- ./inp_files/11896.got.cif
#   From: 2010.06.25/outbox.cif.g09.slc.cpg/sg48_6_cif.got.tgz:11896.got - 2010.06.26 18:06:46.
