data_PCOD8201213
_publ_section_title
;
Structure prediction by ZEFSAII (Michael W. Deem and Ramdas Pophale) SiO2 
 PCOD8201213
Probable space group: P M M M
;
_chemical_formula_sum "Si O2"
_cell_formula_units_Z 48
_cell_length_a 8.205479
_cell_length_b 7.905749
_cell_length_c 34.757143
_cell_angle_alpha 90.000000
_cell_angle_beta 90.000000
_cell_angle_gamma 90.000000
_cell_volume 2254.711764
_symmetry_space_group_name_H-M "P M M M"
_symmetry_group_IT_number 47
_symmetry_cell_setting 'orthorhombic'
loop_
_space_group_symop_operation_xyz
x,y,z
-x,-y,z
x,-y,-z
-x,y,-z
-x,-y,-z
x,y,-z
-x,y,z
x,-y,z
loop_
_atom_site_type_symbol
_atom_site_label
_atom_site_fract_x
_atom_site_fract_y
_atom_site_fract_z
Si Si1 0.181648 0.298698 0.589125
Si Si2 0.317252 0.698744 0.668473
Si Si3 0.305187 0.500000 0.956272
Si Si4 0.821019 0.800260 0.172297
Si Si5 0.681720 0.199341 0.250625
Si Si6 0.500000 0.701315 0.456305
Si Si7 0.311765 0.811788 0.092236
O O1 0.183071 0.500000 0.587162
O O2 0.210544 0.233235 0.632799
O O3 0.332470 0.228822 0.563269
O O4 0.000000 0.234273 0.575863
O O5 0.500000 0.777383 0.666049
O O6 0.329171 0.500000 0.665048
O O7 0.231870 0.749360 0.709099
O O8 0.500000 0.500000 0.953376
O O9 0.234405 0.330309 0.935816
O O10 0.243643 0.500000 0.000000
O O11 0.764948 0.718541 0.212858
O O12 0.707523 0.749737 0.136375
O O13 0.000000 0.731014 0.162797
O O14 0.820326 0.000000 0.177451
O O15 0.500000 0.273940 0.251911
O O16 0.681900 0.000000 0.246410
O O17 0.500000 0.500000 0.453575
O O18 0.500000 0.765727 0.500000
O O19 0.500000 0.827727 0.082584
O O20 0.231179 0.000000 0.086080
#
# Coordination Sequence:
#
# PCOD8201213 Si02
#       7
#     8   8   4   8   8   4   8
#     4   9  16  26  41  60  85 120 156 194 243 297
#     4   9  16  28  44  61  87 123 158 190 232 288
#     4   9  18  32  51  79 107 127 159 211 259 301
#     4   9  17  30  48  68  93 126 161 198 241 286
#     4   9  17  29  46  68  94 124 159 201 243 284
#     4   9  16  26  40  60  87 119 157 201 247 299
#     4   9  17  31  52  74  97 130 166 200 247 307
#
# _framework density 21.288751999999999
#
# number of rings (size 3 to 8) (size 9 to 14) (size 15 to 20)
#    0.000    3.000    0.833    0.500    0.000    3.333 
#    1.500    3.750    0.000    1.000    0.000    2.333 
#    0.000    1.333    0.000    1.500    0.000    1.667 
#
# Total GULP energy -594637.251553 kJ/mol
# GULP energy per Si atom -12388.276074 kJ/mol
# Density = 2.124030 g / cm^3
# Si number density = 21.288752 Si / 1000 Ang^3
#
#
#
# Elastic Constant Matrix: (Units=GPa)
#
#
# Indices 1 2 3 4 5 6 
#
# 1 91.4804 17.7770 52.4368 0.0000 0.0000 0.0000
# 2 17.7770 45.9675 41.5436 0.0000 0.0000 0.0000
# 3 52.4368 41.5436 189.0260 0.0000 0.0000 0.0000
# 4 0.0000 0.0000 0.0000 -29.5479 0.0000 0.0000
# 5 0.0000 0.0000 0.0000 0.0000 9.5864 0.0000
# 6 0.0000 0.0000 0.0000 0.0000 0.0000 4.6246
#
#
#
# Elastic Compliance Matrix: (Units=1/GPa)
#
#
# Indices 1 2 3 4 5 6 
#
# 1 0.013180 -0.002237 -0.003165 0.000000 0.000000 0.000000
# 2 -0.002237 0.027526 -0.005429 0.000000 0.000000 0.000000
# 3 -0.003165 -0.005429 0.007361 0.000000 0.000000 0.000000
# 4 0.000000 0.000000 0.000000 -0.033843 0.000000 0.000000
# 5 0.000000 0.000000 0.000000 0.000000 0.104314 0.000000
# 6 0.000000 0.000000 0.000000 0.000000 0.000000 0.216234
#
#
# Mechanical properties :
#
#
# Convention : Reuss Voigt Hill
#
# Bulk Modulus (GPa) = 37.87002 61.10985 49.48994
# Shear Modulus (GPa) = 13.68978 11.24705 12.46842
#
# Velocity S-wave (km/s) = 2.53860 2.30099 2.42271
# Velocity P-wave (km/s) = 5.14004 5.98556 5.57884
#
# Compressibility (1/GPa) = 0.02640611
#
# Stress axis : x y z
#
# Youngs Moduli (GPa) = 75.87289 36.32902 135.84531
#
# Poissons Ratio (x) = 0.08127 0.42988
# Poissons Ratio (y) = 0.16974 0.73751
# Poissons Ratio (z) = 0.24010 0.19723
#
# Static dielectric constant tensor:
#      x y z
#    x 3.840460 0.000000 0.000000 
#    y 0.000000 3.488570 0.000000 
#    z 0.000000 0.000000 4.084220 
# 
# 
# High freq. dielectric constant tensor:
#      x y z
#    x 1.809520 0.000000 0.000000 
#    y 0.000000 1.791110 0.000000 
#    z 0.000000 0.000000 1.839560 
# 
# From -- ./inp_files/34119.got.cif
#   From: 2010.03.12/outbox.cif.g09.slc.cpg/sg47_18_cif.got.tgz:34119.got - 2010.04.14 03:12:58.
