data_PCOD8201048
_publ_section_title
;
Structure prediction by ZEFSAII (Michael W. Deem and Ramdas Pophale) SiO2 
 PCOD8201048
Probable space group: P M M M
;
_chemical_formula_sum "Si O2"
_cell_formula_units_Z 60
_cell_length_a 14.399385
_cell_length_b 9.594521
_cell_length_c 23.702451
_cell_angle_alpha 90.000000
_cell_angle_beta 90.000000
_cell_angle_gamma 90.000000
_cell_volume 3274.616900
_symmetry_space_group_name_H-M "P M M M"
_symmetry_group_IT_number 47
_symmetry_cell_setting 'orthorhombic'
loop_
_space_group_symop_operation_xyz
x,y,z
-x,-y,z
x,-y,-z
-x,y,-z
-x,-y,-z
x,y,-z
-x,y,z
x,-y,z
loop_
_atom_site_type_symbol
_atom_site_label
_atom_site_fract_x
_atom_site_fract_y
_atom_site_fract_z
Si Si1 0.293734 0.663102 0.889801
Si Si2 0.101916 0.834665 0.382953
Si Si3 0.890096 0.153221 0.740684
Si Si4 0.715914 0.165890 0.438339
Si Si5 0.606103 0.333453 0.000000
Si Si6 0.609153 0.661606 0.223173
Si Si7 0.609258 0.160210 0.670428
Si Si8 0.895985 0.338088 0.156035
O O1 0.314095 0.500000 0.890884
O O2 0.339897 0.721623 0.832533
O O3 0.182068 0.693204 0.891573
O O4 0.341673 0.729463 0.945058
O O5 0.141125 0.791950 0.320953
O O6 0.177696 0.783816 0.428232
O O7 0.000000 0.768624 0.396043
O O8 0.092066 0.000000 0.383752
O O9 0.859093 0.261512 0.788173
O O10 0.000000 0.141407 0.739411
O O11 0.847743 0.000000 0.754021
O O12 0.684339 0.223252 0.500000
O O13 0.650949 0.221776 0.387956
O O14 0.710827 0.000000 0.438544
O O15 0.610863 0.500000 0.000000
O O16 0.500000 0.281442 0.000000
O O17 0.500000 0.683345 0.213958
O O18 0.633365 0.500000 0.234130
O O19 0.645915 0.750310 0.276548
O O20 0.500000 0.174953 0.664601
O O21 0.639784 0.000000 0.679984
O O22 0.897892 0.500000 0.171153
O O23 0.000000 0.289097 0.136652
#
# Coordination Sequence:
#
# PCOD8201048 Si02
#       8
#     8   8   8   8   4   8   8   8
#     4   9  17  28  44  68  95 122 152 186 223 263
#     4   8  14  24  38  58  84 112 144 184 225 262
#     4   8  14  25  41  61  85 115 151 186 218 256
#     4   9  17  27  40  60  85 115 150 184 222 269
#     4   9  16  28  47  69  94 123 155 191 228 266
#     4   9  17  30  48  69  91 114 143 183 229 269
#     4   9  18  31  46  66  91 116 145 183 225 270
#     4   9  17  28  41  62  95 126 148 176 217 264
#
# _framework density 18.322755000000001
#
# number of rings (size 3 to 8) (size 9 to 14) (size 15 to 20)
#    0.000    3.267    0.000    1.200    1.867    2.133 
#    0.000    3.000    0.000    2.400    0.000    3.733 
#    0.000    6.400    0.000    6.400    0.000    6.667 
#
# Total GULP energy -743436.268201 kJ/mol
# GULP energy per Si atom -12390.604470 kJ/mol
# Density = 1.828105 g / cm^3
# Si number density = 18.322755 Si / 1000 Ang^3
#
#
#
# Elastic Constant Matrix: (Units=GPa)
#
#
# Indices 1 2 3 4 5 6 
#
# 1 75.2945 18.2229 70.6720 0.0000 0.0000 0.0000
# 2 18.2229 24.7943 29.5085 0.0000 0.0000 0.0000
# 3 70.6720 29.5085 161.1811 0.0000 0.0000 0.0000
# 4 0.0000 0.0000 0.0000 17.5557 0.0000 0.0000
# 5 0.0000 0.0000 0.0000 0.0000 31.8156 0.0000
# 6 0.0000 0.0000 0.0000 0.0000 0.0000 10.8344
#
#
#
# Elastic Compliance Matrix: (Units=1/GPa)
#
#
# Indices 1 2 3 4 5 6 
#
# 1 0.023328 -0.006357 -0.009065 0.000000 0.000000 0.000000
# 2 -0.006357 0.053300 -0.006971 0.000000 0.000000 0.000000
# 3 -0.009065 -0.006971 0.011455 0.000000 0.000000 0.000000
# 4 0.000000 0.000000 0.000000 0.056961 0.000000 0.000000
# 5 0.000000 0.000000 0.000000 0.000000 0.031431 0.000000
# 6 0.000000 0.000000 0.000000 0.000000 0.000000 0.092299
#
#
# Mechanical properties :
#
#
# Convention : Reuss Voigt Hill
#
# Bulk Modulus (GPa) = 23.09566 55.34186 39.21876
# Shear Modulus (GPa) = 15.24431 21.56558 18.40495
#
# Velocity S-wave (km/s) = 2.88755 3.43444 3.17280
# Velocity P-wave (km/s) = 4.87335 6.78208 5.90534
#
# Compressibility (1/GPa) = 0.04329818
#
# Stress axis : x y z
#
# Youngs Moduli (GPa) = 42.86728 18.76168 87.29930
#
# Poissons Ratio (x) = 0.11927 0.79133
# Poissons Ratio (y) = 0.27251 0.60853
# Poissons Ratio (z) = 0.38857 0.13078
#
# Static dielectric constant tensor:
#      x y z
#    x 3.548330 0.000000 0.000000 
#    y 0.000000 3.015970 0.000000 
#    z 0.000000 0.000000 3.659870 
# 
# 
# High freq. dielectric constant tensor:
#      x y z
#    x 1.722970 0.000000 0.000000 
#    y 0.000000 1.642940 0.000000 
#    z 0.000000 0.000000 1.703190 
# 
# From -- ./inp_files/31221.got.cif
#   From: 2010.03.12/outbox.cif.g09.slc.cpg/sg47_16_cif.got.tgz:31221.got - 2010.04.14 03:12:58.
