data_PCOD8201360
_publ_section_title
;
Structure prediction by ZEFSAII (Michael W. Deem and Ramdas Pophale) SiO2 
 PCOD8201360
Probable space group: P N N N
;
_chemical_formula_sum "Si O2"
_cell_formula_units_Z 48
_cell_length_a 4.936801
_cell_length_b 25.313787
_cell_length_c 23.913483
_cell_angle_alpha 90.000000
_cell_angle_beta 90.000000
_cell_angle_gamma 90.000000
_cell_volume 2988.447141
_symmetry_space_group_name_H-M "P N N N"
_symmetry_group_IT_number 48
_space_group.IT_coordinate_system_code '2'
_symmetry_cell_setting 'orthorhombic'
loop_
_space_group_symop_operation_xyz
x,y,z
1/2-x,1/2-y,z
x,1/2-y,1/2-z
1/2-x,y,1/2-z
-x,-y,-z
1/2+x,1/2+y,-z
-x,1/2+y,1/2+z
1/2+x,-y,1/2+z
loop_
_atom_site_type_symbol
_atom_site_label
_atom_site_fract_x
_atom_site_fract_y
_atom_site_fract_z
Si Si1 0.250000 0.929452 0.750000
Si Si2 0.952121 0.015617 0.916960
Si Si3 0.995034 0.785661 0.653269
Si Si4 0.750000 0.858315 0.750000
Si Si5 0.448029 0.624730 0.569642
Si Si6 0.072937 0.416054 0.488144
Si Si7 0.972561 0.474848 0.140444
O O1 0.501291 0.894209 0.725767
O O2 0.372698 0.968562 0.796344
O O3 0.738138 0.012787 0.865320
O O4 0.249602 0.002869 0.896739
O O5 0.846392 0.972853 0.962084
O O6 0.974671 0.072900 0.947903
O O7 0.750000 0.750000 0.633210
O O8 0.888600 0.822302 0.703318
O O9 0.250000 0.750000 0.673341
O O10 0.073935 0.818461 0.598349
O O11 0.662194 0.621362 0.518037
O O12 0.538598 0.583814 0.618071
O O13 0.153886 0.612991 0.546943
#
# Coordination Sequence:
#
# PCOD8201360 Si02
#       7
#     4   8   8   4   8   8   8
#     4  12  22  34  51  68  86 126 156 194 231 288
#     4   9  17  29  45  70  87 110 132 180 222 278
#     4  12  25  39  50  65  85 113 158 210 251 287
#     4  12  25  38  52  60  82 118 166 204 250 280
#     4  10  19  33  48  64  84 112 140 191 238 284
#     4   9  17  29  49  67  87 105 137 171 236 286
#     4  10  19  30  47  63  92 112 148 181 227 267
#
# _framework density 16.061854
#
# number of rings (size 3 to 8) (size 9 to 14) (size 15 to 20)
#    0.000    1.667    1.667    4.250    4.667    4.667 
#    0.000    0.000    0.000    0.000    0.000    0.000 
#    0.000    0.000    0.000    0.000    0.000    0.000 
#
# Total GULP energy -594936.952897 kJ/mol
# GULP energy per Si atom -12394.519852 kJ/mol
# Density = 1.602530 g / cm^3
# Si number density = 16.061854 Si / 1000 Ang^3
#
#
#
# Elastic Constant Matrix: (Units=GPa)
#
#
# Indices 1 2 3 4 5 6 
#
# 1 90.3734 20.0890 21.6680 0.0000 0.0000 0.0000
# 2 20.0890 40.0714 39.7557 0.0000 0.0000 0.0000
# 3 21.6680 39.7557 65.6784 0.0000 0.0000 0.0000
# 4 0.0000 0.0000 0.0000 -10.6107 0.0000 0.0000
# 5 0.0000 0.0000 0.0000 0.0000 27.5563 0.0000
# 6 0.0000 0.0000 0.0000 0.0000 0.0000 24.6771
#
#
#
# Elastic Compliance Matrix: (Units=1/GPa)
#
#
# Indices 1 2 3 4 5 6 
#
# 1 0.012471 -0.005433 -0.000826 0.000000 0.000000 0.000000
# 2 -0.005433 0.064839 -0.037456 0.000000 0.000000 0.000000
# 3 -0.000826 -0.037456 0.038170 0.000000 0.000000 0.000000
# 4 0.000000 0.000000 0.000000 -0.094245 0.000000 0.000000
# 5 0.000000 0.000000 0.000000 0.000000 0.036289 0.000000
# 6 0.000000 0.000000 0.000000 0.000000 0.000000 0.040523
#
#
# Mechanical properties :
#
#
# Convention : Reuss Voigt Hill
#
# Bulk Modulus (GPa) = 35.64749 39.90541 37.77645
# Shear Modulus (GPa) = 25.66378 15.96525 20.81452
#
# Velocity S-wave (km/s) = 4.00160 3.15617 3.60376
# Velocity P-wave (km/s) = 6.60246 6.17905 6.39426
#
# Compressibility (1/GPa) = 0.02805246
#
# Stress axis : x y z
#
# Youngs Moduli (GPa) = 80.18715 15.42273 26.19839
#
# Poissons Ratio (x) = 0.08379 0.02164
# Poissons Ratio (y) = 0.43563 0.98127
# Poissons Ratio (z) = 0.06622 0.57767
#
# Static dielectric constant tensor:
#      x y z
#    x 3.327420 0.000000 0.000000 
#    y 0.000000 2.931120 0.000000 
#    z 0.000000 0.000000 2.938120 
# 
# 
# High freq. dielectric constant tensor:
#      x y z
#    x 1.648810 0.000000 0.000000 
#    y 0.000000 1.564050 0.000000 
#    z 0.000000 0.000000 1.587890 
# 
# From -- ./inp_files/32963.got.cif
#   From: 2010.06.25/outbox.cif.g09.slc.cpg/sg48_17_cif.got.tgz:32963.got - 2010.06.26 18:06:46.
