data_PCOD8201497
_publ_section_title
;
Structure prediction by ZEFSAII (Michael W. Deem and Ramdas Pophale) SiO2 
 PCOD8201497
Probable space group: P N N N
;
_chemical_formula_sum "Si O2"
_cell_formula_units_Z 48
_cell_length_a 20.439522
_cell_length_b 8.545099
_cell_length_c 12.895533
_cell_angle_alpha 90.000000
_cell_angle_beta 90.000000
_cell_angle_gamma 90.000000
_cell_volume 2252.304637
_symmetry_space_group_name_H-M "P N N N"
_symmetry_group_IT_number 48
_space_group.IT_coordinate_system_code '2'
_symmetry_cell_setting 'orthorhombic'
loop_
_space_group_symop_operation_xyz
x,y,z
1/2-x,1/2-y,z
x,1/2-y,1/2-z
1/2-x,y,1/2-z
-x,-y,-z
1/2+x,1/2+y,-z
-x,1/2+y,1/2+z
1/2+x,-y,1/2+z
loop_
_atom_site_type_symbol
_atom_site_label
_atom_site_fract_x
_atom_site_fract_y
_atom_site_fract_z
Si Si1 0.197573 0.047404 0.335128
Si Si2 0.854231 0.250000 0.750000
Si Si3 0.951456 0.463894 0.626701
Si Si4 0.310166 0.349972 0.559509
Si Si5 0.914168 0.750000 0.750000
Si Si6 0.591463 0.590403 0.083533
Si Si7 0.826765 0.424590 0.241495
O O1 0.250000 0.108444 0.250000
O O2 0.220383 0.080578 0.452714
O O3 0.129682 0.137524 0.320967
O O4 0.190006 0.860129 0.323064
O O5 0.896866 0.362963 0.680773
O O6 0.958391 0.637918 0.677147
O O7 0.925987 0.471560 0.508778
O O8 0.021161 0.375359 0.637289
O O9 0.250000 0.250000 0.610492
O O10 0.374212 0.244549 0.537800
O O11 0.338386 0.488110 0.632182
O O12 0.642138 0.521640 0.165584
O O13 0.857214 0.250000 0.250000
O O14 0.750000 0.413913 0.250000
#
# Coordination Sequence:
#
# PCOD8201497 Si02
#       7
#     8   4   8   8   4   8   8
#     4  11  23  41  67  99 133 175 220 275 348 403
#     4  10  25  42  62  98 141 172 224 290 332 414
#     4  10  24  43  67  97 137 183 229 280 351 408
#     4  12  24  43  72  99 132 180 229 286 341 421
#     4  10  19  42  64  96 129 168 224 274 330 410
#     4  11  24  45  69  95 135 183 232 284 342 420
#     4  11  26  44  66  99 136 175 229 286 344 402
#
# _framework density 21.311505
#
# number of rings (size 3 to 8) (size 9 to 14) (size 15 to 20)
#    0.000    1.167    3.333    2.000    8.167    0.000 
#    3.000    0.833    0.000    0.000    0.000    0.000 
#    0.000    0.000    0.000    0.000    0.000    0.000 
#
# Total GULP energy -595030.732038 kJ/mol
# GULP energy per Si atom -12396.473584 kJ/mol
# Density = 2.126300 g / cm^3
# Si number density = 21.311505 Si / 1000 Ang^3
#
#
#
# Elastic Constant Matrix: (Units=GPa)
#
#
# Indices 1 2 3 4 5 6 
#
# 1 90.4515 34.5824 28.0314 0.0000 0.0000 0.0000
# 2 34.5824 112.7756 44.1121 0.0000 0.0000 0.0000
# 3 28.0314 44.1121 129.6262 0.0000 0.0000 0.0000
# 4 0.0000 0.0000 0.0000 37.3758 0.0000 0.0000
# 5 0.0000 0.0000 0.0000 0.0000 44.1081 0.0000
# 6 0.0000 0.0000 0.0000 0.0000 0.0000 30.0866
#
#
#
# Elastic Compliance Matrix: (Units=1/GPa)
#
#
# Indices 1 2 3 4 5 6 
#
# 1 0.012825 -0.003285 -0.001655 0.000000 0.000000 0.000000
# 2 -0.003285 0.011070 -0.003057 0.000000 0.000000 0.000000
# 3 -0.001655 -0.003057 0.009113 0.000000 0.000000 0.000000
# 4 0.000000 0.000000 0.000000 0.026755 0.000000 0.000000
# 5 0.000000 0.000000 0.000000 0.000000 0.022672 0.000000
# 6 0.000000 0.000000 0.000000 0.000000 0.000000 0.033237
#
#
# Mechanical properties :
#
#
# Convention : Reuss Voigt Hill
#
# Bulk Modulus (GPa) = 58.77887 60.70057 59.73972
# Shear Modulus (GPa) = 36.40667 37.38927 36.89797
#
# Velocity S-wave (km/s) = 4.13766 4.19312 4.16548
# Velocity P-wave (km/s) = 7.10406 7.21023 7.15734
#
# Compressibility (1/GPa) = 0.01701292
#
# Stress axis : x y z
#
# Youngs Moduli (GPa) = 77.97467 90.33238 109.73701
#
# Poissons Ratio (x) = 0.29676 0.18165
# Poissons Ratio (y) = 0.25616 0.33545
# Poissons Ratio (z) = 0.12908 0.27613
#
# Static dielectric constant tensor:
#      x y z
#    x 4.172640 0.000000 0.000000 
#    y 0.000000 4.209930 0.000000 
#    z 0.000000 0.000000 3.624430 
# 
# 
# High freq. dielectric constant tensor:
#      x y z
#    x 1.831340 0.000000 0.000000 
#    y 0.000000 1.837920 0.000000 
#    z 0.000000 0.000000 1.835570 
# 
# From -- ./inp_files/27927.got.cif
#   From: 2010.06.25/outbox.cif.g09.slc.cpg/sg48_14_cif.got.tgz:27927.got - 2010.06.26 18:06:46.
