data_PCOD8201337
_publ_section_title
;
Structure prediction by ZEFSAII (Michael W. Deem and Ramdas Pophale) SiO2 
 PCOD8201337
Probable space group: P N N N
;
_chemical_formula_sum "Si O2"
_cell_formula_units_Z 40
_cell_length_a 26.315310
_cell_length_b 4.926014
_cell_length_c 13.099969
_cell_angle_alpha 90.000000
_cell_angle_beta 90.000000
_cell_angle_gamma 90.000000
_cell_volume 1698.143551
_symmetry_space_group_name_H-M "P N N N"
_symmetry_group_IT_number 48
_space_group.IT_coordinate_system_code '2'
_symmetry_cell_setting 'orthorhombic'
loop_
_space_group_symop_operation_xyz
x,y,z
1/2-x,1/2-y,z
x,1/2-y,1/2-z
1/2-x,y,1/2-z
-x,-y,-z
1/2+x,1/2+y,-z
-x,1/2+y,1/2+z
1/2+x,-y,1/2+z
loop_
_atom_site_type_symbol
_atom_site_label
_atom_site_fract_x
_atom_site_fract_y
_atom_site_fract_z
Si Si1 0.396899 0.744549 0.128854
Si Si2 0.305098 0.665087 0.983509
Si Si3 0.541327 0.738293 0.628574
Si Si4 0.663716 0.841479 0.137189
Si Si5 0.055288 0.003800 0.682945
O O1 0.389006 0.750000 0.250000
O O2 0.440854 0.533372 0.090521
O O3 0.415023 0.036756 0.090351
O O4 0.343019 0.691608 0.078155
O O5 0.250000 0.750000 0.026143
O O6 0.309791 0.358137 0.943750
O O7 0.317077 0.857249 0.887065
O O8 0.536746 0.750000 0.750000
O O9 0.485064 0.619658 0.599707
O O10 0.680133 0.750000 0.250000
O O11 0.602299 0.850760 0.126029
O O12 0.076269 0.750000 0.750000
O O13 0.029475 0.250000 0.750000
#
# Coordination Sequence:
#
# PCOD8201337 Si02
#       5
#     8   8   8   8   8
#     4  10  21  39  62  90 125 163 203 250 306 370
#     4  12  26  43  63  89 121 160 214 270 314 363
#     4   9  17  33  60  91 123 162 199 239 300 372
#     4  11  24  43  65  91 123 161 205 257 315 374
#     4  10  18  34  61  93 127 164 202 246 307 375
#
# _framework density 23.555136000000001
#
# number of rings (size 3 to 8) (size 9 to 14) (size 15 to 20)
#    0.000    1.600    0.000    7.800    0.000    2.800 
#    0.000    6.000    0.000    6.000    0.000    0.000 
#    0.000    0.000    0.000    0.000    0.000    0.000 
#
# Total GULP energy -495692.279186 kJ/mol
# GULP energy per Si atom -12392.306980 kJ/mol
# Density = 2.350152 g / cm^3
# Si number density = 23.555136 Si / 1000 Ang^3
#
#
#
# Elastic Constant Matrix: (Units=GPa)
#
#
# Indices 1 2 3 4 5 6 
#
# 1 121.4293 19.1541 6.1443 0.0000 0.0000 0.0000
# 2 19.1541 115.1809 19.7085 0.0000 0.0000 0.0000
# 3 6.1443 19.7085 35.3112 0.0000 0.0000 0.0000
# 4 0.0000 0.0000 0.0000 20.1040 0.0000 0.0000
# 5 0.0000 0.0000 0.0000 0.0000 37.9606 0.0000
# 6 0.0000 0.0000 0.0000 0.0000 0.0000 19.6035
#
#
#
# Elastic Compliance Matrix: (Units=1/GPa)
#
#
# Indices 1 2 3 4 5 6 
#
# 1 0.008476 -0.001279 -0.000761 0.000000 0.000000 0.000000
# 2 -0.001279 0.009792 -0.005243 0.000000 0.000000 0.000000
# 3 -0.000761 -0.005243 0.031378 0.000000 0.000000 0.000000
# 4 0.000000 0.000000 0.000000 0.049741 0.000000 0.000000
# 5 0.000000 0.000000 0.000000 0.000000 0.026343 0.000000
# 6 0.000000 0.000000 0.000000 0.000000 0.000000 0.051011
#
#
# Mechanical properties :
#
#
# Convention : Reuss Voigt Hill
#
# Bulk Modulus (GPa) = 28.50609 40.21501 34.36055
# Shear Modulus (GPa) = 24.63058 30.66126 27.64592
#
# Velocity S-wave (km/s) = 3.23717 3.61180 3.42960
# Velocity P-wave (km/s) = 5.10886 5.87394 5.50471
#
# Compressibility (1/GPa) = 0.03508022
#
# Stress axis : x y z
#
# Youngs Moduli (GPa) = 117.98674 102.12647 31.86937
#
# Poissons Ratio (x) = 0.13065 0.02424
# Poissons Ratio (y) = 0.15094 0.16708
# Poissons Ratio (z) = 0.08976 0.53540
#
# Static dielectric constant tensor:
#      x y z
#    x 4.358240 0.000000 0.000000 
#    y 0.000000 4.758800 0.000000 
#    z 0.000000 0.000000 3.809610 
# 
# 
# High freq. dielectric constant tensor:
#      x y z
#    x 1.927340 0.000000 0.000000 
#    y 0.000000 1.957290 0.000000 
#    z 0.000000 0.000000 1.899470 
# 
# From -- ./inp_files/28513.got.cif
#   From: 2010.06.25/outbox.cif.g09.slc.cpg/sg48_15_cif.got.tgz:28513.got - 2010.06.26 18:06:46.
