data_PCOD8201777
_publ_section_title
;
Structure prediction by ZEFSAII (Michael W. Deem and Ramdas Pophale) SiO2 
 PCOD8201777
Probable space group: P N N N
;
_chemical_formula_sum "Si O2"
_cell_formula_units_Z 46
_cell_length_a 12.483073
_cell_length_b 23.482192
_cell_length_c 7.748588
_cell_angle_alpha 90.000000
_cell_angle_beta 90.000000
_cell_angle_gamma 90.000000
_cell_volume 2271.342957
_symmetry_space_group_name_H-M "P N N N"
_symmetry_group_IT_number 48
_space_group.IT_coordinate_system_code '2'
_symmetry_cell_setting 'orthorhombic'
loop_
_space_group_symop_operation_xyz
x,y,z
1/2-x,1/2-y,z
x,1/2-y,1/2-z
1/2-x,y,1/2-z
-x,-y,-z
1/2+x,1/2+y,-z
-x,1/2+y,1/2+z
1/2+x,-y,1/2+z
loop_
_atom_site_type_symbol
_atom_site_label
_atom_site_fract_x
_atom_site_fract_y
_atom_site_fract_z
Si Si1 0.475355 0.892227 0.557033
Si Si2 0.761613 0.452977 0.443684
Si Si3 0.713718 0.928231 0.568955
Si Si4 0.983173 0.813809 0.257085
Si Si5 0.250000 0.352866 0.750000
Si Si6 0.891066 0.152947 0.411787
Si Si7 0.250000 0.750000 0.750000
O O1 0.383334 0.937013 0.517301
O O2 0.585567 0.926983 0.553432
O O3 0.468309 0.845507 0.407326
O O4 0.457392 0.861916 0.740584
O O5 0.750000 0.475425 0.250000
O O6 0.737401 0.507590 0.562665
O O7 0.685319 0.398764 0.473005
O O8 0.750000 0.901012 0.750000
O O9 0.765301 0.891547 0.417918
O O10 0.025780 0.750000 0.250000
O O11 0.854654 0.813757 0.242588
O O12 0.023805 0.840034 0.436268
O O13 0.821247 0.209585 0.374360
#
# Coordination Sequence:
#
# PCOD8201777 Si02
#       7
#     8   8   8   8   4   8   2
#     4  10  22  42  59  90 124 161 207 250 305 379
#     4  10  21  41  58  88 127 160 195 257 312 367
#     4  11  22  38  65  88 120 163 207 253 308 366
#     4  11  24  40  66  92 120 166 210 255 308 364
#     4  10  23  45  60  90 129 157 210 264 298 362
#     4  11  23  41  62  89 129 162 202 253 318 368
#     4  12  20  42  66  84 136 166 196 268 308 382
#
# _framework density 20.252337000000001
#
# number of rings (size 3 to 8) (size 9 to 14) (size 15 to 20)
#    0.000    1.391    3.478    2.870    2.435    0.000 
#    0.000    2.609    0.000    3.130    0.000    0.000 
#    0.000    0.000    0.000    0.000    0.000    0.000 
#
# Total GULP energy -570393.543159 kJ/mol
# GULP energy per Si atom -12399.859634 kJ/mol
# Density = 2.020624 g / cm^3
# Si number density = 20.252337 Si / 1000 Ang^3
#
#
#
# Elastic Constant Matrix: (Units=GPa)
#
#
# Indices 1 2 3 4 5 6 
#
# 1 43.6981 6.8511 16.0902 0.0000 0.0000 0.0000
# 2 6.8511 96.0891 35.2166 0.0000 0.0000 0.0000
# 3 16.0902 35.2166 125.1748 0.0000 0.0000 0.0000
# 4 0.0000 0.0000 0.0000 1807.0823 0.0000 0.0000
# 5 0.0000 0.0000 0.0000 0.0000 33.5456 0.0000
# 6 0.0000 0.0000 0.0000 0.0000 0.0000 133.8657
#
#
#
# Elastic Compliance Matrix: (Units=1/GPa)
#
#
# Indices 1 2 3 4 5 6 
#
# 1 0.024057 -0.000649 -0.002910 0.000000 0.000000 0.000000
# 2 -0.000649 0.011621 -0.003186 0.000000 0.000000 0.000000
# 3 -0.002910 -0.003186 0.009259 0.000000 0.000000 0.000000
# 4 0.000000 0.000000 0.000000 0.000553 0.000000 0.000000
# 5 0.000000 0.000000 0.000000 0.000000 0.029810 0.000000
# 6 0.000000 0.000000 0.000000 0.000000 0.000000 0.007470
#
#
# Mechanical properties :
#
#
# Convention : Reuss Voigt Hill
#
# Bulk Modulus (GPa) = 31.79830 42.36418 37.08124
# Shear Modulus (GPa) = 46.84129 408.68567 227.76348
#
# Velocity S-wave (km/s) = 4.81446 14.22093 10.61635
# Velocity P-wave (km/s) = 6.82939 17.04729 12.98558
#
# Compressibility (1/GPa) = 0.03144822
#
# Stress axis : x y z
#
# Youngs Moduli (GPa) = 41.56719 86.05157 108.00047
#
# Poissons Ratio (x) = 0.05583 0.31426
# Poissons Ratio (y) = 0.02697 0.34409
# Poissons Ratio (z) = 0.12095 0.27416
#
# Static dielectric constant tensor:
#      x y z
#    x 3.668340 0.000000 0.000000 
#    y 0.000000 3.555240 0.000000 
#    z 0.000000 0.000000 3.717350 
# 
# 
# High freq. dielectric constant tensor:
#      x y z
#    x 1.792910 0.000000 0.000000 
#    y 0.000000 1.792140 0.000000 
#    z 0.000000 0.000000 1.800080 
# 
# From -- ./inp_files/11290.got.cif
#   From: 2010.06.25/outbox.cif.g09.slc.cpg/sg48_6_cif.got.tgz:11290.got - 2010.06.26 18:06:46.
