data_PCOD8201876
_publ_section_title
;
Structure prediction by ZEFSAII (Michael W. Deem and Ramdas Pophale) SiO2 
 PCOD8201876
Probable space group: P N N N
;
_chemical_formula_sum "Si O2"
_cell_formula_units_Z 18
_cell_length_a 5.147890
_cell_length_b 18.583570
_cell_length_c 8.776906
_cell_angle_alpha 90.000000
_cell_angle_beta 90.000000
_cell_angle_gamma 90.000000
_cell_volume 839.653018
_symmetry_space_group_name_H-M "P N N N"
_symmetry_group_IT_number 48
_space_group.IT_coordinate_system_code '2'
_symmetry_cell_setting 'orthorhombic'
loop_
_space_group_symop_operation_xyz
x,y,z
1/2-x,1/2-y,z
x,1/2-y,1/2-z
1/2-x,y,1/2-z
-x,-y,-z
1/2+x,1/2+y,-z
-x,1/2+y,1/2+z
1/2+x,-y,1/2+z
loop_
_atom_site_type_symbol
_atom_site_label
_atom_site_fract_x
_atom_site_fract_y
_atom_site_fract_z
Si Si1 0.250000 0.250000 0.750000
Si Si2 0.510205 0.793753 0.540855
Si Si3 0.498041 0.545228 0.847421
O O1 0.432892 0.200035 0.642010
O O2 0.250000 0.750000 0.574766
O O3 0.485168 0.871084 0.614114
O O4 0.750000 0.750000 0.616787
O O5 0.750000 0.526064 0.750000
O O6 0.250000 0.522156 0.750000
O O7 0.500000 0.500000 0.000000
#
# Coordination Sequence:
#
# PCOD8201876 Si02
#       3
#     2   8   8
#     4   8  22  36  68 100 138 172 218 284 350 408
#     4  10  22  41  69 100 136 178 230 276 350 410
#     4  12  28  47  72 103 143 189 232 293 348 416
#
# _framework density 21.437428000000001
#
# number of rings (size 3 to 8) (size 9 to 14) (size 15 to 20)
#    1.333    0.000    0.000    4.667    3.111    8.889 
#    0.000    0.000    0.000    0.000    0.000    0.000 
#    0.000    0.000    0.000    0.000    0.000    0.000 
#
# Total GULP energy -223142.625069 kJ/mol
# GULP energy per Si atom -12396.812504 kJ/mol
# Density = 2.138864 g / cm^3
# Si number density = 21.437428 Si / 1000 Ang^3
#
#
#
# Elastic Constant Matrix: (Units=GPa)
#
#
# Indices 1 2 3 4 5 6 
#
# 1 222.0776 67.4264 75.0529 0.0000 0.0000 0.0000
# 2 67.4264 117.4768 59.9451 0.0000 0.0000 0.0000
# 3 75.0529 59.9451 153.9319 0.0000 0.0000 0.0000
# 4 0.0000 0.0000 0.0000 -11.9161 0.0000 0.0000
# 5 0.0000 0.0000 0.0000 0.0000 228.6504 0.0000
# 6 0.0000 0.0000 0.0000 0.0000 0.0000 108.9200
#
#
#
# Elastic Compliance Matrix: (Units=1/GPa)
#
#
# Indices 1 2 3 4 5 6 
#
# 1 0.005883 -0.002387 -0.001939 0.000000 0.000000 0.000000
# 2 -0.002387 0.011592 -0.003350 0.000000 0.000000 0.000000
# 3 -0.001939 -0.003350 0.008746 0.000000 0.000000 0.000000
# 4 0.000000 0.000000 0.000000 -0.083920 0.000000 0.000000
# 5 0.000000 0.000000 0.000000 0.000000 0.004373 0.000000
# 6 0.000000 0.000000 0.000000 0.000000 0.000000 0.009181
#
#
# Mechanical properties :
#
#
# Convention : Reuss Voigt Hill
#
# Bulk Modulus (GPa) = 92.00630 99.81501 95.91065
# Shear Modulus (GPa) = -198.65657 84.53499 -57.06079
#
# Velocity S-wave (km/s) = -9.63687 6.28641 -5.16480
# Velocity P-wave (km/s) = 8.98966 9.96765 3.04468
#
# Compressibility (1/GPa) = 0.01086882
#
# Stress axis : x y z
#
# Youngs Moduli (GPa) = 169.98284 86.26584 114.33387
#
# Poissons Ratio (x) = 0.20594 0.22166
# Poissons Ratio (y) = 0.40580 0.38305
# Poissons Ratio (z) = 0.32954 0.28901
#
# Static dielectric constant tensor:
#      x y z
#    x 4.329530 0.000000 0.000000 
#    y 0.000000 3.041510 0.000000 
#    z 0.000000 0.000000 4.054420 
# 
# 
# High freq. dielectric constant tensor:
#      x y z
#    x 1.857410 0.000000 0.000000 
#    y 0.000000 1.824600 0.000000 
#    z 0.000000 0.000000 1.866170 
# 
# From -- ./inp_files/7298.got.cif
#   From: 2010.06.25/outbox.cif.g09.slc.cpg/sg48_4_cif.got.tgz:7298.got - 2010.06.26 18:06:46.
