data_PCOD8201272
_publ_section_title
;
Structure prediction by ZEFSAII (Michael W. Deem and Ramdas Pophale) SiO2 
 PCOD8201272
Probable space group: P N N N
;
_chemical_formula_sum "Si O2"
_cell_formula_units_Z 64
_cell_length_a 12.587988
_cell_length_b 26.893039
_cell_length_c 11.737715
_cell_angle_alpha 90.000000
_cell_angle_beta 90.000000
_cell_angle_gamma 90.000000
_cell_volume 3973.559882
_symmetry_space_group_name_H-M "P N N N"
_symmetry_group_IT_number 48
_space_group.IT_coordinate_system_code '2'
_symmetry_cell_setting 'orthorhombic'
loop_
_space_group_symop_operation_xyz
x,y,z
1/2-x,1/2-y,z
x,1/2-y,1/2-z
1/2-x,y,1/2-z
-x,-y,-z
1/2+x,1/2+y,-z
-x,1/2+y,1/2+z
1/2+x,-y,1/2+z
loop_
_atom_site_type_symbol
_atom_site_label
_atom_site_fract_x
_atom_site_fract_y
_atom_site_fract_z
Si Si1 0.158311 0.891482 0.943221
Si Si2 0.072272 0.547196 0.749356
Si Si3 0.917776 0.194570 0.744143
Si Si4 0.256035 0.804953 0.058083
Si Si5 0.322749 0.973010 0.979396
Si Si6 0.010814 0.897094 0.143334
Si Si7 0.374260 0.513868 0.271932
Si Si8 0.807490 0.954273 0.145003
O O1 0.110144 0.902491 0.816755
O O2 0.221499 0.937749 0.996718
O O3 0.234081 0.842818 0.953001
O O4 0.059405 0.880798 0.024132
O O5 0.102800 0.550861 0.881878
O O6 0.140778 0.504148 0.693591
O O7 0.946681 0.533980 0.736642
O O8 0.969333 0.250000 0.750000
O O9 0.826741 0.190173 0.838954
O O10 0.870528 0.184935 0.617299
O O11 0.002109 0.150880 0.773321
O O12 0.250000 0.750000 0.004475
O O13 0.277320 0.028606 0.950948
O O14 0.391550 0.976063 0.093930
O O15 0.896987 0.917085 0.101792
O O16 0.084268 0.937992 0.205326
O O17 0.250000 0.502649 0.250000
O O18 0.750000 0.926676 0.250000
#
# Coordination Sequence:
#
# PCOD8201272 Si02
#       8
#     8   8   8   8   8   8   8   8
#     4  10  17  27  45  64  86 116 148 176 215 265
#     4   9  20  31  42  59  86 122 148 176 217 257
#     4   8  14  24  39  62  93 118 138 173 222 266
#     4   8  14  24  40  64  91 116 140 172 218 265
#     4  10  18  31  44  58  87 121 150 179 217 260
#     4  10  18  26  43  67  86 110 148 185 217 259
#     4  11  20  28  43  65  87 112 154 191 213 247
#     4   8  17  30  42  57  83 117 148 178 216 257
#
# _framework density 16.106463999999999
#
# number of rings (size 3 to 8) (size 9 to 14) (size 15 to 20)
#    0.000    2.750    1.250    3.000    3.500    1.500 
#    0.000    0.000    0.000    1.875    0.000    0.000 
#    0.000    0.000    0.000    1.125    0.000    0.500 
#
# Total GULP energy -792837.442507 kJ/mol
# GULP energy per Si atom -12388.085039 kJ/mol
# Density = 1.606981 g / cm^3
# Si number density = 16.106464 Si / 1000 Ang^3
#
#
#
# Elastic Constant Matrix: (Units=GPa)
#
#
# Indices 1 2 3 4 5 6 
#
# 1 52.4654 24.2577 17.8814 0.0000 0.0000 0.0000
# 2 24.2577 77.7369 29.6119 0.0000 0.0000 0.0000
# 3 17.8814 29.6119 77.2165 0.0000 0.0000 0.0000
# 4 0.0000 0.0000 0.0000 16.6505 0.0000 0.0000
# 5 0.0000 0.0000 0.0000 0.0000 16.1010 0.0000
# 6 0.0000 0.0000 0.0000 0.0000 0.0000 14.3787
#
#
#
# Elastic Compliance Matrix: (Units=1/GPa)
#
#
# Indices 1 2 3 4 5 6 
#
# 1 0.022850 -0.005990 -0.002995 0.000000 0.000000 0.000000
# 2 -0.005990 0.016635 -0.004992 0.000000 0.000000 0.000000
# 3 -0.002995 -0.004992 0.015559 0.000000 0.000000 0.000000
# 4 0.000000 0.000000 0.000000 0.060058 0.000000 0.000000
# 5 0.000000 0.000000 0.000000 0.000000 0.062108 0.000000
# 6 0.000000 0.000000 0.000000 0.000000 0.000000 0.069547
#
#
# Mechanical properties :
#
#
# Convention : Reuss Voigt Hill
#
# Bulk Modulus (GPa) = 36.91327 38.99118 37.95222
# Shear Modulus (GPa) = 17.62180 18.47057 18.04618
#
# Velocity S-wave (km/s) = 3.31128 3.39009 3.35092
# Velocity P-wave (km/s) = 6.13086 6.29163 6.21176
#
# Compressibility (1/GPa) = 0.02709053
#
# Stress axis : x y z
#
# Youngs Moduli (GPa) = 43.76339 60.11556 64.27340
#
# Poissons Ratio (x) = 0.36007 0.19247
# Poissons Ratio (y) = 0.26213 0.32087
# Poissons Ratio (z) = 0.13105 0.30011
#
# Static dielectric constant tensor:
#      x y z
#    x 3.083080 0.000000 0.000000 
#    y 0.000000 3.096840 0.000000 
#    z 0.000000 0.000000 3.071730 
# 
# 
# High freq. dielectric constant tensor:
#      x y z
#    x 1.596230 0.000000 0.000000 
#    y 0.000000 1.588000 0.000000 
#    z 0.000000 0.000000 1.609360 
# 
# From -- ./inp_files/20493.got.cif
#   From: 2010.06.25/outbox.cif.g09.slc.cpg/sg48_11_cif.got.tgz:20493.got - 2010.06.26 18:06:46.
