data_PCOD8201473
_publ_section_title
;
Structure prediction by ZEFSAII (Michael W. Deem and Ramdas Pophale) SiO2 
 PCOD8201473
Probable space group: P N N N
;
_chemical_formula_sum "Si O2"
_cell_formula_units_Z 44
_cell_length_a 8.273400
_cell_length_b 24.917367
_cell_length_c 11.038925
_cell_angle_alpha 90.000000
_cell_angle_beta 90.000000
_cell_angle_gamma 90.000000
_cell_volume 2275.689227
_symmetry_space_group_name_H-M "P N N N"
_symmetry_group_IT_number 48
_space_group.IT_coordinate_system_code '2'
_symmetry_cell_setting 'orthorhombic'
loop_
_space_group_symop_operation_xyz
x,y,z
1/2-x,1/2-y,z
x,1/2-y,1/2-z
1/2-x,y,1/2-z
-x,-y,-z
1/2+x,1/2+y,-z
-x,1/2+y,1/2+z
1/2+x,-y,1/2+z
loop_
_atom_site_type_symbol
_atom_site_label
_atom_site_fract_x
_atom_site_fract_y
_atom_site_fract_z
Si Si1 0.056925 0.166861 0.065217
Si Si2 0.921062 0.226774 0.525820
Si Si3 0.750000 0.895027 0.750000
Si Si4 0.274703 0.632952 0.612023
Si Si5 0.836437 0.648868 0.123346
Si Si6 0.965776 0.559801 0.959560
O O1 0.116808 0.145668 0.195604
O O2 0.893772 0.132966 0.037419
O O3 0.192483 0.158274 0.967933
O O4 0.010539 0.229502 0.057964
O O5 0.750000 0.250000 0.580325
O O6 0.894972 0.178396 0.434641
O O7 0.040712 0.200710 0.628438
O O8 0.671145 0.932900 0.854573
O O9 0.250000 0.647609 0.750000
O O10 0.361120 0.576212 0.595651
O O11 0.750000 0.639363 0.250000
O O12 0.926872 0.594762 0.079869
O O13 0.000000 0.500000 0.000000
#
# Coordination Sequence:
#
# PCOD8201473 Si02
#       6
#     8   8   4   8   8   8
#     4  10  20  36  58  89 120 160 194 240 309 359
#     4   9  20  36  57  90 120 163 204 237 302 370
#     4  10  20  40  61  90 122 148 203 256 306 370
#     4  10  19  38  58  86 127 152 198 256 300 371
#     4  10  22  42  58  85 129 162 209 253 299 380
#     4  10  22  42  63  89 115 157 210 263 319 367
#
# _framework density 19.334800999999999
#
# number of rings (size 3 to 8) (size 9 to 14) (size 15 to 20)
#    0.000    2.182    1.818    0.545    0.000    5.455 
#    6.545   11.818    0.000    0.000    0.000    0.000 
#    0.000    0.000    0.000    0.000    0.000    0.000 
#
# Total GULP energy -545118.158151 kJ/mol
# GULP energy per Si atom -12389.049049 kJ/mol
# Density = 1.929079 g / cm^3
# Si number density = 19.334801 Si / 1000 Ang^3
#
#
#
# Elastic Constant Matrix: (Units=GPa)
#
#
# Indices 1 2 3 4 5 6 
#
# 1 108.2801 54.6637 29.1159 0.0000 0.0000 0.0000
# 2 54.6637 120.3512 35.4805 0.0000 0.0000 0.0000
# 3 29.1159 35.4805 78.4881 0.0000 0.0000 0.0000
# 4 0.0000 0.0000 0.0000 62.9764 0.0000 0.0000
# 5 0.0000 0.0000 0.0000 0.0000 23.2310 0.0000
# 6 0.0000 0.0000 0.0000 0.0000 0.0000 17.0339
#
#
#
# Elastic Compliance Matrix: (Units=1/GPa)
#
#
# Indices 1 2 3 4 5 6 
#
# 1 0.012351 -0.004914 -0.002360 0.000000 0.000000 0.000000
# 2 -0.004914 0.011542 -0.003395 0.000000 0.000000 0.000000
# 3 -0.002360 -0.003395 0.015151 0.000000 0.000000 0.000000
# 4 0.000000 0.000000 0.000000 0.015879 0.000000 0.000000
# 5 0.000000 0.000000 0.000000 0.000000 0.043046 0.000000
# 6 0.000000 0.000000 0.000000 0.000000 0.000000 0.058707
#
#
# Mechanical properties :
#
#
# Convention : Reuss Voigt Hill
#
# Bulk Modulus (GPa) = 56.47878 60.62664 58.55271
# Shear Modulus (GPa) = 27.18660 33.17219 30.17940
#
# Velocity S-wave (km/s) = 3.75386 4.14656 3.95509
# Velocity P-wave (km/s) = 6.93275 7.37222 7.15586
#
# Compressibility (1/GPa) = 0.01770577
#
# Stress axis : x y z
#
# Youngs Moduli (GPa) = 80.96724 86.64278 66.00286
#
# Poissons Ratio (x) = 0.42575 0.15579
# Poissons Ratio (y) = 0.39786 0.22405
# Poissons Ratio (z) = 0.19111 0.29411
#
# Static dielectric constant tensor:
#      x y z
#    x 4.138520 0.000000 0.000000 
#    y 0.000000 3.456960 0.000000 
#    z 0.000000 0.000000 4.986800 
# 
# 
# High freq. dielectric constant tensor:
#      x y z
#    x 1.780500 0.000000 0.000000 
#    y 0.000000 1.734980 0.000000 
#    z 0.000000 0.000000 1.731810 
# 
# From -- ./inp_files/18772.got.cif
#   From: 2010.06.25/outbox.cif.g09.slc.cpg/sg48_10_cif.got.tgz:18772.got - 2010.06.26 18:06:46.
