data_PCOD8201209
_publ_section_title
;
Structure prediction by ZEFSAII (Michael W. Deem and Ramdas Pophale) SiO2 
 PCOD8201209
Probable space group: P M M M
;
_chemical_formula_sum "Si O2"
_cell_formula_units_Z 40
_cell_length_a 7.695012
_cell_length_b 29.617284
_cell_length_c 9.263175
_cell_angle_alpha 90.000000
_cell_angle_beta 90.000000
_cell_angle_gamma 90.000000
_cell_volume 2111.127194
_symmetry_space_group_name_H-M "P M M M"
_symmetry_group_IT_number 47
_symmetry_cell_setting 'orthorhombic'
loop_
_space_group_symop_operation_xyz
x,y,z
-x,-y,z
x,-y,-z
-x,y,-z
-x,-y,-z
x,y,-z
-x,y,z
x,-y,z
loop_
_atom_site_type_symbol
_atom_site_label
_atom_site_fract_x
_atom_site_fract_y
_atom_site_fract_z
Si Si1 0.793836 0.795085 0.338155
Si Si2 0.500000 0.050162 0.829161
Si Si3 0.206358 0.710033 0.162882
Si Si4 0.000000 0.449255 0.172534
Si Si5 0.307188 0.387364 0.829058
Si Si6 0.800717 0.116158 0.830547
O O1 0.717897 0.797388 0.500000
O O2 0.718188 0.750760 0.259287
O O3 0.735511 0.839315 0.251398
O O4 0.000000 0.792242 0.340873
O O5 0.675301 0.075705 0.778950
O O6 0.500000 0.000000 0.760299
O O7 0.500000 0.046533 0.000000
O O8 0.272397 0.662914 0.231403
O O9 0.000000 0.709774 0.162823
O O10 0.276796 0.716437 0.000000
O O11 0.169934 0.423411 0.233280
O O12 0.000000 0.500000 0.234563
O O13 0.000000 0.450189 0.000000
O O14 0.500000 0.403433 0.784508
O O15 0.283894 0.384977 0.000000
O O16 0.000000 0.103448 0.791209
O O17 0.781906 0.125868 0.000000
#
# Coordination Sequence:
#
# PCOD8201209 Si02
#       6
#     8   4   8   4   8   8
#     4   9  17  29  47  71  98 128 161 198 241 286
#     4   9  18  32  51  77 103 125 159 207 246 279
#     4   9  15  26  45  65  90 126 162 196 235 282
#     4   9  16  26  40  60  89 123 157 195 240 285
#     4   9  16  26  40  60  87 119 156 194 232 279
#     4   9  17  31  51  73  98 129 163 197 237 286
#
# _framework density 18.947223000000001
#
# number of rings (size 3 to 8) (size 9 to 14) (size 15 to 20)
#    0.000    3.000    1.000    0.600    0.000    3.200 
#    1.800    4.500    0.000    1.200    0.000    2.800 
#    0.000    1.600    0.000    1.800    0.000    2.000 
#
# Total GULP energy -495854.870221 kJ/mol
# GULP energy per Si atom -12396.371756 kJ/mol
# Density = 1.890410 g / cm^3
# Si number density = 18.947223 Si / 1000 Ang^3
#
#
#
# Elastic Constant Matrix: (Units=GPa)
#
#
# Indices 1 2 3 4 5 6 
#
# 1 103.4912 79.5562 21.4362 0.0000 0.0000 0.0000
# 2 79.5562 197.2550 44.6021 0.0000 0.0000 0.0000
# 3 21.4362 44.6021 50.4583 0.0000 0.0000 0.0000
# 4 0.0000 0.0000 0.0000 2.6801 0.0000 0.0000
# 5 0.0000 0.0000 0.0000 0.0000 5.1249 0.0000
# 6 0.0000 0.0000 0.0000 0.0000 0.0000 12.6176
#
#
#
# Elastic Compliance Matrix: (Units=1/GPa)
#
#
# Indices 1 2 3 4 5 6 
#
# 1 0.014063 -0.005400 -0.001201 0.000000 0.000000 0.000000
# 2 -0.005400 0.008410 -0.005139 0.000000 0.000000 0.000000
# 3 -0.001201 -0.005139 0.024871 0.000000 0.000000 0.000000
# 4 0.000000 0.000000 0.000000 0.373126 0.000000 0.000000
# 5 0.000000 0.000000 0.000000 0.000000 0.195125 0.000000
# 6 0.000000 0.000000 0.000000 0.000000 0.000000 0.079255
#
#
# Mechanical properties :
#
#
# Convention : Reuss Voigt Hill
#
# Bulk Modulus (GPa) = 41.90616 71.37706 56.64161
# Shear Modulus (GPa) = 6.88436 17.79185 12.33811
#
# Velocity S-wave (km/s) = 1.90823 3.06767 2.55460
# Velocity P-wave (km/s) = 5.19812 7.09230 6.21776
#
# Compressibility (1/GPa) = 0.02386284
#
# Stress axis : x y z
#
# Youngs Moduli (GPa) = 71.11053 118.91087 40.20676
#
# Poissons Ratio (x) = 0.64214 0.04828
# Poissons Ratio (y) = 0.38401 0.20664
# Poissons Ratio (z) = 0.08539 0.61114
#
# Static dielectric constant tensor:
#      x y z
#    x 3.412230 0.000000 0.000000 
#    y 0.000000 3.694340 0.000000 
#    z 0.000000 0.000000 3.111960 
# 
# 
# High freq. dielectric constant tensor:
#      x y z
#    x 1.733560 0.000000 0.000000 
#    y 0.000000 1.739100 0.000000 
#    z 0.000000 0.000000 1.677680 
# 
# From -- ./inp_files/1739.got.cif
#   From: 2010.03.12/outbox.cif.g09.slc.cpg/sg47_1_cif.got.tgz:1739.got - 2010.04.14 03:12:58.
