data_PCOD8201294
_publ_section_title
;
Structure prediction by ZEFSAII (Michael W. Deem and Ramdas Pophale) SiO2 
 PCOD8201294
Probable space group: P N N N
;
_chemical_formula_sum "Si O2"
_cell_formula_units_Z 44
_cell_length_a 14.097328
_cell_length_b 8.671688
_cell_length_c 17.416887
_cell_angle_alpha 90.000000
_cell_angle_beta 90.000000
_cell_angle_gamma 90.000000
_cell_volume 2129.173159
_symmetry_space_group_name_H-M "P N N N"
_symmetry_group_IT_number 48
_space_group.IT_coordinate_system_code '2'
_symmetry_cell_setting 'orthorhombic'
loop_
_space_group_symop_operation_xyz
x,y,z
1/2-x,1/2-y,z
x,1/2-y,1/2-z
1/2-x,y,1/2-z
-x,-y,-z
1/2+x,1/2+y,-z
-x,1/2+y,1/2+z
1/2+x,-y,1/2+z
loop_
_atom_site_type_symbol
_atom_site_label
_atom_site_fract_x
_atom_site_fract_y
_atom_site_fract_z
Si Si1 0.384965 0.338035 0.530458
Si Si2 0.159273 0.899229 0.295731
Si Si3 0.642874 0.278980 0.160326
Si Si4 0.250000 0.750000 0.438046
Si Si5 0.813389 0.511844 0.450288
Si Si6 0.016372 0.047469 0.385829
O O1 0.291561 0.421088 0.564351
O O2 0.377787 0.153931 0.522248
O O3 0.404428 0.396557 0.445069
O O4 0.470927 0.385619 0.586618
O O5 0.123627 0.750000 0.250000
O O6 0.250000 0.971408 0.250000
O O7 0.182562 0.851168 0.383176
O O8 0.072150 0.020153 0.304608
O O9 0.750000 0.250000 0.131100
O O10 0.632739 0.250000 0.250000
O O11 0.633908 0.454321 0.128873
O O12 0.566380 0.172532 0.119236
O O13 0.188026 0.630484 0.489151
#
# Coordination Sequence:
#
# PCOD8201294 Si02
#       6
#     8   8   8   4   8   8
#     4  10  23  36  67  97 126 159 222 277 327 385
#     4   9  21  39  65  94 130 177 212 256 338 395
#     4  11  24  42  62  84 130 174 215 267 334 389
#     4  10  17  38  67  86 128 168 206 262 323 386
#     4  11  20  41  63  96 123 172 212 269 337 385
#     4  11  21  44  61  96 131 167 218 279 318 403
#
# _framework density 20.665296999999999
#
# number of rings (size 3 to 8) (size 9 to 14) (size 15 to 20)
#    0.000    1.818    4.545    0.000    2.545    2.182 
#    6.545    0.000    0.000    0.000    0.000    0.000 
#    0.000    0.000    0.000    0.000    0.000    0.000 
#
# Total GULP energy -545095.011121 kJ/mol
# GULP energy per Si atom -12388.522980 kJ/mol
# Density = 2.061826 g / cm^3
# Si number density = 20.665297 Si / 1000 Ang^3
#
#
#
# Elastic Constant Matrix: (Units=GPa)
#
#
# Indices 1 2 3 4 5 6 
#
# 1 98.9363 64.7828 43.2163 0.0000 0.0000 0.0000
# 2 64.7828 131.5573 55.8327 0.0000 0.0000 0.0000
# 3 43.2163 55.8327 108.7351 0.0000 0.0000 0.0000
# 4 0.0000 0.0000 0.0000 17.4994 0.0000 0.0000
# 5 0.0000 0.0000 0.0000 0.0000 14.6798 0.0000
# 6 0.0000 0.0000 0.0000 0.0000 0.0000 38.2845
#
#
#
# Elastic Compliance Matrix: (Units=1/GPa)
#
#
# Indices 1 2 3 4 5 6 
#
# 1 0.015594 -0.006455 -0.002883 0.000000 0.000000 0.000000
# 2 -0.006455 0.012392 -0.003797 0.000000 0.000000 0.000000
# 3 -0.002883 -0.003797 0.012292 0.000000 0.000000 0.000000
# 4 0.000000 0.000000 0.000000 0.057145 0.000000 0.000000
# 5 0.000000 0.000000 0.000000 0.000000 0.068121 0.000000
# 6 0.000000 0.000000 0.000000 0.000000 0.000000 0.026120
#
#
# Mechanical properties :
#
#
# Convention : Reuss Voigt Hill
#
# Bulk Modulus (GPa) = 71.39476 74.09915 72.74696
# Shear Modulus (GPa) = 22.46151 25.78586 24.12368
#
# Velocity S-wave (km/s) = 3.30042 3.53623 3.42036
# Velocity P-wave (km/s) = 7.01048 7.25313 7.13284
#
# Compressibility (1/GPa) = 0.01400663
#
# Stress axis : x y z
#
# Youngs Moduli (GPa) = 64.12835 80.70041 81.35219
#
# Poissons Ratio (x) = 0.52094 0.23454
# Poissons Ratio (y) = 0.41397 0.30890
# Poissons Ratio (z) = 0.18489 0.30643
#
# Static dielectric constant tensor:
#      x y z
#    x 3.791510 0.000000 0.000000 
#    y 0.000000 3.804350 0.000000 
#    z 0.000000 0.000000 3.670290 
# 
# 
# High freq. dielectric constant tensor:
#      x y z
#    x 1.809180 0.000000 0.000000 
#    y 0.000000 1.801260 0.000000 
#    z 0.000000 0.000000 1.800010 
# 
# From -- ./inp_files/31502.got.cif
#   From: 2010.06.25/outbox.cif.g09.slc.cpg/sg48_16_cif.got.tgz:31502.got - 2010.06.26 18:06:46.
