data_PCOD8201717
_publ_section_title
;
Structure prediction by ZEFSAII (Michael W. Deem and Ramdas Pophale) SiO2 
 PCOD8201717
Probable space group: P N N N
;
_chemical_formula_sum "Si O2"
_cell_formula_units_Z 64
_cell_length_a 10.977237
_cell_length_b 20.107625
_cell_length_c 14.488631
_cell_angle_alpha 90.000000
_cell_angle_beta 90.000000
_cell_angle_gamma 90.000000
_cell_volume 3198.019959
_symmetry_space_group_name_H-M "P N N N"
_symmetry_group_IT_number 48
_space_group.IT_coordinate_system_code '2'
_symmetry_cell_setting 'orthorhombic'
loop_
_space_group_symop_operation_xyz
x,y,z
1/2-x,1/2-y,z
x,1/2-y,1/2-z
1/2-x,y,1/2-z
-x,-y,-z
1/2+x,1/2+y,-z
-x,1/2+y,1/2+z
1/2+x,-y,1/2+z
loop_
_atom_site_type_symbol
_atom_site_label
_atom_site_fract_x
_atom_site_fract_y
_atom_site_fract_z
Si Si1 0.678598 0.477595 0.873859
Si Si2 0.561095 0.867276 0.840132
Si Si3 0.294861 0.822969 0.852125
Si Si4 0.938463 0.476146 0.816657
Si Si5 0.409674 0.114048 0.360051
Si Si6 0.796287 0.568705 0.149267
Si Si7 0.753004 0.674523 0.505968
Si Si8 0.342485 0.940164 0.574465
O O1 0.816940 0.449745 0.868998
O O2 0.587378 0.457950 0.790785
O O3 0.695909 0.557631 0.867179
O O4 0.617972 0.454960 0.969349
O O5 0.439042 0.826441 0.860266
O O6 0.538283 0.946446 0.838498
O O7 0.603121 0.653031 0.763520
O O8 0.654304 0.841638 0.915874
O O9 0.250000 0.750000 0.879755
O O10 0.250000 0.842876 0.750000
O O11 0.239985 0.874639 0.925079
O O12 0.057081 0.437572 0.851965
O O13 0.385611 0.163608 0.445634
O O14 0.537267 0.074587 0.366281
O O15 0.750000 0.588330 0.250000
O O16 0.761907 0.628382 0.082265
O O17 0.731201 0.500991 0.118409
O O18 0.750000 0.750000 0.471290
#
# Coordination Sequence:
#
# PCOD8201717 Si02
#       8
#     8   8   8   8   8   8   8   8
#     4  10  21  37  63  98 129 156 205 266 317 379
#     4  11  21  41  64  90 132 164 211 256 316 391
#     4  11  24  39  56  91 129 167 201 250 316 386
#     4  10  21  39  64  98 127 162 209 266 328 374
#     4  11  22  39  62  95 130 167 204 263 315 378
#     4  12  25  43  67  94 125 170 218 272 322 380
#     4  12  29  43  63  92 126 175 222 261 324 383
#     4  12  22  38  66  96 127 166 212 260 318 380
#
# _framework density 20.012381999999999
#
# number of rings (size 3 to 8) (size 9 to 14) (size 15 to 20)
#    0.000    0.875    5.000    2.625    5.250    2.250 
#    0.000    0.000    0.000    0.000    0.000    0.875 
#    0.000    0.000    0.000    0.000    0.000    0.000 
#
# Total GULP energy -793477.597241 kJ/mol
# GULP energy per Si atom -12398.087457 kJ/mol
# Density = 1.996683 g / cm^3
# Si number density = 20.012382 Si / 1000 Ang^3
#
#
#
# Elastic Constant Matrix: (Units=GPa)
#
#
# Indices 1 2 3 4 5 6 
#
# 1 107.7294 37.4375 34.9245 0.0000 0.0000 0.0000
# 2 37.4375 108.8768 54.6717 0.0000 0.0000 0.0000
# 3 34.9245 54.6717 119.5520 0.0000 0.0000 0.0000
# 4 0.0000 0.0000 0.0000 18.8018 0.0000 0.0000
# 5 0.0000 0.0000 0.0000 0.0000 24.7835 0.0000
# 6 0.0000 0.0000 0.0000 0.0000 0.0000 16.2460
#
#
#
# Elastic Compliance Matrix: (Units=1/GPa)
#
#
# Indices 1 2 3 4 5 6 
#
# 1 0.010866 -0.002781 -0.001902 0.000000 0.000000 0.000000
# 2 -0.002781 0.012634 -0.004965 0.000000 0.000000 0.000000
# 3 -0.001902 -0.004965 0.011191 0.000000 0.000000 0.000000
# 4 0.000000 0.000000 0.000000 0.053186 0.000000 0.000000
# 5 0.000000 0.000000 0.000000 0.000000 0.040349 0.000000
# 6 0.000000 0.000000 0.000000 0.000000 0.000000 0.061554
#
#
# Mechanical properties :
#
#
# Convention : Reuss Voigt Hill
#
# Bulk Modulus (GPa) = 64.96224 65.58064 65.27144
# Shear Modulus (GPa) = 23.34171 25.90789 24.62480
#
# Velocity S-wave (km/s) = 3.41891 3.60195 3.51162
# Velocity P-wave (km/s) = 6.93663 7.08095 7.00916
#
# Compressibility (1/GPa) = 0.01539356
#
# Stress axis : x y z
#
# Youngs Moduli (GPa) = 92.03306 79.15032 89.35770
#
# Poissons Ratio (x) = 0.22011 0.17000
# Poissons Ratio (y) = 0.25593 0.44369
# Poissons Ratio (z) = 0.17509 0.39301
#
# Static dielectric constant tensor:
#      x y z
#    x 3.835910 0.000000 0.000000 
#    y 0.000000 3.393480 0.000000 
#    z 0.000000 0.000000 3.635780 
# 
# 
# High freq. dielectric constant tensor:
#      x y z
#    x 1.799730 0.000000 0.000000 
#    y 0.000000 1.748110 0.000000 
#    z 0.000000 0.000000 1.778270 
# 
# From -- ./inp_files/26734.got.cif
#   From: 2010.06.25/outbox.cif.g09.slc.cpg/sg48_14_cif.got.tgz:26734.got - 2010.06.26 18:06:46.
