data_PCOD8201338
_publ_section_title
;
Structure prediction by ZEFSAII (Michael W. Deem and Ramdas Pophale) SiO2 
 PCOD8201338
Probable space group: P N N N
;
_chemical_formula_sum "Si O2"
_cell_formula_units_Z 48
_cell_length_a 20.765773
_cell_length_b 6.382565
_cell_length_c 19.021169
_cell_angle_alpha 90.000000
_cell_angle_beta 90.000000
_cell_angle_gamma 90.000000
_cell_volume 2521.044739
_symmetry_space_group_name_H-M "P N N N"
_symmetry_group_IT_number 48
_space_group.IT_coordinate_system_code '2'
_symmetry_cell_setting 'orthorhombic'
loop_
_space_group_symop_operation_xyz
x,y,z
1/2-x,1/2-y,z
x,1/2-y,1/2-z
1/2-x,y,1/2-z
-x,-y,-z
1/2+x,1/2+y,-z
-x,1/2+y,1/2+z
1/2+x,-y,1/2+z
loop_
_atom_site_type_symbol
_atom_site_label
_atom_site_fract_x
_atom_site_fract_y
_atom_site_fract_z
Si Si1 0.250000 0.250000 0.750000
Si Si2 0.418685 0.868016 0.561415
Si Si3 0.172454 0.914730 0.127351
Si Si4 0.065147 0.149984 0.072113
Si Si5 0.858195 0.466797 0.966904
Si Si6 0.813171 0.373091 0.319333
Si Si7 0.750000 0.750000 0.539563
Si Si8 0.250000 0.750000 0.250000
O O1 0.205293 0.391429 0.700623
O O2 0.490284 0.843228 0.591574
O O3 0.398467 0.650661 0.525747
O O4 0.368899 0.903938 0.623943
O O5 0.418641 0.058143 0.505790
O O6 0.176248 0.690822 0.088002
O O7 0.203088 0.895308 0.204023
O O8 0.098432 0.996637 0.129900
O O9 0.209034 0.095131 0.086640
O O10 0.092440 0.385539 0.075706
O O11 0.801137 0.607325 0.003753
O O12 0.750000 0.250000 0.349422
O O13 0.838561 0.250000 0.250000
#
# Coordination Sequence:
#
# PCOD8201338 Si02
#       8
#     2   8   8   8   8   8   4   2
#     4   8  18  40  56  78 118 140 174 236 280 342
#     4  10  20  37  59  83 115 153 189 236 296 347
#     4  10  21  36  54  79 113 149 198 238 284 340
#     4   9  21  37  56  83 116 152 192 238 289 349
#     4  10  19  35  54  81 114 146 190 245 287 342
#     4   9  20  37  57  82 112 143 186 233 282 346
#     4  10  18  35  53  80 113 149 184 248 286 338
#     4  12  20  38  58  76 114 164 190 252 288 332
#
# _framework density 19.039726999999999
#
# number of rings (size 3 to 8) (size 9 to 14) (size 15 to 20)
#    0.000    2.500    1.667    0.500    0.000    7.000 
#    0.000    6.667    0.000    0.000    0.000    0.000 
#    0.000    0.000    0.000    0.000    0.000    0.000 
#
# Total GULP energy -594828.456851 kJ/mol
# GULP energy per Si atom -12392.259518 kJ/mol
# Density = 1.899639 g / cm^3
# Si number density = 19.039727 Si / 1000 Ang^3
#
#
#
# Elastic Constant Matrix: (Units=GPa)
#
#
# Indices 1 2 3 4 5 6 
#
# 1 156.0854 57.9778 58.1956 0.0000 0.0000 0.0000
# 2 57.9778 124.4806 31.3832 0.0000 0.0000 0.0000
# 3 58.1956 31.3832 78.2548 0.0000 0.0000 0.0000
# 4 0.0000 0.0000 0.0000 10.2047 0.0000 0.0000
# 5 0.0000 0.0000 0.0000 0.0000 89.4683 0.0000
# 6 0.0000 0.0000 0.0000 0.0000 0.0000 31.4859
#
#
#
# Elastic Compliance Matrix: (Units=1/GPa)
#
#
# Indices 1 2 3 4 5 6 
#
# 1 0.009796 -0.003032 -0.006069 0.000000 0.000000 0.000000
# 2 -0.003032 0.009876 -0.001705 0.000000 0.000000 0.000000
# 3 -0.006069 -0.001705 0.017976 0.000000 0.000000 0.000000
# 4 0.000000 0.000000 0.000000 0.097994 0.000000 0.000000
# 5 0.000000 0.000000 0.000000 0.000000 0.011177 0.000000
# 6 0.000000 0.000000 0.000000 0.000000 0.000000 0.031760
#
#
# Mechanical properties :
#
#
# Convention : Reuss Voigt Hill
#
# Bulk Modulus (GPa) = 62.36667 72.65933 67.51300
# Shear Modulus (GPa) = 24.32656 40.31606 32.32131
#
# Velocity S-wave (km/s) = 3.57833 4.60659 4.12463
# Velocity P-wave (km/s) = 7.06398 8.15715 7.63017
#
# Compressibility (1/GPa) = 0.01603421
#
# Stress axis : x y z
#
# Youngs Moduli (GPa) = 102.08409 101.25827 55.63036
#
# Poissons Ratio (x) = 0.30706 0.33760
# Poissons Ratio (y) = 0.30957 0.09487
# Poissons Ratio (z) = 0.61952 0.17268
#
# Static dielectric constant tensor:
#      x y z
#    x 3.930170 0.000000 0.000000 
#    y 0.000000 3.782310 0.000000 
#    z 0.000000 0.000000 3.114980 
# 
# 
# High freq. dielectric constant tensor:
#      x y z
#    x 1.753260 0.000000 0.000000 
#    y 0.000000 1.760710 0.000000 
#    z 0.000000 0.000000 1.692670 
# 
# From -- ./inp_files/32909.got.cif
#   From: 2010.06.25/outbox.cif.g09.slc.cpg/sg48_17_cif.got.tgz:32909.got - 2010.06.26 18:06:46.
