data_PCOD8201757
_publ_section_title
;
Structure prediction by ZEFSAII (Michael W. Deem and Ramdas Pophale) SiO2 
 PCOD8201757
Probable space group: P N N N
;
_chemical_formula_sum "Si O2"
_cell_formula_units_Z 48
_cell_length_a 9.107335
_cell_length_b 13.929499
_cell_length_c 17.274118
_cell_angle_alpha 90.000000
_cell_angle_beta 90.000000
_cell_angle_gamma 90.000000
_cell_volume 2191.405212
_symmetry_space_group_name_H-M "P N N N"
_symmetry_group_IT_number 48
_space_group.IT_coordinate_system_code '2'
_symmetry_cell_setting 'orthorhombic'
loop_
_space_group_symop_operation_xyz
x,y,z
1/2-x,1/2-y,z
x,1/2-y,1/2-z
1/2-x,y,1/2-z
-x,-y,-z
1/2+x,1/2+y,-z
-x,1/2+y,1/2+z
1/2+x,-y,1/2+z
loop_
_atom_site_type_symbol
_atom_site_label
_atom_site_fract_x
_atom_site_fract_y
_atom_site_fract_z
Si Si1 0.470401 0.324939 0.807177
Si Si2 0.332594 0.517282 0.828950
Si Si3 0.221738 0.591970 0.510878
Si Si4 0.538093 0.235694 0.967867
Si Si5 0.250000 0.565425 0.250000
Si Si6 0.250000 0.250000 0.446906
Si Si7 0.155128 0.055144 0.119762
O O1 0.392734 0.250000 0.750000
O O2 0.346095 0.401579 0.830827
O O3 0.539047 0.271309 0.880329
O O4 0.605003 0.371258 0.759886
O O5 0.250000 0.551291 0.750000
O O6 0.239640 0.552017 0.903494
O O7 0.497495 0.557994 0.837244
O O8 0.367225 0.638135 0.473242
O O9 0.101987 0.677067 0.519871
O O10 0.152240 0.505783 0.460096
O O11 0.377204 0.210912 0.997505
O O12 0.227967 0.497256 0.175249
O O13 0.202113 0.336174 0.392115
#
# Coordination Sequence:
#
# PCOD8201757 Si02
#       7
#     8   8   8   8   4   4   8
#     4  11  23  39  67 107 143 180 232 308 367 430
#     4  11  24  43  70 100 144 191 237 294 371 429
#     4  11  22  46  74 101 141 199 240 284 368 450
#     4  11  24  42  75 106 137 189 249 294 355 446
#     4  10  21  39  68  94 136 186 232 290 372 426
#     4  12  26  43  71 104 136 190 252 304 355 424
#     4  11  23  44  70  99 142 189 239 303 358 444
#
# _framework density 21.903755
#
# number of rings (size 3 to 8) (size 9 to 14) (size 15 to 20)
#    0.000    1.000    5.000    2.750    2.333    6.667 
#    0.000    1.667    0.000    0.000    0.000    0.000 
#    0.000    0.000    0.000    0.000    0.000    0.000 
#
# Total GULP energy -595173.827897 kJ/mol
# GULP energy per Si atom -12399.454748 kJ/mol
# Density = 2.185390 g / cm^3
# Si number density = 21.903755 Si / 1000 Ang^3
#
#
#
# Elastic Constant Matrix: (Units=GPa)
#
#
# Indices 1 2 3 4 5 6 
#
# 1 103.9600 42.6138 49.9166 0.0000 0.0000 0.0000
# 2 42.6138 135.9720 59.7978 0.0000 0.0000 0.0000
# 3 49.9166 59.7978 161.1088 0.0000 0.0000 0.0000
# 4 0.0000 0.0000 0.0000 50.5754 0.0000 0.0000
# 5 0.0000 0.0000 0.0000 0.0000 32.4124 0.0000
# 6 0.0000 0.0000 0.0000 0.0000 0.0000 24.9762
#
#
#
# Elastic Compliance Matrix: (Units=1/GPa)
#
#
# Indices 1 2 3 4 5 6 
#
# 1 0.011991 -0.002539 -0.002773 0.000000 0.000000 0.000000
# 2 -0.002539 0.009327 -0.002675 0.000000 0.000000 0.000000
# 3 -0.002773 -0.002675 0.008059 0.000000 0.000000 0.000000
# 4 0.000000 0.000000 0.000000 0.019772 0.000000 0.000000
# 5 0.000000 0.000000 0.000000 0.000000 0.030852 0.000000
# 6 0.000000 0.000000 0.000000 0.000000 0.000000 0.040038
#
#
# Mechanical properties :
#
#
# Convention : Reuss Voigt Hill
#
# Bulk Modulus (GPa) = 74.60838 78.41080 76.50959
# Shear Modulus (GPa) = 35.59204 38.17364 36.88284
#
# Velocity S-wave (km/s) = 4.03541 4.17920 4.10794
# Velocity P-wave (km/s) = 7.47319 7.69176 7.58327
#
# Compressibility (1/GPa) = 0.01340332
#
# Stress axis : x y z
#
# Youngs Moduli (GPa) = 83.39518 107.22136 124.08371
#
# Poissons Ratio (x) = 0.27218 0.34409
# Poissons Ratio (y) = 0.21170 0.33194
# Poissons Ratio (z) = 0.23126 0.28683
#
# Static dielectric constant tensor:
#      x y z
#    x 3.835050 0.000000 0.000000 
#    y 0.000000 4.109640 0.000000 
#    z 0.000000 0.000000 4.012710 
# 
# 
# High freq. dielectric constant tensor:
#      x y z
#    x 1.853100 0.000000 0.000000 
#    y 0.000000 1.863630 0.000000 
#    z 0.000000 0.000000 1.863470 
# 
# From -- ./inp_files/30288.got.cif
#   From: 2010.06.25/outbox.cif.g09.slc.cpg/sg48_16_cif.got.tgz:30288.got - 2010.06.26 18:06:46.
