data_PCOD8202813
_publ_section_title
;
Structure prediction by ZEFSAII (Michael W. Deem and Ramdas Pophale) SiO2 
 PCOD8202813
Probable space group: P C C M
;
_chemical_formula_sum "Si O2"
_cell_formula_units_Z 34
_cell_length_a 9.043212
_cell_length_b 10.331927
_cell_length_c 20.908658
_cell_angle_alpha 90.000000
_cell_angle_beta 90.000000
_cell_angle_gamma 90.000000
_cell_volume 1953.575500
_symmetry_space_group_name_H-M "P C C M"
_symmetry_group_IT_number 49
_symmetry_cell_setting 'orthorhombic'
loop_
_space_group_symop_operation_xyz
x,y,z
-x,-y,z
x,-y,1/2-z
-x,y,1/2-z
-x,-y,-z
x,y,-z
-x,y,1/2+z
x,-y,1/2+z
loop_
_atom_site_type_symbol
_atom_site_label
_atom_site_fract_x
_atom_site_fract_y
_atom_site_fract_z
Si Si1 0.423094 0.864224 0.925146
Si Si2 0.913923 0.123983 0.923960
Si Si3 0.500000 0.500000 0.250000
Si Si4 0.916164 0.374151 0.575905
Si Si5 0.588735 0.620573 0.872210
O O1 0.254993 0.874778 0.900664
O O2 0.503111 0.753353 0.884963
O O3 0.500000 0.000000 0.910719
O O4 0.432684 0.828716 0.000000
O O5 0.996026 0.250593 0.897327
O O6 0.918439 0.119934 0.000000
O O7 0.000000 0.000000 0.895672
O O8 0.400684 0.407032 0.204319
O O9 0.913453 0.373614 0.500000
O O10 0.750493 0.370212 0.599860
O O11 0.000000 0.500000 0.602451
O O12 0.500000 0.500000 0.904964
#
# Coordination Sequence:
#
# PCOD8202813 Si02
#       5
#     8   8   2   8   8
#     4  10  19  31  54  87 112 140 176 213 275 343
#     4   9  17  29  45  73 115 143 162 200 256 329
#     4   8  24  40  54  72 100 140 212 230 256 296
#     4  10  19  30  50  82 110 137 169 213 278 336
#     4  10  20  37  55  71 108 141 188 231 264 305
#
# _framework density 17.403986
#
# number of rings (size 3 to 8) (size 9 to 14) (size 15 to 20)
#    0.706    1.647    0.000    3.529    0.000    7.529 
#    0.000    1.176    0.000    0.000    0.000    0.000 
#    0.000    0.000    0.000    0.000    0.000    0.000 
#
# Total GULP energy -421475.035075 kJ/mol
# GULP energy per Si atom -12396.324561 kJ/mol
# Density = 1.736437 g / cm^3
# Si number density = 17.403986 Si / 1000 Ang^3
#
#
#
# Elastic Constant Matrix: (Units=GPa)
#
#
# Indices 1 2 3 4 5 6 
#
# 1 171.7621 92.0599 14.0590 0.0000 0.0000 0.0000
# 2 92.0599 170.9349 35.3679 0.0000 0.0000 0.0000
# 3 14.0590 35.3679 24.6593 0.0000 0.0000 0.0000
# 4 0.0000 0.0000 0.0000 19.3143 0.0000 0.0000
# 5 0.0000 0.0000 0.0000 0.0000 -0.1470 0.0000
# 6 0.0000 0.0000 0.0000 0.0000 0.0000 39.5873
#
#
#
# Elastic Compliance Matrix: (Units=1/GPa)
#
#
# Indices 1 2 3 4 5 6 
#
# 1 0.008282 -0.004953 0.002383 0.000000 0.000000 0.000000
# 2 -0.004953 0.011281 -0.013357 0.000000 0.000000 0.000000
# 3 0.002383 -0.013357 0.058351 0.000000 0.000000 0.000000
# 4 0.000000 0.000000 0.000000 0.051775 0.000000 0.000000
# 5 0.000000 0.000000 0.000000 0.000000 -6.803058 0.000000
# 6 0.000000 0.000000 0.000000 0.000000 0.000000 0.025261
#
#
# Mechanical properties :
#
#
# Convention : Reuss Voigt Hill
#
# Bulk Modulus (GPa) = 21.71083 72.25887 46.98485
# Shear Modulus (GPa) = -0.75747 26.80887 13.02570
#
# Velocity S-wave (km/s) = -0.66043 3.92903 2.73872
# Velocity P-wave (km/s) = 3.45256 7.88618 6.08736
#
# Compressibility (1/GPa) = 0.04605996
#
# Stress axis : x y z
#
# Youngs Moduli (GPa) = 120.74634 88.64091 17.13762
#
# Poissons Ratio (x) = 0.43907 -0.04083
# Poissons Ratio (y) = 0.59809 0.22890
# Poissons Ratio (z) = -0.28770 1.18394
#
# Static dielectric constant tensor:
#      x y z
#    x 3.561870 0.000000 0.000000 
#    y 0.000000 3.645500 0.000000 
#    z 0.000000 0.000000 2.754530 
# 
# 
# High freq. dielectric constant tensor:
#      x y z
#    x 1.686560 0.000000 0.000000 
#    y 0.000000 1.691970 0.000000 
#    z 0.000000 0.000000 1.611590 
# 
# From -- ./inp_files/24265.got.cif
#   From: 2010.03.12/outbox.cif.g09.slc.cpg/sg49_13_cif.got.tgz:24265.got - 2010.04.14 03:58:27.
