data_PCOD8202834
_publ_section_title
;
Structure prediction by ZEFSAII (Michael W. Deem and Ramdas Pophale) SiO2 
 PCOD8202834
Probable space group: P C C M
;
_chemical_formula_sum "Si O2"
_cell_formula_units_Z 64
_cell_length_a 14.781039
_cell_length_b 27.957009
_cell_length_c 9.064172
_cell_angle_alpha 90.000000
_cell_angle_beta 90.000000
_cell_angle_gamma 90.000000
_cell_volume 3745.620792
_symmetry_space_group_name_H-M "P C C M"
_symmetry_group_IT_number 49
_symmetry_cell_setting 'orthorhombic'
loop_
_space_group_symop_operation_xyz
x,y,z
-x,-y,z
x,-y,1/2-z
-x,y,1/2-z
-x,-y,-z
x,y,-z
-x,y,1/2+z
x,-y,1/2+z
loop_
_atom_site_type_symbol
_atom_site_label
_atom_site_fract_x
_atom_site_fract_y
_atom_site_fract_z
Si Si1 0.092187 0.877403 0.174791
Si Si2 0.596586 0.544250 0.672535
Si Si3 0.404805 0.350316 0.671151
Si Si4 0.217529 0.951835 0.673672
Si Si5 0.717049 0.737010 0.673040
Si Si6 0.587043 0.082183 0.330473
Si Si7 0.088754 0.232774 0.670098
Si Si8 0.590455 0.191284 0.325827
O O1 0.173408 0.906431 0.248049
O O2 0.108611 0.822048 0.215002
O O3 0.000000 0.895696 0.250000
O O4 0.088806 0.886618 0.000000
O O5 0.651848 0.500000 0.750000
O O6 0.500000 0.545621 0.750000
O O7 0.587597 0.533423 0.500000
O O8 0.638404 0.596927 0.701803
O O9 0.500000 0.341084 0.750000
O O10 0.426686 0.344283 0.500000
O O11 0.329377 0.312520 0.723609
O O12 0.194671 0.951848 0.500000
O O13 0.324780 0.949094 0.702857
O O14 0.180514 0.000000 0.750000
O O15 0.702559 0.747215 0.500000
O O16 0.823920 0.735094 0.710746
O O17 0.675996 0.780329 0.765235
O O18 0.500000 0.059526 0.250000
O O19 0.561675 0.082205 0.500000
O O20 0.604560 0.136460 0.277485
O O21 0.065492 0.235850 0.500000
O O22 0.000000 0.253377 0.750000
O O23 0.500000 0.212217 0.250000
O O24 0.582874 0.198172 0.500000
#
# Coordination Sequence:
#
# PCOD8202834 Si02
#       8
#     8   8   8   8   8   8   8   8
#     4  10  20  36  57  79  99 122 149 182 223 271
#     4   9  15  24  38  56  79 114 156 197 233 268
#     4   9  18  29  41  60  91 126 160 193 230 272
#     4  11  23  38  54  75  99 123 151 186 226 271
#     4  10  19  31  46  67  95 126 155 188 229 275
#     4   9  20  36  53  71  94 123 156 191 226 263
#     4   9  19  34  53  74  96 121 152 187 226 271
#     4  10  19  31  47  69  94 123 156 189 223 265
#
# _framework density 17.086618999999999
#
# number of rings (size 3 to 8) (size 9 to 14) (size 15 to 20)
#    0.000    2.375    0.000    3.000    0.000    5.000 
#    0.000    2.500    0.000    0.000    0.000    0.000 
#    0.000    0.500    0.000    6.250    0.000    0.000 
#
# Total GULP energy -793427.391644 kJ/mol
# GULP energy per Si atom -12397.302994 kJ/mol
# Density = 1.704773 g / cm^3
# Si number density = 17.086619 Si / 1000 Ang^3
#
#
#
# Elastic Constant Matrix: (Units=GPa)
#
#
# Indices 1 2 3 4 5 6 
#
# 1 84.4988 37.8797 37.9562 0.0000 0.0000 0.0000
# 2 37.8797 75.6970 33.5317 0.0000 0.0000 0.0000
# 3 37.9562 33.5317 70.8887 0.0000 0.0000 0.0000
# 4 0.0000 0.0000 0.0000 16.6510 0.0000 0.0000
# 5 0.0000 0.0000 0.0000 0.0000 28.0032 0.0000
# 6 0.0000 0.0000 0.0000 0.0000 0.0000 14.9914
#
#
#
# Elastic Compliance Matrix: (Units=1/GPa)
#
#
# Indices 1 2 3 4 5 6 
#
# 1 0.017379 -0.005787 -0.006568 0.000000 0.000000 0.000000
# 2 -0.005787 0.018640 -0.005718 0.000000 0.000000 0.000000
# 3 -0.006568 -0.005718 0.020328 0.000000 0.000000 0.000000
# 4 0.000000 0.000000 0.000000 0.060056 0.000000 0.000000
# 5 0.000000 0.000000 0.000000 0.000000 0.035710 0.000000
# 6 0.000000 0.000000 0.000000 0.000000 0.000000 0.066705
#
#
# Mechanical properties :
#
#
# Convention : Reuss Voigt Hill
#
# Bulk Modulus (GPa) = 49.50471 49.97999 49.74235
# Shear Modulus (GPa) = 19.10596 20.04357 19.57477
#
# Velocity S-wave (km/s) = 3.34755 3.42871 3.38837
# Velocity P-wave (km/s) = 6.63153 6.70740 6.66957
#
# Compressibility (1/GPa) = 0.02020010
#
# Stress axis : x y z
#
# Youngs Moduli (GPa) = 57.54032 53.64912 49.19308
#
# Poissons Ratio (x) = 0.31049 0.32309
# Poissons Ratio (y) = 0.33301 0.28129
# Poissons Ratio (z) = 0.37792 0.30677
#
# Static dielectric constant tensor:
#      x y z
#    x 3.080030 0.000000 0.000000 
#    y 0.000000 3.708480 0.000000 
#    z 0.000000 0.000000 3.250260 
# 
# 
# High freq. dielectric constant tensor:
#      x y z
#    x 1.634750 0.000000 0.000000 
#    y 0.000000 1.649040 0.000000 
#    z 0.000000 0.000000 1.668040 
# 
# From -- ./inp_files/4515.got.cif
#   From: 2010.03.12/outbox.cif.g09.slc.cpg/sg49_3_cif.got.tgz:4515.got - 2010.04.14 03:58:27.
