data_PCOD8202281
_publ_section_title
;
Structure prediction by ZEFSAII (Michael W. Deem and Ramdas Pophale) SiO2 
 PCOD8202281
Probable space group: P C C M
;
_chemical_formula_sum "Si O2"
_cell_formula_units_Z 64
_cell_length_a 26.569105
_cell_length_b 18.490907
_cell_length_c 8.686780
_cell_angle_alpha 90.000000
_cell_angle_beta 90.000000
_cell_angle_gamma 90.000000
_cell_volume 4267.700780
_symmetry_space_group_name_H-M "P C C M"
_symmetry_group_IT_number 49
_symmetry_cell_setting 'orthorhombic'
loop_
_space_group_symop_operation_xyz
x,y,z
-x,-y,z
x,-y,1/2-z
-x,y,1/2-z
-x,-y,-z
x,y,-z
-x,y,1/2+z
x,-y,1/2+z
loop_
_atom_site_type_symbol
_atom_site_label
_atom_site_fract_x
_atom_site_fract_y
_atom_site_fract_z
Si Si1 0.795943 0.709990 0.679108
Si Si2 0.154983 0.578311 0.682980
Si Si3 0.254766 0.159757 0.817834
Si Si4 0.051802 0.350606 0.175232
Si Si5 0.155355 0.075303 0.824609
Si Si6 0.550130 0.080385 0.683222
Si Si7 0.887882 0.219090 0.675967
Si Si8 0.347875 0.920673 0.182223
O O1 0.782386 0.704167 0.500000
O O2 0.800817 0.630085 0.752421
O O3 0.753496 0.756978 0.767027
O O4 0.849047 0.749722 0.701366
O O5 0.165320 0.500000 0.750000
O O6 0.157492 0.577751 0.500000
O O7 0.100133 0.606424 0.741731
O O8 0.207041 0.111214 0.763533
O O9 0.302532 0.131337 0.726176
O O10 0.263633 0.155346 0.000000
O O11 0.060079 0.263349 0.197848
O O12 0.000000 0.375861 0.250000
O O13 0.045780 0.371762 0.000000
O O14 0.108942 0.132328 0.798349
O O15 0.140780 0.000000 0.750000
O O16 0.163412 0.056547 0.000000
O O17 0.500000 0.120285 0.750000
O O18 0.548926 0.080471 0.500000
O O19 0.601645 0.115976 0.745781
O O20 0.550493 0.000000 0.750000
O O21 0.867563 0.233244 0.500000
O O22 0.337432 0.000000 0.250000
O O23 0.353544 0.927022 0.000000
#
# Coordination Sequence:
#
# PCOD8202281 Si02
#       8
#     8   8   8   8   8   8   8   8
#     4  10  18  29  46  66  84 107 137 167 197 240
#     4  10  20  34  49  67  90 114 136 163 194 231
#     4  10  19  31  43  58  83 113 139 171 212 253
#     4   9  18  31  47  64  84 107 133 163 199 238
#     4   9  17  27  41  58  78 101 129 164 205 246
#     4  10  17  27  40  54  73 102 140 183 227 269
#     4   8  16  31  44  57  80 109 133 160 198 242
#     4  11  20  29  40  58  82 110 145 186 228 267
#
# _framework density 14.996365000000001
#
# number of rings (size 3 to 8) (size 9 to 14) (size 15 to 20)
#    0.000    2.375    0.000    7.125    0.000    6.250 
#    0.000    1.250    0.000    0.375    0.000    2.625 
#    0.000    0.000    0.000    0.000    0.000    0.625 
#
# Total GULP energy -793032.439889 kJ/mol
# GULP energy per Si atom -12391.131873 kJ/mol
# Density = 1.496223 g / cm^3
# Si number density = 14.996365 Si / 1000 Ang^3
#
#
#
# Elastic Constant Matrix: (Units=GPa)
#
#
# Indices 1 2 3 4 5 6 
#
# 1 48.5526 26.2902 20.2781 0.0000 0.0000 0.0000
# 2 26.2902 96.2943 27.2908 0.0000 0.0000 0.0000
# 3 20.2781 27.2908 83.3743 0.0000 0.0000 0.0000
# 4 0.0000 0.0000 0.0000 22.6424 0.0000 0.0000
# 5 0.0000 0.0000 0.0000 0.0000 20.1992 0.0000
# 6 0.0000 0.0000 0.0000 0.0000 0.0000 9.1665
#
#
#
# Elastic Compliance Matrix: (Units=1/GPa)
#
#
# Indices 1 2 3 4 5 6 
#
# 1 0.025510 -0.005739 -0.004326 0.000000 0.000000 0.000000
# 2 -0.005739 0.012738 -0.002774 0.000000 0.000000 0.000000
# 3 -0.004326 -0.002774 0.013954 0.000000 0.000000 0.000000
# 4 0.000000 0.000000 0.000000 0.044165 0.000000 0.000000
# 5 0.000000 0.000000 0.000000 0.000000 0.049507 0.000000
# 6 0.000000 0.000000 0.000000 0.000000 0.000000 0.109093
#
#
# Mechanical properties :
#
#
# Convention : Reuss Voigt Hill
#
# Bulk Modulus (GPa) = 37.69990 41.77104 39.73547
# Shear Modulus (GPa) = 17.27199 20.69242 18.98221
#
# Velocity S-wave (km/s) = 3.39742 3.71863 3.56165
# Velocity P-wave (km/s) = 6.37055 6.80825 6.59303
#
# Compressibility (1/GPa) = 0.02652527
#
# Stress axis : x y z
#
# Youngs Moduli (GPa) = 39.19957 78.50703 71.66302
#
# Poissons Ratio (x) = 0.45053 0.31002
# Poissons Ratio (y) = 0.22496 0.19877
# Poissons Ratio (z) = 0.16958 0.21775
#
# Static dielectric constant tensor:
#      x y z
#    x 3.111850 0.000000 0.000000 
#    y 0.000000 2.924940 0.000000 
#    z 0.000000 0.000000 2.920390 
# 
# 
# High freq. dielectric constant tensor:
#      x y z
#    x 1.544990 0.000000 0.000000 
#    y 0.000000 1.547860 0.000000 
#    z 0.000000 0.000000 1.587300 
# 
# From -- ./inp_files/6629.got.cif
#   From: 2010.03.12/outbox.cif.g09.slc.cpg/sg49_4_cif.got.tgz:6629.got - 2010.04.14 03:58:27.
