data_PCOD8202105
_publ_section_title
;
Structure prediction by ZEFSAII (Michael W. Deem and Ramdas Pophale) SiO2 
 PCOD8202105
Probable space group: P N N N
;
_chemical_formula_sum "Si O2"
_cell_formula_units_Z 48
_cell_length_a 28.398351
_cell_length_b 8.272938
_cell_length_c 8.980985
_cell_angle_alpha 90.000000
_cell_angle_beta 90.000000
_cell_angle_gamma 90.000000
_cell_volume 2109.972832
_symmetry_space_group_name_H-M "P N N N"
_symmetry_group_IT_number 48
_space_group.IT_coordinate_system_code '2'
_symmetry_cell_setting 'orthorhombic'
loop_
_space_group_symop_operation_xyz
x,y,z
1/2-x,1/2-y,z
x,1/2-y,1/2-z
1/2-x,y,1/2-z
-x,-y,-z
1/2+x,1/2+y,-z
-x,1/2+y,1/2+z
1/2+x,-y,1/2+z
loop_
_atom_site_type_symbol
_atom_site_label
_atom_site_fract_x
_atom_site_fract_y
_atom_site_fract_z
Si Si1 0.152032 0.566180 0.460288
Si Si2 0.250896 0.441126 0.920172
Si Si3 0.597684 0.564607 0.208639
Si Si4 0.652449 0.067740 0.043215
Si Si5 0.499442 0.562934 0.322189
Si Si6 0.599595 0.932035 0.791328
O O1 0.204461 0.506151 0.491211
O O2 0.110645 0.457156 0.536015
O O3 0.145200 0.747624 0.508553
O O4 0.138813 0.546121 0.287720
O O5 0.250000 0.250000 0.928449
O O6 0.250000 0.502538 0.750000
O O7 0.204816 0.511950 0.000679
O O8 0.600547 0.750000 0.250000
O O9 0.641050 0.466517 0.284250
O O10 0.546957 0.488549 0.251241
O O11 0.611741 0.960697 0.963830
O O12 0.498261 0.750000 0.250000
O O13 0.500000 0.500000 0.500000
O O14 0.453734 0.480521 0.251474
O O15 0.609124 0.750000 0.750000
#
# Coordination Sequence:
#
# PCOD8202105 Si02
#       6
#     8   8   8   8   8   8
#     4  12  26  42  69 106 135 185 234 296 356 422
#     4  11  23  41  69 101 139 181 233 288 351 427
#     4  11  23  42  70  99 140 184 237 286 360 428
#     4  12  24  44  69  99 141 178 234 295 353 428
#     4  11  25  47  75 105 146 191 243 303 368 442
#     4  12  27  47  71  99 143 186 237 292 365 430
#
# _framework density 22.749108
#
# number of rings (size 3 to 8) (size 9 to 14) (size 15 to 20)
#    0.000    0.500    3.333    5.500    2.333    3.333 
#    0.000    3.333    0.000    0.000    0.000    0.000 
#    0.000    0.000    0.000    0.000    0.000    0.000 
#
# Total GULP energy -594690.933967 kJ/mol
# GULP energy per Si atom -12389.394458 kJ/mol
# Density = 2.269733 g / cm^3
# Si number density = 22.749108 Si / 1000 Ang^3
#
#
#
# Elastic Constant Matrix: (Units=GPa)
#
#
# Indices 1 2 3 4 5 6 
#
# 1 165.8951 18.9503 20.2116 0.0000 0.0000 0.0000
# 2 18.9503 104.6928 15.5514 0.0000 0.0000 0.0000
# 3 20.2116 15.5514 47.4144 0.0000 0.0000 0.0000
# 4 0.0000 0.0000 0.0000 38.4445 0.0000 0.0000
# 5 0.0000 0.0000 0.0000 0.0000 42.9526 0.0000
# 6 0.0000 0.0000 0.0000 0.0000 0.0000 29.6649
#
#
#
# Elastic Compliance Matrix: (Units=1/GPa)
#
#
# Indices 1 2 3 4 5 6 
#
# 1 0.006420 -0.000794 -0.002476 0.000000 0.000000 0.000000
# 2 -0.000794 0.010139 -0.002987 0.000000 0.000000 0.000000
# 3 -0.002476 -0.002987 0.023126 0.000000 0.000000 0.000000
# 4 0.000000 0.000000 0.000000 0.026012 0.000000 0.000000
# 5 0.000000 0.000000 0.000000 0.000000 0.023281 0.000000
# 6 0.000000 0.000000 0.000000 0.000000 0.000000 0.033710
#
#
# Mechanical properties :
#
#
# Convention : Reuss Voigt Hill
#
# Bulk Modulus (GPa) = 36.80484 47.49209 42.14846
# Shear Modulus (GPa) = 34.65957 39.76500 37.21229
#
# Velocity S-wave (km/s) = 3.90751 4.18542 4.04885
# Velocity P-wave (km/s) = 6.04747 6.65423 6.35809
#
# Compressibility (1/GPa) = 0.02717034
#
# Stress axis : x y z
#
# Youngs Moduli (GPa) = 155.75509 98.62691 43.24150
#
# Poissons Ratio (x) = 0.07834 0.10708
# Poissons Ratio (y) = 0.12372 0.12916
# Poissons Ratio (z) = 0.38570 0.29460
#
# Static dielectric constant tensor:
#      x y z
#    x 4.243960 0.000000 0.000000 
#    y 0.000000 4.127620 0.000000 
#    z 0.000000 0.000000 5.061860 
# 
# 
# High freq. dielectric constant tensor:
#      x y z
#    x 1.916860 0.000000 0.000000 
#    y 0.000000 1.899540 0.000000 
#    z 0.000000 0.000000 1.900960 
# 
# From -- ./inp_files/16795.got.cif
#   From: 2010.06.25/outbox.cif.g09.slc.cpg/sg48_9_cif.got.tgz:16795.got - 2010.06.26 18:06:46.
