data_PCOD8202130
_publ_section_title
;
Structure prediction by ZEFSAII (Michael W. Deem and Ramdas Pophale) SiO2 
 PCOD8202130
Probable space group: P N N N
;
_chemical_formula_sum "Si O2"
_cell_formula_units_Z 32
_cell_length_a 4.963967
_cell_length_b 34.565500
_cell_length_c 8.168212
_cell_angle_alpha 90.000000
_cell_angle_beta 90.000000
_cell_angle_gamma 90.000000
_cell_volume 1401.518162
_symmetry_space_group_name_H-M "P N N N"
_symmetry_group_IT_number 48
_space_group.IT_coordinate_system_code '2'
_symmetry_cell_setting 'orthorhombic'
loop_
_space_group_symop_operation_xyz
x,y,z
1/2-x,1/2-y,z
x,1/2-y,1/2-z
1/2-x,y,1/2-z
-x,-y,-z
1/2+x,1/2+y,-z
-x,1/2+y,1/2+z
1/2+x,-y,1/2+z
loop_
_atom_site_type_symbol
_atom_site_label
_atom_site_fract_x
_atom_site_fract_y
_atom_site_fract_z
Si Si1 0.775773 0.339936 0.563832
Si Si2 0.757508 0.795318 0.558895
Si Si3 0.834687 0.078442 0.066745
Si Si4 0.355459 0.461911 0.568467
O O1 0.750000 0.353879 0.750000
O O2 0.503989 0.319841 0.507986
O O3 0.878866 0.375887 0.453283
O O4 0.999447 0.307771 0.542623
O O5 0.750000 0.750000 0.525175
O O6 0.750000 0.804484 0.750000
O O7 0.750000 0.067855 0.250000
O O8 0.100340 0.052639 0.036506
O O9 0.591081 0.069901 0.939363
O O10 0.250000 0.469207 0.750000
O O11 0.500000 0.500000 0.500000
#
# Coordination Sequence:
#
# PCOD8202130 Si02
#       4
#     8   8   8   8
#     4  12  25  43  68 100 136 177 225 280 338 398
#     4  11  24  43  67  97 136 181 227 277 335 400
#     4  12  26  46  71 100 135 178 226 277 336 402
#     4  12  26  47  71 101 137 176 221 275 338 403
#
# _framework density 22.832381000000002
#
# number of rings (size 3 to 8) (size 9 to 14) (size 15 to 20)
#    0.000    0.250    0.000    9.750    0.000    7.000 
#    0.000    0.000    0.000    0.000    0.000    0.000 
#    0.000    0.000    0.000    0.000    0.000    0.000 
#
# Total GULP energy -396788.537738 kJ/mol
# GULP energy per Si atom -12399.641804 kJ/mol
# Density = 2.278041 g / cm^3
# Si number density = 22.832381 Si / 1000 Ang^3
#
#
#
# Elastic Constant Matrix: (Units=GPa)
#
#
# Indices 1 2 3 4 5 6 
#
# 1 203.8661 76.0209 63.6772 0.0000 0.0000 0.0000
# 2 76.0209 130.6303 74.4707 0.0000 0.0000 0.0000
# 3 63.6772 74.4707 98.2112 0.0000 0.0000 0.0000
# 4 0.0000 0.0000 0.0000 28.6905 0.0000 0.0000
# 5 0.0000 0.0000 0.0000 0.0000 46.6362 0.0000
# 6 0.0000 0.0000 0.0000 0.0000 0.0000 46.0685
#
#
#
# Elastic Compliance Matrix: (Units=1/GPa)
#
#
# Indices 1 2 3 4 5 6 
#
# 1 0.006570 -0.002457 -0.002397 0.000000 0.000000 0.000000
# 2 -0.002457 0.014403 -0.009328 0.000000 0.000000 0.000000
# 3 -0.002397 -0.009328 0.018809 0.000000 0.000000 0.000000
# 4 0.000000 0.000000 0.000000 0.034855 0.000000 0.000000
# 5 0.000000 0.000000 0.000000 0.000000 0.021443 0.000000
# 6 0.000000 0.000000 0.000000 0.000000 0.000000 0.021707
#
#
# Mechanical properties :
#
#
# Convention : Reuss Voigt Hill
#
# Bulk Modulus (GPa) = 87.57813 95.67170 91.62491
# Shear Modulus (GPa) = 33.34293 38.84831 36.09562
#
# Velocity S-wave (km/s) = 3.82558 4.12935 3.98036
# Velocity P-wave (km/s) = 7.61273 8.04538 7.83204
#
# Compressibility (1/GPa) = 0.01141838
#
# Stress axis : x y z
#
# Youngs Moduli (GPa) = 152.20626 69.42952 53.16495
#
# Poissons Ratio (x) = 0.17060 0.12742
# Poissons Ratio (y) = 0.37400 0.49594
# Poissons Ratio (z) = 0.36478 0.64766
#
# Static dielectric constant tensor:
#      x y z
#    x 4.630750 0.000000 0.000000 
#    y 0.000000 4.280290 0.000000 
#    z 0.000000 0.000000 4.285970 
# 
# 
# High freq. dielectric constant tensor:
#      x y z
#    x 1.922370 0.000000 0.000000 
#    y 0.000000 1.921720 0.000000 
#    z 0.000000 0.000000 1.909770 
# 
# From -- ./inp_files/7560.got.cif
#   From: 2010.06.25/outbox.cif.g09.slc.cpg/sg48_4_cif.got.tgz:7560.got - 2010.06.26 18:06:46.
