data_PCOD8202459
_publ_section_title
;
Structure prediction by ZEFSAII (Michael W. Deem and Ramdas Pophale) SiO2 
 PCOD8202459
Probable space group: P C C M
;
_chemical_formula_sum "Si O2"
_cell_formula_units_Z 64
_cell_length_a 26.592768
_cell_length_b 18.357966
_cell_length_c 8.983310
_cell_angle_alpha 90.000000
_cell_angle_beta 90.000000
_cell_angle_gamma 90.000000
_cell_volume 4385.554301
_symmetry_space_group_name_H-M "P C C M"
_symmetry_group_IT_number 49
_symmetry_cell_setting 'orthorhombic'
loop_
_space_group_symop_operation_xyz
x,y,z
-x,-y,z
x,-y,1/2-z
-x,y,1/2-z
-x,-y,-z
x,y,-z
-x,y,1/2+z
x,-y,1/2+z
loop_
_atom_site_type_symbol
_atom_site_label
_atom_site_fract_x
_atom_site_fract_y
_atom_site_fract_z
Si Si1 0.886438 0.717999 0.332160
Si Si2 0.949687 0.153158 0.831268
Si Si3 0.252464 0.654299 0.674887
Si Si4 0.153093 0.923161 0.824783
Si Si5 0.453493 0.422359 0.327917
Si Si6 0.801515 0.204086 0.670368
Si Si7 0.657981 0.578375 0.326057
Si Si8 0.839744 0.573492 0.670976
O O1 0.866481 0.738546 0.500000
O O2 0.939910 0.759276 0.311092
O O3 0.850355 0.747900 0.204970
O O4 0.886887 0.630304 0.316111
O O5 0.900940 0.108978 0.772272
O O6 0.000000 0.128396 0.750000
O O7 0.959167 0.131842 0.000000
O O8 0.251589 0.636183 0.500000
O O9 0.245049 0.741270 0.702527
O O10 0.305762 0.635625 0.746667
O O11 0.209932 0.605756 0.753307
O O12 0.197652 0.868383 0.771949
O O13 0.162533 0.000000 0.750000
O O14 0.156145 0.932007 0.000000
O O15 0.451111 0.500000 0.250000
O O16 0.500000 0.377776 0.250000
O O17 0.466450 0.431368 0.500000
O O18 0.398183 0.387667 0.305576
O O19 0.802607 0.178769 0.500000
O O20 0.664129 0.500000 0.250000
O O21 0.671249 0.569881 0.500000
O O22 0.857499 0.500000 0.750000
O O23 0.826718 0.556960 0.500000
#
# Coordination Sequence:
#
# PCOD8202459 Si02
#       8
#     8   8   8   8   8   8   8   8
#     4   8  16  30  44  58  78 104 130 156 190 233
#     4   9  18  31  46  64  83 104 129 156 189 227
#     4  10  19  29  41  58  80 105 133 164 200 242
#     4  10  20  33  48  66  88 110 132 157 185 220
#     4   9  16  25  37  51  68  95 132 173 214 253
#     4   9  17  29  45  63  81 103 132 161 190 229
#     4  10  19  28  38  54  77 105 138 176 216 252
#     4  10  18  28  42  58  78 101 127 162 201 240
#
# _framework density 14.593366
#
# number of rings (size 3 to 8) (size 9 to 14) (size 15 to 20)
#    0.000    2.625    0.000    3.750    0.000    6.250 
#    0.000    1.250    0.000    0.375    0.000    2.625 
#    0.000    0.000    0.000    0.000    0.000    0.625 
#
# Total GULP energy -792894.294448 kJ/mol
# GULP energy per Si atom -12388.973351 kJ/mol
# Density = 1.456015 g / cm^3
# Si number density = 14.593366 Si / 1000 Ang^3
#
#
#
# Elastic Constant Matrix: (Units=GPa)
#
#
# Indices 1 2 3 4 5 6 
#
# 1 51.2570 29.5353 31.9124 0.0000 0.0000 0.0000
# 2 29.5353 89.9056 41.7894 0.0000 0.0000 0.0000
# 3 31.9124 41.7894 87.5406 0.0000 0.0000 0.0000
# 4 0.0000 0.0000 0.0000 21.6245 0.0000 0.0000
# 5 0.0000 0.0000 0.0000 0.0000 21.3901 0.0000
# 6 0.0000 0.0000 0.0000 0.0000 0.0000 11.0457
#
#
#
# Elastic Compliance Matrix: (Units=1/GPa)
#
#
# Indices 1 2 3 4 5 6 
#
# 1 0.027248 -0.005570 -0.007274 0.000000 0.000000 0.000000
# 2 -0.005570 0.015433 -0.005337 0.000000 0.000000 0.000000
# 3 -0.007274 -0.005337 0.016623 0.000000 0.000000 0.000000
# 4 0.000000 0.000000 0.000000 0.046244 0.000000 0.000000
# 5 0.000000 0.000000 0.000000 0.000000 0.046751 0.000000
# 6 0.000000 0.000000 0.000000 0.000000 0.000000 0.090533
#
#
# Mechanical properties :
#
#
# Convention : Reuss Voigt Hill
#
# Bulk Modulus (GPa) = 43.58869 48.35302 45.97086
# Shear Modulus (GPa) = 17.43128 19.17646 18.30387
#
# Velocity S-wave (km/s) = 3.45985 3.62892 3.54539
# Velocity P-wave (km/s) = 6.77455 7.12490 6.95193
#
# Compressibility (1/GPa) = 0.02294173
#
# Stress axis : x y z
#
# Youngs Moduli (GPa) = 36.69989 64.79487 60.15900
#
# Poissons Ratio (x) = 0.36093 0.43760
# Poissons Ratio (y) = 0.20443 0.32106
# Poissons Ratio (z) = 0.26696 0.34580
#
# Static dielectric constant tensor:
#      x y z
#    x 3.032790 0.000000 0.000000 
#    y 0.000000 2.812390 0.000000 
#    z 0.000000 0.000000 2.986470 
# 
# 
# High freq. dielectric constant tensor:
#      x y z
#    x 1.526940 0.000000 0.000000 
#    y 0.000000 1.531040 0.000000 
#    z 0.000000 0.000000 1.578060 
# 
# From -- ./inp_files/5445.got.cif
#   From: 2010.03.12/outbox.cif.g09.slc.cpg/sg49_3_cif.got.tgz:5445.got - 2010.04.14 03:58:27.
