data_PCOD8202334
_publ_section_title
;
Structure prediction by ZEFSAII (Michael W. Deem and Ramdas Pophale) SiO2 
 PCOD8202334
Probable space group: P C C M
;
_chemical_formula_sum "Si O2"
_cell_formula_units_Z 48
_cell_length_a 9.141421
_cell_length_b 31.041557
_cell_length_c 8.669813
_cell_angle_alpha 90.000000
_cell_angle_beta 90.000000
_cell_angle_gamma 90.000000
_cell_volume 2460.180305
_symmetry_space_group_name_H-M "P C C M"
_symmetry_group_IT_number 49
_symmetry_cell_setting 'orthorhombic'
loop_
_space_group_symop_operation_xyz
x,y,z
-x,-y,z
x,-y,1/2-z
-x,y,1/2-z
-x,-y,-z
x,y,-z
-x,y,1/2+z
x,-y,1/2+z
loop_
_atom_site_type_symbol
_atom_site_label
_atom_site_fract_x
_atom_site_fract_y
_atom_site_fract_z
Si Si1 0.659703 0.712935 0.818129
Si Si2 0.837129 0.542981 0.316620
Si Si3 0.160774 0.630067 0.316840
Si Si4 0.839889 0.795209 0.817229
Si Si5 0.340064 0.872603 0.181084
Si Si6 0.155121 0.045205 0.319429
O O1 0.500000 0.714242 0.750000
O O2 0.740871 0.669868 0.762102
O O3 0.747837 0.754328 0.757518
O O4 0.647906 0.713895 0.000000
O O5 0.756806 0.500000 0.250000
O O6 0.837245 0.541837 0.500000
O O7 0.763320 0.586939 0.254182
O O8 0.000000 0.543502 0.250000
O O9 0.150895 0.625710 0.500000
O O10 0.000000 0.637587 0.250000
O O11 0.766559 0.838436 0.757487
O O12 0.000000 0.790813 0.750000
O O13 0.848968 0.796695 0.000000
O O14 0.500000 0.867903 0.250000
O O15 0.277801 0.919725 0.220772
O O16 0.346348 0.864005 0.000000
O O17 0.133049 0.039690 0.500000
O O18 0.000000 0.059822 0.250000
O O19 0.209090 0.000000 0.250000
#
# Coordination Sequence:
#
# PCOD8202334 Si02
#       6
#     8   8   8   8   8   8
#     4  10  23  39  57  81 111 145 183 225 274 328
#     4  10  17  27  45  72 104 139 176 220 270 319
#     4  10  19  33  52  78 108 140 179 224 270 322
#     4  11  23  40  62  88 115 148 188 232 279 333
#     4  11  24  40  59  86 118 154 191 234 284 338
#     4  10  21  37  59  85 114 149 192 237 285 335
#
# _framework density 19.510764000000002
#
# number of rings (size 3 to 8) (size 9 to 14) (size 15 to 20)
#    0.000    1.667    0.000    7.000    0.000    8.333 
#    0.000    1.667    0.000    0.500    0.000    3.500 
#    0.000    0.000    0.000    0.000    0.000    0.000 
#
# Total GULP energy -595263.356223 kJ/mol
# GULP energy per Si atom -12401.319921 kJ/mol
# Density = 1.946636 g / cm^3
# Si number density = 19.510764 Si / 1000 Ang^3
#
#
#
# Elastic Constant Matrix: (Units=GPa)
#
#
# Indices 1 2 3 4 5 6 
#
# 1 119.0966 70.5262 41.9403 0.0000 0.0000 0.0000
# 2 70.5262 157.7176 64.5570 0.0000 0.0000 0.0000
# 3 41.9403 64.5570 108.5131 0.0000 0.0000 0.0000
# 4 0.0000 0.0000 0.0000 32.6662 0.0000 0.0000
# 5 0.0000 0.0000 0.0000 0.0000 27.3604 0.0000
# 6 0.0000 0.0000 0.0000 0.0000 0.0000 9.5689
#
#
#
# Elastic Compliance Matrix: (Units=1/GPa)
#
#
# Indices 1 2 3 4 5 6 
#
# 1 0.011699 -0.004469 -0.001863 0.000000 0.000000 0.000000
# 2 -0.004469 0.010088 -0.004275 0.000000 0.000000 0.000000
# 3 -0.001863 -0.004275 0.012479 0.000000 0.000000 0.000000
# 4 0.000000 0.000000 0.000000 0.030613 0.000000 0.000000
# 5 0.000000 0.000000 0.000000 0.000000 0.036549 0.000000
# 6 0.000000 0.000000 0.000000 0.000000 0.000000 0.104505
#
#
# Mechanical properties :
#
#
# Convention : Reuss Voigt Hill
#
# Bulk Modulus (GPa) = 76.61068 82.15271 79.38169
# Shear Modulus (GPa) = 21.59856 27.80604 24.70230
#
# Velocity S-wave (km/s) = 3.33078 3.77923 3.56207
# Velocity P-wave (km/s) = 7.35821 7.82568 7.59554
#
# Compressibility (1/GPa) = 0.01305301
#
# Stress axis : x y z
#
# Youngs Moduli (GPa) = 85.47783 99.12311 80.13693
#
# Poissons Ratio (x) = 0.44296 0.14930
# Poissons Ratio (y) = 0.38198 0.34256
# Poissons Ratio (z) = 0.15925 0.42372
#
# Static dielectric constant tensor:
#      x y z
#    x 3.348440 0.000000 0.000000 
#    y 0.000000 4.400380 0.000000 
#    z 0.000000 0.000000 3.660180 
# 
# 
# High freq. dielectric constant tensor:
#      x y z
#    x 1.737030 0.000000 0.000000 
#    y 0.000000 1.787080 0.000000 
#    z 0.000000 0.000000 1.773360 
# 
# From -- ./inp_files/2092.got.cif
#   From: 2010.03.12/outbox.cif.g09.slc.cpg/sg49_2_cif.got.tgz:2092.got - 2010.04.14 03:58:27.
