data_PCOD8202652
_publ_section_title
;
Structure prediction by ZEFSAII (Michael W. Deem and Ramdas Pophale) SiO2 
 PCOD8202652
Probable space group: P C C M
;
_chemical_formula_sum "Si O2"
_cell_formula_units_Z 48
_cell_length_a 16.905694
_cell_length_b 8.687499
_cell_length_c 16.951955
_cell_angle_alpha 90.000000
_cell_angle_beta 90.000000
_cell_angle_gamma 90.000000
_cell_volume 2489.703113
_symmetry_space_group_name_H-M "P C C M"
_symmetry_group_IT_number 49
_symmetry_cell_setting 'orthorhombic'
loop_
_space_group_symop_operation_xyz
x,y,z
-x,-y,z
x,-y,1/2-z
-x,y,1/2-z
-x,-y,-z
x,y,-z
-x,y,1/2+z
x,-y,1/2+z
loop_
_atom_site_type_symbol
_atom_site_label
_atom_site_fract_x
_atom_site_fract_y
_atom_site_fract_z
Si Si1 0.407983 0.674516 0.264183
Si Si2 0.295080 0.099565 0.675177
Si Si3 0.000097 0.682334 0.911114
Si Si4 0.842078 0.688000 0.333552
Si Si5 0.326041 0.804584 0.409867
Si Si6 0.166448 0.340281 0.852265
O O1 0.380633 0.500000 0.250000
O O2 0.500000 0.698544 0.250000
O O3 0.362541 0.782864 0.202965
O O4 0.387756 0.714407 0.354624
O O5 0.222679 0.191460 0.634858
O O6 0.264579 0.000000 0.750000
O O7 0.330580 0.986514 0.609089
O O8 0.070152 0.748797 0.855804
O O9 0.000000 0.500000 0.903864
O O10 0.914536 0.739583 0.881899
O O11 0.015191 0.738888 0.000000
O O12 0.828857 0.679231 0.240729
O O13 0.829098 0.521473 0.374008
O O14 0.350908 0.776176 0.500000
O O15 0.237366 0.745795 0.395108
#
# Coordination Sequence:
#
# PCOD8202652 Si02
#       6
#     8   8   8   8   8   8
#     4  10  21  42  69  92 115 152 191 236 287 350
#     4  10  20  36  57  83 117 155 191 229 282 357
#     4   9  18  30  47  77 115 151 192 250 303 335
#     4  10  18  32  57  82 108 153 205 246 285 354
#     4  11  23  38  60  90 125 156 192 239 293 345
#     4  10  18  33  57  83 112 149 204 247 295 341
#
# _framework density 19.279406999999999
#
# number of rings (size 3 to 8) (size 9 to 14) (size 15 to 20)
#    0.000    2.000    3.333    2.000    0.000    6.333 
#    0.000    6.667    0.000    2.000    0.000    0.000 
#    0.000    0.000    0.000    0.000    0.000    0.000 
#
# Total GULP energy -595207.175882 kJ/mol
# GULP energy per Si atom -12400.149498 kJ/mol
# Density = 1.923553 g / cm^3
# Si number density = 19.279407 Si / 1000 Ang^3
#
#
#
# Elastic Constant Matrix: (Units=GPa)
#
#
# Indices 1 2 3 4 5 6 
#
# 1 117.3644 58.0718 43.5729 0.0000 0.0000 0.0000
# 2 58.0718 106.0155 39.5124 0.0000 0.0000 0.0000
# 3 43.5729 39.5124 102.6068 0.0000 0.0000 0.0000
# 4 0.0000 0.0000 0.0000 16.2687 0.0000 0.0000
# 5 0.0000 0.0000 0.0000 0.0000 -63.5923 0.0000
# 6 0.0000 0.0000 0.0000 0.0000 0.0000 5.5684
#
#
#
# Elastic Compliance Matrix: (Units=1/GPa)
#
#
# Indices 1 2 3 4 5 6 
#
# 1 0.012487 -0.005679 -0.003116 0.000000 0.000000 0.000000
# 2 -0.005679 0.013596 -0.002824 0.000000 0.000000 0.000000
# 3 -0.003116 -0.002824 0.012157 0.000000 0.000000 0.000000
# 4 0.000000 0.000000 0.000000 0.061468 0.000000 0.000000
# 5 0.000000 0.000000 0.000000 0.000000 -0.015725 0.000000
# 6 0.000000 0.000000 0.000000 0.000000 0.000000 0.179583
#
#
# Mechanical properties :
#
#
# Convention : Reuss Voigt Hill
#
# Bulk Modulus (GPa) = 66.65725 67.58899 67.12312
# Shear Modulus (GPa) = 17.13482 3.97094 10.55288
#
# Velocity S-wave (km/s) = 2.98445 1.43672 2.34212
# Velocity P-wave (km/s) = 6.82094 6.15515 6.49658
#
# Compressibility (1/GPa) = 0.01500212
#
# Stress axis : x y z
#
# Youngs Moduli (GPa) = 80.08237 73.55259 82.25953
#
# Poissons Ratio (x) = 0.41768 0.25632
# Poissons Ratio (y) = 0.45476 0.23230
# Poissons Ratio (z) = 0.24954 0.20771
#
# Static dielectric constant tensor:
#      x y z
#    x 3.580240 0.000000 0.000000 
#    y 0.000000 3.688250 0.000000 
#    z 0.000000 0.000000 3.400200 
# 
# 
# High freq. dielectric constant tensor:
#      x y z
#    x 1.752830 0.000000 0.000000 
#    y 0.000000 1.740700 0.000000 
#    z 0.000000 0.000000 1.732670 
# 
# From -- ./inp_files/13995.got.cif
#   From: 2010.03.12/outbox.cif.g09.slc.cpg/sg49_7_cif.got.tgz:13995.got - 2010.04.14 03:58:27.
