data_PCOD8202135
_publ_section_title
;
Structure prediction by ZEFSAII (Michael W. Deem and Ramdas Pophale) SiO2 
 PCOD8202135
Probable space group: P N N N
;
_chemical_formula_sum "Si O2"
_cell_formula_units_Z 32
_cell_length_a 20.931563
_cell_length_b 7.564798
_cell_length_c 8.248180
_cell_angle_alpha 90.000000
_cell_angle_beta 90.000000
_cell_angle_gamma 90.000000
_cell_volume 1306.041944
_symmetry_space_group_name_H-M "P N N N"
_symmetry_group_IT_number 48
_space_group.IT_coordinate_system_code '2'
_symmetry_cell_setting 'orthorhombic'
loop_
_space_group_symop_operation_xyz
x,y,z
1/2-x,1/2-y,z
x,1/2-y,1/2-z
1/2-x,y,1/2-z
-x,-y,-z
1/2+x,1/2+y,-z
-x,1/2+y,1/2+z
1/2+x,-y,1/2+z
loop_
_atom_site_type_symbol
_atom_site_label
_atom_site_fract_x
_atom_site_fract_y
_atom_site_fract_z
Si Si1 0.496322 0.296716 0.940397
Si Si2 0.138003 0.293403 0.069552
Si Si3 0.314053 0.515834 0.854133
Si Si4 0.869604 0.346929 0.049554
O O1 0.487459 0.250000 0.750000
O O2 0.559514 0.197975 0.995989
O O3 0.500000 0.500000 0.000000
O O4 0.437296 0.214755 0.037772
O O5 0.157515 0.250000 0.250000
O O6 0.160958 0.495177 0.055717
O O7 0.175990 0.170461 0.941653
O O8 0.250000 0.515536 0.750000
O O9 0.372423 0.568472 0.732131
O O10 0.320239 0.682416 0.976974
#
# Coordination Sequence:
#
# PCOD8202135 Si02
#       4
#     8   8   8   8
#     4  12  25  45  76 116 168 209 259 332 405 491
#     4  12  27  45  77 117 160 205 258 333 404 481
#     4  11  26  49  77 106 149 209 275 330 393 481
#     4  11  24  44  76 107 151 205 265 316 394 469
#
# _framework density 24.501508999999999
#
# number of rings (size 3 to 8) (size 9 to 14) (size 15 to 20)
#    0.000    0.500    2.500    6.000    7.000    3.000 
#    0.000    2.500    5.500    0.000    0.000    0.000 
#    0.000    0.000    0.000    0.000    0.000    0.000 
#
# Total GULP energy -396506.380980 kJ/mol
# GULP energy per Si atom -12390.824406 kJ/mol
# Density = 2.444574 g / cm^3
# Si number density = 24.501509 Si / 1000 Ang^3
#
#
#
# Elastic Constant Matrix: (Units=GPa)
#
#
# Indices 1 2 3 4 5 6 
#
# 1 102.6527 55.4593 25.7833 0.0000 0.0000 0.0000
# 2 55.4593 196.1170 34.8006 0.0000 0.0000 0.0000
# 3 25.7833 34.8006 91.6014 0.0000 0.0000 0.0000
# 4 0.0000 0.0000 0.0000 46.0103 0.0000 0.0000
# 5 0.0000 0.0000 0.0000 0.0000 43.7329 0.0000
# 6 0.0000 0.0000 0.0000 0.0000 0.0000 29.9682
#
#
#
# Elastic Compliance Matrix: (Units=1/GPa)
#
#
# Indices 1 2 3 4 5 6 
#
# 1 0.011906 -0.002972 -0.002222 0.000000 0.000000 0.000000
# 2 -0.002972 0.006210 -0.001522 0.000000 0.000000 0.000000
# 3 -0.002222 -0.001522 0.012121 0.000000 0.000000 0.000000
# 4 0.000000 0.000000 0.000000 0.021734 0.000000 0.000000
# 5 0.000000 0.000000 0.000000 0.000000 0.022866 0.000000
# 6 0.000000 0.000000 0.000000 0.000000 0.000000 0.033369
#
#
# Mechanical properties :
#
#
# Convention : Reuss Voigt Hill
#
# Bulk Modulus (GPa) = 59.51529 69.16192 64.33861
# Shear Modulus (GPa) = 39.29601 42.23080 40.76341
#
# Velocity S-wave (km/s) = 4.00912 4.15613 4.08329
# Velocity P-wave (km/s) = 6.76564 7.16381 6.96757
#
# Compressibility (1/GPa) = 0.01680241
#
# Stress axis : x y z
#
# Youngs Moduli (GPa) = 83.99444 161.03743 82.50378
#
# Poissons Ratio (x) = 0.47868 0.18331
# Poissons Ratio (y) = 0.24967 0.12561
# Poissons Ratio (z) = 0.18662 0.24518
#
# Static dielectric constant tensor:
#      x y z
#    x 4.439290 0.000000 0.000000 
#    y 0.000000 5.281260 0.000000 
#    z 0.000000 0.000000 4.688050 
# 
# 
# High freq. dielectric constant tensor:
#      x y z
#    x 1.967980 0.000000 0.000000 
#    y 0.000000 2.009650 0.000000 
#    z 0.000000 0.000000 1.963050 
# 
# From -- ./inp_files/14748.got.cif
#   From: 2010.06.25/outbox.cif.g09.slc.cpg/sg48_8_cif.got.tgz:14748.got - 2010.06.26 18:06:46.
