data_PCOD8202293
_publ_section_title
;
Structure prediction by ZEFSAII (Michael W. Deem and Ramdas Pophale) SiO2 
 PCOD8202293
Probable space group: P C C M
;
_chemical_formula_sum "Si O2"
_cell_formula_units_Z 56
_cell_length_a 25.100529
_cell_length_b 15.422448
_cell_length_c 8.715686
_cell_angle_alpha 90.000000
_cell_angle_beta 90.000000
_cell_angle_gamma 90.000000
_cell_volume 3373.943181
_symmetry_space_group_name_H-M "P C C M"
_symmetry_group_IT_number 49
_symmetry_cell_setting 'orthorhombic'
loop_
_space_group_symop_operation_xyz
x,y,z
-x,-y,z
x,-y,1/2-z
-x,y,1/2-z
-x,-y,-z
x,y,-z
-x,y,1/2+z
x,-y,1/2+z
loop_
_atom_site_type_symbol
_atom_site_label
_atom_site_fract_x
_atom_site_fract_y
_atom_site_fract_z
Si Si1 0.634409 0.225090 0.676889
Si Si2 0.947083 0.903712 0.182428
Si Si3 0.839935 0.905744 0.318893
Si Si4 0.359657 0.582287 0.322059
Si Si5 0.251023 0.228123 0.320642
Si Si6 0.755582 0.416829 0.823310
Si Si7 0.556336 0.908658 0.319728
O O1 0.627771 0.197633 0.500000
O O2 0.612927 0.323850 0.702071
O O3 0.696207 0.215234 0.720551
O O4 0.599942 0.163508 0.783975
O O5 0.892318 0.860686 0.242875
O O6 0.000000 0.855978 0.250000
O O7 0.946091 0.000000 0.250000
O O8 0.949234 0.904213 0.000000
O O9 0.848873 0.913188 0.500000
O O10 0.789798 0.846856 0.275648
O O11 0.828361 0.000000 0.250000
O O12 0.392924 0.500000 0.250000
O O13 0.348565 0.565622 0.500000
O O14 0.305103 0.584252 0.229510
O O15 0.266720 0.224988 0.500000
O O16 0.222178 0.320801 0.282349
O O17 0.786425 0.500000 0.750000
O O18 0.758987 0.435177 0.000000
O O19 0.500000 0.879405 0.250000
O O20 0.549904 0.919474 0.500000
O O21 0.575301 0.000000 0.250000
#
# Coordination Sequence:
#
# PCOD8202293 Si02
#       7
#     8   8   8   8   8   8   8
#     4  10  20  33  50  73  98 124 156 190 228 274
#     4  10  17  27  43  62  83 111 149 190 228 265
#     4  10  19  31  44  61  88 122 156 189 225 266
#     4   9  16  26  43  67  94 122 151 184 220 265
#     4   9  19  32  45  64  94 128 157 186 227 275
#     4   9  15  25  41  61  85 115 150 187 226 267
#     4  11  22  38  58  76  95 118 150 192 235 274
#
# _framework density 16.597791000000001
#
# number of rings (size 3 to 8) (size 9 to 14) (size 15 to 20)
#    0.000    2.286    0.000    6.857    0.000    4.000 
#    0.000    1.429    0.000    0.429    0.000    3.000 
#    0.000    0.571    0.000    6.571    0.000    2.000 
#
# Total GULP energy -693879.518893 kJ/mol
# GULP energy per Si atom -12390.705695 kJ/mol
# Density = 1.656001 g / cm^3
# Si number density = 16.597791 Si / 1000 Ang^3
#
#
#
# Elastic Constant Matrix: (Units=GPa)
#
#
# Indices 1 2 3 4 5 6 
#
# 1 64.0487 48.3283 40.4927 0.0000 0.0000 0.0000
# 2 48.3283 106.2831 47.6419 0.0000 0.0000 0.0000
# 3 40.4927 47.6419 100.9021 0.0000 0.0000 0.0000
# 4 0.0000 0.0000 0.0000 24.2465 0.0000 0.0000
# 5 0.0000 0.0000 0.0000 0.0000 20.8741 0.0000
# 6 0.0000 0.0000 0.0000 0.0000 0.0000 -0.0445
#
#
#
# Elastic Compliance Matrix: (Units=1/GPa)
#
#
# Indices 1 2 3 4 5 6 
#
# 1 0.026584 -0.009267 -0.006293 0.000000 0.000000 0.000000
# 2 -0.009267 0.015166 -0.003441 0.000000 0.000000 0.000000
# 3 -0.006293 -0.003441 0.014061 0.000000 0.000000 0.000000
# 4 0.000000 0.000000 0.000000 0.041243 0.000000 0.000000
# 5 0.000000 0.000000 0.000000 0.000000 0.047906 0.000000
# 6 0.000000 0.000000 0.000000 0.000000 0.000000-22.466245
#
#
# Mechanical properties :
#
#
# Convention : Reuss Voigt Hill
#
# Bulk Modulus (GPa) = 56.15660 60.46218 58.30939
# Shear Modulus (GPa) = -0.22444 17.99994 8.88775
#
# Velocity S-wave (km/s) = -0.36813 3.29671 2.31655
# Velocity P-wave (km/s) = 5.80746 7.14129 6.50863
#
# Compressibility (1/GPa) = 0.01780734
#
# Stress axis : x y z
#
# Youngs Moduli (GPa) = 37.61610 65.93905 71.11953
#
# Poissons Ratio (x) = 0.61109 0.44754
# Poissons Ratio (y) = 0.34861 0.24475
# Poissons Ratio (z) = 0.23671 0.22693
#
# Static dielectric constant tensor:
#      x y z
#    x 3.121830 0.000000 0.000000 
#    y 0.000000 3.691900 0.000000 
#    z 0.000000 0.000000 3.252640 
# 
# 
# High freq. dielectric constant tensor:
#      x y z
#    x 1.598980 0.000000 0.000000 
#    y 0.000000 1.634370 0.000000 
#    z 0.000000 0.000000 1.660130 
# 
# From -- ./inp_files/6580.got.cif
#   From: 2010.03.12/outbox.cif.g09.slc.cpg/sg49_4_cif.got.tgz:6580.got - 2010.04.14 03:58:27.
