data_PCOD8202171
_publ_section_title
;
Structure prediction by ZEFSAII (Michael W. Deem and Ramdas Pophale) SiO2 
 PCOD8202171
Probable space group: P N N N
;
_chemical_formula_sum "Si O2"
_cell_formula_units_Z 22
_cell_length_a 4.819038
_cell_length_b 13.835258
_cell_length_c 12.181795
_cell_angle_alpha 90.000000
_cell_angle_beta 90.000000
_cell_angle_gamma 90.000000
_cell_volume 812.192360
_symmetry_space_group_name_H-M "P N N N"
_symmetry_group_IT_number 48
_space_group.IT_coordinate_system_code '2'
_symmetry_cell_setting 'orthorhombic'
loop_
_space_group_symop_operation_xyz
x,y,z
1/2-x,1/2-y,z
x,1/2-y,1/2-z
1/2-x,y,1/2-z
-x,-y,-z
1/2+x,1/2+y,-z
-x,1/2+y,1/2+z
1/2+x,-y,1/2+z
loop_
_atom_site_type_symbol
_atom_site_label
_atom_site_fract_x
_atom_site_fract_y
_atom_site_fract_z
Si Si1 0.580937 0.350399 0.954407
Si Si2 0.250000 0.750000 0.750000
Si Si3 0.750000 0.444821 0.750000
Si Si4 0.042864 0.395659 0.093188
O O1 0.750000 0.250000 0.966836
O O2 0.547702 0.377570 0.825456
O O3 0.291586 0.352794 0.018355
O O4 0.784908 0.427470 0.015085
O O5 0.455202 0.811706 0.824304
O O6 0.917622 0.510262 0.833710
#
# Coordination Sequence:
#
# PCOD8202171 Si02
#       4
#     8   2   4   8
#     4  12  28  51  80 116 159 210 263 327 399 487
#     4  12  28  54  82 122 152 220 266 348 390 478
#     4  12  29  51  78 122 160 210 256 343 403 466
#     4  12  28  49  81 114 157 206 272 323 397 476
#
# _framework density 27.087178999999999
#
# number of rings (size 3 to 8) (size 9 to 14) (size 15 to 20)
#    0.000    0.000    1.818    6.000    5.091    8.727 
#    0.000    3.636    0.000    0.000    0.000    0.000 
#    0.000    0.000    0.000    0.000    0.000    0.000 
#
# Total GULP energy -272655.508450 kJ/mol
# GULP energy per Si atom -12393.432202 kJ/mol
# Density = 2.702553 g / cm^3
# Si number density = 27.087179 Si / 1000 Ang^3
#
#
#
# Elastic Constant Matrix: (Units=GPa)
#
#
# Indices 1 2 3 4 5 6 
#
# 1 161.3808 24.5258 79.9038 0.0000 0.0000 0.0000
# 2 24.5258 62.4999 70.8013 0.0000 0.0000 0.0000
# 3 79.9038 70.8013 233.9545 0.0000 0.0000 0.0000
# 4 0.0000 0.0000 0.0000 31.6014 0.0000 0.0000
# 5 0.0000 0.0000 0.0000 0.0000 37.4792 0.0000
# 6 0.0000 0.0000 0.0000 0.0000 0.0000 25.9280
#
#
#
# Elastic Compliance Matrix: (Units=1/GPa)
#
#
# Indices 1 2 3 4 5 6 
#
# 1 0.007458 -0.000063 -0.002528 0.000000 0.000000 0.000000
# 2 -0.000063 0.024347 -0.007347 0.000000 0.000000 0.000000
# 3 -0.002528 -0.007347 0.007361 0.000000 0.000000 0.000000
# 4 0.000000 0.000000 0.000000 0.031644 0.000000 0.000000
# 5 0.000000 0.000000 0.000000 0.000000 0.026681 0.000000
# 6 0.000000 0.000000 0.000000 0.000000 0.000000 0.038568
#
#
# Mechanical properties :
#
#
# Convention : Reuss Voigt Hill
#
# Bulk Modulus (GPa) = 51.83749 89.81079 70.82414
# Shear Modulus (GPa) = 30.79475 37.84203 34.31839
#
# Velocity S-wave (km/s) = 3.37542 3.74176 3.56330
# Velocity P-wave (km/s) = 5.86260 7.20388 6.56757
#
# Compressibility (1/GPa) = 0.01929106
#
# Stress axis : x y z
#
# Youngs Moduli (GPa) = 134.08791 41.07254 135.84855
#
# Poissons Ratio (x) = 0.00257 0.34345
# Poissons Ratio (y) = 0.00839 0.99805
# Poissons Ratio (z) = 0.33900 0.30175
#
# Static dielectric constant tensor:
#      x y z
#    x 5.056000 0.000000 0.000000 
#    y 0.000000 5.540710 0.000000 
#    z 0.000000 0.000000 6.073620 
# 
# 
# High freq. dielectric constant tensor:
#      x y z
#    x 2.080290 0.000000 0.000000 
#    y 0.000000 2.108230 0.000000 
#    z 0.000000 0.000000 2.128450 
# 
# From -- ./inp_files/23981.got.cif
#   From: 2010.06.25/outbox.cif.g09.slc.cpg/sg48_12_cif.got.tgz:23981.got - 2010.06.26 18:06:46.
