data_PCOD8202374
_publ_section_title
;
Structure prediction by ZEFSAII (Michael W. Deem and Ramdas Pophale) SiO2 
 PCOD8202374
Probable space group: P C C M
;
_chemical_formula_sum "Si O2"
_cell_formula_units_Z 48
_cell_length_a 9.645248
_cell_length_b 30.190913
_cell_length_c 8.653196
_cell_angle_alpha 90.000000
_cell_angle_beta 90.000000
_cell_angle_gamma 90.000000
_cell_volume 2519.800665
_symmetry_space_group_name_H-M "P C C M"
_symmetry_group_IT_number 49
_symmetry_cell_setting 'orthorhombic'
loop_
_space_group_symop_operation_xyz
x,y,z
-x,-y,z
x,-y,1/2-z
-x,y,1/2-z
-x,-y,-z
x,y,-z
-x,y,1/2+z
x,-y,1/2+z
loop_
_atom_site_type_symbol
_atom_site_label
_atom_site_fract_x
_atom_site_fract_y
_atom_site_fract_z
Si Si1 0.151900 0.866537 0.182413
Si Si2 0.648143 0.546976 0.682692
Si Si3 0.645584 0.202221 0.680102
Si Si4 0.154525 0.955755 0.683493
Si Si5 0.152065 0.374262 0.681983
Si Si6 0.645796 0.694482 0.179146
O O1 0.236722 0.823304 0.227459
O O2 0.225620 0.910526 0.255155
O O3 0.000000 0.859889 0.250000
O O4 0.143387 0.872057 0.000000
O O5 0.696782 0.500000 0.750000
O O6 0.500000 0.561483 0.750000
O O7 0.634796 0.543244 0.500000
O O8 0.760916 0.582917 0.734764
O O9 0.500000 0.186913 0.750000
O O10 0.650826 0.190236 0.500000
O O11 0.670476 0.253892 0.710152
O O12 0.154401 0.957060 0.500000
O O13 0.000000 0.955050 0.750000
O O14 0.230383 0.000000 0.750000
O O15 0.140851 0.371012 0.500000
O O16 0.226393 0.330251 0.742465
O O17 0.000000 0.378263 0.750000
O O18 0.500000 0.678527 0.250000
O O19 0.641947 0.682749 0.000000
#
# Coordination Sequence:
#
# PCOD8202374 Si02
#       6
#     8   8   8   8   8   8
#     4  11  21  34  53  79 109 143 181 225 274 324
#     4  10  21  37  59  85 111 145 186 229 272 322
#     4  10  21  38  58  82 109 142 181 223 271 325
#     4  10  17  28  46  71 103 138 177 222 269 321
#     4  11  24  39  57  83 115 149 185 226 278 329
#     4  10  21  38  61  84 109 142 183 226 270 323
#
# _framework density 19.049126999999999
#
# number of rings (size 3 to 8) (size 9 to 14) (size 15 to 20)
#    0.000    1.667    0.000    7.500    0.000    7.000 
#    0.000    1.667    0.000    0.500    0.000    3.500 
#    0.000    0.000    0.000    0.000    0.000    0.000 
#
# Total GULP energy -595299.974049 kJ/mol
# GULP energy per Si atom -12402.082793 kJ/mol
# Density = 1.900577 g / cm^3
# Si number density = 19.049127 Si / 1000 Ang^3
#
#
#
# Elastic Constant Matrix: (Units=GPa)
#
#
# Indices 1 2 3 4 5 6 
#
# 1 114.5628 70.0372 52.7582 0.0000 0.0000 0.0000
# 2 70.0372 104.8968 60.7651 0.0000 0.0000 0.0000
# 3 52.7582 60.7651 142.1685 0.0000 0.0000 0.0000
# 4 0.0000 0.0000 0.0000 30.6328 0.0000 0.0000
# 5 0.0000 0.0000 0.0000 0.0000 32.7632 0.0000
# 6 0.0000 0.0000 0.0000 0.0000 0.0000 18.2555
#
#
#
# Elastic Compliance Matrix: (Units=1/GPa)
#
#
# Indices 1 2 3 4 5 6 
#
# 1 0.015058 -0.009060 -0.001715 0.000000 0.000000 0.000000
# 2 -0.009060 0.018121 -0.004383 0.000000 0.000000 0.000000
# 3 -0.001715 -0.004383 0.009544 0.000000 0.000000 0.000000
# 4 0.000000 0.000000 0.000000 0.032645 0.000000 0.000000
# 5 0.000000 0.000000 0.000000 0.000000 0.030522 0.000000
# 6 0.000000 0.000000 0.000000 0.000000 0.000000 0.054778
#
#
# Mechanical properties :
#
#
# Convention : Reuss Voigt Hill
#
# Bulk Modulus (GPa) = 80.60802 80.97213 80.79008
# Shear Modulus (GPa) = 25.62525 28.20147 26.91336
#
# Velocity S-wave (km/s) = 3.67170 3.85185 3.76285
# Velocity P-wave (km/s) = 7.77064 7.89820 7.83468
#
# Compressibility (1/GPa) = 0.01240571
#
# Stress axis : x y z
#
# Youngs Moduli (GPa) = 66.41207 55.18341 104.77772
#
# Poissons Ratio (x) = 0.49995 0.17974
# Poissons Ratio (y) = 0.60168 0.45927
# Poissons Ratio (z) = 0.11393 0.24189
#
# Static dielectric constant tensor:
#      x y z
#    x 3.277350 0.000000 0.000000 
#    y 0.000000 4.028590 0.000000 
#    z 0.000000 0.000000 3.634720 
# 
# 
# High freq. dielectric constant tensor:
#      x y z
#    x 1.713370 0.000000 0.000000 
#    y 0.000000 1.758600 0.000000 
#    z 0.000000 0.000000 1.762430 
# 
# From -- ./inp_files/2037.got.cif
#   From: 2010.03.12/outbox.cif.g09.slc.cpg/sg49_2_cif.got.tgz:2037.got - 2010.04.14 03:58:27.
