data_PCOD8202877
_publ_section_title
;
Structure prediction by ZEFSAII (Michael W. Deem and Ramdas Pophale) SiO2 
 PCOD8202877
Probable space group: P C C M
;
_chemical_formula_sum "Si O2"
_cell_formula_units_Z 48
_cell_length_a 9.556247
_cell_length_b 17.019234
_cell_length_c 17.966801
_cell_angle_alpha 90.000000
_cell_angle_beta 90.000000
_cell_angle_gamma 90.000000
_cell_volume 2922.120584
_symmetry_space_group_name_H-M "P C C M"
_symmetry_group_IT_number 49
_symmetry_cell_setting 'orthorhombic'
loop_
_space_group_symop_operation_xyz
x,y,z
-x,-y,z
x,-y,1/2-z
-x,y,1/2-z
-x,-y,-z
x,y,-z
-x,y,1/2+z
x,-y,1/2+z
loop_
_atom_site_type_symbol
_atom_site_label
_atom_site_fract_x
_atom_site_fract_y
_atom_site_fract_z
Si Si1 0.000000 0.909527 0.838030
Si Si2 0.154275 0.216278 0.584394
Si Si3 0.334705 0.656325 0.835621
Si Si4 0.154275 0.783722 0.415606
Si Si5 0.665296 0.656325 0.835621
Si Si6 0.333593 0.500000 0.916071
O O1 0.861375 0.867736 0.873013
O O2 0.000000 0.898245 0.750000
O O3 0.138625 0.867737 0.873013
O O4 0.000000 0.000000 0.861600
O O5 0.205521 0.201979 0.500000
O O6 0.266564 0.268674 0.626287
O O7 0.000000 0.257457 0.585085
O O8 0.500000 0.664342 0.845197
O O9 0.289934 0.652920 0.750000
O O10 0.277629 0.577289 0.874386
O O11 0.205521 0.798020 0.500000
O O12 0.266563 0.731326 0.373713
O O13 0.722372 0.577288 0.874386
O O14 0.500000 0.500000 0.915193
O O15 0.275243 0.500000 0.000000
#
# Coordination Sequence:
#
# PCOD8202877 Si02
#       6
#     8   8   8   8   8   8
#     4   9  17  31  53  76  97 124 157 193 235 287
#     4   9  19  32  49  73  99 127 160 197 239 286
#     4  10  19  31  49  72  98 129 165 203 241 282
#     4   9  19  32  49  73  99 127 160 197 239 286
#     4  10  19  31  49  72  98 129 165 203 241 282
#     4   9  17  29  46  67  94 129 166 202 239 282
#
# _framework density 16.426428000000001
#
# number of rings (size 3 to 8) (size 9 to 14) (size 15 to 20)
#    1.000    1.667    0.000    2.500    0.000    5.333 
#    0.000    0.833    0.000    6.000    0.000    7.000 
#    0.000    0.000    0.000    0.000    0.000    0.000 
#
# Total GULP energy -594879.829788 kJ/mol
# GULP energy per Si atom -12393.329787 kJ/mol
# Density = 1.638904 g / cm^3
# Si number density = 16.426428 Si / 1000 Ang^3
#
#
#
# Elastic Constant Matrix: (Units=GPa)
#
#
# Indices 1 2 3 4 5 6 
#
# 1 21.2336 31.3287 34.3427 0.0000 0.0000 0.0000
# 2 31.3287 151.0966 87.2362 0.0000 0.0000 0.0000
# 3 34.3427 87.2362 163.6335 0.0000 0.0000 0.0000
# 4 0.0000 0.0000 0.0000 25.2348 0.0000 0.0000
# 5 0.0000 0.0000 0.0000 0.0000 25.3991 0.0000
# 6 0.0000 0.0000 0.0000 0.0000 0.0000 27.2043
#
#
#
# Elastic Compliance Matrix: (Units=1/GPa)
#
#
# Indices 1 2 3 4 5 6 
#
# 1 0.080612 -0.010035 -0.011569 0.000000 0.000000 0.000000
# 2 -0.010035 0.010810 -0.003657 0.000000 0.000000 0.000000
# 3 -0.011569 -0.003657 0.010489 0.000000 0.000000 0.000000
# 4 0.000000 0.000000 0.000000 0.039628 0.000000 0.000000
# 5 0.000000 0.000000 0.000000 0.000000 0.039371 0.000000
# 6 0.000000 0.000000 0.000000 0.000000 0.000000 0.036759
#
#
# Mechanical properties :
#
#
# Convention : Reuss Voigt Hill
#
# Bulk Modulus (GPa) = 19.45913 71.30878 45.38395
# Shear Modulus (GPa) = 17.52410 27.77138 22.64774
#
# Velocity S-wave (km/s) = 3.26977 4.11622 3.71716
# Velocity P-wave (km/s) = 5.11147 8.12996 6.79056
#
# Compressibility (1/GPa) = 0.05138976
#
# Stress axis : x y z
#
# Youngs Moduli (GPa) = 12.40507 92.50303 95.33903
#
# Poissons Ratio (x) = 0.92828 1.10294
# Poissons Ratio (y) = 0.12449 0.34867
# Poissons Ratio (z) = 0.14351 0.33830
#
# Static dielectric constant tensor:
#      x y z
#    x 2.715550 0.000000 0.000000 
#    y 0.000000 3.008650 0.000000 
#    z 0.000000 0.000000 3.298040 
# 
# 
# High freq. dielectric constant tensor:
#      x y z
#    x 1.591230 0.000000 0.000000 
#    y 0.000000 1.623950 0.000000 
#    z 0.000000 0.000000 1.657270 
# 
# From -- ./inp_files/17174.got.cif
#   From: 2010.03.12/outbox.cif.g09.slc.cpg/sg49_9_cif.got.tgz:17174.got - 2010.04.14 03:58:27.
