data_PCOD8202986
_publ_section_title
;
Structure prediction by ZEFSAII (Michael W. Deem and Ramdas Pophale) SiO2 
 PCOD8202986
Probable space group: P C C M
;
_chemical_formula_sum "Si O2"
_cell_formula_units_Z 64
_cell_length_a 30.898581
_cell_length_b 14.311688
_cell_length_c 9.006159
_cell_angle_alpha 90.000000
_cell_angle_beta 90.000000
_cell_angle_gamma 90.000000
_cell_volume 3982.621235
_symmetry_space_group_name_H-M "P C C M"
_symmetry_group_IT_number 49
_symmetry_cell_setting 'orthorhombic'
loop_
_space_group_symop_operation_xyz
x,y,z
-x,-y,z
x,-y,1/2-z
-x,y,1/2-z
-x,-y,-z
x,y,-z
-x,y,1/2+z
x,-y,1/2+z
loop_
_atom_site_type_symbol
_atom_site_label
_atom_site_fract_x
_atom_site_fract_y
_atom_site_fract_z
Si Si1 0.456001 0.596446 0.173857
Si Si2 0.704344 0.598586 0.174540
Si Si3 0.628885 0.292437 0.172224
Si Si4 0.658785 0.092568 0.827101
Si Si5 0.786038 0.275514 0.325597
Si Si6 0.864564 0.598698 0.827627
Si Si7 0.040258 0.399913 0.826915
Si Si8 0.758288 0.093871 0.174775
O O1 0.440871 0.500000 0.250000
O O2 0.500000 0.632803 0.250000
O O3 0.420025 0.675172 0.200508
O O4 0.463816 0.578280 0.000000
O O5 0.712864 0.500000 0.250000
O O6 0.660086 0.643237 0.231588
O O7 0.744018 0.664978 0.217835
O O8 0.700549 0.582974 0.000000
O O9 0.632116 0.184260 0.222612
O O10 0.642413 0.302761 0.000000
O O11 0.708360 0.108993 0.778959
O O12 0.639423 0.000000 0.750000
O O13 0.654771 0.074420 0.000000
O O14 0.787423 0.254212 0.500000
O O15 0.828688 0.329450 0.269482
O O16 0.786056 0.179183 0.236850
O O17 0.858358 0.500000 0.750000
O O18 0.912220 0.644775 0.799211
O O19 0.857410 0.578463 0.000000
O O20 0.041914 0.500000 0.750000
O O21 0.000000 0.343193 0.750000
O O22 0.030305 0.409953 0.000000
O O23 0.776291 0.000000 0.250000
O O24 0.764385 0.086483 0.000000
#
# Coordination Sequence:
#
# PCOD8202986 Si02
#       8
#     8   8   8   8   8   8   8   8
#     4  10  20  34  53  73  97 124 154 190 230 274
#     4  11  22  32  46  67  94 127 160 193 226 266
#     4  10  20  35  52  72  97 124 155 193 232 274
#     4   9  18  32  50  72  96 120 151 190 231 273
#     4  10  20  33  46  65  93 125 160 193 229 275
#     4   9  18  30  43  61  89 125 161 196 233 277
#     4   9  15  24  39  58  81 112 151 195 238 274
#     4  10  19  32  51  70  92 121 154 195 236 275
#
# _framework density 16.06982
#
# number of rings (size 3 to 8) (size 9 to 14) (size 15 to 20)
#    0.000    2.250    1.250    3.000    0.000    4.500 
#    0.000    0.000    0.000    0.375    0.000    2.625 
#    0.000    0.500    0.000    5.750    0.000    1.750 
#
# Total GULP energy -793489.572636 kJ/mol
# GULP energy per Si atom -12398.274572 kJ/mol
# Density = 1.603324 g / cm^3
# Si number density = 16.069820 Si / 1000 Ang^3
#
#
#
# Elastic Constant Matrix: (Units=GPa)
#
#
# Indices 1 2 3 4 5 6 
#
# 1 103.5597 55.4296 43.6513 0.0000 0.0000 0.0000
# 2 55.4296 114.9771 47.5713 0.0000 0.0000 0.0000
# 3 43.6513 47.5713 72.2034 0.0000 0.0000 0.0000
# 4 0.0000 0.0000 0.0000 27.3753 0.0000 0.0000
# 5 0.0000 0.0000 0.0000 0.0000 9.5886 0.0000
# 6 0.0000 0.0000 0.0000 0.0000 0.0000 9.6023
#
#
#
# Elastic Compliance Matrix: (Units=1/GPa)
#
#
# Indices 1 2 3 4 5 6 
#
# 1 0.014563 -0.004644 -0.005745 0.000000 0.000000 0.000000
# 2 -0.004644 0.013438 -0.006046 0.000000 0.000000 0.000000
# 3 -0.005745 -0.006046 0.021306 0.000000 0.000000 0.000000
# 4 0.000000 0.000000 0.000000 0.036529 0.000000 0.000000
# 5 0.000000 0.000000 0.000000 0.000000 0.104290 0.000000
# 6 0.000000 0.000000 0.000000 0.000000 0.000000 0.104141
#
#
# Mechanical properties :
#
#
# Convention : Reuss Voigt Hill
#
# Bulk Modulus (GPa) = 60.83469 64.89385 62.86427
# Shear Modulus (GPa) = 15.03232 18.91912 16.97572
#
# Velocity S-wave (km/s) = 3.06181 3.43491 3.25372
# Velocity P-wave (km/s) = 7.10199 7.49677 7.30205
#
# Compressibility (1/GPa) = 0.01643799
#
# Stress axis : x y z
#
# Youngs Moduli (GPa) = 68.66527 74.41753 46.93495
#
# Poissons Ratio (x) = 0.34560 0.26963
# Poissons Ratio (y) = 0.31889 0.28376
# Poissons Ratio (z) = 0.39446 0.44992
#
# Static dielectric constant tensor:
#      x y z
#    x 3.399820 0.000000 0.000000 
#    y 0.000000 2.965170 0.000000 
#    z 0.000000 0.000000 3.107490 
# 
# 
# High freq. dielectric constant tensor:
#      x y z
#    x 1.609950 0.000000 0.000000 
#    y 0.000000 1.595550 0.000000 
#    z 0.000000 0.000000 1.628080 
# 
# From -- ./inp_files/7054.got.cif
#   From: 2010.03.12/outbox.cif.g09.slc.cpg/sg49_4_cif.got.tgz:7054.got - 2010.04.14 03:58:27.
