data_PCOD8202910
_publ_section_title
;
Structure prediction by ZEFSAII (Michael W. Deem and Ramdas Pophale) SiO2 
 PCOD8202910
Probable space group: P C C M
;
_chemical_formula_sum "Si O2"
_cell_formula_units_Z 38
_cell_length_a 22.601245
_cell_length_b 7.634229
_cell_length_c 10.074402
_cell_angle_alpha 90.000000
_cell_angle_beta 90.000000
_cell_angle_gamma 90.000000
_cell_volume 1738.268350
_symmetry_space_group_name_H-M "P C C M"
_symmetry_group_IT_number 49
_symmetry_cell_setting 'orthorhombic'
loop_
_space_group_symop_operation_xyz
x,y,z
-x,-y,z
x,-y,1/2-z
-x,y,1/2-z
-x,-y,-z
x,y,-z
-x,y,1/2+z
x,-y,1/2+z
loop_
_atom_site_type_symbol
_atom_site_label
_atom_site_fract_x
_atom_site_fract_y
_atom_site_fract_z
Si Si1 0.174310 0.324529 0.000000
Si Si2 0.923900 0.045173 0.500000
Si Si3 0.638394 0.707400 0.257811
Si Si4 0.000000 0.000000 0.250000
Si Si5 0.571565 0.711245 0.000000
Si Si6 0.149860 0.296449 0.500000
Si Si7 0.560689 0.704736 0.500000
Si Si8 0.229397 0.800219 0.241896
O O1 0.131783 0.496784 0.000000
O O2 0.216993 0.313722 0.126819
O O3 0.135480 0.151048 0.000000
O O4 0.958503 0.098767 0.361287
O O5 0.906751 0.835971 0.500000
O O6 0.646318 0.500000 0.250000
O O7 0.609244 0.779550 0.123897
O O8 0.594409 0.773096 0.371208
O O9 0.701302 0.793684 0.288460
O O10 0.562260 0.504184 0.000000
O O11 0.505033 0.787539 0.000000
O O12 0.190817 0.280550 0.373440
O O13 0.208648 0.000000 0.250000
#
# Coordination Sequence:
#
# PCOD8202910 Si02
#       8
#     4   4   8   2   4   4   4   8
#     4  12  24  42  69  97 133 173 217 262 314 377
#     4  11  22  46  66 102 134 176 215 258 310 360
#     4  10  19  31  51  79 110 145 198 254 311 379
#     4  10  24  42  74  94 140 180 208 262 312 354
#     4   9  17  30  49  73 103 144 196 256 312 372
#     4  12  24  42  69  97 133 173 217 262 314 377
#     4   9  17  30  49  73 103 144 196 256 312 372
#     4  12  23  40  60  92 129 167 208 260 327 390
#
# _framework density 21.860834000000001
#
# number of rings (size 3 to 8) (size 9 to 14) (size 15 to 20)
#    0.000    1.263    2.105    5.053    0.000    4.211 
#    0.000    3.158    0.000    3.789    0.000    0.000 
#    0.000    0.000    0.000    0.000    0.000    0.000 
#
# Total GULP energy -470899.402296 kJ/mol
# GULP energy per Si atom -12392.089534 kJ/mol
# Density = 2.181108 g / cm^3
# Si number density = 21.860834 Si / 1000 Ang^3
#
#
#
# Elastic Constant Matrix: (Units=GPa)
#
#
# Indices 1 2 3 4 5 6 
#
# 1 107.0757 2.2536 38.9087 0.0000 0.0000 0.0000
# 2 2.2536 78.0931 4.3501 0.0000 0.0000 0.0000
# 3 38.9087 4.3501 179.5309 0.0000 0.0000 0.0000
# 4 0.0000 0.0000 0.0000 18.8972 0.0000 0.0000
# 5 0.0000 0.0000 0.0000 0.0000 41.3050 0.0000
# 6 0.0000 0.0000 0.0000 0.0000 0.0000 13.4647
#
#
#
# Elastic Compliance Matrix: (Units=1/GPa)
#
#
# Indices 1 2 3 4 5 6 
#
# 1 0.010140 -0.000170 -0.002193 0.000000 0.000000 0.000000
# 2 -0.000170 0.012825 -0.000274 0.000000 0.000000 0.000000
# 3 -0.002193 -0.000274 0.006052 0.000000 0.000000 0.000000
# 4 0.000000 0.000000 0.000000 0.052918 0.000000 0.000000
# 5 0.000000 0.000000 0.000000 0.000000 0.024210 0.000000
# 6 0.000000 0.000000 0.000000 0.000000 0.000000 0.074268
#
#
# Mechanical properties :
#
#
# Convention : Reuss Voigt Hill
#
# Bulk Modulus (GPa) = 42.11953 50.63603 46.37778
# Shear Modulus (GPa) = 25.82605 36.01253 30.91929
#
# Velocity S-wave (km/s) = 3.44086 4.06316 3.76489
# Velocity P-wave (km/s) = 5.92410 6.72500 6.33721
#
# Compressibility (1/GPa) = 0.02374196
#
# Stress axis : x y z
#
# Youngs Moduli (GPa) = 98.62118 77.97024 165.23266
#
# Poissons Ratio (x) = 0.01329 0.36242
# Poissons Ratio (y) = 0.01681 0.04525
# Poissons Ratio (z) = 0.21632 0.02135
#
# Static dielectric constant tensor:
#      x y z
#    x 3.963480 0.000000 0.000000 
#    y 0.000000 3.781920 0.000000 
#    z 0.000000 0.000000 4.241920 
# 
# 
# High freq. dielectric constant tensor:
#      x y z
#    x 1.862280 0.000000 0.000000 
#    y 0.000000 1.832020 0.000000 
#    z 0.000000 0.000000 1.879980 
# 
# From -- ./inp_files/1857.got.cif
#   From: 2010.03.12/outbox.cif.g09.slc.cpg/sg49_1_cif.got.tgz:1857.got - 2010.04.14 03:58:27.
