data_PCOD8202179
_publ_section_title
;
Structure prediction by ZEFSAII (Michael W. Deem and Ramdas Pophale) SiO2 
 PCOD8202179
Probable space group: P C C M
;
_chemical_formula_sum "Si O2"
_cell_formula_units_Z 40
_cell_length_a 9.745053
_cell_length_b 26.325045
_cell_length_c 8.503076
_cell_angle_alpha 90.000000
_cell_angle_beta 90.000000
_cell_angle_gamma 90.000000
_cell_volume 2181.370263
_symmetry_space_group_name_H-M "P C C M"
_symmetry_group_IT_number 49
_symmetry_cell_setting 'orthorhombic'
loop_
_space_group_symop_operation_xyz
x,y,z
-x,-y,z
x,-y,1/2-z
-x,y,1/2-z
-x,-y,-z
x,y,-z
-x,y,1/2+z
x,-y,1/2+z
loop_
_atom_site_type_symbol
_atom_site_label
_atom_site_fract_x
_atom_site_fract_y
_atom_site_fract_z
Si Si1 0.853166 0.555195 0.685905
Si Si2 0.345965 0.948688 0.813875
Si Si3 0.653454 0.639335 0.186215
Si Si4 0.346331 0.256514 0.686374
Si Si5 0.345913 0.153945 0.186121
O O1 0.813643 0.500000 0.750000
O O2 0.859381 0.553124 0.500000
O O3 0.738174 0.593617 0.741943
O O4 0.000000 0.573373 0.750000
O O5 0.500000 0.948998 0.750000
O O6 0.271387 0.897590 0.748209
O O7 0.271366 0.000000 0.750000
O O8 0.344772 0.948197 0.000000
O O9 0.500000 0.634959 0.250000
O O10 0.722573 0.692675 0.242071
O O11 0.653695 0.636125 0.000000
O O12 0.500000 0.254640 0.750000
O O13 0.343721 0.259364 0.500000
O O14 0.271181 0.204792 0.746275
O O15 0.500000 0.153066 0.250000
O O16 0.344779 0.155396 0.000000
#
# Coordination Sequence:
#
# PCOD8202179 Si02
#       5
#     8   8   8   8   8
#     4  11  22  39  59  81 105 135 168 203 243 292
#     4  10  16  22  29  40  58  85 123 170 218 266
#     4  11  21  35  53  77 104 133 166 207 250 294
#     4  10  17  27  41  60  84 113 146 186 232 282
#     4  10  16  23  33  47  67  96 132 174 221 272
#
# _framework density 18.337097
#
# number of rings (size 3 to 8) (size 9 to 14) (size 15 to 20)
#    0.000    1.600    0.000   13.800    0.000    0.400 
#    0.000    2.000    0.000    0.000    0.000    0.000 
#    0.000    0.000    0.000    0.000    0.000    1.000 
#
# Total GULP energy -495756.743078 kJ/mol
# GULP energy per Si atom -12393.918577 kJ/mol
# Density = 1.829536 g / cm^3
# Si number density = 18.337097 Si / 1000 Ang^3
#
#
#
# Elastic Constant Matrix: (Units=GPa)
#
#
# Indices 1 2 3 4 5 6 
#
# 1 27.9261 44.5966 18.7898 0.0000 0.0000 0.0000
# 2 44.5966 180.0181 66.7408 0.0000 0.0000 0.0000
# 3 18.7898 66.7408 191.1425 0.0000 0.0000 0.0000
# 4 0.0000 0.0000 0.0000 48.7103 0.0000 0.0000
# 5 0.0000 0.0000 0.0000 0.0000 13.9711 0.0000
# 6 0.0000 0.0000 0.0000 0.0000 0.0000 -1.5971
#
#
#
# Elastic Compliance Matrix: (Units=1/GPa)
#
#
# Indices 1 2 3 4 5 6 
#
# 1 0.059356 -0.014406 -0.000805 0.000000 0.000000 0.000000
# 2 -0.014406 0.009878 -0.002033 0.000000 0.000000 0.000000
# 3 -0.000805 -0.002033 0.006021 0.000000 0.000000 0.000000
# 4 0.000000 0.000000 0.000000 0.020530 0.000000 0.000000
# 5 0.000000 0.000000 0.000000 0.000000 0.071577 0.000000
# 6 0.000000 0.000000 0.000000 0.000000 0.000000 -0.626125
#
#
# Mechanical properties :
#
#
# Convention : Reuss Voigt Hill
#
# Bulk Modulus (GPa) = 24.52967 73.26011 48.89489
# Shear Modulus (GPa) = -12.17467 30.14748 8.98640
#
# Velocity S-wave (km/s) = -2.57949 4.05911 2.21615
# Velocity P-wave (km/s) = 2.12941 7.87446 5.76808
#
# Compressibility (1/GPa) = 0.04076695
#
# Stress axis : x y z
#
# Youngs Moduli (GPa) = 16.84748 101.23996 166.09723
#
# Poissons Ratio (x) = 1.45848 0.13365
# Poissons Ratio (y) = 0.24271 0.33763
# Poissons Ratio (z) = 0.01356 0.20580
#
# Static dielectric constant tensor:
#      x y z
#    x 2.811440 0.000000 0.000000 
#    y 0.000000 5.388930 0.000000 
#    z 0.000000 0.000000 3.574200 
# 
# 
# High freq. dielectric constant tensor:
#      x y z
#    x 1.610640 0.000000 0.000000 
#    y 0.000000 1.752940 0.000000 
#    z 0.000000 0.000000 1.741270 
# 
# From -- ./inp_files/2960.got.cif
#   From: 2010.03.12/outbox.cif.g09.slc.cpg/sg49_2_cif.got.tgz:2960.got - 2010.04.14 03:58:27.
