data_PCOD8202225
_publ_section_title
;
Structure prediction by ZEFSAII (Michael W. Deem and Ramdas Pophale) SiO2 
 PCOD8202225
Probable space group: P C C M
;
_chemical_formula_sum "Si O2"
_cell_formula_units_Z 36
_cell_length_a 11.320028
_cell_length_b 10.083561
_cell_length_c 18.622298
_cell_angle_alpha 90.000000
_cell_angle_beta 90.000000
_cell_angle_gamma 90.000000
_cell_volume 2125.664419
_symmetry_space_group_name_H-M "P C C M"
_symmetry_group_IT_number 49
_symmetry_cell_setting 'orthorhombic'
loop_
_space_group_symop_operation_xyz
x,y,z
-x,-y,z
x,-y,1/2-z
-x,y,1/2-z
-x,-y,-z
x,y,-z
-x,y,1/2+z
x,-y,1/2+z
loop_
_atom_site_type_symbol
_atom_site_label
_atom_site_fract_x
_atom_site_fract_y
_atom_site_fract_z
Si Si1 0.135197 0.500592 0.582499
Si Si2 0.676402 0.716067 0.079960
Si Si3 0.281892 0.613954 0.197321
Si Si4 0.500000 0.500000 0.873825
Si Si5 0.633839 0.144301 0.725003
O O1 0.146363 0.458921 0.500000
O O2 0.198115 0.643524 0.596357
O O3 0.199816 0.384575 0.627074
O O4 0.000000 0.500000 0.607550
O O5 0.576752 0.601200 0.078760
O O6 0.647755 0.829831 0.138978
O O7 0.678154 0.780796 0.000000
O O8 0.233002 0.500000 0.250000
O O9 0.417177 0.585877 0.177585
O O10 0.277427 0.755072 0.235922
O O11 0.500000 0.165900 0.750000
O O12 0.677238 0.000000 0.750000
#
# Coordination Sequence:
#
# PCOD8202225 Si02
#       5
#     8   8   8   4   8
#     4   9  19  33  52  80 106 131 168 218 267 302
#     4  10  19  32  52  76 105 137 171 214 260 312
#     4  11  17  31  53  76 102 132 172 213 257 306
#     4  10  16  28  52  78 102 128 170 212 260 306
#     4  11  21  35  50  74 111 144 169 208 257 307
#
# _framework density 16.935881999999999
#
# number of rings (size 3 to 8) (size 9 to 14) (size 15 to 20)
#    0.000    1.778    6.667    0.667    0.000    1.333 
#    0.000    3.333    0.000    2.667    0.000    4.667 
#    0.000    0.000    0.000    0.000    0.000    0.000 
#
# Total GULP energy -446184.587195 kJ/mol
# GULP energy per Si atom -12394.016311 kJ/mol
# Density = 1.689733 g / cm^3
# Si number density = 16.935882 Si / 1000 Ang^3
#
#
#
# Elastic Constant Matrix: (Units=GPa)
#
#
# Indices 1 2 3 4 5 6 
#
# 1 90.9287 27.3447 41.1734 0.0000 0.0000 0.0000
# 2 27.3447 111.6668 58.5439 0.0000 0.0000 0.0000
# 3 41.1734 58.5439 122.4057 0.0000 0.0000 0.0000
# 4 0.0000 0.0000 0.0000 18.2767 0.0000 0.0000
# 5 0.0000 0.0000 0.0000 0.0000 17.9204 0.0000
# 6 0.0000 0.0000 0.0000 0.0000 0.0000 8.7339
#
#
#
# Elastic Compliance Matrix: (Units=1/GPa)
#
#
# Indices 1 2 3 4 5 6 
#
# 1 0.013093 -0.001197 -0.003831 0.000000 0.000000 0.000000
# 2 -0.001197 0.012062 -0.005366 0.000000 0.000000 0.000000
# 3 -0.003831 -0.005366 0.012025 0.000000 0.000000 0.000000
# 4 0.000000 0.000000 0.000000 0.054715 0.000000 0.000000
# 5 0.000000 0.000000 0.000000 0.000000 0.055802 0.000000
# 6 0.000000 0.000000 0.000000 0.000000 0.000000 0.114496
#
#
# Mechanical properties :
#
#
# Convention : Reuss Voigt Hill
#
# Bulk Modulus (GPa) = 61.01459 64.34725 62.68092
# Shear Modulus (GPa) = 17.33437 22.18217 19.75827
#
# Velocity S-wave (km/s) = 3.20274 3.62301 3.41933
# Velocity P-wave (km/s) = 7.05562 7.45511 7.25811
#
# Compressibility (1/GPa) = 0.01638952
#
# Stress axis : x y z
#
# Youngs Moduli (GPa) = 76.37940 82.90690 83.16213
#
# Poissons Ratio (x) = 0.09928 0.31861
# Poissons Ratio (y) = 0.09146 0.44625
# Poissons Ratio (z) = 0.29262 0.44488
#
# Static dielectric constant tensor:
#      x y z
#    x 3.117800 0.000000 0.000000 
#    y 0.000000 2.919540 0.000000 
#    z 0.000000 0.000000 3.377660 
# 
# 
# High freq. dielectric constant tensor:
#      x y z
#    x 1.637520 0.000000 0.000000 
#    y 0.000000 1.611220 0.000000 
#    z 0.000000 0.000000 1.670780 
# 
# From -- ./inp_files/16933.got.cif
#   From: 2010.03.12/outbox.cif.g09.slc.cpg/sg49_9_cif.got.tgz:16933.got - 2010.04.14 03:58:27.
