data_PCOD8202119
_publ_section_title
;
Structure prediction by ZEFSAII (Michael W. Deem and Ramdas Pophale) SiO2 
 PCOD8202119
Probable space group: P N N N
;
_chemical_formula_sum "Si O2"
_cell_formula_units_Z 48
_cell_length_a 9.314197
_cell_length_b 25.242595
_cell_length_c 9.404153
_cell_angle_alpha 90.000000
_cell_angle_beta 90.000000
_cell_angle_gamma 90.000000
_cell_volume 2211.052755
_symmetry_space_group_name_H-M "P N N N"
_symmetry_group_IT_number 48
_space_group.IT_coordinate_system_code '2'
_symmetry_cell_setting 'orthorhombic'
loop_
_space_group_symop_operation_xyz
x,y,z
1/2-x,1/2-y,z
x,1/2-y,1/2-z
1/2-x,y,1/2-z
-x,-y,-z
1/2+x,1/2+y,-z
-x,1/2+y,1/2+z
1/2+x,-y,1/2+z
loop_
_atom_site_type_symbol
_atom_site_label
_atom_site_fract_x
_atom_site_fract_y
_atom_site_fract_z
Si Si1 0.438636 0.679259 0.884597
Si Si2 0.250000 0.457250 0.250000
Si Si3 0.231382 0.365390 0.453592
Si Si4 0.999454 0.202136 0.422466
Si Si5 0.750000 0.589076 0.250000
Si Si6 0.801529 0.362709 0.904919
Si Si7 0.531868 0.468072 0.641530
O O1 0.577161 0.642780 0.886195
O O2 0.403121 0.687121 0.717012
O O3 0.483481 0.735639 0.952456
O O4 0.316770 0.649330 0.974013
O O5 0.279672 0.421802 0.389639
O O6 0.391184 0.494545 0.241136
O O7 0.335836 0.317058 0.406578
O O8 0.218468 0.370935 0.621931
O O9 0.939486 0.172735 0.560478
O O10 0.611354 0.553299 0.283270
O O11 0.750000 0.345023 0.750000
O O12 0.853813 0.423051 0.904350
O O13 0.500000 0.500000 0.500000
#
# Coordination Sequence:
#
# PCOD8202119 Si02
#       7
#     8   4   8   8   4   8   8
#     4  11  25  42  75 103 134 192 232 287 353 420
#     4  12  24  46  73  98 135 190 234 282 352 404
#     4  12  24  45  69 105 140 180 234 290 352 421
#     4  11  23  47  69 102 143 180 240 288 345 425
#     4  12  26  46  69  96 146 176 229 296 360 412
#     4  12  25  46  67 102 146 179 233 293 351 420
#     4  12  26  47  69 102 139 183 237 297 344 426
#
# _framework density 21.709116000000002
#
# number of rings (size 3 to 8) (size 9 to 14) (size 15 to 20)
#    0.000    0.333    5.833    2.500    0.000    6.000 
#    0.000    0.833    0.000    0.000    0.000    0.000 
#    0.000    0.000    0.000    0.000    0.000    0.000 
#
# Total GULP energy -595076.378568 kJ/mol
# GULP energy per Si atom -12397.424553 kJ/mol
# Density = 2.165970 g / cm^3
# Si number density = 21.709116 Si / 1000 Ang^3
#
#
#
# Elastic Constant Matrix: (Units=GPa)
#
#
# Indices 1 2 3 4 5 6 
#
# 1 107.0870 39.4128 17.7135 0.0000 0.0000 0.0000
# 2 39.4128 122.3227 31.9562 0.0000 0.0000 0.0000
# 3 17.7135 31.9562 113.9737 0.0000 0.0000 0.0000
# 4 0.0000 0.0000 0.0000 29.6589 0.0000 0.0000
# 5 0.0000 0.0000 0.0000 0.0000 39.0460 0.0000
# 6 0.0000 0.0000 0.0000 0.0000 0.0000 31.9105
#
#
#
# Elastic Compliance Matrix: (Units=1/GPa)
#
#
# Indices 1 2 3 4 5 6 
#
# 1 0.010653 -0.003237 -0.000748 0.000000 0.000000 0.000000
# 2 -0.003237 0.009805 -0.002246 0.000000 0.000000 0.000000
# 3 -0.000748 -0.002246 0.009520 0.000000 0.000000 0.000000
# 4 0.000000 0.000000 0.000000 0.033717 0.000000 0.000000
# 5 0.000000 0.000000 0.000000 0.000000 0.025611 0.000000
# 6 0.000000 0.000000 0.000000 0.000000 0.000000 0.031338
#
#
# Mechanical properties :
#
#
# Convention : Reuss Voigt Hill
#
# Bulk Modulus (GPa) = 57.09146 57.94984 57.52065
# Shear Modulus (GPa) = 35.98562 37.07646 36.53104
#
# Velocity S-wave (km/s) = 4.07581 4.13713 4.10659
# Velocity P-wave (km/s) = 6.96456 7.04080 7.00278
#
# Compressibility (1/GPa) = 0.01751576
#
# Stress axis : x y z
#
# Youngs Moduli (GPa) = 93.86721 101.99019 105.04247
#
# Poissons Ratio (x) = 0.33015 0.07858
# Poissons Ratio (y) = 0.30386 0.23593
# Poissons Ratio (z) = 0.07022 0.22907
#
# Static dielectric constant tensor:
#      x y z
#    x 4.061790 0.000000 0.000000 
#    y 0.000000 3.971880 0.000000 
#    z 0.000000 0.000000 4.005100 
# 
# 
# High freq. dielectric constant tensor:
#      x y z
#    x 1.865020 0.000000 0.000000 
#    y 0.000000 1.857570 0.000000 
#    z 0.000000 0.000000 1.854590 
# 
# From -- ./inp_files/9528.got.cif
#   From: 2010.06.25/outbox.cif.g09.slc.cpg/sg48_5_cif.got.tgz:9528.got - 2010.06.26 18:06:46.
