data_PCOD8202024
_publ_section_title
;
Structure prediction by ZEFSAII (Michael W. Deem and Ramdas Pophale) SiO2 
 PCOD8202024
Probable space group: P N N N
;
_chemical_formula_sum "Si O2"
_cell_formula_units_Z 60
_cell_length_a 12.068437
_cell_length_b 22.165074
_cell_length_c 11.850769
_cell_angle_alpha 90.000000
_cell_angle_beta 90.000000
_cell_angle_gamma 90.000000
_cell_volume 3170.054626
_symmetry_space_group_name_H-M "P N N N"
_symmetry_group_IT_number 48
_space_group.IT_coordinate_system_code '2'
_symmetry_cell_setting 'orthorhombic'
loop_
_space_group_symop_operation_xyz
x,y,z
1/2-x,1/2-y,z
x,1/2-y,1/2-z
1/2-x,y,1/2-z
-x,-y,-z
1/2+x,1/2+y,-z
-x,1/2+y,1/2+z
1/2+x,-y,1/2+z
loop_
_atom_site_type_symbol
_atom_site_label
_atom_site_fract_x
_atom_site_fract_y
_atom_site_fract_z
Si Si1 0.276695 0.384462 0.957570
Si Si2 0.250000 0.467980 0.750000
Si Si3 0.428810 0.312540 0.606304
Si Si4 0.525563 0.017390 0.186150
Si Si5 0.659138 0.533290 0.840255
Si Si6 0.021099 0.177059 0.865462
Si Si7 0.079991 0.584650 0.041548
Si Si8 0.809498 0.402874 0.631362
O O1 0.233552 0.429935 0.863183
O O2 0.191519 0.327630 0.950126
O O3 0.402048 0.365130 0.940181
O O4 0.282529 0.418874 0.076852
O O5 0.138158 0.506633 0.744132
O O6 0.430340 0.326729 0.739333
O O7 0.466556 0.244148 0.585669
O O8 0.518868 0.351970 0.542923
O O9 0.450490 0.056120 0.274281
O O10 0.459887 0.955977 0.149202
O O11 0.548168 0.054404 0.074866
O O12 0.750000 0.516569 0.750000
O O13 0.629598 0.467241 0.892538
O O14 0.896370 0.152370 0.879743
O O15 0.210618 0.599017 0.039831
O O16 0.750000 0.393749 0.750000
#
# Coordination Sequence:
#
# PCOD8202024 Si02
#       8
#     8   4   8   8   8   8   8   8
#     4  12  22  37  60  86 127 159 195 256 305 370
#     4  12  22  34  57  92 120 163 196 248 316 368
#     4  11  21  38  59  87 117 163 203 243 308 366
#     4  11  22  36  58  87 120 162 202 247 310 371
#     4  11  22  37  60  89 121 160 205 246 305 372
#     4  11  23  37  58  87 122 158 204 255 301 367
#     4  11  20  38  60  82 122 161 199 249 303 374
#     4  11  20  36  55  88 122 155 196 248 306 367
#
# _framework density 18.927119000000001
#
# number of rings (size 3 to 8) (size 9 to 14) (size 15 to 20)
#    0.000    0.800    6.667    2.800    0.000    4.800 
#    0.000    0.000    0.000    5.600    0.000    0.000 
#    0.000    0.000    0.000    0.000    0.000    0.000 
#
# Total GULP energy -743682.424384 kJ/mol
# GULP energy per Si atom -12394.707073 kJ/mol
# Density = 1.888404 g / cm^3
# Si number density = 18.927119 Si / 1000 Ang^3
#
#
#
# Elastic Constant Matrix: (Units=GPa)
#
#
# Indices 1 2 3 4 5 6 
#
# 1 141.2441 48.9868 36.8463 0.0000 0.0000 0.0000
# 2 48.9868 84.7964 23.0711 0.0000 0.0000 0.0000
# 3 36.8463 23.0711 49.2786 0.0000 0.0000 0.0000
# 4 0.0000 0.0000 0.0000 246.4119 0.0000 0.0000
# 5 0.0000 0.0000 0.0000 0.0000 27.9277 0.0000
# 6 0.0000 0.0000 0.0000 0.0000 0.0000 22.8526
#
#
#
# Elastic Compliance Matrix: (Units=1/GPa)
#
#
# Indices 1 2 3 4 5 6 
#
# 1 0.009992 -0.004285 -0.005465 0.000000 0.000000 0.000000
# 2 -0.004285 0.015352 -0.003983 0.000000 0.000000 0.000000
# 3 -0.005465 -0.003983 0.026244 0.000000 0.000000 0.000000
# 4 0.000000 0.000000 0.000000 0.004058 0.000000 0.000000
# 5 0.000000 0.000000 0.000000 0.000000 0.035807 0.000000
# 6 0.000000 0.000000 0.000000 0.000000 0.000000 0.043759
#
#
# Mechanical properties :
#
#
# Convention : Reuss Voigt Hill
#
# Bulk Modulus (GPa) = 41.45767 54.79196 48.12482
# Shear Modulus (GPa) = 29.28790 70.53277 49.91034
#
# Velocity S-wave (km/s) = 3.93797 6.11117 5.14072
# Velocity P-wave (km/s) = 6.52903 8.87733 7.79215
#
# Compressibility (1/GPa) = 0.02412099
#
# Stress axis : x y z
#
# Youngs Moduli (GPa) = 100.08206 65.13627 38.10434
#
# Poissons Ratio (x) = 0.27914 0.20823
# Poissons Ratio (y) = 0.42890 0.15178
# Poissons Ratio (z) = 0.54692 0.25946
#
# Static dielectric constant tensor:
#      x y z
#    x 4.520520 0.000000 0.000000 
#    y 0.000000 3.464590 0.000000 
#    z 0.000000 0.000000 3.229920 
# 
# 
# High freq. dielectric constant tensor:
#      x y z
#    x 1.756020 0.000000 0.000000 
#    y 0.000000 1.714080 0.000000 
#    z 0.000000 0.000000 1.706750 
# 
# From -- ./inp_files/20318.got.cif
#   From: 2010.06.25/outbox.cif.g09.slc.cpg/sg48_11_cif.got.tgz:20318.got - 2010.06.26 18:06:46.
