data_PCOD8202520
_publ_section_title
;
Structure prediction by ZEFSAII (Michael W. Deem and Ramdas Pophale) SiO2 
 PCOD8202520
Probable space group: P C C M
;
_chemical_formula_sum "Si O2"
_cell_formula_units_Z 48
_cell_length_a 5.132798
_cell_length_b 21.817415
_cell_length_c 24.283247
_cell_angle_alpha 90.000000
_cell_angle_beta 90.000000
_cell_angle_gamma 90.000000
_cell_volume 2719.344459
_symmetry_space_group_name_H-M "P C C M"
_symmetry_group_IT_number 49
_symmetry_cell_setting 'orthorhombic'
loop_
_space_group_symop_operation_xyz
x,y,z
-x,-y,z
x,-y,1/2-z
-x,y,1/2-z
-x,-y,-z
x,y,-z
-x,y,1/2+z
x,-y,1/2+z
loop_
_atom_site_type_symbol
_atom_site_label
_atom_site_fract_x
_atom_site_fract_y
_atom_site_fract_z
Si Si1 0.963634 0.272097 0.626524
Si Si2 0.998146 0.143012 0.684620
Si Si3 0.463231 0.689949 0.064000
Si Si4 0.454281 0.567351 0.124636
Si Si5 0.954767 0.395255 0.686436
Si Si6 0.501931 0.931475 0.684700
O O1 0.684265 0.273745 0.597245
O O2 0.982074 0.323090 0.674129
O O3 0.005926 0.207824 0.655386
O O4 0.184579 0.283181 0.580968
O O5 0.244111 0.104091 0.664153
O O6 0.000000 0.153252 0.750000
O O7 0.747909 0.105681 0.664064
O O8 0.478959 0.617208 0.076147
O O9 0.507874 0.700822 0.000000
O O10 0.500000 0.500000 0.098908
O O11 0.667805 0.581083 0.171530
O O12 0.169051 0.568027 0.151529
O O13 0.000000 0.407969 0.750000
O O14 0.500000 0.936125 0.750000
O O15 0.500000 0.000000 0.659432
#
# Coordination Sequence:
#
# PCOD8202520 Si02
#       6
#     8   8   8   8   8   8
#     4  10  20  34  51  74  98 123 165 201 238 296
#     4  10  18  29  48  72 103 138 164 193 231 277
#     4  10  21  37  54  70  94 123 154 208 261 290
#     4  10  21  34  50  73  95 123 164 198 235 295
#     4  10  20  33  49  70 101 133 157 193 237 280
#     4   9  17  28  43  68 104 142 171 192 221 266
#
# _framework density 17.651312999999998
#
# number of rings (size 3 to 8) (size 9 to 14) (size 15 to 20)
#    0.000    2.167    0.000    3.500    0.000    4.333 
#    0.000    5.000    0.000    6.000    0.000    0.000 
#    0.000   46.667    0.000    0.000    0.000    0.000 
#
# Total GULP energy -595309.395340 kJ/mol
# GULP energy per Si atom -12402.279070 kJ/mol
# Density = 1.761114 g / cm^3
# Si number density = 17.651313 Si / 1000 Ang^3
#
#
#
# Elastic Constant Matrix: (Units=GPa)
#
#
# Indices 1 2 3 4 5 6 
#
# 1 103.0688 33.0930 3.4006 0.0000 0.0000 0.0000
# 2 33.0930 141.1279 15.2792 0.0000 0.0000 0.0000
# 3 3.4006 15.2792 43.2057 0.0000 0.0000 0.0000
# 4 0.0000 0.0000 0.0000 13.0060 0.0000 0.0000
# 5 0.0000 0.0000 0.0000 0.0000 11.9276 0.0000
# 6 0.0000 0.0000 0.0000 0.0000 0.0000 23.0799
#
#
#
# Elastic Compliance Matrix: (Units=1/GPa)
#
#
# Indices 1 2 3 4 5 6 
#
# 1 0.010492 -0.002465 0.000046 0.000000 0.000000 0.000000
# 2 -0.002465 0.007947 -0.002616 0.000000 0.000000 0.000000
# 3 0.000046 -0.002616 0.024067 0.000000 0.000000 0.000000
# 4 0.000000 0.000000 0.000000 0.076888 0.000000 0.000000
# 5 0.000000 0.000000 0.000000 0.000000 0.083839 0.000000
# 6 0.000000 0.000000 0.000000 0.000000 0.000000 0.043328
#
#
# Mechanical properties :
#
#
# Convention : Reuss Voigt Hill
#
# Bulk Modulus (GPa) = 30.83108 43.43866 37.13487
# Shear Modulus (GPa) = 18.69553 25.31134 22.00343
#
# Velocity S-wave (km/s) = 3.25800 3.79088 3.53450
# Velocity P-wave (km/s) = 5.62649 6.61995 6.14334
#
# Compressibility (1/GPa) = 0.03243481
#
# Stress axis : x y z
#
# Youngs Moduli (GPa) = 95.30803 125.83170 41.55110
#
# Poissons Ratio (x) = 0.31021 -0.00191
# Poissons Ratio (y) = 0.23496 0.10871
# Poissons Ratio (z) = -0.00438 0.32922
#
# Static dielectric constant tensor:
#      x y z
#    x 3.655200 0.000000 0.000000 
#    y 0.000000 3.358770 0.000000 
#    z 0.000000 0.000000 2.814060 
# 
# 
# High freq. dielectric constant tensor:
#      x y z
#    x 1.707490 0.000000 0.000000 
#    y 0.000000 1.688610 0.000000 
#    z 0.000000 0.000000 1.636180 
# 
# From -- ./inp_files/18982.got.cif
#   From: 2010.03.12/outbox.cif.g09.slc.cpg/sg49_10_cif.got.tgz:18982.got - 2010.04.14 03:58:27.
