data_PCOD8202973
_publ_section_title
;
Structure prediction by ZEFSAII (Michael W. Deem and Ramdas Pophale) SiO2 
 PCOD8202973
Probable space group: P C C M
;
_chemical_formula_sum "Si O2"
_cell_formula_units_Z 64
_cell_length_a 15.095163
_cell_length_b 25.035745
_cell_length_c 8.767218
_cell_angle_alpha 90.000000
_cell_angle_beta 90.000000
_cell_angle_gamma 90.000000
_cell_volume 3313.295205
_symmetry_space_group_name_H-M "P C C M"
_symmetry_group_IT_number 49
_symmetry_cell_setting 'orthorhombic'
loop_
_space_group_symop_operation_xyz
x,y,z
-x,-y,z
x,-y,1/2-z
-x,y,1/2-z
-x,-y,-z
x,y,-z
-x,y,1/2+z
x,-y,1/2+z
loop_
_atom_site_type_symbol
_atom_site_label
_atom_site_fract_x
_atom_site_fract_y
_atom_site_fract_z
Si Si1 0.414536 0.908142 0.679590
Si Si2 0.777661 0.054942 0.320578
Si Si3 0.367265 0.799753 0.823861
Si Si4 0.170225 0.161990 0.324313
Si Si5 0.590770 0.312249 0.319697
Si Si6 0.094204 0.442901 0.817711
Si Si7 0.778068 0.349498 0.319401
Si Si8 0.089657 0.740146 0.319497
O O1 0.500000 0.939185 0.750000
O O2 0.422642 0.902142 0.500000
O O3 0.325561 0.939324 0.725637
O O4 0.417876 0.850298 0.757172
O O5 0.791440 0.054392 0.500000
O O6 0.833200 0.103788 0.251964
O O7 0.813945 0.000000 0.250000
O O8 0.263665 0.809335 0.800800
O O9 0.398064 0.748848 0.728991
O O10 0.392600 0.791471 0.000000
O O11 0.144780 0.155397 0.500000
O O12 0.099621 0.199613 0.241401
O O13 0.500000 0.336425 0.250000
O O14 0.583743 0.315161 0.500000
O O15 0.676177 0.346405 0.260230
O O16 0.120851 0.500000 0.750000
O O17 0.171486 0.402596 0.762479
O O18 0.000000 0.423809 0.750000
O O19 0.086346 0.445758 0.000000
O O20 0.778155 0.348790 0.500000
O O21 0.830393 0.297278 0.260348
O O22 0.083383 0.740502 0.500000
O O23 0.000000 0.715733 0.250000
#
# Coordination Sequence:
#
# PCOD8202973 Si02
#       8
#     8   8   8   8   8   8   8   8
#     4  10  20  32  47  68  96 131 171 218 273 329
#     4  10  21  36  54  74  97 132 175 222 274 331
#     4  10  19  32  50  73 101 137 180 225 270 323
#     4  10  20  35  55  79 107 139 177 222 269 327
#     4  11  21  35  52  75 107 148 191 235 280 329
#     4  10  19  35  57  86 117 153 192 233 281 334
#     4   9  20  36  56  80 116 155 190 231 281 331
#     4  11  21  36  57  85 116 150 182 220 274 335
#
# _framework density 19.316119
#
# number of rings (size 3 to 8) (size 9 to 14) (size 15 to 20)
#    0.000    1.875    1.250    3.750    0.000    2.750 
#    0.000    5.625    0.000    0.750    0.000    5.250 
#    0.000    0.000    0.000    0.000    0.000    0.000 
#
# Total GULP energy -793570.843592 kJ/mol
# GULP energy per Si atom -12399.544431 kJ/mol
# Density = 1.927215 g / cm^3
# Si number density = 19.316119 Si / 1000 Ang^3
#
#
#
# Elastic Constant Matrix: (Units=GPa)
#
#
# Indices 1 2 3 4 5 6 
#
# 1 110.2548 57.6539 38.6643 0.0000 0.0000 0.0000
# 2 57.6539 113.5113 36.2697 0.0000 0.0000 0.0000
# 3 38.6643 36.2697 83.9000 0.0000 0.0000 0.0000
# 4 0.0000 0.0000 0.0000 21.7591 0.0000 0.0000
# 5 0.0000 0.0000 0.0000 0.0000 26.8992 0.0000
# 6 0.0000 0.0000 0.0000 0.0000 0.0000 14.8675
#
#
#
# Elastic Compliance Matrix: (Units=1/GPa)
#
#
# Indices 1 2 3 4 5 6 
#
# 1 0.013279 -0.005557 -0.003717 0.000000 0.000000 0.000000
# 2 -0.005557 0.012547 -0.002863 0.000000 0.000000 0.000000
# 3 -0.003717 -0.002863 0.014870 0.000000 0.000000 0.000000
# 4 0.000000 0.000000 0.000000 0.045958 0.000000 0.000000
# 5 0.000000 0.000000 0.000000 0.000000 0.037176 0.000000
# 6 0.000000 0.000000 0.000000 0.000000 0.000000 0.067261
#
#
# Mechanical properties :
#
#
# Convention : Reuss Voigt Hill
#
# Bulk Modulus (GPa) = 60.89708 63.64907 62.27308
# Shear Modulus (GPa) = 22.64090 24.37704 23.50897
#
# Velocity S-wave (km/s) = 3.42734 3.55632 3.49243
# Velocity P-wave (km/s) = 6.87439 7.06301 6.96934
#
# Compressibility (1/GPa) = 0.01642115
#
# Stress axis : x y z
#
# Youngs Moduli (GPa) = 75.30502 79.70037 67.25042
#
# Poissons Ratio (x) = 0.44289 0.24999
# Poissons Ratio (y) = 0.41847 0.19255
# Poissons Ratio (z) = 0.27994 0.22820
#
# Static dielectric constant tensor:
#      x y z
#    x 3.823910 0.000000 0.000000 
#    y 0.000000 3.477510 0.000000 
#    z 0.000000 0.000000 3.467760 
# 
# 
# High freq. dielectric constant tensor:
#      x y z
#    x 1.748080 0.000000 0.000000 
#    y 0.000000 1.732420 0.000000 
#    z 0.000000 0.000000 1.753780 
# 
# From -- ./inp_files/4363.got.cif
#   From: 2010.03.12/outbox.cif.g09.slc.cpg/sg49_3_cif.got.tgz:4363.got - 2010.04.14 03:58:27.
