data_PCOD8202259
_publ_section_title
;
Structure prediction by ZEFSAII (Michael W. Deem and Ramdas Pophale) SiO2 
 PCOD8202259
Probable space group: P C C M
;
_chemical_formula_sum "Si O2"
_cell_formula_units_Z 64
_cell_length_a 29.870848
_cell_length_b 4.964098
_cell_length_c 25.975520
_cell_angle_alpha 90.000000
_cell_angle_beta 90.000000
_cell_angle_gamma 90.000000
_cell_volume 3851.697298
_symmetry_space_group_name_H-M "P C C M"
_symmetry_group_IT_number 49
_symmetry_cell_setting 'orthorhombic'
loop_
_space_group_symop_operation_xyz
x,y,z
-x,-y,z
x,-y,1/2-z
-x,y,1/2-z
-x,-y,-z
x,y,-z
-x,y,1/2+z
x,-y,1/2+z
loop_
_atom_site_type_symbol
_atom_site_label
_atom_site_fract_x
_atom_site_fract_y
_atom_site_fract_z
Si Si1 0.598518 0.918306 0.806208
Si Si2 0.654955 0.924567 0.903547
Si Si3 0.800529 0.186928 0.057443
Si Si4 0.392515 0.578953 0.058005
Si Si5 0.550633 0.592458 0.344797
Si Si6 0.742757 0.328193 0.557834
Si Si7 0.951420 0.541226 0.941336
Si Si8 0.105869 0.976565 0.941418
O O1 0.640776 0.955978 0.844067
O O2 0.581028 0.613782 0.811841
O O3 0.616312 0.000000 0.750000
O O4 0.556911 0.115309 0.819415
O O5 0.622145 0.728218 0.934725
O O6 0.704222 0.796582 0.906056
O O7 0.649500 0.219884 0.929638
O O8 0.766237 0.404984 0.083251
O O9 0.848578 0.137968 0.085868
O O10 0.780503 0.893261 0.054845
O O11 0.808729 0.306052 0.000000
O O12 0.434116 0.627464 0.096005
O O13 0.409323 0.623776 0.000000
O O14 0.500000 0.500000 0.342638
O O15 0.723520 0.388735 0.500000
O O16 0.930735 0.250371 0.938736
O O17 0.000000 0.500000 0.914176
O O18 0.917737 0.761035 0.914974
O O19 0.959056 0.641932 0.000000
O O20 0.119657 0.051392 0.000000
#
# Coordination Sequence:
#
# PCOD8202259 Si02
#       8
#     8   8   8   8   8   8   8   8
#     4  10  21  36  52  69  90 114 140 174 214 248
#     4  10  20  32  47  67  87 110 142 174 205 249
#     4   9  17  25  35  52  72  98 125 154 199 248
#     4  10  19  32  48  66  91 118 140 166 204 244
#     4  10  21  34  50  73  93 113 144 172 200 247
#     4  10  17  26  40  57  77  99 127 159 196 245
#     4   9  15  21  30  42  56  81 118 159 201 239
#     4   9  15  23  31  41  62  86 114 154 197 242
#
# _framework density 16.616050000000001
#
# number of rings (size 3 to 8) (size 9 to 14) (size 15 to 20)
#    0.000    2.375    0.000    3.750    0.000    7.250 
#    0.000    0.000    0.000    4.500    0.000    0.000 
#    0.000    0.000    0.000    0.000    0.000    0.000 
#
# Total GULP energy -793016.944442 kJ/mol
# GULP energy per Si atom -12390.889757 kJ/mol
# Density = 1.657823 g / cm^3
# Si number density = 16.616050 Si / 1000 Ang^3
#
#
#
# Elastic Constant Matrix: (Units=GPa)
#
#
# Indices 1 2 3 4 5 6 
#
# 1 81.1543 9.4432 20.8127 0.0000 0.0000 0.0000
# 2 9.4432 76.4084 14.4030 0.0000 0.0000 0.0000
# 3 20.8127 14.4030 67.3706 0.0000 0.0000 0.0000
# 4 0.0000 0.0000 0.0000 10.9828 0.0000 0.0000
# 5 0.0000 0.0000 0.0000 0.0000 4.4153 0.0000
# 6 0.0000 0.0000 0.0000 0.0000 0.0000 34.2212
#
#
#
# Elastic Compliance Matrix: (Units=1/GPa)
#
#
# Indices 1 2 3 4 5 6 
#
# 1 0.013444 -0.000916 -0.003957 0.000000 0.000000 0.000000
# 2 -0.000916 0.013699 -0.002646 0.000000 0.000000 0.000000
# 3 -0.003957 -0.002646 0.016631 0.000000 0.000000 0.000000
# 4 0.000000 0.000000 0.000000 0.091052 0.000000 0.000000
# 5 0.000000 0.000000 0.000000 0.000000 0.226485 0.000000
# 6 0.000000 0.000000 0.000000 0.000000 0.000000 0.029222
#
#
# Mechanical properties :
#
#
# Convention : Reuss Voigt Hill
#
# Bulk Modulus (GPa) = 34.79847 34.91679 34.85763
# Shear Modulus (GPa) = 12.04385 21.94214 16.99299
#
# Velocity S-wave (km/s) = 2.69519 3.63786 3.20141
# Velocity P-wave (km/s) = 5.53837 6.22133 5.88976
#
# Compressibility (1/GPa) = 0.02873690
#
# Stress axis : x y z
#
# Youngs Moduli (GPa) = 74.38456 72.99549 60.12687
#
# Poissons Ratio (x) = 0.06683 0.23795
# Poissons Ratio (y) = 0.06810 0.15909
# Poissons Ratio (z) = 0.29437 0.19314
#
# Static dielectric constant tensor:
#      x y z
#    x 3.144230 0.000000 0.000000 
#    y 0.000000 3.376690 0.000000 
#    z 0.000000 0.000000 2.671710 
# 
# 
# High freq. dielectric constant tensor:
#      x y z
#    x 1.638960 0.000000 0.000000 
#    y 0.000000 1.669460 0.000000 
#    z 0.000000 0.000000 1.556370 
# 
# From -- ./inp_files/25244.got.cif
#   From: 2010.03.12/outbox.cif.g09.slc.cpg/sg49_13_cif.got.tgz:25244.got - 2010.04.14 03:58:27.
