data_PCOD8202354
_publ_section_title
;
Structure prediction by ZEFSAII (Michael W. Deem and Ramdas Pophale) SiO2 
 PCOD8202354
Probable space group: P C C M
;
_chemical_formula_sum "Si O2"
_cell_formula_units_Z 64
_cell_length_a 30.788947
_cell_length_b 14.276217
_cell_length_c 8.653094
_cell_angle_alpha 90.000000
_cell_angle_beta 90.000000
_cell_angle_gamma 90.000000
_cell_volume 3803.464773
_symmetry_space_group_name_H-M "P C C M"
_symmetry_group_IT_number 49
_symmetry_cell_setting 'orthorhombic'
loop_
_space_group_symop_operation_xyz
x,y,z
-x,-y,z
x,-y,1/2-z
-x,y,1/2-z
-x,-y,-z
x,y,-z
-x,y,1/2+z
x,-y,1/2+z
loop_
_atom_site_type_symbol
_atom_site_label
_atom_site_fract_x
_atom_site_fract_y
_atom_site_fract_z
Si Si1 0.878455 0.788927 0.820675
Si Si2 0.045979 0.900872 0.818968
Si Si3 0.209555 0.102804 0.181423
Si Si4 0.368949 0.897680 0.318472
Si Si5 0.290222 0.207717 0.678717
Si Si6 0.456727 0.104181 0.683199
Si Si7 0.255527 0.405753 0.678596
Si Si8 0.161848 0.596332 0.681681
O O1 0.918633 0.822490 0.718752
O O2 0.836929 0.852449 0.783872
O O3 0.869155 0.682058 0.770778
O O4 0.890993 0.796248 0.000000
O O5 0.000000 0.868937 0.750000
O O6 0.061350 0.000000 0.750000
O O7 0.040829 0.912777 0.000000
O O8 0.245126 0.163425 0.269323
O O9 0.210034 0.000000 0.250000
O O10 0.220284 0.101041 0.000000
O O11 0.375985 0.907783 0.500000
O O12 0.328925 0.830373 0.283416
O O13 0.411972 0.849584 0.243121
O O14 0.359050 0.000000 0.250000
O O15 0.298759 0.182492 0.500000
O O16 0.288256 0.319549 0.704360
O O17 0.500000 0.155804 0.750000
O O18 0.458425 0.104145 0.500000
O O19 0.456031 0.000000 0.750000
O O20 0.276675 0.500000 0.750000
O O21 0.245960 0.423174 0.500000
O O22 0.209930 0.383049 0.758179
O O23 0.142466 0.500000 0.750000
O O24 0.164898 0.587412 0.500000
#
# Coordination Sequence:
#
# PCOD8202354 Si02
#       8
#     8   8   8   8   8   8   8   8
#     4  10  21  36  54  77 104 133 168 206 247 293
#     4  11  22  37  58  80 106 135 167 204 247 295
#     4  11  22  35  49  69  99 134 169 205 243 287
#     4  11  21  33  48  67  95 133 172 210 252 300
#     4  11  22  35  49  69  97 132 169 206 247 297
#     4  10  17  28  45  66  92 123 164 210 253 297
#     4  10  20  33  52  73  97 127 165 208 251 297
#     4  10  19  33  53  77 104 131 164 205 248 295
#
# _framework density 16.826761999999999
#
# number of rings (size 3 to 8) (size 9 to 14) (size 15 to 20)
#    0.000    1.500    1.250    7.875    0.000    4.500 
#    0.000    0.000    0.000    0.375    0.000    2.625 
#    0.000    0.500    0.000    5.250    0.000    2.875 
#
# Total GULP energy -793670.859305 kJ/mol
# GULP energy per Si atom -12401.107177 kJ/mol
# Density = 1.678846 g / cm^3
# Si number density = 16.826762 Si / 1000 Ang^3
#
#
#
# Elastic Constant Matrix: (Units=GPa)
#
#
# Indices 1 2 3 4 5 6 
#
# 1 77.3039 32.8094 27.9474 0.0000 0.0000 0.0000
# 2 32.8094 87.6143 34.4206 0.0000 0.0000 0.0000
# 3 27.9474 34.4206 111.2311 0.0000 0.0000 0.0000
# 4 0.0000 0.0000 0.0000 23.7712 0.0000 0.0000
# 5 0.0000 0.0000 0.0000 0.0000 29.4450 0.0000
# 6 0.0000 0.0000 0.0000 0.0000 0.0000 3.1775
#
#
#
# Elastic Compliance Matrix: (Units=1/GPa)
#
#
# Indices 1 2 3 4 5 6 
#
# 1 0.015950 -0.005007 -0.002458 0.000000 0.000000 0.000000
# 2 -0.005007 0.014565 -0.003249 0.000000 0.000000 0.000000
# 3 -0.002458 -0.003249 0.010613 0.000000 0.000000 0.000000
# 4 0.000000 0.000000 0.000000 0.042068 0.000000 0.000000
# 5 0.000000 0.000000 0.000000 0.000000 0.033962 0.000000
# 6 0.000000 0.000000 0.000000 0.000000 0.000000 0.314710
#
#
# Mechanical properties :
#
#
# Convention : Reuss Voigt Hill
#
# Bulk Modulus (GPa) = 50.76218 51.83380 51.29799
# Shear Modulus (GPa) = 10.87282 23.34354 17.10818
#
# Velocity S-wave (km/s) = 2.54473 3.72867 3.19207
# Velocity P-wave (km/s) = 6.23436 7.02912 6.64364
#
# Compressibility (1/GPa) = 0.01969970
#
# Stress axis : x y z
#
# Youngs Moduli (GPa) = 62.69699 68.65688 94.22111
#
# Poissons Ratio (x) = 0.34377 0.23160
# Poissons Ratio (y) = 0.31393 0.30614
# Poissons Ratio (z) = 0.15411 0.22308
#
# Static dielectric constant tensor:
#      x y z
#    x 3.423800 0.000000 0.000000 
#    y 0.000000 3.172470 0.000000 
#    z 0.000000 0.000000 3.311990 
# 
# 
# High freq. dielectric constant tensor:
#      x y z
#    x 1.639410 0.000000 0.000000 
#    y 0.000000 1.627560 0.000000 
#    z 0.000000 0.000000 1.670390 
# 
# From -- ./inp_files/7053.got.cif
#   From: 2010.03.12/outbox.cif.g09.slc.cpg/sg49_4_cif.got.tgz:7053.got - 2010.04.14 03:58:27.
