data_PCOD8202200
_publ_section_title
;
Structure prediction by ZEFSAII (Michael W. Deem and Ramdas Pophale) SiO2 
 PCOD8202200
Probable space group: P C C M
;
_chemical_formula_sum "Si O2"
_cell_formula_units_Z 64
_cell_length_a 14.407433
_cell_length_b 31.135231
_cell_length_c 8.743579
_cell_angle_alpha 90.000000
_cell_angle_beta 90.000000
_cell_angle_gamma 90.000000
_cell_volume 3922.183778
_symmetry_space_group_name_H-M "P C C M"
_symmetry_group_IT_number 49
_symmetry_cell_setting 'orthorhombic'
loop_
_space_group_symop_operation_xyz
x,y,z
-x,-y,z
x,-y,1/2-z
-x,y,1/2-z
-x,-y,-z
x,y,-z
-x,y,1/2+z
x,-y,1/2+z
loop_
_atom_site_type_symbol
_atom_site_label
_atom_site_fract_x
_atom_site_fract_y
_atom_site_fract_z
Si Si1 0.601238 0.220713 0.322490
Si Si2 0.094097 0.580783 0.320139
Si Si3 0.279779 0.705530 0.179825
Si Si4 0.600354 0.376506 0.818721
Si Si5 0.396687 0.042587 0.681084
Si Si6 0.289319 0.545281 0.318163
Si Si7 0.905437 0.678702 0.180413
Si Si8 0.400312 0.874207 0.676204
O O1 0.500000 0.224150 0.250000
O O2 0.593793 0.233751 0.500000
O O3 0.668376 0.252128 0.233298
O O4 0.646110 0.172788 0.305429
O O5 0.084301 0.578695 0.500000
O O6 0.183849 0.554558 0.263426
O O7 0.106754 0.629612 0.263023
O O8 0.000000 0.560559 0.250000
O O9 0.335671 0.663280 0.231510
O O10 0.179716 0.706363 0.258339
O O11 0.266511 0.706617 0.000000
O O12 0.500000 0.367375 0.750000
O O13 0.641147 0.419620 0.747445
O O14 0.593772 0.381334 0.000000
O O15 0.500000 0.044517 0.750000
O O16 0.398109 0.039572 0.500000
O O17 0.345838 0.086813 0.736648
O O18 0.346563 0.000000 0.750000
O O19 0.321039 0.500000 0.250000
O O20 0.297186 0.545149 0.500000
O O21 0.000000 0.697975 0.250000
O O22 0.909495 0.682022 0.000000
O O23 0.500000 0.868943 0.750000
O O24 0.410271 0.887394 0.500000
#
# Coordination Sequence:
#
# PCOD8202200 Si02
#       8
#     8   8   8   8   8   8   8   8
#     4  10  20  32  47  67  94 127 162 202 245 288
#     4   9  19  34  55  79 104 131 154 184 222 267
#     4  11  22  35  54  78 101 127 159 194 235 281
#     4  11  24  40  58  78  99 126 158 196 234 274
#     4  10  16  22  33  49  71 102 143 192 241 286
#     4  11  23  40  58  79 103 129 158 190 229 273
#     4  10  19  34  55  79 104 129 156 188 229 275
#     4   9  16  26  38  54  78 110 149 193 240 285
#
# _framework density 16.317442
#
# number of rings (size 3 to 8) (size 9 to 14) (size 15 to 20)
#    0.000    1.875    1.250    4.875    0.000    6.000 
#    0.000    2.500    0.000    0.000    0.000    0.000 
#    0.000    0.000    0.000    0.000    0.000    0.625 
#
# Total GULP energy -793480.615457 kJ/mol
# GULP energy per Si atom -12398.134617 kJ/mol
# Density = 1.628030 g / cm^3
# Si number density = 16.317442 Si / 1000 Ang^3
#
#
#
# Elastic Constant Matrix: (Units=GPa)
#
#
# Indices 1 2 3 4 5 6 
#
# 1 82.6438 36.6092 32.8946 0.0000 0.0000 0.0000
# 2 36.6092 106.2315 39.4921 0.0000 0.0000 0.0000
# 3 32.8946 39.4921 89.4991 0.0000 0.0000 0.0000
# 4 0.0000 0.0000 0.0000 28.1145 0.0000 0.0000
# 5 0.0000 0.0000 0.0000 0.0000 25.4952 0.0000
# 6 0.0000 0.0000 0.0000 0.0000 0.0000 4.4814
#
#
#
# Elastic Compliance Matrix: (Units=1/GPa)
#
#
# Indices 1 2 3 4 5 6 
#
# 1 0.015371 -0.003824 -0.003962 0.000000 0.000000 0.000000
# 2 -0.003824 0.012212 -0.003983 0.000000 0.000000 0.000000
# 3 -0.003962 -0.003983 0.014387 0.000000 0.000000 0.000000
# 4 0.000000 0.000000 0.000000 0.035569 0.000000 0.000000
# 5 0.000000 0.000000 0.000000 0.000000 0.039223 0.000000
# 6 0.000000 0.000000 0.000000 0.000000 0.000000 0.223145
#
#
# Mechanical properties :
#
#
# Convention : Reuss Voigt Hill
#
# Bulk Modulus (GPa) = 54.25490 55.15179 54.70334
# Shear Modulus (GPa) = 13.52851 22.91013 18.21932
#
# Velocity S-wave (km/s) = 2.88250 3.75110 3.34511
# Velocity P-wave (km/s) = 6.66335 7.25491 6.96541
#
# Compressibility (1/GPa) = 0.01843151
#
# Stress axis : x y z
#
# Youngs Moduli (GPa) = 65.05671 81.88642 69.50680
#
# Poissons Ratio (x) = 0.31315 0.27539
# Poissons Ratio (y) = 0.24879 0.27685
# Poissons Ratio (z) = 0.25776 0.32616
#
# Static dielectric constant tensor:
#      x y z
#    x 2.866200 0.000000 0.000000 
#    y 0.000000 3.703350 0.000000 
#    z 0.000000 0.000000 3.191180 
# 
# 
# High freq. dielectric constant tensor:
#      x y z
#    x 1.583730 0.000000 0.000000 
#    y 0.000000 1.628750 0.000000 
#    z 0.000000 0.000000 1.647390 
# 
# From -- ./inp_files/4520.got.cif
#   From: 2010.03.12/outbox.cif.g09.slc.cpg/sg49_3_cif.got.tgz:4520.got - 2010.04.14 03:58:27.
