data_PCOD8203386
_publ_section_title
;
Structure prediction by ZEFSAII (Michael W. Deem and Ramdas Pophale) SiO2 
 PCOD8203386
Probable space group: P C C M
;
_chemical_formula_sum "Si O2"
_cell_formula_units_Z 48
_cell_length_a 4.984520
_cell_length_b 17.620372
_cell_length_c 27.396440
_cell_angle_alpha 90.000000
_cell_angle_beta 90.000000
_cell_angle_gamma 90.000000
_cell_volume 2406.204576
_symmetry_space_group_name_H-M "P C C M"
_symmetry_group_IT_number 49
_symmetry_cell_setting 'orthorhombic'
loop_
_space_group_symop_operation_xyz
x,y,z
-x,-y,z
x,-y,1/2-z
-x,y,1/2-z
-x,-y,-z
x,y,-z
-x,y,1/2+z
x,-y,1/2+z
loop_
_atom_site_type_symbol
_atom_site_label
_atom_site_fract_x
_atom_site_fract_y
_atom_site_fract_z
Si Si1 0.957444 0.165865 0.347917
Si Si2 0.044653 0.332899 0.692886
Si Si3 0.933955 0.769511 0.554450
Si Si4 0.546864 0.587260 0.848364
Si Si5 0.543011 0.087323 0.193308
Si Si6 0.564810 0.332642 0.445547
O O1 0.999335 0.250792 0.329737
O O2 0.009239 0.164286 0.406257
O O3 0.153624 0.108242 0.320252
O O4 0.655037 0.139713 0.337993
O O5 0.345773 0.360088 0.682357
O O6 0.000000 0.328223 0.750000
O O7 0.845888 0.393046 0.668387
O O8 0.964079 0.804373 0.500000
O O9 0.636777 0.737322 0.562948
O O10 0.137054 0.699445 0.561675
O O11 0.500000 0.500000 0.836413
O O12 0.512236 0.601462 0.906293
O O13 0.500000 0.104079 0.250000
O O14 0.500000 0.000000 0.180178
O O15 0.526507 0.366957 0.500000
#
# Coordination Sequence:
#
# PCOD8203386 Si02
#       6
#     8   8   8   8   8   8
#     4  12  21  40  66  88 119 156 197 246 287 342
#     4  12  25  40  60  86 114 157 209 247 287 346
#     4  10  20  36  62  89 115 148 193 245 293 344
#     4  12  24  40  58  83 121 158 196 251 304 349
#     4  11  24  40  61  93 127 158 191 233 294 353
#     4  10  19  37  59  84 115 148 193 247 302 352
#
# _framework density 19.948429999999998
#
# number of rings (size 3 to 8) (size 9 to 14) (size 15 to 20)
#    0.000    0.833    3.333    5.000    0.000    3.667 
#    0.000    0.000    0.000    8.000    0.000    0.000 
#    0.000    0.000    0.000    0.000    0.000    0.000 
#
# Total GULP energy -595497.106521 kJ/mol
# GULP energy per Si atom -12406.189719 kJ/mol
# Density = 1.990303 g / cm^3
# Si number density = 19.948430 Si / 1000 Ang^3
#
#
#
# Elastic Constant Matrix: (Units=GPa)
#
#
# Indices 1 2 3 4 5 6 
#
# 1 65.2599 5.5583 6.1215 0.0000 0.0000 0.0000
# 2 5.5583 81.9782 23.5130 0.0000 0.0000 0.0000
# 3 6.1215 23.5130 127.6749 0.0000 0.0000 0.0000
# 4 0.0000 0.0000 0.0000 25.0183 0.0000 0.0000
# 5 0.0000 0.0000 0.0000 0.0000 26.0829 0.0000
# 6 0.0000 0.0000 0.0000 0.0000 0.0000 34.8573
#
#
#
# Elastic Compliance Matrix: (Units=1/GPa)
#
#
# Indices 1 2 3 4 5 6 
#
# 1 0.015453 -0.000882 -0.000578 0.000000 0.000000 0.000000
# 2 -0.000882 0.012929 -0.002339 0.000000 0.000000 0.000000
# 3 -0.000578 -0.002339 0.008291 0.000000 0.000000 0.000000
# 4 0.000000 0.000000 0.000000 0.039971 0.000000 0.000000
# 5 0.000000 0.000000 0.000000 0.000000 0.038339 0.000000
# 6 0.000000 0.000000 0.000000 0.000000 0.000000 0.028688
#
#
# Mechanical properties :
#
#
# Convention : Reuss Voigt Hill
#
# Bulk Modulus (GPa) = 34.39451 38.36649 36.38050
# Shear Modulus (GPa) = 31.06353 33.17306 32.11829
#
# Velocity S-wave (km/s) = 3.95041 4.08234 4.01692
# Velocity P-wave (km/s) = 6.17145 6.44168 6.30801
#
# Compressibility (1/GPa) = 0.02907441
#
# Stress axis : x y z
#
# Youngs Moduli (GPa) = 64.71360 77.34578 120.61501
#
# Poissons Ratio (x) = 0.06820 0.06978
# Poissons Ratio (y) = 0.05706 0.28209
# Poissons Ratio (z) = 0.03744 0.18089
#
# Static dielectric constant tensor:
#      x y z
#    x 3.768020 0.000000 0.000000 
#    y 0.000000 3.432750 0.000000 
#    z 0.000000 0.000000 3.999380 
# 
# 
# High freq. dielectric constant tensor:
#      x y z
#    x 1.798940 0.000000 0.000000 
#    y 0.000000 1.745650 0.000000 
#    z 0.000000 0.000000 1.795690 
# 
# From -- ./inp_files/23950.got.cif
#   From: 2010.03.12/outbox.cif.g09.slc.cpg/sg49_12_cif.got.tgz:23950.got - 2010.04.14 03:58:27.
