data_PCOD8203462
_publ_section_title
;
Structure prediction by ZEFSAII (Michael W. Deem and Ramdas Pophale) SiO2 
 PCOD8203462
Probable space group: P C C M
;
_chemical_formula_sum "Si O2"
_cell_formula_units_Z 64
_cell_length_a 16.107623
_cell_length_b 22.418470
_cell_length_c 9.309396
_cell_angle_alpha 90.000000
_cell_angle_beta 90.000000
_cell_angle_gamma 90.000000
_cell_volume 3361.699819
_symmetry_space_group_name_H-M "P C C M"
_symmetry_group_IT_number 49
_symmetry_cell_setting 'orthorhombic'
loop_
_space_group_symop_operation_xyz
x,y,z
-x,-y,z
x,-y,1/2-z
-x,y,1/2-z
-x,-y,-z
x,y,-z
-x,y,1/2+z
x,-y,1/2+z
loop_
_atom_site_type_symbol
_atom_site_label
_atom_site_fract_x
_atom_site_fract_y
_atom_site_fract_z
Si Si1 0.733082 0.940854 0.830167
Si Si2 0.793242 0.329775 0.340299
Si Si3 0.082812 0.098964 0.831272
Si Si4 0.416801 0.852945 0.669004
Si Si5 0.390232 0.716444 0.660256
Si Si6 0.922663 0.235284 0.667099
Si Si7 0.245228 0.440912 0.667968
Si Si8 0.426411 0.395916 0.333962
O O1 0.828983 0.928917 0.781601
O O2 0.666803 0.889266 0.786473
O O3 0.702422 0.000000 0.750000
O O4 0.730814 0.950585 0.000000
O O5 0.819394 0.351648 0.500000
O O6 0.704959 0.299841 0.346635
O O7 0.847816 0.275994 0.281274
O O8 0.804095 0.384858 0.231725
O O9 0.094421 0.167588 0.788039
O O10 0.000000 0.072958 0.750000
O O11 0.067685 0.089303 0.000000
O O12 0.500000 0.876563 0.750000
O O13 0.432426 0.859825 0.500000
O O14 0.402110 0.784150 0.713182
O O15 0.428622 0.707358 0.500000
O O16 0.429107 0.672278 0.777402
O O17 0.939742 0.240241 0.500000
O O18 0.000000 0.262070 0.750000
O O19 0.215956 0.500000 0.750000
O O20 0.225944 0.447193 0.500000
O O21 0.342060 0.430360 0.699814
O O22 0.500000 0.430693 0.250000
O O23 0.447261 0.395185 0.500000
#
# Coordination Sequence:
#
# PCOD8203462 Si02
#       8
#     8   8   8   8   8   8   8   8
#     4  10  22  39  56  75 103 139 179 220 261 308
#     4   9  17  31  52  75 100 132 166 201 246 300
#     4   9  18  34  56  82 111 140 170 207 254 311
#     4  10  21  36  54  76 102 135 175 220 267 312
#     4   9  17  31  52  75  99 128 163 204 253 307
#     4   9  17  30  51  79 108 135 162 195 241 298
#     4  10  21  35  50  69  94 127 168 209 247 289
#     4  10  20  32  47  70  99 128 159 199 247 297
#
# _framework density 19.037986
#
# number of rings (size 3 to 8) (size 9 to 14) (size 15 to 20)
#    0.000    2.500    0.000    1.875    0.000    8.250 
#    0.000    3.750    0.000    4.875    0.000    2.625 
#    0.000    0.000    0.000    0.000    0.000    0.000 
#
# Total GULP energy -793190.146526 kJ/mol
# GULP energy per Si atom -12393.596039 kJ/mol
# Density = 1.899465 g / cm^3
# Si number density = 19.037986 Si / 1000 Ang^3
#
#
#
# Elastic Constant Matrix: (Units=GPa)
#
#
# Indices 1 2 3 4 5 6 
#
# 1 57.7463 20.1254 21.4300 0.0000 0.0000 0.0000
# 2 20.1254 70.9228 29.6601 0.0000 0.0000 0.0000
# 3 21.4300 29.6601 56.7093 0.0000 0.0000 0.0000
# 4 0.0000 0.0000 0.0000 33.6766 0.0000 0.0000
# 5 0.0000 0.0000 0.0000 0.0000 29.9890 0.0000
# 6 0.0000 0.0000 0.0000 0.0000 0.0000 -96.7676
#
#
#
# Elastic Compliance Matrix: (Units=1/GPa)
#
#
# Indices 1 2 3 4 5 6 
#
# 1 0.020741 -0.003338 -0.006092 0.000000 0.000000 0.000000
# 2 -0.003338 0.018584 -0.008459 0.000000 0.000000 0.000000
# 3 -0.006092 -0.008459 0.024360 0.000000 0.000000 0.000000
# 4 0.000000 0.000000 0.000000 0.029694 0.000000 0.000000
# 5 0.000000 0.000000 0.000000 0.000000 0.033346 0.000000
# 6 0.000000 0.000000 0.000000 0.000000 0.000000 -0.010334
#
#
# Mechanical properties :
#
#
# Convention : Reuss Voigt Hill
#
# Bulk Modulus (GPa) = 35.83166 36.42325 36.12746
# Shear Modulus (GPa) = 30.96518 0.99047 15.97783
#
# Velocity S-wave (km/s) = 4.03736 0.72207 2.90014
# Velocity P-wave (km/s) = 6.37147 4.45742 5.49838
#
# Compressibility (1/GPa) = 0.02790828
#
# Stress axis : x y z
#
# Youngs Moduli (GPa) = 48.21309 53.80838 41.05085
#
# Poissons Ratio (x) = 0.17961 0.25009
# Poissons Ratio (y) = 0.16093 0.34724
# Poissons Ratio (z) = 0.29372 0.45515
#
# Static dielectric constant tensor:
#      x y z
#    x 5.322850 0.000000 0.000000 
#    y 0.000000 3.432120 0.000000 
#    z 0.000000 0.000000 3.500450 
# 
# 
# High freq. dielectric constant tensor:
#      x y z
#    x 1.736160 0.000000 0.000000 
#    y 0.000000 1.733910 0.000000 
#    z 0.000000 0.000000 1.734890 
# 
# From -- ./inp_files/4427.got.cif
#   From: 2010.03.12/outbox.cif.g09.slc.cpg/sg49_3_cif.got.tgz:4427.got - 2010.04.14 03:58:27.
