data_PCOD8203768
_publ_section_title
;
Structure prediction by ZEFSAII (Michael W. Deem and Ramdas Pophale) SiO2 
 PCOD8203768
Probable space group: P C C M
;
_chemical_formula_sum "Si O2"
_cell_formula_units_Z 64
_cell_length_a 20.093901
_cell_length_b 19.723278
_cell_length_c 8.666637
_cell_angle_alpha 90.000000
_cell_angle_beta 90.000000
_cell_angle_gamma 90.000000
_cell_volume 3434.740737
_symmetry_space_group_name_H-M "P C C M"
_symmetry_group_IT_number 49
_symmetry_cell_setting 'orthorhombic'
loop_
_space_group_symop_operation_xyz
x,y,z
-x,-y,z
x,-y,1/2-z
-x,y,1/2-z
-x,-y,-z
x,y,-z
-x,y,1/2+z
x,-y,1/2+z
loop_
_atom_site_type_symbol
_atom_site_label
_atom_site_fract_x
_atom_site_fract_y
_atom_site_fract_z
Si Si1 0.568990 0.175591 0.181304
Si Si2 0.827564 0.070873 0.817951
Si Si3 0.679015 0.571734 0.817028
Si Si4 0.676767 0.070512 0.817479
Si Si5 0.177748 0.428352 0.317261
Si Si6 0.429916 0.330957 0.317321
Si Si7 0.069816 0.827261 0.321038
Si Si8 0.070238 0.669101 0.319922
O O1 0.500000 0.148135 0.250000
O O2 0.629857 0.130633 0.246068
O O3 0.581622 0.253016 0.230131
O O4 0.563701 0.168664 0.000000
O O5 0.752086 0.084260 0.761010
O O6 0.870866 0.133014 0.759188
O O7 0.854412 0.000000 0.750000
O O8 0.832351 0.066775 0.000000
O O9 0.654765 0.500000 0.750000
O O10 0.750989 0.591407 0.751807
O O11 0.628209 0.628711 0.765006
O O12 0.682612 0.567129 0.000000
O O13 0.649900 0.000000 0.750000
O O14 0.673832 0.066346 0.000000
O O15 0.152660 0.500000 0.250000
O O16 0.183532 0.434033 0.500000
O O17 0.127062 0.369981 0.271142
O O18 0.500000 0.356904 0.250000
O O19 0.428174 0.342557 0.500000
O O20 0.068586 0.844957 0.500000
O O21 0.082361 0.748254 0.289985
O O22 0.000000 0.850965 0.250000
O O23 0.072137 0.650784 0.500000
O O24 0.000000 0.645976 0.250000
#
# Coordination Sequence:
#
# PCOD8203768 Si02
#       8
#     8   8   8   8   8   8   8   8
#     4   9  19  35  54  77 107 140 177 218 264 315
#     4  10  20  35  55  78 107 141 180 223 270 321
#     4  11  22  38  58  82 111 143 180 223 270 323
#     4   9  19  35  53  76 105 139 176 218 264 314
#     4  11  22  38  59  83 112 146 183 225 271 321
#     4  10  20  36  56  80 109 143 181 224 271 322
#     4  10  21  37  57  81 110 141 177 220 267 319
#     4  10  21  38  58  83 113 145 182 225 271 323
#
# _framework density 18.633137000000001
#
# number of rings (size 3 to 8) (size 9 to 14) (size 15 to 20)
#    0.000    2.000    0.000    4.500    0.000    5.000 
#    0.000    6.250    0.000    0.000    0.000    0.000 
#    0.000    0.000    0.000    0.000    0.000    0.000 
#
# Total GULP energy -793844.297057 kJ/mol
# GULP energy per Si atom -12403.817142 kJ/mol
# Density = 1.859073 g / cm^3
# Si number density = 18.633137 Si / 1000 Ang^3
#
#
#
# Elastic Constant Matrix: (Units=GPa)
#
#
# Indices 1 2 3 4 5 6 
#
# 1 121.1084 76.4294 51.0746 0.0000 0.0000 0.0000
# 2 76.4294 90.3975 45.6370 0.0000 0.0000 0.0000
# 3 51.0746 45.6370 110.1166 0.0000 0.0000 0.0000
# 4 0.0000 0.0000 0.0000 32.0426 0.0000 0.0000
# 5 0.0000 0.0000 0.0000 0.0000 35.0184 0.0000
# 6 0.0000 0.0000 0.0000 0.0000 0.0000 2.3699
#
#
#
# Elastic Compliance Matrix: (Units=1/GPa)
#
#
# Indices 1 2 3 4 5 6 
#
# 1 0.018282 -0.014134 -0.002622 0.000000 0.000000 0.000000
# 2 -0.014134 0.024916 -0.003771 0.000000 0.000000 0.000000
# 3 -0.002622 -0.003771 0.011860 0.000000 0.000000 0.000000
# 4 0.000000 0.000000 0.000000 0.031208 0.000000 0.000000
# 5 0.000000 0.000000 0.000000 0.000000 0.028556 0.000000
# 6 0.000000 0.000000 0.000000 0.000000 0.000000 0.421964
#
#
# Mechanical properties :
#
#
# Convention : Reuss Voigt Hill
#
# Bulk Modulus (GPa) = 71.40133 74.21161 72.80647
# Shear Modulus (GPa) = 8.58357 23.78492 16.18424
#
# Velocity S-wave (km/s) = 2.14863 3.57667 2.95035
# Velocity P-wave (km/s) = 6.67519 7.54791 7.12493
#
# Compressibility (1/GPa) = 0.01400534
#
# Stress axis : x y z
#
# Youngs Moduli (GPa) = 54.69739 40.13563 84.31544
#
# Poissons Ratio (x) = 0.56726 0.22109
# Poissons Ratio (y) = 0.77307 0.31792
# Poissons Ratio (z) = 0.14343 0.15133
#
# Static dielectric constant tensor:
#      x y z
#    x 3.467530 0.000000 0.000000 
#    y 0.000000 3.485200 0.000000 
#    z 0.000000 0.000000 3.506270 
# 
# 
# High freq. dielectric constant tensor:
#      x y z
#    x 1.729240 0.000000 0.000000 
#    y 0.000000 1.723560 0.000000 
#    z 0.000000 0.000000 1.736210 
# 
# From -- ./inp_files/5967.got.cif
#   From: 2010.03.12/outbox.cif.g09.slc.cpg/sg49_3_cif.got.tgz:5967.got - 2010.04.14 03:58:27.
