data_PCOD8203674
_publ_section_title
;
Structure prediction by ZEFSAII (Michael W. Deem and Ramdas Pophale) SiO2 
 PCOD8203674
Probable space group: P C C M
;
_chemical_formula_sum "Si O2"
_cell_formula_units_Z 56
_cell_length_a 13.391618
_cell_length_b 12.788028
_cell_length_c 15.281921
_cell_angle_alpha 90.000000
_cell_angle_beta 90.000000
_cell_angle_gamma 90.000000
_cell_volume 2617.065433
_symmetry_space_group_name_H-M "P C C M"
_symmetry_group_IT_number 49
_symmetry_cell_setting 'orthorhombic'
loop_
_space_group_symop_operation_xyz
x,y,z
-x,-y,z
x,-y,1/2-z
-x,y,1/2-z
-x,-y,-z
x,y,-z
-x,y,1/2+z
x,-y,1/2+z
loop_
_atom_site_type_symbol
_atom_site_label
_atom_site_fract_x
_atom_site_fract_y
_atom_site_fract_z
Si Si1 0.244959 0.371697 0.597754
Si Si2 0.112336 0.255495 0.271219
Si Si3 0.196537 0.055621 0.340066
Si Si4 0.379226 0.825192 0.900781
Si Si5 0.605714 0.464934 0.651286
Si Si6 0.410065 0.235129 0.900074
Si Si7 0.801909 0.841041 0.903917
O O1 0.195770 0.361999 0.500000
O O2 0.164655 0.351491 0.676233
O O3 0.334365 0.290040 0.608400
O O4 0.297248 0.485042 0.604313
O O5 0.121040 0.155230 0.337635
O O6 0.157586 0.229194 0.175682
O O7 0.000000 0.287729 0.250000
O O8 0.310000 0.093728 0.349819
O O9 0.188912 0.000000 0.250000
O O10 0.163849 0.963653 0.406869
O O11 0.491073 0.821059 0.860658
O O12 0.380954 0.864823 0.000000
O O13 0.500000 0.500000 0.607385
O O14 0.607206 0.500000 0.750000
O O15 0.617575 0.340467 0.650862
O O16 0.317928 0.155975 0.892564
O O17 0.434048 0.266516 0.000000
O O18 0.831212 0.793489 0.000000
#
# Coordination Sequence:
#
# PCOD8203674 Si02
#       7
#     8   8   8   8   8   8   8
#     4  10  20  36  60  90 124 161 202 253 309 366
#     4  10  22  41  62  86 115 150 200 261 317 366
#     4   9  19  35  52  79 112 151 195 248 300 358
#     4   9  17  31  52  78 113 153 194 237 286 354
#     4  11  21  33  54  88 125 164 202 246 297 361
#     4  10  20  34  54  80 115 157 196 239 293 358
#     4  10  21  37  57  82 116 157 201 250 307 371
#
# _framework density 21.398012999999999
#
# number of rings (size 3 to 8) (size 9 to 14) (size 15 to 20)
#    0.000    2.143    1.429    1.714    0.000    4.857 
#    0.000    5.000    0.000    3.857    0.000    6.000 
#    0.000    0.000    0.000    0.000    0.000    0.000 
#
# Total GULP energy -693841.738344 kJ/mol
# GULP energy per Si atom -12390.031042 kJ/mol
# Density = 2.134931 g / cm^3
# Si number density = 21.398013 Si / 1000 Ang^3
#
#
#
# Elastic Constant Matrix: (Units=GPa)
#
#
# Indices 1 2 3 4 5 6 
#
# 1 110.6203 10.5210 32.2829 0.0000 0.0000 0.0000
# 2 10.5210 47.5337 3.3966 0.0000 0.0000 0.0000
# 3 32.2829 3.3966 80.4195 0.0000 0.0000 0.0000
# 4 0.0000 0.0000 0.0000 64.1008 0.0000 0.0000
# 5 0.0000 0.0000 0.0000 0.0000 25.4130 0.0000
# 6 0.0000 0.0000 0.0000 0.0000 0.0000 15.2172
#
#
#
# Elastic Compliance Matrix: (Units=1/GPa)
#
#
# Indices 1 2 3 4 5 6 
#
# 1 0.010428 -0.002015 -0.004101 0.000000 0.000000 0.000000
# 2 -0.002015 0.021491 -0.000099 0.000000 0.000000 0.000000
# 3 -0.004101 -0.000099 0.014085 0.000000 0.000000 0.000000
# 4 0.000000 0.000000 0.000000 0.015600 0.000000 0.000000
# 5 0.000000 0.000000 0.000000 0.000000 0.039350 0.000000
# 6 0.000000 0.000000 0.000000 0.000000 0.000000 0.065715
#
#
# Mechanical properties :
#
#
# Convention : Reuss Voigt Hill
#
# Bulk Modulus (GPa) = 29.78464 36.77494 33.27979
# Shear Modulus (GPa) = 26.27543 33.77105 30.02324
#
# Velocity S-wave (km/s) = 3.50800 3.97701 3.74984
# Velocity P-wave (km/s) = 5.50977 6.18969 5.85960
#
# Compressibility (1/GPa) = 0.03357435
#
# Stress axis : x y z
#
# Youngs Moduli (GPa) = 95.89137 46.53161 70.99593
#
# Poissons Ratio (x) = 0.09377 0.29117
# Poissons Ratio (y) = 0.19324 0.00701
# Poissons Ratio (z) = 0.39327 0.00460
#
# Static dielectric constant tensor:
#      x y z
#    x 3.732650 0.000000 0.000000 
#    y 0.000000 5.450950 0.000000 
#    z 0.000000 0.000000 3.850380 
# 
# 
# High freq. dielectric constant tensor:
#      x y z
#    x 1.810880 0.000000 0.000000 
#    y 0.000000 1.822290 0.000000 
#    z 0.000000 0.000000 1.844090 
# 
# From -- ./inp_files/12885.got.cif
#   From: 2010.03.12/outbox.cif.g09.slc.cpg/sg49_7_cif.got.tgz:12885.got - 2010.04.14 03:58:27.
