data_PCOD8203821
_publ_section_title
;
Structure prediction by ZEFSAII (Michael W. Deem and Ramdas Pophale) SiO2 
 PCOD8203821
Probable space group: P C C M
;
_chemical_formula_sum "Si O2"
_cell_formula_units_Z 64
_cell_length_a 15.133592
_cell_length_b 11.942550
_cell_length_c 16.943408
_cell_angle_alpha 90.000000
_cell_angle_beta 90.000000
_cell_angle_gamma 90.000000
_cell_volume 3062.244465
_symmetry_space_group_name_H-M "P C C M"
_symmetry_group_IT_number 49
_symmetry_cell_setting 'orthorhombic'
loop_
_space_group_symop_operation_xyz
x,y,z
-x,-y,z
x,-y,1/2-z
-x,y,1/2-z
-x,-y,-z
x,y,-z
-x,y,1/2+z
x,-y,1/2+z
loop_
_atom_site_type_symbol
_atom_site_label
_atom_site_fract_x
_atom_site_fract_y
_atom_site_fract_z
Si Si1 0.505551 0.634141 0.087610
Si Si2 0.146191 0.839539 0.091018
Si Si3 0.637659 0.610755 0.296976
Si Si4 0.687541 0.267680 0.353829
Si Si5 0.864379 0.379147 0.590603
Si Si6 0.783043 0.045030 0.337750
Si Si7 0.203433 0.397360 0.405481
Si Si8 0.050241 0.162366 0.905855
O O1 0.500000 0.500000 0.092707
O O2 0.442236 0.675646 0.158525
O O3 0.600095 0.691840 0.101305
O O4 0.474101 0.671691 0.000000
O O5 0.171782 0.721076 0.130241
O O6 0.047879 0.878156 0.118069
O O7 0.220212 0.933273 0.108240
O O8 0.141583 0.813069 0.000000
O O9 0.604631 0.500000 0.250000
O O10 0.683098 0.698585 0.238019
O O11 0.703982 0.570955 0.365242
O O12 0.768891 0.325237 0.396451
O O13 0.704258 0.132387 0.357865
O O14 0.881067 0.396252 0.500000
O O15 0.865419 0.506089 0.624770
O O16 0.940734 0.294090 0.619409
O O17 0.879139 0.097676 0.353149
O O18 0.775791 0.000000 0.250000
O O19 0.217148 0.398139 0.500000
O O20 0.069432 0.143697 0.000000
#
# Coordination Sequence:
#
# PCOD8203821 Si02
#       8
#     8   8   8   8   8   8   8   8
#     4  11  22  36  58  92 125 148 181 230 292 361
#     4  10  21  37  58  84 115 161 212 255 300 350
#     4  12  21  35  58  85 121 153 190 233 291 365
#     4  11  22  36  59  86 117 158 193 240 301 359
#     4   9  17  32  53  84 120 154 194 244 304 363
#     4  11  23  39  58  83 118 156 205 255 302 351
#     4  10  20  35  56  83 121 164 202 245 298 360
#     4   9  19  35  58  86 116 153 204 261 308 352
#
# _framework density 20.899702999999999
#
# number of rings (size 3 to 8) (size 9 to 14) (size 15 to 20)
#    0.000    1.625    2.500    2.625    0.000    6.000 
#    0.000    2.500    0.000    5.250    0.000    5.250 
#    0.000    0.000    0.000    0.000    0.000    0.000 
#
# Total GULP energy -792851.282385 kJ/mol
# GULP energy per Si atom -12388.301287 kJ/mol
# Density = 2.085213 g / cm^3
# Si number density = 20.899703 Si / 1000 Ang^3
#
#
#
# Elastic Constant Matrix: (Units=GPa)
#
#
# Indices 1 2 3 4 5 6 
#
# 1 55.0268 27.1456 11.4164 0.0000 0.0000 0.0000
# 2 27.1456 142.0993 12.5729 0.0000 0.0000 0.0000
# 3 11.4164 12.5729 37.3558 0.0000 0.0000 0.0000
# 4 0.0000 0.0000 0.0000 24.7447 0.0000 0.0000
# 5 0.0000 0.0000 0.0000 0.0000 91.6007 0.0000
# 6 0.0000 0.0000 0.0000 0.0000 0.0000 35.7161
#
#
#
# Elastic Compliance Matrix: (Units=1/GPa)
#
#
# Indices 1 2 3 4 5 6 
#
# 1 0.021009 -0.003551 -0.005225 0.000000 0.000000 0.000000
# 2 -0.003551 0.007854 -0.001558 0.000000 0.000000 0.000000
# 3 -0.005225 -0.001558 0.028891 0.000000 0.000000 0.000000
# 4 0.000000 0.000000 0.000000 0.040413 0.000000 0.000000
# 5 0.000000 0.000000 0.000000 0.000000 0.010917 0.000000
# 6 0.000000 0.000000 0.000000 0.000000 0.000000 0.027999
#
#
# Mechanical properties :
#
#
# Convention : Reuss Voigt Hill
#
# Bulk Modulus (GPa) = 26.96552 37.41685 32.19119
# Shear Modulus (GPa) = 29.39242 42.63544 36.01393
#
# Velocity S-wave (km/s) = 3.75421 4.52154 4.15562
# Velocity P-wave (km/s) = 5.63227 6.72317 6.20175
#
# Compressibility (1/GPa) = 0.03708439
#
# Stress axis : x y z
#
# Youngs Moduli (GPa) = 47.59902 127.33097 34.61294
#
# Poissons Ratio (x) = 0.45216 0.18087
# Poissons Ratio (y) = 0.16903 0.05393
# Poissons Ratio (z) = 0.24872 0.19839
#
# Static dielectric constant tensor:
#      x y z
#    x 3.743790 0.000000 0.000000 
#    y 0.000000 4.332320 0.000000 
#    z 0.000000 0.000000 3.844260 
# 
# 
# High freq. dielectric constant tensor:
#      x y z
#    x 1.795640 0.000000 0.000000 
#    y 0.000000 1.818890 0.000000 
#    z 0.000000 0.000000 1.813040 
# 
# From -- ./inp_files/17959.got.cif
#   From: 2010.03.12/outbox.cif.g09.slc.cpg/sg49_9_cif.got.tgz:17959.got - 2010.04.14 03:58:27.
