data_PCOD8203854
_publ_section_title
;
Structure prediction by ZEFSAII (Michael W. Deem and Ramdas Pophale) SiO2 
 PCOD8203854
Probable space group: P C C M
;
_chemical_formula_sum "Si O2"
_cell_formula_units_Z 48
_cell_length_a 28.854951
_cell_length_b 8.890714
_cell_length_c 9.140249
_cell_angle_alpha 90.000000
_cell_angle_beta 90.000000
_cell_angle_gamma 90.000000
_cell_volume 2344.849687
_symmetry_space_group_name_H-M "P C C M"
_symmetry_group_IT_number 49
_symmetry_cell_setting 'orthorhombic'
loop_
_space_group_symop_operation_xyz
x,y,z
-x,-y,z
x,-y,1/2-z
-x,y,1/2-z
-x,-y,-z
x,y,-z
-x,y,1/2+z
x,-y,1/2+z
loop_
_atom_site_type_symbol
_atom_site_label
_atom_site_fract_x
_atom_site_fract_y
_atom_site_fract_z
Si Si1 0.206703 0.153174 0.168222
Si Si2 0.957695 0.334604 0.500000
Si Si3 0.625007 0.151928 0.170316
Si Si4 0.450345 0.654803 0.678597
Si Si5 0.885568 0.675677 0.767698
Si Si6 0.716437 0.657591 0.668645
Si Si7 0.940876 0.690308 0.500000
O O1 0.161164 0.254037 0.172404
O O2 0.248207 0.232749 0.252033
O O3 0.195358 0.000000 0.250000
O O4 0.221199 0.124336 0.000000
O O5 0.929488 0.280379 0.637438
O O6 0.955968 0.515821 0.500000
O O7 0.006950 0.244338 0.500000
O O8 0.582261 0.211197 0.267074
O O9 0.665740 0.272398 0.178647
O O10 0.641789 0.000000 0.250000
O O11 0.611103 0.123677 0.000000
O O12 0.431307 0.500000 0.750000
O O13 0.500000 0.688124 0.750000
O O14 0.452396 0.645585 0.500000
O O15 0.875153 0.500000 0.750000
O O16 0.905501 0.745630 0.621802
O O17 0.716129 0.500000 0.750000
O O18 0.731604 0.634723 0.500000
#
# Coordination Sequence:
#
# PCOD8203854 Si02
#       7
#     8   4   8   8   8   8   4
#     4  12  26  43  63  87 123 162 205 254 309 373
#     4   9  16  34  51  89 121 151 195 243 304 347
#     4  11  24  42  64  95 132 172 214 262 318 379
#     4  11  22  39  64  94 130 174 223 276 325 379
#     4  10  20  35  59  88 118 154 196 248 303 362
#     4  11  25  44  70  98 127 161 205 256 311 372
#     4   9  18  28  59  87 119 151 193 249 294 363
#
# _framework density 20.470393999999999
#
# number of rings (size 3 to 8) (size 9 to 14) (size 15 to 20)
#    0.000    1.333    0.833    5.500    2.333    7.667 
#    0.000    1.667    0.000    3.000    0.000    0.000 
#    0.000    0.000    0.000    0.000    0.000    0.000 
#
# Total GULP energy -594750.772426 kJ/mol
# GULP energy per Si atom -12390.641092 kJ/mol
# Density = 2.042380 g / cm^3
# Si number density = 20.470394 Si / 1000 Ang^3
#
#
#
# Elastic Constant Matrix: (Units=GPa)
#
#
# Indices 1 2 3 4 5 6 
#
# 1 80.6674 19.0476 39.4675 0.0000 0.0000 0.0000
# 2 19.0476 61.0344 35.6707 0.0000 0.0000 0.0000
# 3 39.4675 35.6707 188.1760 0.0000 0.0000 0.0000
# 4 0.0000 0.0000 0.0000 33.1469 0.0000 0.0000
# 5 0.0000 0.0000 0.0000 0.0000 38.8302 0.0000
# 6 0.0000 0.0000 0.0000 0.0000 0.0000 -18.7425
#
#
#
# Elastic Compliance Matrix: (Units=1/GPa)
#
#
# Indices 1 2 3 4 5 6 
#
# 1 0.014301 -0.003048 -0.002422 0.000000 0.000000 0.000000
# 2 -0.003048 0.019075 -0.002977 0.000000 0.000000 0.000000
# 3 -0.002422 -0.002977 0.006386 0.000000 0.000000 0.000000
# 4 0.000000 0.000000 0.000000 0.030169 0.000000 0.000000
# 5 0.000000 0.000000 0.000000 0.000000 0.025753 0.000000
# 6 0.000000 0.000000 0.000000 0.000000 0.000000 -0.053355
#
#
# Mechanical properties :
#
#
# Convention : Reuss Voigt Hill
#
# Bulk Modulus (GPa) = 43.72498 57.58326 50.65412
# Shear Modulus (GPa) = 74.79954 26.35971 50.57962
#
# Velocity S-wave (km/s) = 6.05142 3.59235 4.97617
# Velocity P-wave (km/s) = 8.38050 6.73778 7.60363
#
# Compressibility (1/GPa) = 0.02287022
#
# Stress axis : x y z
#
# Youngs Moduli (GPa) = 69.92478 52.42468 156.58379
#
# Poissons Ratio (x) = 0.15978 0.37920
# Poissons Ratio (y) = 0.21311 0.46609
# Poissons Ratio (z) = 0.16934 0.15605
#
# Static dielectric constant tensor:
#      x y z
#    x 3.811120 0.000000 0.000000 
#    y 0.000000 3.350320 0.000000 
#    z 0.000000 0.000000 4.080990 
# 
# 
# High freq. dielectric constant tensor:
#      x y z
#    x 1.813510 0.000000 0.000000 
#    y 0.000000 1.779910 0.000000 
#    z 0.000000 0.000000 1.826630 
# 
# From -- ./inp_files/6921.got.cif
#   From: 2010.03.12/outbox.cif.g09.slc.cpg/sg49_4_cif.got.tgz:6921.got - 2010.04.14 03:58:27.
