data_PCOD8203654
_publ_section_title
;
Structure prediction by ZEFSAII (Michael W. Deem and Ramdas Pophale) SiO2 
 PCOD8203654
Probable space group: P C C M
;
_chemical_formula_sum "Si O2"
_cell_formula_units_Z 58
_cell_length_a 15.080213
_cell_length_b 23.101579
_cell_length_c 8.869248
_cell_angle_alpha 90.000000
_cell_angle_beta 90.000000
_cell_angle_gamma 90.000000
_cell_volume 3089.839633
_symmetry_space_group_name_H-M "P C C M"
_symmetry_group_IT_number 49
_symmetry_cell_setting 'orthorhombic'
loop_
_space_group_symop_operation_xyz
x,y,z
-x,-y,z
x,-y,1/2-z
-x,y,1/2-z
-x,-y,-z
x,y,-z
-x,y,1/2+z
x,-y,1/2+z
loop_
_atom_site_type_symbol
_atom_site_label
_atom_site_fract_x
_atom_site_fract_y
_atom_site_fract_z
Si Si1 0.906870 0.602520 0.820911
Si Si2 0.771316 0.828853 0.178815
Si Si3 0.592082 0.355729 0.678601
Si Si4 0.410465 0.778219 0.676221
Si Si5 0.171136 0.054667 0.333672
Si Si6 0.000000 0.000000 0.250000
Si Si7 0.731216 0.440680 0.180342
Si Si8 0.909740 0.735393 0.176291
O O1 0.831278 0.565621 0.739932
O O2 0.888623 0.669435 0.780063
O O3 0.000000 0.582394 0.750000
O O4 0.906290 0.591442 0.000000
O O5 0.671520 0.816663 0.236181
O O6 0.809520 0.887914 0.241988
O O7 0.830768 0.775533 0.237292
O O8 0.774010 0.832357 0.000000
O O9 0.500000 0.378062 0.750000
O O10 0.592536 0.367270 0.500000
O O11 0.606214 0.288547 0.718427
O O12 0.672554 0.388429 0.757316
O O13 0.500000 0.802362 0.750000
O O14 0.421539 0.785210 0.500000
O O15 0.211399 0.061008 0.500000
O O16 0.064794 0.042153 0.346587
O O17 0.217623 0.000000 0.250000
O O18 0.692421 0.500000 0.250000
O O19 0.728745 0.442235 0.000000
O O20 0.000000 0.757494 0.250000
O O21 0.921846 0.742107 0.000000
#
# Coordination Sequence:
#
# PCOD8203654 Si02
#       8
#     8   8   8   8   8   2   8   8
#     4  10  20  38  59  80 109 145 185 230 279 332
#     4  10  20  34  53  80 114 148 182 224 273 323
#     4  10  20  38  62  88 117 148 182 222 275 335
#     4   9  19  36  59  85 114 147 181 223 275 327
#     4  10  21  35  53  76 106 145 187 228 270 317
#     4   8  22  36  54  72 108 144 194 228 276 312
#     4  12  25  40  58  82 109 143 186 231 280 332
#     4   9  19  33  51  77 110 145 178 217 269 326
#
# _framework density 18.771201000000001
#
# number of rings (size 3 to 8) (size 9 to 14) (size 15 to 20)
#    0.414    1.655    0.000    3.517    0.966    4.966 
#    0.000    4.138    0.000    0.414    0.000    2.897 
#    0.000    0.000    0.000    0.000    0.000    0.000 
#
# Total GULP energy -719116.051366 kJ/mol
# GULP energy per Si atom -12398.552610 kJ/mol
# Density = 1.872848 g / cm^3
# Si number density = 18.771201 Si / 1000 Ang^3
#
#
#
# Elastic Constant Matrix: (Units=GPa)
#
#
# Indices 1 2 3 4 5 6 
#
# 1 114.9804 39.5645 35.7449 0.0000 0.0000 0.0000
# 2 39.5645 66.4871 25.1486 0.0000 0.0000 0.0000
# 3 35.7449 25.1486 77.4357 0.0000 0.0000 0.0000
# 4 0.0000 0.0000 0.0000 21.6995 0.0000 0.0000
# 5 0.0000 0.0000 0.0000 0.0000 31.6006 0.0000
# 6 0.0000 0.0000 0.0000 0.0000 0.0000 27.7383
#
#
#
# Elastic Compliance Matrix: (Units=1/GPa)
#
#
# Indices 1 2 3 4 5 6 
#
# 1 0.011754 -0.005634 -0.003596 0.000000 0.000000 0.000000
# 2 -0.005634 0.019848 -0.003845 0.000000 0.000000 0.000000
# 3 -0.003596 -0.003845 0.015823 0.000000 0.000000 0.000000
# 4 0.000000 0.000000 0.000000 0.046084 0.000000 0.000000
# 5 0.000000 0.000000 0.000000 0.000000 0.031645 0.000000
# 6 0.000000 0.000000 0.000000 0.000000 0.000000 0.036051
#
#
# Mechanical properties :
#
#
# Convention : Reuss Voigt Hill
#
# Bulk Modulus (GPa) = 47.00626 51.09102 49.04864
# Shear Modulus (GPa) = 25.71415 26.77069 26.24242
#
# Velocity S-wave (km/s) = 3.70519 3.78055 3.74306
# Velocity P-wave (km/s) = 6.58792 6.80688 6.69829
#
# Compressibility (1/GPa) = 0.02127376
#
# Stress axis : x y z
#
# Youngs Moduli (GPa) = 85.07966 50.38390 63.20093
#
# Poissons Ratio (x) = 0.28387 0.22726
# Poissons Ratio (y) = 0.47935 0.24301
# Poissons Ratio (z) = 0.30593 0.19373
#
# Static dielectric constant tensor:
#      x y z
#    x 3.579830 0.000000 0.000000 
#    y 0.000000 3.389610 0.000000 
#    z 0.000000 0.000000 3.413950 
# 
# 
# High freq. dielectric constant tensor:
#      x y z
#    x 1.725600 0.000000 0.000000 
#    y 0.000000 1.720550 0.000000 
#    z 0.000000 0.000000 1.730900 
# 
# From -- ./inp_files/4271.got.cif
#   From: 2010.03.12/outbox.cif.g09.slc.cpg/sg49_3_cif.got.tgz:4271.got - 2010.04.14 03:58:27.
