data_PCOD8203232
_publ_section_title
;
Structure prediction by ZEFSAII (Michael W. Deem and Ramdas Pophale) SiO2 
 PCOD8203232
Probable space group: P C C M
;
_chemical_formula_sum "Si O2"
_cell_formula_units_Z 52
_cell_length_a 14.590408
_cell_length_b 12.583660
_cell_length_c 14.880296
_cell_angle_alpha 90.000000
_cell_angle_beta 90.000000
_cell_angle_gamma 90.000000
_cell_volume 2732.033261
_symmetry_space_group_name_H-M "P C C M"
_symmetry_group_IT_number 49
_symmetry_cell_setting 'orthorhombic'
loop_
_space_group_symop_operation_xyz
x,y,z
-x,-y,z
x,-y,1/2-z
-x,y,1/2-z
-x,-y,-z
x,y,-z
-x,y,1/2+z
x,-y,1/2+z
loop_
_atom_site_type_symbol
_atom_site_label
_atom_site_fract_x
_atom_site_fract_y
_atom_site_fract_z
Si Si1 0.004808 0.373035 0.393245
Si Si2 0.603105 0.465257 0.399496
Si Si3 0.434898 0.239949 0.834288
Si Si4 0.271132 0.500000 0.750000
Si Si5 0.566413 0.912243 0.401482
Si Si6 0.857223 0.308026 0.251662
Si Si7 0.281535 0.880692 0.237930
O O1 0.002214 0.343059 0.500000
O O2 0.926204 0.310349 0.337178
O O3 0.000000 0.500000 0.380625
O O4 0.098122 0.335281 0.345204
O O5 0.500000 0.500000 0.386566
O O6 0.638460 0.483912 0.500000
O O7 0.614524 0.343151 0.372214
O O8 0.666350 0.535436 0.334444
O O9 0.500000 0.266082 0.750000
O O10 0.502851 0.192491 0.909081
O O11 0.353612 0.155870 0.813857
O O12 0.214200 0.601771 0.722274
O O13 0.592783 0.953733 0.500000
O O14 0.661626 0.882670 0.354568
O O15 0.500000 0.000000 0.351992
O O16 0.807327 0.195108 0.238826
O O17 0.244017 0.000000 0.250000
#
# Coordination Sequence:
#
# PCOD8203232 Si02
#       7
#     8   8   8   4   8   8   8
#     4  10  21  42  70  95 122 154 191 241 314 396
#     4  11  24  37  51  80 126 171 206 244 307 370
#     4  10  19  34  55  75 109 162 206 256 296 350
#     4  12  21  37  58  90 120 154 202 251 311 352
#     4  10  20  34  54  78 111 156 213 264 294 333
#     4  11  22  40  64  92 124 149 195 255 303 373
#     4  11  22  38  58  86 118 163 208 248 299 354
#
# _framework density 19.033443999999999
#
# number of rings (size 3 to 8) (size 9 to 14) (size 15 to 20)
#    0.000    1.385    4.615    2.077    2.154    1.846 
#    0.000    2.308    0.000    0.923    0.000    0.000 
#    0.000    0.000    0.000    0.000    0.000    0.000 
#
# Total GULP energy -644395.857765 kJ/mol
# GULP energy per Si atom -12392.228034 kJ/mol
# Density = 1.899012 g / cm^3
# Si number density = 19.033444 Si / 1000 Ang^3
#
#
#
# Elastic Constant Matrix: (Units=GPa)
#
#
# Indices 1 2 3 4 5 6 
#
# 1 90.1676 36.8313 59.7929 0.0000 0.0000 0.0000
# 2 36.8313 87.8629 23.7642 0.0000 0.0000 0.0000
# 3 59.7929 23.7642 122.1276 0.0000 0.0000 0.0000
# 4 0.0000 0.0000 0.0000 20.3960 0.0000 0.0000
# 5 0.0000 0.0000 0.0000 0.0000 -15.2805 0.0000
# 6 0.0000 0.0000 0.0000 0.0000 0.0000 42.8488
#
#
#
# Elastic Compliance Matrix: (Units=1/GPa)
#
#
# Indices 1 2 3 4 5 6 
#
# 1 0.018774 -0.005683 -0.008086 0.000000 0.000000 0.000000
# 2 -0.005683 0.013734 0.000110 0.000000 0.000000 0.000000
# 3 -0.008086 0.000110 0.012125 0.000000 0.000000 0.000000
# 4 0.000000 0.000000 0.000000 0.049029 0.000000 0.000000
# 5 0.000000 0.000000 0.000000 0.000000 -0.065443 0.000000
# 6 0.000000 0.000000 0.000000 0.000000 0.000000 0.023338
#
#
# Mechanical properties :
#
#
# Convention : Reuss Voigt Hill
#
# Bulk Modulus (GPa) = 57.75098 60.10388 58.92743
# Shear Modulus (GPa) = 59.06954 21.57751 40.32353
#
# Velocity S-wave (km/s) = 5.57691 3.37064 4.60778
# Velocity P-wave (km/s) = 8.47803 6.84068 7.70298
#
# Compressibility (1/GPa) = 0.01731572
#
# Stress axis : x y z
#
# Youngs Moduli (GPa) = 53.26636 72.81294 82.47109
#
# Poissons Ratio (x) = 0.41378 0.66683
# Poissons Ratio (y) = 0.30270 -0.00906
# Poissons Ratio (z) = 0.43069 -0.00800
#
# Static dielectric constant tensor:
#      x y z
#    x 3.514690 0.000000 0.000000 
#    y 0.000000 3.512240 0.000000 
#    z 0.000000 0.000000 3.519910 
# 
# 
# High freq. dielectric constant tensor:
#      x y z
#    x 1.730130 0.000000 0.000000 
#    y 0.000000 1.733290 0.000000 
#    z 0.000000 0.000000 1.737710 
# 
# From -- ./inp_files/13608.got.cif
#   From: 2010.03.12/outbox.cif.g09.slc.cpg/sg49_7_cif.got.tgz:13608.got - 2010.04.14 03:58:27.
