data_PCOD8203459
_publ_section_title
;
Structure prediction by ZEFSAII (Michael W. Deem and Ramdas Pophale) SiO2 
 PCOD8203459
Probable space group: P C C M
;
_chemical_formula_sum "Si O2"
_cell_formula_units_Z 44
_cell_length_a 16.572066
_cell_length_b 5.090249
_cell_length_c 32.444052
_cell_angle_alpha 90.000000
_cell_angle_beta 90.000000
_cell_angle_gamma 90.000000
_cell_volume 2736.848581
_symmetry_space_group_name_H-M "P C C M"
_symmetry_group_IT_number 49
_symmetry_cell_setting 'orthorhombic'
loop_
_space_group_symop_operation_xyz
x,y,z
-x,-y,z
x,-y,1/2-z
-x,y,1/2-z
-x,-y,-z
x,y,-z
-x,y,1/2+z
x,-y,1/2+z
loop_
_atom_site_type_symbol
_atom_site_label
_atom_site_fract_x
_atom_site_fract_y
_atom_site_fract_z
Si Si1 0.225541 0.634824 0.952728
Si Si2 0.047869 0.751406 0.048988
Si Si3 0.444416 0.750711 0.500000
Si Si4 0.595207 0.489329 0.295691
Si Si5 0.595371 0.005908 0.846710
Si Si6 0.679628 0.856593 0.930849
O O1 0.139338 0.727702 0.934499
O O2 0.257047 0.384954 0.926231
O O3 0.283102 0.886745 0.951874
O O4 0.217889 0.536988 0.000000
O O5 0.000000 0.500000 0.064619
O O6 0.049966 0.773391 0.000000
O O7 0.000000 0.000000 0.067753
O O8 0.500000 0.500000 0.500000
O O9 0.391246 0.742517 0.540983
O O10 0.500000 0.000000 0.500000
O O11 0.500000 0.500000 0.291120
O O12 0.634469 0.500000 0.250000
O O13 0.621465 0.213622 0.314320
O O14 0.623608 0.720677 0.326333
O O15 0.645191 0.951610 0.887609
O O16 0.500000 0.000000 0.856774
#
# Coordination Sequence:
#
# PCOD8203459 Si02
#       6
#     8   8   4   8   8   8
#     4  11  20  34  49  65  91 123 160 200 243 284
#     4   9  17  29  47  69  87 109 146 195 240 284
#     4  12  24  36  48  60  82 126 178 218 244 268
#     4   9  17  31  50  69  87 110 144 192 250 300
#     4  10  20  32  47  67  91 118 156 204 239 281
#     4  12  22  35  47  66  91 126 166 205 246 276
#
# _framework density 16.076884
#
# number of rings (size 3 to 8) (size 9 to 14) (size 15 to 20)
#    0.000    1.636    1.818    4.364    0.000    7.273 
#    0.000    0.000    0.000    0.000    0.000    0.000 
#    0.000    0.000    0.000    0.000    0.000  190.909 
#
# Total GULP energy -545551.486879 kJ/mol
# GULP energy per Si atom -12398.897429 kJ/mol
# Density = 1.604029 g / cm^3
# Si number density = 16.076884 Si / 1000 Ang^3
#
#
#
# Elastic Constant Matrix: (Units=GPa)
#
#
# Indices 1 2 3 4 5 6 
#
# 1 77.4587 41.3927 35.3004 0.0000 0.0000 0.0000
# 2 41.3927 121.3398 25.2062 0.0000 0.0000 0.0000
# 3 35.3004 25.2062 77.4456 0.0000 0.0000 0.0000
# 4 0.0000 0.0000 0.0000 52.6506 0.0000 0.0000
# 5 0.0000 0.0000 0.0000 0.0000 5.2725 0.0000
# 6 0.0000 0.0000 0.0000 0.0000 0.0000 28.3320
#
#
#
# Elastic Compliance Matrix: (Units=1/GPa)
#
#
# Indices 1 2 3 4 5 6 
#
# 1 0.018704 -0.004944 -0.006916 0.000000 0.000000 0.000000
# 2 -0.004944 0.010146 -0.001049 0.000000 0.000000 0.000000
# 3 -0.006916 -0.001049 0.016406 0.000000 0.000000 0.000000
# 4 0.000000 0.000000 0.000000 0.018993 0.000000 0.000000
# 5 0.000000 0.000000 0.000000 0.000000 0.189663 0.000000
# 6 0.000000 0.000000 0.000000 0.000000 0.000000 0.035296
#
#
# Mechanical properties :
#
#
# Convention : Reuss Voigt Hill
#
# Bulk Modulus (GPa) = 51.44532 53.33805 52.39169
# Shear Modulus (GPa) = 15.55187 28.87402 22.21295
#
# Velocity S-wave (km/s) = 3.11359 4.24252 3.72111
# Velocity P-wave (km/s) = 6.70783 7.56621 7.14991
#
# Compressibility (1/GPa) = 0.01943811
#
# Stress axis : x y z
#
# Youngs Moduli (GPa) = 53.46455 98.56473 60.95266
#
# Poissons Ratio (x) = 0.48728 0.42157
# Poissons Ratio (y) = 0.26431 0.06392
# Poissons Ratio (z) = 0.36978 0.10336
#
# Static dielectric constant tensor:
#      x y z
#    x 2.948580 0.000000 0.000000 
#    y 0.000000 3.435580 0.000000 
#    z 0.000000 0.000000 2.884430 
# 
# 
# High freq. dielectric constant tensor:
#      x y z
#    x 1.591540 0.000000 0.000000 
#    y 0.000000 1.645680 0.000000 
#    z 0.000000 0.000000 1.580660 
# 
# From -- ./inp_files/23880.got.cif
#   From: 2010.03.12/outbox.cif.g09.slc.cpg/sg49_12_cif.got.tgz:23880.got - 2010.04.14 03:58:27.
