data_PCOD8203196
_publ_section_title
;
Structure prediction by ZEFSAII (Michael W. Deem and Ramdas Pophale) SiO2 
 PCOD8203196
Probable space group: P C C M
;
_chemical_formula_sum "Si O2"
_cell_formula_units_Z 56
_cell_length_a 13.755444
_cell_length_b 11.905355
_cell_length_c 18.181308
_cell_angle_alpha 90.000000
_cell_angle_beta 90.000000
_cell_angle_gamma 90.000000
_cell_volume 2977.433615
_symmetry_space_group_name_H-M "P C C M"
_symmetry_group_IT_number 49
_symmetry_cell_setting 'orthorhombic'
loop_
_space_group_symop_operation_xyz
x,y,z
-x,-y,z
x,-y,1/2-z
-x,y,1/2-z
-x,-y,-z
x,y,-z
-x,y,1/2+z
x,-y,1/2+z
loop_
_atom_site_type_symbol
_atom_site_label
_atom_site_fract_x
_atom_site_fract_y
_atom_site_fract_z
Si Si1 0.746478 0.368763 0.826452
Si Si2 0.703806 0.375404 0.338249
Si Si3 0.563917 0.776828 0.084554
Si Si4 0.264357 0.948735 0.415529
Si Si5 0.348604 0.175722 0.587310
Si Si6 0.868890 0.243937 0.412937
Si Si7 0.972797 0.622410 0.665377
O O1 0.726768 0.328467 0.743247
O O2 0.700932 0.490843 0.838317
O O3 0.696776 0.290002 0.885276
O O4 0.859404 0.362112 0.844613
O O5 0.599885 0.328546 0.366122
O O6 0.788967 0.337398 0.393245
O O7 0.638657 0.877387 0.094471
O O8 0.460886 0.823930 0.112995
O O9 0.557590 0.736603 0.000000
O O10 0.240614 0.969740 0.500000
O O11 0.171712 0.878059 0.383505
O O12 0.287811 0.069774 0.378397
O O13 0.343549 0.169443 0.500000
O O14 0.882415 0.241347 0.500000
O O15 0.971470 0.276901 0.376560
O O16 0.000000 0.500000 0.632725
O O17 0.000000 0.627947 0.750000
#
# Coordination Sequence:
#
# PCOD8203196 Si02
#       7
#     8   8   8   8   8   8   8
#     4  11  22  35  56  79 113 152 180 226 288 339
#     4  10  19  37  54  79 111 146 188 228 281 336
#     4   9  18  34  59  82 106 145 190 232 272 324
#     4   8  16  34  58  80 107 144 185 227 276 328
#     4  10  21  36  54  82 115 146 183 229 277 332
#     4  10  19  33  58  86 108 140 187 239 279 322
#     4  11  19  37  59  80 111 150 186 226 280 339
#
# _framework density 18.808143999999999
#
# number of rings (size 3 to 8) (size 9 to 14) (size 15 to 20)
#    0.000    2.143    2.857    2.571    0.000    4.857 
#    0.000    6.429    0.000    6.857    0.000    0.000 
#    0.000    0.000    0.000    0.000    0.000    0.000 
#
# Total GULP energy -694111.898150 kJ/mol
# GULP energy per Si atom -12394.855324 kJ/mol
# Density = 1.876534 g / cm^3
# Si number density = 18.808144 Si / 1000 Ang^3
#
#
#
# Elastic Constant Matrix: (Units=GPa)
#
#
# Indices 1 2 3 4 5 6 
#
# 1 87.5281 52.5850 35.0997 0.0000 0.0000 0.0000
# 2 52.5850 98.7729 31.6009 0.0000 0.0000 0.0000
# 3 35.0997 31.6009 37.5444 0.0000 0.0000 0.0000
# 4 0.0000 0.0000 0.0000 19.5240 0.0000 0.0000
# 5 0.0000 0.0000 0.0000 0.0000 26.9189 0.0000
# 6 0.0000 0.0000 0.0000 0.0000 0.0000 -17.8571
#
#
#
# Elastic Compliance Matrix: (Units=1/GPa)
#
#
# Indices 1 2 3 4 5 6 
#
# 1 0.021116 -0.006741 -0.014067 0.000000 0.000000 0.000000
# 2 -0.006741 0.016007 -0.007171 0.000000 0.000000 0.000000
# 3 -0.014067 -0.007171 0.045822 0.000000 0.000000 0.000000
# 4 0.000000 0.000000 0.000000 0.051219 0.000000 0.000000
# 5 0.000000 0.000000 0.000000 0.000000 0.037149 0.000000
# 6 0.000000 0.000000 0.000000 0.000000 0.000000 -0.056000
#
#
# Mechanical properties :
#
#
# Convention : Reuss Voigt Hill
#
# Bulk Modulus (GPa) = 37.05508 51.37960 44.21734
# Shear Modulus (GPa) = 27.73676 12.68784 20.21230
#
# Velocity S-wave (km/s) = 3.84438 2.60011 3.28175
# Velocity P-wave (km/s) = 6.28092 6.03251 6.15797
#
# Compressibility (1/GPa) = 0.02698685
#
# Stress axis : x y z
#
# Youngs Moduli (GPa) = 47.35780 62.47102 21.82367
#
# Poissons Ratio (x) = 0.42113 0.30699
# Poissons Ratio (y) = 0.31925 0.15650
# Poissons Ratio (z) = 0.66617 0.44798
#
# Static dielectric constant tensor:
#      x y z
#    x 3.806670 0.000000 0.000000 
#    y 0.000000 3.683550 0.000000 
#    z 0.000000 0.000000 3.345060 
# 
# 
# High freq. dielectric constant tensor:
#      x y z
#    x 1.730340 0.000000 0.000000 
#    y 0.000000 1.727600 0.000000 
#    z 0.000000 0.000000 1.710430 
# 
# From -- ./inp_files/13605.got.cif
#   From: 2010.03.12/outbox.cif.g09.slc.cpg/sg49_7_cif.got.tgz:13605.got - 2010.04.14 03:58:27.
