data_PCOD8203504
_publ_section_title
;
Structure prediction by ZEFSAII (Michael W. Deem and Ramdas Pophale) SiO2 
 PCOD8203504
Probable space group: P C C M
;
_chemical_formula_sum "Si O2"
_cell_formula_units_Z 64
_cell_length_a 8.912610
_cell_length_b 16.962631
_cell_length_c 25.082355
_cell_angle_alpha 90.000000
_cell_angle_beta 90.000000
_cell_angle_gamma 90.000000
_cell_volume 3791.983404
_symmetry_space_group_name_H-M "P C C M"
_symmetry_group_IT_number 49
_symmetry_cell_setting 'orthorhombic'
loop_
_space_group_symop_operation_xyz
x,y,z
-x,-y,z
x,-y,1/2-z
-x,y,1/2-z
-x,-y,-z
x,y,-z
-x,y,1/2+z
x,-y,1/2+z
loop_
_atom_site_type_symbol
_atom_site_label
_atom_site_fract_x
_atom_site_fract_y
_atom_site_fract_z
Si Si1 0.884942 0.885985 0.439686
Si Si2 0.274272 0.802669 0.151869
Si Si3 0.554591 0.910821 0.853337
Si Si4 0.219319 0.057609 0.059162
Si Si5 0.160078 0.357592 0.320473
Si Si6 0.664193 0.191765 0.732764
Si Si7 0.173104 0.662559 0.695200
Si Si8 0.667692 0.508798 0.813375
O O1 0.848110 0.854951 0.500000
O O2 0.847989 0.825607 0.392424
O O3 0.059641 0.902070 0.435030
O O4 0.790945 0.964936 0.428025
O O5 0.429355 0.844184 0.135654
O O6 0.272174 0.707271 0.153448
O O7 0.238088 0.827626 0.213748
O O8 0.665371 0.900413 0.902332
O O9 0.641099 0.890206 0.798576
O O10 0.500000 0.000000 0.848037
O O11 0.282658 0.069442 0.000000
O O12 0.161101 0.356615 0.257103
O O13 0.221243 0.442826 0.339052
O O14 0.986692 0.339171 0.335842
O O15 0.500000 0.226696 0.750000
O O16 0.746881 0.252023 0.692205
O O17 0.274044 0.594572 0.668405
O O18 0.500000 0.500000 0.836448
O O19 0.665596 0.500000 0.750000
#
# Coordination Sequence:
#
# PCOD8203504 Si02
#       8
#     8   8   8   8   8   8   8   8
#     4   9  18  35  54  73  95 123 160 218 272 307
#     4  10  20  33  49  70 101 132 168 209 248 299
#     4  11  21  34  49  71  97 137 175 207 251 306
#     4   9  19  35  54  73  95 120 165 219 266 307
#     4   9  18  30  43  69  96 126 168 204 246 292
#     4   9  21  32  47  68 104 138 173 205 252 299
#     4   9  17  30  47  62  93 135 168 205 242 291
#     4   9  17  25  45  67  94 129 165 202 244 295
#
# _framework density 16.877708999999999
#
# number of rings (size 3 to 8) (size 9 to 14) (size 15 to 20)
#    0.000    2.625    1.250    1.125    8.750    4.500 
#    0.000    0.000    0.000    1.500    0.000    0.000 
#    0.000    3.500    0.000    0.000    0.000    0.125 
#
# Total GULP energy -792907.113639 kJ/mol
# GULP energy per Si atom -12389.173651 kJ/mol
# Density = 1.683929 g / cm^3
# Si number density = 16.877709 Si / 1000 Ang^3
#
#
#
# Elastic Constant Matrix: (Units=GPa)
#
#
# Indices 1 2 3 4 5 6 
#
# 1 65.2544 47.1391 60.9548 0.0000 0.0000 0.0000
# 2 47.1391 76.7360 46.5540 0.0000 0.0000 0.0000
# 3 60.9548 46.5540 31.0414 0.0000 0.0000 0.0000
# 4 0.0000 0.0000 0.0000 7.6195 0.0000 0.0000
# 5 0.0000 0.0000 0.0000 0.0000 22.8205 0.0000
# 6 0.0000 0.0000 0.0000 0.0000 0.0000 -11.7974
#
#
#
# Elastic Compliance Matrix: (Units=1/GPa)
#
#
# Indices 1 2 3 4 5 6 
#
# 1 -0.002960 -0.018946 0.034226 0.000000 0.000000 0.000000
# 2 -0.018946 0.023295 0.002268 0.000000 0.000000 0.000000
# 3 0.034226 0.002268 -0.038394 0.000000 0.000000 0.000000
# 4 0.000000 0.000000 0.000000 0.131242 0.000000 0.000000
# 5 0.000000 0.000000 0.000000 0.000000 0.043820 0.000000
# 6 0.000000 0.000000 0.000000 0.000000 0.000000 -0.084765
#
#
# Mechanical properties :
#
#
# Convention : Reuss Voigt Hill
#
# Bulk Modulus (GPa) = 58.69867 53.59195 56.14531
# Shear Modulus (GPa) = 116.76109 4.95413 60.85761
#
# Velocity S-wave (km/s) = 8.32651 1.71513 6.01134
# Velocity P-wave (km/s) = 11.28253 5.97865 9.02883
#
# Compressibility (1/GPa) = 0.01703616
#
# Stress axis : x y z
#
# Youngs Moduli (GPa) = -337.86753 42.92855 -26.04603
#
# Poissons Ratio (x) = 0.81332 0.89145
# Poissons Ratio (y) = -6.40119 0.05906
# Poissons Ratio (z) = 11.56378 -0.09734
#
# Static dielectric constant tensor:
#      x y z
#    x 3.277430 0.000000 0.000000 
#    y 0.000000 3.243590 0.000000 
#    z 0.000000 0.000000 2.904160 
# 
# 
# High freq. dielectric constant tensor:
#      x y z
#    x 1.655730 0.000000 0.000000 
#    y 0.000000 1.642420 0.000000 
#    z 0.000000 0.000000 1.601240 
# 
# From -- ./inp_files/22599.got.cif
#   From: 2010.03.12/outbox.cif.g09.slc.cpg/sg49_12_cif.got.tgz:22599.got - 2010.04.14 03:58:27.
