data_PCOD8203598
_publ_section_title
;
Structure prediction by ZEFSAII (Michael W. Deem and Ramdas Pophale) SiO2 
 PCOD8203598
Probable space group: P C C M
;
_chemical_formula_sum "Si O2"
_cell_formula_units_Z 64
_cell_length_a 24.161236
_cell_length_b 15.598566
_cell_length_c 8.737024
_cell_angle_alpha 90.000000
_cell_angle_beta 90.000000
_cell_angle_gamma 90.000000
_cell_volume 3292.815148
_symmetry_space_group_name_H-M "P C C M"
_symmetry_group_IT_number 49
_symmetry_cell_setting 'orthorhombic'
loop_
_space_group_symop_operation_xyz
x,y,z
-x,-y,z
x,-y,1/2-z
-x,y,1/2-z
-x,-y,-z
x,y,-z
-x,y,1/2+z
x,-y,1/2+z
loop_
_atom_site_type_symbol
_atom_site_label
_atom_site_fract_x
_atom_site_fract_y
_atom_site_fract_z
Si Si1 0.059164 0.090234 0.681869
Si Si2 0.265002 0.247097 0.677009
Si Si3 0.439982 0.084028 0.679353
Si Si4 0.622603 0.763791 0.823211
Si Si5 0.141475 0.239003 0.319775
Si Si6 0.440534 0.590841 0.680251
Si Si7 0.257790 0.418888 0.170022
Si Si8 0.871183 0.582985 0.166902
O O1 0.054803 0.082990 0.500000
O O2 0.102635 0.161876 0.735132
O O3 0.000000 0.116064 0.750000
O O4 0.079617 0.000000 0.750000
O O5 0.275939 0.223847 0.500000
O O6 0.313725 0.212056 0.784519
O O7 0.204233 0.215471 0.733380
O O8 0.267061 0.348160 0.701845
O O9 0.500000 0.088588 0.750000
O O10 0.443278 0.072233 0.500000
O O11 0.411561 0.173077 0.717632
O O12 0.408937 0.000000 0.750000
O O13 0.604720 0.665574 0.783455
O O14 0.611209 0.783911 0.000000
O O15 0.141380 0.250727 0.500000
O O16 0.118140 0.327793 0.253516
O O17 0.420016 0.500000 0.750000
O O18 0.500000 0.617463 0.750000
O O19 0.448121 0.579365 0.500000
O O20 0.286749 0.500000 0.250000
O O21 0.193333 0.435256 0.146124
O O22 0.284054 0.398756 0.000000
O O23 0.898204 0.500000 0.250000
O O24 0.899089 0.590933 0.000000
#
# Coordination Sequence:
#
# PCOD8203598 Si02
#       8
#     8   8   8   8   8   8   8   8
#     4  10  20  36  59  87 115 142 177 224 273 326
#     4  10  20  34  51  73 104 144 184 224 271 325
#     4  11  22  39  63  88 110 135 170 218 273 328
#     4  11  23  38  55  80 112 147 186 229 275 329
#     4   9  19  35  54  77 109 146 184 225 272 324
#     4  10  21  36  56  79 108 144 186 233 282 334
#     4   9  16  27  43  65  94 131 175 222 265 308
#     4   9  16  26  45  72 102 137 178 219 261 309
#
# _framework density 19.436257999999999
#
# number of rings (size 3 to 8) (size 9 to 14) (size 15 to 20)
#    0.000    2.125    0.000    4.875    0.000    8.000 
#    0.000    1.875    0.000    1.875    0.000    2.625 
#    0.000    0.000    0.000    0.000    0.000    0.000 
#
# Total GULP energy -793180.326250 kJ/mol
# GULP energy per Si atom -12393.442598 kJ/mol
# Density = 1.939202 g / cm^3
# Si number density = 19.436258 Si / 1000 Ang^3
#
#
#
# Elastic Constant Matrix: (Units=GPa)
#
#
# Indices 1 2 3 4 5 6 
#
# 1 82.1654 59.4238 36.3127 0.0000 0.0000 0.0000
# 2 59.4238 125.6739 52.2314 0.0000 0.0000 0.0000
# 3 36.3127 52.2314 105.3066 0.0000 0.0000 0.0000
# 4 0.0000 0.0000 0.0000 34.3367 0.0000 0.0000
# 5 0.0000 0.0000 0.0000 0.0000 21.3021 0.0000
# 6 0.0000 0.0000 0.0000 0.0000 0.0000 11.2582
#
#
#
# Elastic Compliance Matrix: (Units=1/GPa)
#
#
# Indices 1 2 3 4 5 6 
#
# 1 0.019065 -0.007914 -0.002649 0.000000 0.000000 0.000000
# 2 -0.007914 0.013308 -0.003872 0.000000 0.000000 0.000000
# 3 -0.002649 -0.003872 0.012330 0.000000 0.000000 0.000000
# 4 0.000000 0.000000 0.000000 0.029123 0.000000 0.000000
# 5 0.000000 0.000000 0.000000 0.000000 0.046944 0.000000
# 6 0.000000 0.000000 0.000000 0.000000 0.000000 0.088824
#
#
# Mechanical properties :
#
#
# Convention : Reuss Voigt Hill
#
# Bulk Modulus (GPa) = 63.15602 67.67577 65.41589
# Shear Modulus (GPa) = 20.51360 24.39128 22.45244
#
# Velocity S-wave (km/s) = 3.25226 3.54635 3.40249
# Velocity P-wave (km/s) = 6.83135 7.18775 7.01182
#
# Compressibility (1/GPa) = 0.01583380
#
# Stress axis : x y z
#
# Youngs Moduli (GPa) = 52.45344 75.14169 81.10328
#
# Poissons Ratio (x) = 0.59464 0.21483
# Poissons Ratio (y) = 0.41509 0.31403
# Poissons Ratio (z) = 0.13894 0.29094
#
# Static dielectric constant tensor:
#      x y z
#    x 3.737460 0.000000 0.000000 
#    y 0.000000 4.051660 0.000000 
#    z 0.000000 0.000000 3.724900 
# 
# 
# High freq. dielectric constant tensor:
#      x y z
#    x 1.730050 0.000000 0.000000 
#    y 0.000000 1.751820 0.000000 
#    z 0.000000 0.000000 1.770370 
# 
# From -- ./inp_files/6516.got.cif
#   From: 2010.03.12/outbox.cif.g09.slc.cpg/sg49_4_cif.got.tgz:6516.got - 2010.04.14 03:58:27.
