data_PCOD8203858
_publ_section_title
;
Structure prediction by ZEFSAII (Michael W. Deem and Ramdas Pophale) SiO2 
 PCOD8203858
Probable space group: P C C M
;
_chemical_formula_sum "Si O2"
_cell_formula_units_Z 64
_cell_length_a 12.361922
_cell_length_b 8.570073
_cell_length_c 29.971447
_cell_angle_alpha 90.000000
_cell_angle_beta 90.000000
_cell_angle_gamma 90.000000
_cell_volume 3175.252240
_symmetry_space_group_name_H-M "P C C M"
_symmetry_group_IT_number 49
_symmetry_cell_setting 'orthorhombic'
loop_
_space_group_symop_operation_xyz
x,y,z
-x,-y,z
x,-y,1/2-z
-x,y,1/2-z
-x,-y,-z
x,y,-z
-x,y,1/2+z
x,-y,1/2+z
loop_
_atom_site_type_symbol
_atom_site_label
_atom_site_fract_x
_atom_site_fract_y
_atom_site_fract_z
Si Si1 0.464517 0.168276 0.801543
Si Si2 0.014400 0.183619 0.798044
Si Si3 0.388350 0.660735 0.132504
Si Si4 0.293108 0.619154 0.412089
Si Si5 0.228303 0.151810 0.841516
Si Si6 0.108553 0.597377 0.948216
Si Si7 0.497032 0.314297 0.952552
Si Si8 0.836277 0.804195 0.367276
O O1 0.500000 0.189312 0.750000
O O2 0.524985 0.305389 0.828643
O O3 0.336317 0.165747 0.811418
O O4 0.500000 0.000000 0.819651
O O5 0.136859 0.221763 0.810136
O O6 0.000000 0.263963 0.750000
O O7 0.929484 0.251708 0.833485
O O8 0.000000 0.000000 0.794736
O O9 0.375743 0.477049 0.120973
O O10 0.425384 0.749926 0.086759
O O11 0.271084 0.715691 0.147831
O O12 0.223876 0.737898 0.383955
O O13 0.214336 0.509322 0.440601
O O14 0.370821 0.724700 0.443244
O O15 0.193311 0.985434 0.862061
O O16 0.122265 0.751088 0.916713
O O17 0.000000 0.500000 0.936425
O O18 0.105912 0.651046 0.000000
O O19 0.500000 0.500000 0.956086
O O20 0.532608 0.238856 0.000000
#
# Coordination Sequence:
#
# PCOD8203858 Si02
#       8
#     8   8   8   8   8   8   8   8
#     4  11  23  36  60  88 120 161 209 252 310 379
#     4   9  20  35  59  86 112 149 200 246 297 368
#     4  10  20  36  56  84 119 157 198 248 301 367
#     4  10  20  35  60  83 121 159 199 248 312 371
#     4  11  21  37  60  88 122 159 198 257 314 366
#     4  10  21  39  63  88 117 162 212 251 306 381
#     4   9  17  31  54  81 110 149 195 237 290 361
#     4  10  21  37  61  85 121 155 199 253 307 358
#
# _framework density 20.155878000000001
#
# number of rings (size 3 to 8) (size 9 to 14) (size 15 to 20)
#    0.000    2.000    2.500    1.125    1.750    4.000 
#    0.000    2.500    0.000   10.875    0.000    0.000 
#    0.000    0.000    0.000    0.000    0.000    0.000 
#
# Total GULP energy -792870.872958 kJ/mol
# GULP energy per Si atom -12388.607390 kJ/mol
# Density = 2.011000 g / cm^3
# Si number density = 20.155878 Si / 1000 Ang^3
#
#
#
# Elastic Constant Matrix: (Units=GPa)
#
#
# Indices 1 2 3 4 5 6 
#
# 1 152.8972 20.7201 67.0505 0.0000 0.0000 0.0000
# 2 20.7201 39.1843 36.8470 0.0000 0.0000 0.0000
# 3 67.0505 36.8470 146.0856 0.0000 0.0000 0.0000
# 4 0.0000 0.0000 0.0000 20.3426 0.0000 0.0000
# 5 0.0000 0.0000 0.0000 0.0000 32.9433 0.0000
# 6 0.0000 0.0000 0.0000 0.0000 0.0000 29.2244
#
#
#
# Elastic Compliance Matrix: (Units=1/GPa)
#
#
# Indices 1 2 3 4 5 6 
#
# 1 0.008221 -0.001047 -0.003509 0.000000 0.000000 0.000000
# 2 -0.001047 0.033589 -0.007991 0.000000 0.000000 0.000000
# 3 -0.003509 -0.007991 0.010472 0.000000 0.000000 0.000000
# 4 0.000000 0.000000 0.000000 0.049158 0.000000 0.000000
# 5 0.000000 0.000000 0.000000 0.000000 0.030355 0.000000
# 6 0.000000 0.000000 0.000000 0.000000 0.000000 0.034218
#
#
# Mechanical properties :
#
#
# Convention : Reuss Voigt Hill
#
# Bulk Modulus (GPa) = 36.78385 65.26694 51.02539
# Shear Modulus (GPa) = 24.97868 30.73868 27.85868
#
# Velocity S-wave (km/s) = 3.52415 3.90942 3.72178
# Velocity P-wave (km/s) = 5.90329 7.26839 6.62112
#
# Compressibility (1/GPa) = 0.02718585
#
# Stress axis : x y z
#
# Youngs Moduli (GPa) = 121.63714 29.77172 95.49642
#
# Poissons Ratio (x) = 0.03118 0.33511
# Poissons Ratio (y) = 0.12740 0.76315
# Poissons Ratio (z) = 0.42685 0.23792
#
# Static dielectric constant tensor:
#      x y z
#    x 3.804200 0.000000 0.000000 
#    y 0.000000 3.318550 0.000000 
#    z 0.000000 0.000000 4.010890 
# 
# 
# High freq. dielectric constant tensor:
#      x y z
#    x 1.810960 0.000000 0.000000 
#    y 0.000000 1.746610 0.000000 
#    z 0.000000 0.000000 1.789270 
# 
# From -- ./inp_files/26694.got.cif
#   From: 2010.03.12/outbox.cif.g09.slc.cpg/sg49_14_cif.got.tgz:26694.got - 2010.04.14 03:58:27.
