data_PCOD8203979
_publ_section_title
;
Structure prediction by ZEFSAII (Michael W. Deem and Ramdas Pophale) SiO2 
 PCOD8203979
Probable space group: P C C M
;
_chemical_formula_sum "Si O2"
_cell_formula_units_Z 48
_cell_length_a 18.624338
_cell_length_b 15.280204
_cell_length_c 8.640124
_cell_angle_alpha 90.000000
_cell_angle_beta 90.000000
_cell_angle_gamma 90.000000
_cell_volume 2458.838318
_symmetry_space_group_name_H-M "P C C M"
_symmetry_group_IT_number 49
_symmetry_cell_setting 'orthorhombic'
loop_
_space_group_symop_operation_xyz
x,y,z
-x,-y,z
x,-y,1/2-z
-x,y,1/2-z
-x,-y,-z
x,y,-z
-x,y,1/2+z
x,-y,1/2+z
loop_
_atom_site_type_symbol
_atom_site_label
_atom_site_fract_x
_atom_site_fract_y
_atom_site_fract_z
Si Si1 0.077442 0.761427 0.817073
Si Si2 0.680555 0.409303 0.817394
Si Si3 0.656475 0.094287 0.316204
Si Si4 0.423400 0.744883 0.815842
Si Si5 0.809938 0.906695 0.316214
Si Si6 0.156758 0.590611 0.816681
O O1 0.130764 0.837567 0.761962
O O2 0.107260 0.669069 0.753157
O O3 0.000000 0.781885 0.750000
O O4 0.072666 0.759206 0.000000
O O5 0.649704 0.500000 0.750000
O O6 0.632479 0.328881 0.759078
O O7 0.761861 0.393814 0.757823
O O8 0.678125 0.415985 0.000000
O O9 0.658127 0.089844 0.500000
O O10 0.597684 0.162794 0.258617
O O11 0.734086 0.123464 0.253203
O O12 0.634608 0.000000 0.250000
O O13 0.500000 0.716374 0.750000
O O14 0.425202 0.753508 0.000000
O O15 0.802117 0.911622 0.500000
O O16 0.833988 0.000000 0.250000
O O17 0.125706 0.500000 0.750000
O O18 0.154689 0.586951 0.000000
#
# Coordination Sequence:
#
# PCOD8203979 Si02
#       6
#     8   8   8   8   8   8
#     4  10  22  37  54  77 111 148 183 223 274 328
#     4   9  19  36  59  82 109 143 184 231 278 327
#     4  11  22  38  61  87 112 144 185 230 277 331
#     4  11  23  39  57  82 116 152 187 229 277 329
#     4  10  20  37  59  83 110 143 182 228 275 325
#     4   9  18  35  56  79 104 138 180 225 273 322
#
# _framework density 19.521414
#
# number of rings (size 3 to 8) (size 9 to 14) (size 15 to 20)
#    0.000    2.000    0.000    4.500    0.000    7.333 
#    0.000   10.000    0.000    0.000    0.000    0.000 
#    0.000    0.000    0.000    0.000    0.000    0.000 
#
# Total GULP energy -595368.183667 kJ/mol
# GULP energy per Si atom -12403.503826 kJ/mol
# Density = 1.947698 g / cm^3
# Si number density = 19.521414 Si / 1000 Ang^3
#
#
#
# Elastic Constant Matrix: (Units=GPa)
#
#
# Indices 1 2 3 4 5 6 
#
# 1 61.4695 30.0663 17.5938 0.0000 0.0000 0.0000
# 2 30.0663 94.8328 25.4924 0.0000 0.0000 0.0000
# 3 17.5938 25.4924 67.1131 0.0000 0.0000 0.0000
# 4 0.0000 0.0000 0.0000 29.6557 0.0000 0.0000
# 5 0.0000 0.0000 0.0000 0.0000 31.9547 0.0000
# 6 0.0000 0.0000 0.0000 0.0000 0.0000 20.7840
#
#
#
# Elastic Compliance Matrix: (Units=1/GPa)
#
#
# Indices 1 2 3 4 5 6 
#
# 1 0.019827 -0.005445 -0.003130 0.000000 0.000000 0.000000
# 2 -0.005445 0.013239 -0.003601 0.000000 0.000000 0.000000
# 3 -0.003130 -0.003601 0.017089 0.000000 0.000000 0.000000
# 4 0.000000 0.000000 0.000000 0.033720 0.000000 0.000000
# 5 0.000000 0.000000 0.000000 0.000000 0.031294 0.000000
# 6 0.000000 0.000000 0.000000 0.000000 0.000000 0.048114
#
#
# Mechanical properties :
#
#
# Convention : Reuss Voigt Hill
#
# Bulk Modulus (GPa) = 38.75462 41.08004 39.91733
# Shear Modulus (GPa) = 25.47944 26.49638 25.98791
#
# Velocity S-wave (km/s) = 3.61668 3.68815 3.65259
# Velocity P-wave (km/s) = 6.11032 6.26306 6.18716
#
# Compressibility (1/GPa) = 0.02580338
#
# Stress axis : x y z
#
# Youngs Moduli (GPa) = 50.43576 75.53282 58.51849
#
# Poissons Ratio (x) = 0.41127 0.18313
# Poissons Ratio (y) = 0.27462 0.21075
# Poissons Ratio (z) = 0.15784 0.27203
#
# Static dielectric constant tensor:
#      x y z
#    x 3.691600 0.000000 0.000000 
#    y 0.000000 3.779670 0.000000 
#    z 0.000000 0.000000 3.471450 
# 
# 
# High freq. dielectric constant tensor:
#      x y z
#    x 1.756060 0.000000 0.000000 
#    y 0.000000 1.773730 0.000000 
#    z 0.000000 0.000000 1.758570 
# 
# From -- ./inp_files/3687.got.cif
#   From: 2010.03.12/outbox.cif.g09.slc.cpg/sg49_2_cif.got.tgz:3687.got - 2010.04.14 03:58:27.
