data_PCOD8204749
_publ_section_title
;
Structure prediction by ZEFSAII (Michael W. Deem and Ramdas Pophale) SiO2 
 PCOD8204749
Probable space group: P B A N
;
_chemical_formula_sum "Si O2"
_cell_formula_units_Z 38
_cell_length_a 5.134247
_cell_length_b 19.101726
_cell_length_c 19.012896
_cell_angle_alpha 90.000000
_cell_angle_beta 90.000000
_cell_angle_gamma 90.000000
_cell_volume 1864.651358
_symmetry_space_group_name_H-M "P B A N"
_symmetry_group_IT_number 50
_space_group.IT_coordinate_system_code '2'
_symmetry_cell_setting 'orthorhombic'
loop_
_space_group_symop_operation_xyz
x,y,z
1/2-x,1/2-y,z
x,1/2-y,-z
1/2-x,y,-z
-x,-y,-z
1/2+x,1/2+y,-z
-x,1/2+y,z
1/2+x,-y,z
loop_
_atom_site_type_symbol
_atom_site_label
_atom_site_fract_x
_atom_site_fract_y
_atom_site_fract_z
Si Si1 0.750000 0.750000 0.500000
Si Si2 0.250000 0.045519 0.500000
Si Si3 0.002228 0.922647 0.031708
Si Si4 0.848606 0.653248 0.385935
Si Si5 0.539850 0.047160 0.194318
Si Si6 0.155879 0.826765 0.297476
O O1 0.936878 0.704524 0.449473
O O2 0.244828 0.084981 0.574698
O O3 0.500000 0.000000 0.500000
O O4 0.023137 0.926489 0.114868
O O5 0.750000 0.882776 0.000000
O O6 0.250000 0.881457 0.000000
O O7 0.000000 0.000000 0.000000
O O8 0.602112 0.685862 0.343929
O O9 0.102269 0.638445 0.339007
O O10 0.573357 0.118879 0.237169
O O11 0.272847 0.006576 0.211573
O O12 0.250000 0.750000 0.268973
#
# Coordination Sequence:
#
# PCOD8204749 Si02
#       6
#     2   4   8   8   8   8
#     4  10  20  42  68  86 100 148 242 248 296 352
#     4  11  24  41  62  93 124 151 200 272 338 367
#     4  10  16  32  58  88 124 151 209 263 284 351
#     4  11  24  41  66  86 114 167 212 264 305 391
#     4  12  23  37  62  97 124 170 212 261 320 381
#     4  12  25  43  60  91 134 169 208 263 326 392
#
# _framework density 20.379145999999999
#
# number of rings (size 3 to 8) (size 9 to 14) (size 15 to 20)
#    0.000    0.842    6.316    2.526    0.000    8.421 
#    0.000    0.000    0.000    0.632    0.000    2.947 
#    0.000    0.000    0.000    0.000    0.000    0.000 
#
# Total GULP energy -470792.792643 kJ/mol
# GULP energy per Si atom -12389.284017 kJ/mol
# Density = 2.033276 g / cm^3
# Si number density = 20.379146 Si / 1000 Ang^3
#
#
#
# Elastic Constant Matrix: (Units=GPa)
#
#
# Indices 1 2 3 4 5 6 
#
# 1 175.1293 42.8260 52.9892 0.0000 0.0000 0.0000
# 2 42.8260 104.7100 63.0665 0.0000 0.0000 0.0000
# 3 52.9892 63.0665 132.8088 0.0000 0.0000 0.0000
# 4 0.0000 0.0000 0.0000 24.5818 0.0000 0.0000
# 5 0.0000 0.0000 0.0000 0.0000 33.5209 0.0000
# 6 0.0000 0.0000 0.0000 0.0000 0.0000 23.8671
#
#
#
# Elastic Compliance Matrix: (Units=1/GPa)
#
#
# Indices 1 2 3 4 5 6 
#
# 1 0.006675 -0.001577 -0.001914 0.000000 0.000000 0.000000
# 2 -0.001577 0.013748 -0.005899 0.000000 0.000000 0.000000
# 3 -0.001914 -0.005899 0.011095 0.000000 0.000000 0.000000
# 4 0.000000 0.000000 0.000000 0.040681 0.000000 0.000000
# 5 0.000000 0.000000 0.000000 0.000000 0.029832 0.000000
# 6 0.000000 0.000000 0.000000 0.000000 0.000000 0.041899
#
#
# Mechanical properties :
#
#
# Convention : Reuss Voigt Hill
#
# Bulk Modulus (GPa) = 78.51398 81.15682 79.83540
# Shear Modulus (GPa) = 29.94789 33.31173 31.62981
#
# Velocity S-wave (km/s) = 3.83761 4.04740 3.94390
# Velocity P-wave (km/s) = 7.63195 7.85824 7.74592
#
# Compressibility (1/GPa) = 0.01273659
#
# Stress axis : x y z
#
# Youngs Moduli (GPa) = 149.81414 72.73579 90.13170
#
# Poissons Ratio (x) = 0.11471 0.17254
# Poissons Ratio (y) = 0.23626 0.53173
# Poissons Ratio (z) = 0.28680 0.42910
#
# Static dielectric constant tensor:
#      x y z
#    x 3.633630 0.000000 0.000000 
#    y 0.000000 3.490370 0.000000 
#    z 0.000000 0.000000 4.245730 
# 
# 
# High freq. dielectric constant tensor:
#      x y z
#    x 1.819870 0.000000 0.000000 
#    y 0.000000 1.768460 0.000000 
#    z 0.000000 0.000000 1.798120 
# 
# From -- ./inp_files/28087.got.cif
#   From: 2010.03.12/outbox.cif.g09.slc.cpg/sg50_15_cif.got.tgz:28087.got - 2010.04.16 13:23:21.
