data_PCOD8204526
_publ_section_title
;
Structure prediction by ZEFSAII (Michael W. Deem and Ramdas Pophale) SiO2 
 PCOD8204526
Probable space group: P C C M
;
_chemical_formula_sum "Si O2"
_cell_formula_units_Z 64
_cell_length_a 12.092537
_cell_length_b 16.462760
_cell_length_c 15.070746
_cell_angle_alpha 90.000000
_cell_angle_beta 90.000000
_cell_angle_gamma 90.000000
_cell_volume 3000.231885
_symmetry_space_group_name_H-M "P C C M"
_symmetry_group_IT_number 49
_symmetry_cell_setting 'orthorhombic'
loop_
_space_group_symop_operation_xyz
x,y,z
-x,-y,z
x,-y,1/2-z
-x,y,1/2-z
-x,-y,-z
x,y,-z
-x,y,1/2+z
x,-y,1/2+z
loop_
_atom_site_type_symbol
_atom_site_label
_atom_site_fract_x
_atom_site_fract_y
_atom_site_fract_z
Si Si1 0.273343 0.826456 0.899096
Si Si2 0.170231 0.304091 0.103587
Si Si3 0.085460 0.708612 0.898480
Si Si4 0.336058 0.169227 0.900125
Si Si5 0.792713 0.411597 0.769884
Si Si6 0.375512 0.996119 0.853400
Si Si7 0.588072 0.432400 0.901418
Si Si8 0.468485 0.729080 0.841821
O O1 0.147088 0.795965 0.882211
O O2 0.346821 0.768558 0.837138
O O3 0.297640 0.920637 0.879713
O O4 0.308668 0.809487 0.000000
O O5 0.230838 0.220867 0.129932
O O6 0.218953 0.370917 0.171899
O O7 0.043296 0.281936 0.120933
O O8 0.189740 0.330878 0.000000
O O9 0.126239 0.639087 0.832322
O O10 0.106949 0.680287 0.000000
O O11 0.308626 0.075042 0.885134
O O12 0.448328 0.195698 0.852270
O O13 0.362674 0.189105 0.000000
O O14 0.844471 0.500000 0.750000
O O15 0.678096 0.423870 0.823298
O O16 0.500000 0.000000 0.896233
O O17 0.389794 0.000000 0.750000
O O18 0.500000 0.500000 0.872868
O O19 0.526648 0.344801 0.911599
O O20 0.637336 0.452628 0.000000
O O21 0.500000 0.686239 0.750000
#
# Coordination Sequence:
#
# PCOD8204526 Si02
#       8
#     8   8   8   8   8   8   8   8
#     4  11  22  39  66  96 126 173 225 276 335 401
#     4  10  25  47  69  98 133 177 229 283 341 400
#     4  10  23  46  73  98 130 173 230 287 336 402
#     4  11  23  39  62  91 129 171 214 268 331 399
#     4  12  26  43  70 100 132 173 226 276 342 400
#     4  11  23  37  58  93 133 171 214 269 333 405
#     4  11  26  43  64  98 140 180 223 276 339 410
#     4  12  23  37  63  92 129 174 222 270 337 403
#
# _framework density 21.331683000000002
#
# number of rings (size 3 to 8) (size 9 to 14) (size 15 to 20)
#    0.000    1.000    2.500    3.750    5.250    2.500 
#    0.000    1.875    0.000    4.125    0.000    0.000 
#    0.000    0.000    0.000    0.000    0.000    0.000 
#
# Total GULP energy -793139.211513 kJ/mol
# GULP energy per Si atom -12392.800180 kJ/mol
# Density = 2.128313 g / cm^3
# Si number density = 21.331683 Si / 1000 Ang^3
#
#
#
# Elastic Constant Matrix: (Units=GPa)
#
#
# Indices 1 2 3 4 5 6 
#
# 1 114.5700 57.6161 52.7360 0.0000 0.0000 0.0000
# 2 57.6161 165.8834 38.3851 0.0000 0.0000 0.0000
# 3 52.7360 38.3851 92.5139 0.0000 0.0000 0.0000
# 4 0.0000 0.0000 0.0000 47.6795 0.0000 0.0000
# 5 0.0000 0.0000 0.0000 0.0000 29.0403 0.0000
# 6 0.0000 0.0000 0.0000 0.0000 0.0000 23.1055
#
#
#
# Elastic Compliance Matrix: (Units=1/GPa)
#
#
# Indices 1 2 3 4 5 6 
#
# 1 0.013159 -0.003136 -0.006200 0.000000 0.000000 0.000000
# 2 -0.003136 0.007416 -0.001289 0.000000 0.000000 0.000000
# 3 -0.006200 -0.001289 0.014878 0.000000 0.000000 0.000000
# 4 0.000000 0.000000 0.000000 0.020973 0.000000 0.000000
# 5 0.000000 0.000000 0.000000 0.000000 0.034435 0.000000
# 6 0.000000 0.000000 0.000000 0.000000 0.000000 0.043280
#
#
# Mechanical properties :
#
#
# Convention : Reuss Voigt Hill
#
# Bulk Modulus (GPa) = 70.40854 74.49351 72.45103
# Shear Modulus (GPa) = 31.22534 34.91372 33.06953
#
# Velocity S-wave (km/s) = 3.83012 4.05001 3.94160
# Velocity P-wave (km/s) = 7.25520 7.54105 7.39951
#
# Compressibility (1/GPa) = 0.01420282
#
# Stress axis : x y z
#
# Youngs Moduli (GPa) = 75.99281 134.84594 67.21155
#
# Poissons Ratio (x) = 0.42286 0.41671
# Poissons Ratio (y) = 0.23830 0.08666
# Poissons Ratio (z) = 0.47116 0.17387
#
# Static dielectric constant tensor:
#      x y z
#    x 3.791060 0.000000 0.000000 
#    y 0.000000 3.716920 0.000000 
#    z 0.000000 0.000000 4.086710 
# 
# 
# High freq. dielectric constant tensor:
#      x y z
#    x 1.817420 0.000000 0.000000 
#    y 0.000000 1.838940 0.000000 
#    z 0.000000 0.000000 1.856430 
# 
# From -- ./inp_files/13108.got.cif
#   From: 2010.03.12/outbox.cif.g09.slc.cpg/sg49_7_cif.got.tgz:13108.got - 2010.04.14 03:58:27.
