data_PCOD8204729
_publ_section_title
;
Structure prediction by ZEFSAII (Michael W. Deem and Ramdas Pophale) SiO2 
 PCOD8204729
Probable space group: P B A N
;
_chemical_formula_sum "Si O2"
_cell_formula_units_Z 64
_cell_length_a 5.347452
_cell_length_b 24.584973
_cell_length_c 25.488932
_cell_angle_alpha 90.000000
_cell_angle_beta 90.000000
_cell_angle_gamma 90.000000
_cell_volume 3350.952481
_symmetry_space_group_name_H-M "P B A N"
_symmetry_group_IT_number 50
_space_group.IT_coordinate_system_code '2'
_symmetry_cell_setting 'orthorhombic'
loop_
_space_group_symop_operation_xyz
x,y,z
1/2-x,1/2-y,z
x,1/2-y,-z
1/2-x,y,-z
-x,-y,-z
1/2+x,1/2+y,-z
-x,1/2+y,z
1/2+x,-y,z
loop_
_atom_site_type_symbol
_atom_site_label
_atom_site_fract_x
_atom_site_fract_y
_atom_site_fract_z
Si Si1 0.999997 0.478566 0.773676
Si Si2 0.500000 0.310826 0.646202
Si Si3 0.500000 0.646287 0.801091
Si Si4 1.000000 0.810776 0.021872
Si Si5 0.500000 0.810979 0.310023
Si Si6 0.000000 0.147679 0.867659
Si Si7 0.000004 0.024135 0.890756
Si Si8 0.500000 0.189205 0.478083
O O1 0.749996 0.499999 0.743803
O O2 0.000001 0.413993 0.777562
O O3 0.999992 0.506875 0.830287
O O4 0.500000 0.250390 0.669601
O O5 0.750411 0.340836 0.667477
O O6 0.500000 0.309658 0.584065
O O7 0.249589 0.340836 0.667477
O O8 0.500000 0.688314 0.752952
O O9 0.749950 0.656815 0.834165
O O10 0.250049 0.656815 0.834164
O O11 0.000000 0.809190 0.085037
O O12 0.999999 0.750000 0.000000
O O13 0.750000 0.840832 0.000000
O O14 0.250000 0.840832 0.000000
O O15 0.000001 0.088812 0.894775
O O16 0.250005 0.000001 0.918342
O O17 0.500001 0.250000 0.500000
O O18 0.250000 0.159273 0.500000
O O19 0.750000 0.159273 0.500000
#
# Coordination Sequence:
#
# PCOD8204729 Si02
#       8
#     8   8   8   8   8   8   8   8
#     4  10  16  30  48  74 107 124 149 202 238 283
#     4  10  19  35  44  59 102 147 163 208 267 279
#     4  12  21  32  52  86  98 127 176 197 231 297
#     4  10  23  45  62  76  99 132 164 200 260 304
#     4  10  20  32  46  64 102 140 164 197 242 310
#     4  12  21  35  60  80  99 126 162 216 234 293
#     4  10  16  30  51  81 102 124 144 192 255 287
#     4  10  16  25  46  69  80 113 186 228 242 293
#
# _framework density 19.099048
#
# number of rings (size 3 to 8) (size 9 to 14) (size 15 to 20)
#    0.000    1.500    5.000    5.250    0.000    0.000 
#    0.000   15.000    0.000    2.250    0.000    0.000 
#    0.000    0.000    0.000    0.000    0.000  152.500 
#
# Total GULP energy -793100.309121 kJ/mol
# GULP energy per Si atom -12392.192330 kJ/mol
# Density = 1.905558 g / cm^3
# Si number density = 19.099048 Si / 1000 Ang^3
#
#
#
# Elastic Constant Matrix: (Units=GPa)
#
#
# Indices 1 2 3 4 5 6 
#
# 1 257.2138 15.1933 79.1448 0.0000 0.0000 0.0000
# 2 15.1933 38.1783 32.0966 0.0000 0.0000 0.0000
# 3 79.1448 32.0966 133.8081 0.0000 0.0000 0.0000
# 4 0.0000 0.0000 0.0000 3.4173 0.0000 0.0000
# 5 0.0000 0.0000 0.0000 0.0000 22.7470 0.0000
# 6 0.0000 0.0000 0.0000 0.0000 0.0000 8.1807
#
#
#
# Elastic Compliance Matrix: (Units=1/GPa)
#
#
# Indices 1 2 3 4 5 6 
#
# 1 0.004763 0.000593 -0.002960 0.000000 0.000000 0.000000
# 2 0.000593 0.032883 -0.008238 0.000000 0.000000 0.000000
# 3 -0.002960 -0.008238 0.011200 0.000000 0.000000 0.000000
# 4 0.000000 0.000000 0.000000 0.292631 0.000000 0.000000
# 5 0.000000 0.000000 0.000000 0.000000 0.043962 0.000000
# 6 0.000000 0.000000 0.000000 0.000000 0.000000 0.122238
#
#
# Mechanical properties :
#
#
# Convention : Reuss Voigt Hill
#
# Bulk Modulus (GPa) = 36.18468 75.78550 55.98509
# Shear Modulus (GPa) = 9.29195 27.05337 18.17266
#
# Velocity S-wave (km/s) = 2.20810 3.76769 3.08798
# Velocity P-wave (km/s) = 5.04855 7.66119 6.48774
#
# Compressibility (1/GPa) = 0.02763601
#
# Stress axis : x y z
#
# Youngs Moduli (GPa) = 209.92972 30.41090 89.28541
#
# Poissons Ratio (x) = -0.01802 0.26425
# Poissons Ratio (y) = -0.12439 0.73554
# Poissons Ratio (z) = 0.62132 0.25053
#
# Static dielectric constant tensor:
#      x y z
#    x -10.576040 0.000000 0.000000 
#    y 0.000000 2.991970 0.000000 
#    z 0.000000 0.000000 3.383300 
# 
# 
# High freq. dielectric constant tensor:
#      x y z
#    x 1.796710 0.000000 0.000000 
#    y 0.000000 1.676570 0.000000 
#    z 0.000000 0.000000 1.710950 
# 
# From -- ./inp_files/30494.got.cif
#   From: 2010.03.12/outbox.cif.g09.slc.cpg/sg50_16_cif.got.tgz:30494.got - 2010.04.16 13:23:21.
