data_PCOD8204145
_publ_section_title
;
Structure prediction by ZEFSAII (Michael W. Deem and Ramdas Pophale) SiO2 
 PCOD8204145
Probable space group: P C C M
;
_chemical_formula_sum "Si O2"
_cell_formula_units_Z 56
_cell_length_a 22.001607
_cell_length_b 9.044387
_cell_length_c 14.558087
_cell_angle_alpha 90.000000
_cell_angle_beta 90.000000
_cell_angle_gamma 90.000000
_cell_volume 2896.928994
_symmetry_space_group_name_H-M "P C C M"
_symmetry_group_IT_number 49
_symmetry_cell_setting 'orthorhombic'
loop_
_space_group_symop_operation_xyz
x,y,z
-x,-y,z
x,-y,1/2-z
-x,y,1/2-z
-x,-y,-z
x,y,-z
-x,y,1/2+z
x,-y,1/2+z
loop_
_atom_site_type_symbol
_atom_site_label
_atom_site_fract_x
_atom_site_fract_y
_atom_site_fract_z
Si Si1 0.815165 0.829117 0.892131
Si Si2 0.405213 0.324537 0.250000
Si Si3 0.815165 0.170883 0.892131
Si Si4 0.933350 0.665712 0.108804
Si Si5 0.066651 0.334289 0.391195
Si Si6 0.732116 0.676012 0.250000
Si Si7 0.500000 0.323985 0.102879
O O1 0.881074 0.775287 0.855444
O O2 0.763228 0.737077 0.841761
O O3 0.808666 1.000000 0.866573
O O4 0.807664 0.799864 0.000000
O O5 0.404968 0.500000 0.250000
O O6 0.336837 0.263702 0.249999
O O7 0.440277 0.268955 0.158347
O O8 0.440276 0.268955 0.341653
O O9 0.881072 0.224716 0.855441
O O10 0.763226 0.262922 0.841762
O O11 0.807664 0.200131 0.000000
O O12 0.919184 0.500001 0.144336
O O13 0.000001 0.716596 0.145390
O O14 0.934347 0.666860 0.000000
O O15 0.065657 0.333133 0.500000
O O16 0.735429 0.500000 0.250000
O O17 0.500000 0.500000 0.097288
O O18 0.500000 0.255760 0.000000
#
# Coordination Sequence:
#
# PCOD8204145 Si02
#       7
#     8   8   8   8   8   8   8
#     4  10  21  36  53  74 103 140 180 221 266 317
#     4   8  16  28  43  71 105 135 168 203 248 304
#     4  10  21  36  53  74 103 140 180 221 266 317
#     4   8  14  27  49  75 101 130 167 215 271 325
#     4   8  14  27  49  75 101 130 167 215 271 325
#     4  11  22  35  53  77 108 143 178 218 259 306
#     4   8  13  25  46  71 103 136 162 198 250 304
#
# _framework density 19.330815999999999
#
# number of rings (size 3 to 8) (size 9 to 14) (size 15 to 20)
#    0.000    3.000    0.000    3.000    0.000    3.429 
#    0.000    6.429    0.000    4.286    0.000    8.000 
#    0.000   13.714    0.000    0.000    0.000    0.000 
#
# Total GULP energy -694067.290240 kJ/mol
# GULP energy per Si atom -12394.058754 kJ/mol
# Density = 1.928682 g / cm^3
# Si number density = 19.330816 Si / 1000 Ang^3
#
#
#
# Elastic Constant Matrix: (Units=GPa)
#
#
# Indices 1 2 3 4 5 6 
#
# 1 190.4388 58.6140 64.7118 0.0000 0.0000 0.0000
# 2 58.6140 77.2051 30.8403 0.0000 0.0000 0.0000
# 3 64.7118 30.8403 110.1649 0.0000 0.0000 0.0000
# 4 0.0000 0.0000 0.0000 18.5079 0.0000 0.0000
# 5 0.0000 0.0000 0.0000 0.0000 30.8471 0.0000
# 6 0.0000 0.0000 0.0000 0.0000 0.0000 3.7543
#
#
#
# Elastic Compliance Matrix: (Units=1/GPa)
#
#
# Indices 1 2 3 4 5 6 
#
# 1 0.007782 -0.004596 -0.003284 0.000000 0.000000 0.000000
# 2 -0.004596 0.017298 -0.002143 0.000000 0.000000 0.000000
# 3 -0.003284 -0.002143 0.011606 0.000000 0.000000 0.000000
# 4 0.000000 0.000000 0.000000 0.054031 0.000000 0.000000
# 5 0.000000 0.000000 0.000000 0.000000 0.032418 0.000000
# 6 0.000000 0.000000 0.000000 0.000000 0.000000 0.266361
#
#
# Mechanical properties :
#
#
# Convention : Reuss Voigt Hill
#
# Bulk Modulus (GPa) = 60.09734 76.23788 68.16761
# Shear Modulus (GPa) = 12.04565 25.53138 18.78851
#
# Velocity S-wave (km/s) = 2.49897 3.63817 3.12099
# Velocity P-wave (km/s) = 6.28354 7.56125 6.95181
#
# Compressibility (1/GPa) = 0.01663967
#
# Stress axis : x y z
#
# Youngs Moduli (GPa) = 128.50841 57.81149 86.15896
#
# Poissons Ratio (x) = 0.26569 0.28298
# Poissons Ratio (y) = 0.59060 0.18462
# Poissons Ratio (z) = 0.42207 0.12388
#
# Static dielectric constant tensor:
#      x y z
#    x 3.918880 0.000000 0.000000 
#    y 0.000000 3.258030 0.000000 
#    z 0.000000 0.000000 3.518960 
# 
# 
# High freq. dielectric constant tensor:
#      x y z
#    x 1.754830 0.000000 0.000000 
#    y 0.000000 1.716100 0.000000 
#    z 0.000000 0.000000 1.753200 
# 
# From -- ./inp_files/14400.got.cif
#   From: 2010.03.12/outbox.cif.g09.slc.cpg/sg49_8_cif.got.tgz:14400.got - 2010.04.14 03:58:27.
