data_PCOD8204176
_publ_section_title
;
Structure prediction by ZEFSAII (Michael W. Deem and Ramdas Pophale) SiO2 
 PCOD8204176
Probable space group: P C C M
;
_chemical_formula_sum "Si O2"
_cell_formula_units_Z 40
_cell_length_a 13.317359
_cell_length_b 8.818711
_cell_length_c 15.555972
_cell_angle_alpha 90.000000
_cell_angle_beta 90.000000
_cell_angle_gamma 90.000000
_cell_volume 1826.923535
_symmetry_space_group_name_H-M "P C C M"
_symmetry_group_IT_number 49
_symmetry_cell_setting 'orthorhombic'
loop_
_space_group_symop_operation_xyz
x,y,z
-x,-y,z
x,-y,1/2-z
-x,y,1/2-z
-x,-y,-z
x,y,-z
-x,y,1/2+z
x,-y,1/2+z
loop_
_atom_site_type_symbol
_atom_site_label
_atom_site_fract_x
_atom_site_fract_y
_atom_site_fract_z
Si Si1 0.328744 0.333421 0.279616
Si Si2 0.857736 0.613832 0.397875
Si Si3 0.070395 0.708768 0.600073
Si Si4 0.408248 0.107265 0.597382
Si Si5 0.238145 0.092923 0.832803
O O1 0.364149 0.500000 0.250000
O O2 0.234914 0.326441 0.344141
O O3 0.414600 0.248014 0.335492
O O4 0.303430 0.240219 0.193490
O O5 0.834553 0.623457 0.500000
O O6 0.877059 0.442987 0.363837
O O7 0.953902 0.717659 0.370327
O O8 0.066959 0.683233 0.500000
O O9 0.134102 0.857618 0.622609
O O10 0.417954 0.167958 0.500000
O O11 0.500000 0.000000 0.622488
O O12 0.304740 0.011672 0.604866
O O13 0.205759 0.000000 0.750000
#
# Coordination Sequence:
#
# PCOD8204176 Si02
#       5
#     8   8   8   8   8
#     4  11  21  37  62  95 125 157 202 260 315 365
#     4   9  18  33  57  87 123 165 207 252 302 354
#     4   9  17  33  56  84 121 169 211 249 298 358
#     4  10  23  45  68  88 120 167 209 253 315 382
#     4  10  21  36  58  89 128 166 206 252 320 372
#
# _framework density 21.894729999999999
#
# number of rings (size 3 to 8) (size 9 to 14) (size 15 to 20)
#    0.000    2.200    2.000    2.400    0.000    4.400 
#    0.000    9.000    0.000   13.200    0.000    0.000 
#    0.000    0.000    0.000    0.000    0.000    0.000 
#
# Total GULP energy -495851.611839 kJ/mol
# GULP energy per Si atom -12396.290296 kJ/mol
# Density = 2.184490 g / cm^3
# Si number density = 21.894730 Si / 1000 Ang^3
#
#
#
# Elastic Constant Matrix: (Units=GPa)
#
#
# Indices 1 2 3 4 5 6 
#
# 1 80.3176 30.6243 19.6984 0.0000 0.0000 0.0000
# 2 30.6243 116.5354 29.0931 0.0000 0.0000 0.0000
# 3 19.6984 29.0931 52.7839 0.0000 0.0000 0.0000
# 4 0.0000 0.0000 0.0000 33.7466 0.0000 0.0000
# 5 0.0000 0.0000 0.0000 0.0000 25.9698 0.0000
# 6 0.0000 0.0000 0.0000 0.0000 0.0000 31.6811
#
#
#
# Elastic Compliance Matrix: (Units=1/GPa)
#
#
# Indices 1 2 3 4 5 6 
#
# 1 0.014476 -0.002847 -0.003833 0.000000 0.000000 0.000000
# 2 -0.002847 0.010510 -0.004730 0.000000 0.000000 0.000000
# 3 -0.003833 -0.004730 0.022983 0.000000 0.000000 0.000000
# 4 0.000000 0.000000 0.000000 0.029633 0.000000 0.000000
# 5 0.000000 0.000000 0.000000 0.000000 0.038506 0.000000
# 6 0.000000 0.000000 0.000000 0.000000 0.000000 0.031565
#
#
# Mechanical properties :
#
#
# Convention : Reuss Voigt Hill
#
# Bulk Modulus (GPa) = 39.76463 45.38538 42.57501
# Shear Modulus (GPa) = 27.95216 29.62757 28.78986
#
# Velocity S-wave (km/s) = 3.57692 3.68255 3.63012
# Velocity P-wave (km/s) = 5.93804 6.23342 6.08752
#
# Compressibility (1/GPa) = 0.02514798
#
# Stress axis : x y z
#
# Youngs Moduli (GPa) = 69.07844 95.14500 43.51063
#
# Poissons Ratio (x) = 0.27091 0.16678
# Poissons Ratio (y) = 0.19669 0.20582
# Poissons Ratio (z) = 0.26478 0.45007
#
# Static dielectric constant tensor:
#      x y z
#    x 3.870790 0.000000 0.000000 
#    y 0.000000 4.451540 0.000000 
#    z 0.000000 0.000000 3.835360 
# 
# 
# High freq. dielectric constant tensor:
#      x y z
#    x 1.849930 0.000000 0.000000 
#    y 0.000000 1.856460 0.000000 
#    z 0.000000 0.000000 1.857480 
# 
# From -- ./inp_files/11555.got.cif
#   From: 2010.03.12/outbox.cif.g09.slc.cpg/sg49_6_cif.got.tgz:11555.got - 2010.04.14 03:58:27.
