data_PCOD8204242
_publ_section_title
;
Structure prediction by ZEFSAII (Michael W. Deem and Ramdas Pophale) SiO2 
 PCOD8204242
Probable space group: P C C M
;
_chemical_formula_sum "Si O2"
_cell_formula_units_Z 48
_cell_length_a 8.158607
_cell_length_b 10.636521
_cell_length_c 23.188028
_cell_angle_alpha 90.000000
_cell_angle_beta 90.000000
_cell_angle_gamma 90.000000
_cell_volume 2012.238396
_symmetry_space_group_name_H-M "P C C M"
_symmetry_group_IT_number 49
_symmetry_cell_setting 'orthorhombic'
loop_
_space_group_symop_operation_xyz
x,y,z
-x,-y,z
x,-y,1/2-z
-x,y,1/2-z
-x,-y,-z
x,y,-z
-x,y,1/2+z
x,-y,1/2+z
loop_
_atom_site_type_symbol
_atom_site_label
_atom_site_fract_x
_atom_site_fract_y
_atom_site_fract_z
Si Si1 0.366405 0.717344 0.934956
Si Si2 0.765156 0.405754 0.830276
Si Si3 0.311459 0.035776 0.625918
Si Si4 0.130367 0.323698 0.826569
Si Si5 0.744864 0.785257 0.066302
Si Si6 0.321438 0.180528 0.264766
O O1 0.293150 0.602761 0.896884
O O2 0.280064 0.846472 0.916111
O O3 0.560140 0.736341 0.927908
O O4 0.319334 0.683726 0.000000
O O5 0.768421 0.549794 0.809715
O O6 0.642467 0.315570 0.795328
O O7 0.939835 0.341709 0.813928
O O8 0.246251 0.076413 0.690294
O O9 0.500000 0.000000 0.630264
O O10 0.219848 0.920575 0.595621
O O11 0.144392 0.307750 0.895637
O O12 0.206662 0.204522 0.791547
O O13 0.802709 0.787187 0.000000
O O14 0.500000 0.127463 0.250000
#
# Coordination Sequence:
#
# PCOD8204242 Si02
#       6
#     8   8   8   8   8   8
#     4   9  18  35  60  87 115 152 198 242 284 337
#     4  10  23  40  57  82 119 162 196 236 293 344
#     4   9  18  35  59  88 118 147 185 237 298 349
#     4  11  23  39  58  83 121 160 196 237 290 351
#     4  10  21  37  61  90 117 151 196 242 286 340
#     4  11  22  37  62  89 113 148 195 244 291 345
#
# _framework density 23.854030999999999
#
# number of rings (size 3 to 8) (size 9 to 14) (size 15 to 20)
#    0.000    2.000    0.000    4.500    0.000   10.333 
#    0.000    6.667    0.000   17.000    0.000    0.000 
#    0.000    0.000    0.000    0.000    0.000    0.000 
#
# Total GULP energy -594821.736793 kJ/mol
# GULP energy per Si atom -12392.119517 kJ/mol
# Density = 2.379974 g / cm^3
# Si number density = 23.854031 Si / 1000 Ang^3
#
#
#
# Elastic Constant Matrix: (Units=GPa)
#
#
# Indices 1 2 3 4 5 6 
#
# 1 29.2997 11.6911 15.5019 0.0000 0.0000 0.0000
# 2 11.6911 62.6386 9.4159 0.0000 0.0000 0.0000
# 3 15.5019 9.4159 134.6096 0.0000 0.0000 0.0000
# 4 0.0000 0.0000 0.0000 31.9231 0.0000 0.0000
# 5 0.0000 0.0000 0.0000 0.0000 20.5809 0.0000
# 6 0.0000 0.0000 0.0000 0.0000 0.0000 16.3974
#
#
#
# Elastic Compliance Matrix: (Units=1/GPa)
#
#
# Indices 1 2 3 4 5 6 
#
# 1 0.038911 -0.006659 -0.004015 0.000000 0.000000 0.000000
# 2 -0.006659 0.017274 -0.000441 0.000000 0.000000 0.000000
# 3 -0.004015 -0.000441 0.007922 0.000000 0.000000 0.000000
# 4 0.000000 0.000000 0.000000 0.031325 0.000000 0.000000
# 5 0.000000 0.000000 0.000000 0.000000 0.048589 0.000000
# 6 0.000000 0.000000 0.000000 0.000000 0.000000 0.060985
#
#
# Mechanical properties :
#
#
# Convention : Reuss Voigt Hill
#
# Bulk Modulus (GPa) = 23.88002 33.30727 28.59365
# Shear Modulus (GPa) = 20.72995 26.44288 23.58642
#
# Velocity S-wave (km/s) = 2.95114 3.33307 3.14790
# Velocity P-wave (km/s) = 4.65241 5.36710 5.02248
#
# Compressibility (1/GPa) = 0.04187600
#
# Stress axis : x y z
#
# Youngs Moduli (GPa) = 25.69936 57.89109 126.22785
#
# Poissons Ratio (x) = 0.38550 0.50685
# Poissons Ratio (y) = 0.17113 0.05572
# Poissons Ratio (z) = 0.10319 0.02556
#
# Static dielectric constant tensor:
#      x y z
#    x 3.783670 0.000000 0.000000 
#    y 0.000000 4.446460 0.000000 
#    z 0.000000 0.000000 4.552340 
# 
# 
# High freq. dielectric constant tensor:
#      x y z
#    x 1.902610 0.000000 0.000000 
#    y 0.000000 1.946950 0.000000 
#    z 0.000000 0.000000 1.962390 
# 
# From -- ./inp_files/22412.got.cif
#   From: 2010.03.12/outbox.cif.g09.slc.cpg/sg49_12_cif.got.tgz:22412.got - 2010.04.14 03:58:27.
