data_PCOD8204381
_publ_section_title
;
Structure prediction by ZEFSAII (Michael W. Deem and Ramdas Pophale) SiO2 
 PCOD8204381
Probable space group: P C C M
;
_chemical_formula_sum "Si O2"
_cell_formula_units_Z 40
_cell_length_a 8.914907
_cell_length_b 14.965506
_cell_length_c 14.560477
_cell_angle_alpha 90.000000
_cell_angle_beta 90.000000
_cell_angle_gamma 90.000000
_cell_volume 1942.601971
_symmetry_space_group_name_H-M "P C C M"
_symmetry_group_IT_number 49
_symmetry_cell_setting 'orthorhombic'
loop_
_space_group_symop_operation_xyz
x,y,z
-x,-y,z
x,-y,1/2-z
-x,y,1/2-z
-x,-y,-z
x,y,-z
-x,y,1/2+z
x,-y,1/2+z
loop_
_atom_site_type_symbol
_atom_site_label
_atom_site_fract_x
_atom_site_fract_y
_atom_site_fract_z
Si Si1 0.210161 0.636622 0.000000
Si Si2 0.539043 0.232255 0.000000
Si Si3 0.728847 0.351699 0.500000
Si Si4 0.928338 0.090792 0.151586
Si Si5 0.977387 0.773482 0.000000
Si Si6 0.569942 0.091378 0.848226
Si Si7 0.178223 0.505336 0.644664
O O1 0.292412 0.731585 0.000000
O O2 0.246236 0.579407 0.909068
O O3 0.039229 0.671037 0.000000
O O4 0.515596 0.172571 0.910450
O O5 0.444906 0.324139 0.000000
O O6 0.802090 0.251741 0.500000
O O7 0.764791 0.405486 0.593698
O O8 0.749359 0.081544 0.157082
O O9 0.000000 0.109307 0.250000
O O10 0.974685 0.173848 0.090104
O O11 0.000000 0.000000 0.110027
O O12 0.500000 0.111543 0.750000
O O13 0.500000 0.000000 0.888427
O O14 0.234639 0.500000 0.750000
O O15 0.000000 0.500000 0.639047
#
# Coordination Sequence:
#
# PCOD8204381 Si02
#       7
#     4   4   4   8   4   8   8
#     4  11  21  44  60  92 126 156 204 260 303 379
#     4  12  27  41  63  92 133 167 209 257 319 373
#     4  11  25  40  62 100 120 163 212 256 311 381
#     4  11  24  41  64  95 124 169 217 261 309 365
#     4  12  23  39  67  92 131 160 211 269 304 358
#     4  11  24  43  62  89 132 174 207 258 316 376
#     4  10  21  41  68  92 123 161 200 257 323 372
#
# _framework density 20.590938000000001
#
# number of rings (size 3 to 8) (size 9 to 14) (size 15 to 20)
#    0.000    1.000    4.000    3.600    5.600    4.800 
#    0.000    1.000    0.000    0.000    0.000    0.000 
#    0.000    0.000    0.000    0.000    0.000    0.000 
#
# Total GULP energy -495955.686261 kJ/mol
# GULP energy per Si atom -12398.892157 kJ/mol
# Density = 2.054407 g / cm^3
# Si number density = 20.590938 Si / 1000 Ang^3
#
#
#
# Elastic Constant Matrix: (Units=GPa)
#
#
# Indices 1 2 3 4 5 6 
#
# 1 77.8743 33.2594 33.5227 0.0000 0.0000 0.0000
# 2 33.2594 128.5713 72.8531 0.0000 0.0000 0.0000
# 3 33.5227 72.8531 146.6407 0.0000 0.0000 0.0000
# 4 0.0000 0.0000 0.0000 10.8110 0.0000 0.0000
# 5 0.0000 0.0000 0.0000 0.0000 16.1977 0.0000
# 6 0.0000 0.0000 0.0000 0.0000 0.0000 41.9950
#
#
#
# Elastic Compliance Matrix: (Units=1/GPa)
#
#
# Indices 1 2 3 4 5 6 
#
# 1 0.014875 -0.002674 -0.002072 0.000000 0.000000 0.000000
# 2 -0.002674 0.011306 -0.005006 0.000000 0.000000 0.000000
# 3 -0.002072 -0.005006 0.009780 0.000000 0.000000 0.000000
# 4 0.000000 0.000000 0.000000 0.092498 0.000000 0.000000
# 5 0.000000 0.000000 0.000000 0.000000 0.061737 0.000000
# 6 0.000000 0.000000 0.000000 0.000000 0.000000 0.023812
#
#
# Mechanical properties :
#
#
# Convention : Reuss Voigt Hill
#
# Bulk Modulus (GPa) = 60.76164 70.26185 65.51175
# Shear Modulus (GPa) = 20.92068 28.03083 24.47575
#
# Velocity S-wave (km/s) = 3.19095 3.69361 3.45144
# Velocity P-wave (km/s) = 6.56881 7.23789 6.91145
#
# Compressibility (1/GPa) = 0.01645775
#
# Stress axis : x y z
#
# Youngs Moduli (GPa) = 67.22612 88.44992 102.24994
#
# Poissons Ratio (x) = 0.23650 0.21188
# Poissons Ratio (y) = 0.17975 0.51183
# Poissons Ratio (z) = 0.13930 0.44275
#
# Static dielectric constant tensor:
#      x y z
#    x 3.728070 0.000000 0.000000 
#    y 0.000000 3.725450 0.000000 
#    z 0.000000 0.000000 3.230190 
# 
# 
# High freq. dielectric constant tensor:
#      x y z
#    x 1.810690 0.000000 0.000000 
#    y 0.000000 1.815800 0.000000 
#    z 0.000000 0.000000 1.808200 
# 
# From -- ./inp_files/11645.got.cif
#   From: 2010.03.12/outbox.cif.g09.slc.cpg/sg49_6_cif.got.tgz:11645.got - 2010.04.14 03:58:27.
