data_PCOD8204724
_publ_section_title
;
Structure prediction by ZEFSAII (Michael W. Deem and Ramdas Pophale) SiO2 
 PCOD8204724
Probable space group: P B A N
;
_chemical_formula_sum "Si O2"
_cell_formula_units_Z 56
_cell_length_a 5.281966
_cell_length_b 26.293753
_cell_length_c 27.206861
_cell_angle_alpha 90.000000
_cell_angle_beta 90.000000
_cell_angle_gamma 90.000000
_cell_volume 3778.562569
_symmetry_space_group_name_H-M "P B A N"
_symmetry_group_IT_number 50
_space_group.IT_coordinate_system_code '2'
_symmetry_cell_setting 'orthorhombic'
loop_
_space_group_symop_operation_xyz
x,y,z
1/2-x,1/2-y,z
x,1/2-y,-z
1/2-x,y,-z
-x,-y,-z
1/2+x,1/2+y,-z
-x,1/2+y,z
1/2+x,-y,z
loop_
_atom_site_type_symbol
_atom_site_label
_atom_site_fract_x
_atom_site_fract_y
_atom_site_fract_z
Si Si1 0.252623 0.307291 0.558467
Si Si2 0.243836 0.864851 0.558411
Si Si3 0.423745 0.032259 0.129164
Si Si4 0.637539 0.469900 0.390424
Si Si5 0.093040 0.440188 0.234842
Si Si6 0.901977 0.052855 0.276068
Si Si7 0.502226 0.942339 0.979170
O O1 0.250000 0.250000 0.579348
O O2 0.250000 0.306281 0.500000
O O3 0.499575 0.337777 0.577746
O O4 0.997251 0.333463 0.577921
O O5 0.250000 0.868288 0.500000
O O6 0.215716 0.920859 0.579284
O O7 0.431186 0.069377 0.176399
O O8 0.479092 0.062886 0.079447
O O9 0.640996 0.989836 0.130664
O O10 0.357336 0.489601 0.404444
O O11 0.627013 0.458019 0.333110
O O12 0.344108 0.416239 0.260535
O O13 0.091817 0.500544 0.245548
O O14 0.844902 0.414959 0.259728
O O15 0.750000 0.913915 0.000000
O O16 0.250000 0.914877 0.000000
O O17 0.500000 0.000000 0.000000
#
# Coordination Sequence:
#
# PCOD8204724 Si02
#       7
#     8   8   8   8   8   8   8
#     4   9  17  33  54  70  85 103 124 162 207 233
#     4  10  21  33  46  69  89 105 137 164 185 236
#     4  12  16  20  31  42  52  71  97 140 179 207
#     4  12  21  31  45  58  83 119 140 157 190 227
#     4  10  16  25  36  48  60  77 121 161 180 210
#     4  10  16  27  37  49  64  89 123 153 181 211
#     4  10  16  22  26  35  53  72  90 115 167 237
#
# _framework density 14.820449999999999
#
# number of rings (size 3 to 8) (size 9 to 14) (size 15 to 20)
#    0.000    1.571    8.571    1.286    0.000    2.286 
#    0.000    0.000    0.000    0.000    0.000    0.000 
#    0.000    0.000    0.000    0.000    0.000    0.000 
#
# Total GULP energy -693798.725587 kJ/mol
# GULP energy per Si atom -12389.262957 kJ/mol
# Density = 1.478672 g / cm^3
# Si number density = 14.820450 Si / 1000 Ang^3
#
#
#
# Elastic Constant Matrix: (Units=GPa)
#
#
# Indices 1 2 3 4 5 6 
#
# 1 150.7174 23.4913 23.8891 0.0000 0.0000 0.0000
# 2 23.4913 37.3529 20.6917 0.0000 0.0000 0.0000
# 3 23.8891 20.6917 36.9239 0.0000 0.0000 0.0000
# 4 0.0000 0.0000 0.0000 -0.0608 0.0000 0.0000
# 5 0.0000 0.0000 0.0000 0.0000 19.6745 0.0000
# 6 0.0000 0.0000 0.0000 0.0000 0.0000 14.9042
#
#
#
# Elastic Compliance Matrix: (Units=1/GPa)
#
#
# Indices 1 2 3 4 5 6 
#
# 1 0.007616 -0.002988 -0.003253 0.000000 0.000000 0.000000
# 2 -0.002988 0.039996 -0.020480 0.000000 0.000000 0.000000
# 3 -0.003253 -0.020480 0.040664 0.000000 0.000000 0.000000
# 4 0.000000 0.000000 0.000000-16.454514 0.000000 0.000000
# 5 0.000000 0.000000 0.000000 0.000000 0.050827 0.000000
# 6 0.000000 0.000000 0.000000 0.000000 0.000000 0.067095
#
#
# Mechanical properties :
#
#
# Convention : Reuss Voigt Hill
#
# Bulk Modulus (GPa) = 28.70753 40.12650 34.41702
# Shear Modulus (GPa) = -0.30896 17.36506 8.52805
#
# Velocity S-wave (km/s) = -0.45708 3.42672 2.40140
# Velocity P-wave (km/s) = 4.37421 6.54144 5.56436
#
# Compressibility (1/GPa) = 0.03483406
#
# Stress axis : x y z
#
# Youngs Moduli (GPa) = 131.29788 25.00273 24.59158
#
# Poissons Ratio (x) = 0.07470 0.08000
# Poissons Ratio (y) = 0.39228 0.50364
# Poissons Ratio (z) = 0.42715 0.51206
#
# Static dielectric constant tensor:
#      x y z
#    x 4.716710 0.000000 0.000000 
#    y 0.000000 2.294020 0.000000 
#    z 0.000000 0.000000 2.995780 
# 
# 
# High freq. dielectric constant tensor:
#      x y z
#    x 1.610500 0.000000 0.000000 
#    y 0.000000 1.469480 0.000000 
#    z 0.000000 0.000000 1.562500 
# 
# From -- ./inp_files/31540.got.cif
#   From: 2010.03.12/outbox.cif.g09.slc.cpg/sg50_16_cif.got.tgz:31540.got - 2010.04.16 13:23:21.
