data_PCOD8204455
_publ_section_title
;
Structure prediction by ZEFSAII (Michael W. Deem and Ramdas Pophale) SiO2 
 PCOD8204455
Probable space group: P C C M
;
_chemical_formula_sum "Si O2"
_cell_formula_units_Z 48
_cell_length_a 14.601898
_cell_length_b 12.431836
_cell_length_c 13.669174
_cell_angle_alpha 90.000000
_cell_angle_beta 90.000000
_cell_angle_gamma 90.000000
_cell_volume 2481.343302
_symmetry_space_group_name_H-M "P C C M"
_symmetry_group_IT_number 49
_symmetry_cell_setting 'orthorhombic'
loop_
_space_group_symop_operation_xyz
x,y,z
-x,-y,z
x,-y,1/2-z
-x,y,1/2-z
-x,-y,-z
x,y,-z
-x,y,1/2+z
x,-y,1/2+z
loop_
_atom_site_type_symbol
_atom_site_label
_atom_site_fract_x
_atom_site_fract_y
_atom_site_fract_z
Si Si1 0.360813 0.058917 0.610861
Si Si2 0.893678 0.978908 0.388065
Si Si3 0.336139 0.671524 0.278591
Si Si4 0.394419 0.471794 0.612960
Si Si5 0.207085 0.143155 0.247950
Si Si6 0.551513 0.163104 0.610008
O O1 0.331650 0.092653 0.500000
O O2 0.291691 0.089495 0.695276
O O3 0.454020 0.117532 0.642131
O O4 0.372742 0.930591 0.614057
O O5 0.865612 0.965092 0.500000
O O6 0.828929 0.075165 0.345778
O O7 0.874160 0.867312 0.329107
O O8 0.000000 0.000000 0.374547
O O9 0.328633 0.567362 0.348404
O O10 0.364512 0.637009 0.168747
O O11 0.238083 0.735541 0.280140
O O12 0.418882 0.742907 0.318421
O O13 0.500000 0.500000 0.635951
O O14 0.376273 0.450806 0.500000
O O15 0.546394 0.210274 0.500000
#
# Coordination Sequence:
#
# PCOD8204455 Si02
#       6
#     8   8   8   8   8   8
#     4   9  19  32  47  77 117 150 184 224 268 320
#     4  10  22  41  60  84 122 156 180 212 270 355
#     4  11  22  35  57  80 107 145 198 250 286 326
#     4  10  24  42  55  72 105 152 205 254 294 333
#     4  11  21  32  57  86 111 140 185 236 277 327
#     4   9  18  32  50  73 109 156 192 222 269 325
#
# _framework density 19.344360999999999
#
# number of rings (size 3 to 8) (size 9 to 14) (size 15 to 20)
#    0.000    2.000    0.000    6.000    4.667    4.000 
#    0.000    1.667    0.000    0.000    0.000   11.667 
#    0.000   16.000    0.000    0.000    0.000    0.000 
#
# Total GULP energy -594787.645810 kJ/mol
# GULP energy per Si atom -12391.409288 kJ/mol
# Density = 1.930033 g / cm^3
# Si number density = 19.344361 Si / 1000 Ang^3
#
#
#
# Elastic Constant Matrix: (Units=GPa)
#
#
# Indices 1 2 3 4 5 6 
#
# 1 76.7575 28.4937 18.8522 0.0000 0.0000 0.0000
# 2 28.4937 97.2060 42.6347 0.0000 0.0000 0.0000
# 3 18.8522 42.6347 117.7332 0.0000 0.0000 0.0000
# 4 0.0000 0.0000 0.0000 26.6562 0.0000 0.0000
# 5 0.0000 0.0000 0.0000 0.0000 39.1160 0.0000
# 6 0.0000 0.0000 0.0000 0.0000 0.0000 22.6105
#
#
#
# Elastic Compliance Matrix: (Units=1/GPa)
#
#
# Indices 1 2 3 4 5 6 
#
# 1 0.014706 -0.003897 -0.000944 0.000000 0.000000 0.000000
# 2 -0.003897 0.013263 -0.004179 0.000000 0.000000 0.000000
# 3 -0.000944 -0.004179 0.010158 0.000000 0.000000 0.000000
# 4 0.000000 0.000000 0.000000 0.037515 0.000000 0.000000
# 5 0.000000 0.000000 0.000000 0.000000 0.025565 0.000000
# 6 0.000000 0.000000 0.000000 0.000000 0.000000 0.044227
#
#
# Mechanical properties :
#
#
# Convention : Reuss Voigt Hill
#
# Bulk Modulus (GPa) = 49.78016 52.40644 51.09330
# Shear Modulus (GPa) = 29.38254 31.12426 30.25340
#
# Velocity S-wave (km/s) = 3.90156 4.01553 3.95896
# Velocity P-wave (km/s) = 6.78865 6.97492 6.88241
#
# Compressibility (1/GPa) = 0.02008832
#
# Stress axis : x y z
#
# Youngs Moduli (GPa) = 67.99749 75.40030 98.44317
#
# Poissons Ratio (x) = 0.29383 0.09290
# Poissons Ratio (y) = 0.26498 0.41137
# Poissons Ratio (z) = 0.06417 0.31508
#
# Static dielectric constant tensor:
#      x y z
#    x 3.685310 0.000000 0.000000 
#    y 0.000000 3.684550 0.000000 
#    z 0.000000 0.000000 4.059960 
# 
# 
# High freq. dielectric constant tensor:
#      x y z
#    x 1.721880 0.000000 0.000000 
#    y 0.000000 1.730230 0.000000 
#    z 0.000000 0.000000 1.783750 
# 
# From -- ./inp_files/13482.got.cif
#   From: 2010.03.12/outbox.cif.g09.slc.cpg/sg49_7_cif.got.tgz:13482.got - 2010.04.14 03:58:27.
