data_PCOD8204740
_publ_section_title
;
Structure prediction by ZEFSAII (Michael W. Deem and Ramdas Pophale) SiO2 
 PCOD8204740
Probable space group: P B A N
;
_chemical_formula_sum "Si O2"
_cell_formula_units_Z 48
_cell_length_a 27.125088
_cell_length_b 17.811213
_cell_length_c 5.119492
_cell_angle_alpha 90.000000
_cell_angle_beta 90.000000
_cell_angle_gamma 90.000000
_cell_volume 2473.383856
_symmetry_space_group_name_H-M "P B A N"
_symmetry_group_IT_number 50
_space_group.IT_coordinate_system_code '2'
_symmetry_cell_setting 'orthorhombic'
loop_
_space_group_symop_operation_xyz
x,y,z
1/2-x,1/2-y,z
x,1/2-y,-z
1/2-x,y,-z
-x,-y,-z
1/2+x,1/2+y,-z
-x,1/2+y,z
1/2+x,-y,z
loop_
_atom_site_type_symbol
_atom_site_label
_atom_site_fract_x
_atom_site_fract_y
_atom_site_fract_z
Si Si1 0.067760 0.332219 0.468934
Si Si2 0.805407 0.216435 0.246032
Si Si3 0.483966 0.118052 0.951998
Si Si4 0.875573 0.519128 0.534944
Si Si5 0.572980 0.469830 0.953656
Si Si6 0.282104 0.950933 0.252843
O O1 0.092377 0.250000 0.500000
O O2 0.023730 0.335331 0.684821
O O3 0.110841 0.393771 0.516074
O O4 0.045789 0.341983 0.181706
O O5 0.750000 0.250000 0.246719
O O6 0.832742 0.250000 0.500000
O O7 0.809770 0.127345 0.201524
O O8 0.834625 0.250000 0.000000
O O9 0.463078 0.036820 0.870908
O O10 0.541192 0.107576 0.040034
O O11 0.882903 0.471124 0.264326
O O12 0.820131 0.515134 0.651724
O O13 0.909697 0.481869 0.752126
O O14 0.250000 0.931002 0.500000
O O15 0.250000 0.977074 0.000000
#
# Coordination Sequence:
#
# PCOD8204740 Si02
#       6
#     8   8   8   8   8   8
#     4  10  19  33  53  81 103 140 182 220 262 315
#     4  10  16  30  49  72  90 119 165 214 247 310
#     4   9  17  30  55  78  99 134 172 210 260 325
#     4  10  21  33  51  79 109 136 177 227 273 306
#     4   9  17  33  51  76 106 130 165 214 268 318
#     4  12  21  33  53  77 103 138 182 228 260 314
#
# _framework density 19.406613
#
# number of rings (size 3 to 8) (size 9 to 14) (size 15 to 20)
#    0.000    2.000    3.333    2.500    0.000    4.000 
#    0.000    0.000    0.000   10.500    0.000    1.167 
#    0.000    0.000    0.000    0.000    0.000    0.000 
#
# Total GULP energy -594646.507171 kJ/mol
# GULP energy per Si atom -12388.468899 kJ/mol
# Density = 1.936244 g / cm^3
# Si number density = 19.406613 Si / 1000 Ang^3
#
#
#
# Elastic Constant Matrix: (Units=GPa)
#
#
# Indices 1 2 3 4 5 6 
#
# 1 51.7644 36.2849 20.8324 0.0000 0.0000 0.0000
# 2 36.2849 94.4760 33.0146 0.0000 0.0000 0.0000
# 3 20.8324 33.0146 144.3072 0.0000 0.0000 0.0000
# 4 0.0000 0.0000 0.0000 23.3174 0.0000 0.0000
# 5 0.0000 0.0000 0.0000 0.0000 27.2471 0.0000
# 6 0.0000 0.0000 0.0000 0.0000 0.0000 15.8221
#
#
#
# Elastic Compliance Matrix: (Units=1/GPa)
#
#
# Indices 1 2 3 4 5 6 
#
# 1 0.026790 -0.009714 -0.001645 0.000000 0.000000 0.000000
# 2 -0.009714 0.015027 -0.002036 0.000000 0.000000 0.000000
# 3 -0.001645 -0.002036 0.007633 0.000000 0.000000 0.000000
# 4 0.000000 0.000000 0.000000 0.042886 0.000000 0.000000
# 5 0.000000 0.000000 0.000000 0.000000 0.036701 0.000000
# 6 0.000000 0.000000 0.000000 0.000000 0.000000 0.063203
#
#
# Mechanical properties :
#
#
# Convention : Reuss Voigt Hill
#
# Bulk Modulus (GPa) = 44.13052 52.31238 48.22145
# Shear Modulus (GPa) = 22.06706 26.63837 24.35272
#
# Velocity S-wave (km/s) = 3.37573 3.70894 3.54625
# Velocity P-wave (km/s) = 6.16307 6.73470 6.45521
#
# Compressibility (1/GPa) = 0.02266005
#
# Stress axis : x y z
#
# Youngs Moduli (GPa) = 37.32799 66.54758 131.01328
#
# Poissons Ratio (x) = 0.64645 0.21551
# Poissons Ratio (y) = 0.36261 0.26668
# Poissons Ratio (z) = 0.06140 0.13546
#
# Static dielectric constant tensor:
#      x y z
#    x 3.086170 0.000000 0.000000 
#    y 0.000000 3.461150 0.000000 
#    z 0.000000 0.000000 8.093030 
# 
# 
# High freq. dielectric constant tensor:
#      x y z
#    x 1.703750 0.000000 0.000000 
#    y 0.000000 1.727960 0.000000 
#    z 0.000000 0.000000 1.789910 
# 
# From -- ./inp_files/6695.got.cif
#   From: 2010.03.12/outbox.cif.g09.slc.cpg/sg50_4_cif.got.tgz:6695.got - 2010.04.16 13:23:21.
