data_PCOD8204947
_publ_section_title
;
Structure prediction by ZEFSAII (Michael W. Deem and Ramdas Pophale) SiO2 
 PCOD8204947
Probable space group: P B A N
;
_chemical_formula_sum "Si O2"
_cell_formula_units_Z 56
_cell_length_a 9.791464
_cell_length_b 20.341422
_cell_length_c 14.335642
_cell_angle_alpha 90.000000
_cell_angle_beta 90.000000
_cell_angle_gamma 90.000000
_cell_volume 2855.262807
_symmetry_space_group_name_H-M "P B A N"
_symmetry_group_IT_number 50
_space_group.IT_coordinate_system_code '2'
_symmetry_cell_setting 'orthorhombic'
loop_
_space_group_symop_operation_xyz
x,y,z
1/2-x,1/2-y,z
x,1/2-y,-z
1/2-x,y,-z
-x,-y,-z
1/2+x,1/2+y,-z
-x,1/2+y,z
1/2+x,-y,z
loop_
_atom_site_type_symbol
_atom_site_label
_atom_site_fract_x
_atom_site_fract_y
_atom_site_fract_z
Si Si1 0.898201 0.124465 0.811372
Si Si2 0.405322 0.754417 0.676356
Si Si3 0.087405 0.677119 0.004570
Si Si4 0.461574 0.497860 0.293184
Si Si5 0.168295 0.305819 0.402019
Si Si6 0.201927 0.453180 0.394567
Si Si7 0.417847 0.627259 0.797308
O O1 0.919509 0.193171 0.758933
O O2 0.957485 0.133346 0.915809
O O3 0.739170 0.107144 0.806600
O O4 0.979128 0.063714 0.767346
O O5 0.250000 0.750000 0.636157
O O6 0.510409 0.778994 0.594869
O O7 0.443785 0.683832 0.719977
O O8 0.024641 0.750000 0.000000
O O9 0.250000 0.682013 0.000000
O O10 0.030050 0.646892 0.100119
O O11 0.309786 0.489686 0.330073
O O12 0.563052 0.505353 0.381835
O O13 0.495758 0.435418 0.231332
O O14 0.250000 0.250000 0.341431
O O15 0.250000 0.308750 0.500000
O O16 0.176741 0.378367 0.359115
O O17 0.250000 0.455986 0.500000
#
# Coordination Sequence:
#
# PCOD8204947 Si02
#       7
#     8   8   8   8   8   8   8
#     4  10  19  34  58  86 123 154 199 249 293 351
#     4  10  19  35  61  89 115 157 204 259 294 347
#     4   9  16  31  56  88 120 155 197 243 296 357
#     4  12  22  39  59  90 122 159 204 248 305 362
#     4  10  21  39  59  85 118 156 203 248 309 370
#     4  11  24  41  62  85 119 164 205 252 305 366
#     4  10  20  34  59  90 120 156 206 244 298 361
#
# _framework density 19.612904
#
# number of rings (size 3 to 8) (size 9 to 14) (size 15 to 20)
#    0.000    1.714    4.286    1.286    0.000    0.571 
#    0.000    1.429    0.000    0.000    0.000    2.000 
#    0.000    0.000    0.000    0.000    0.000    0.000 
#
# Total GULP energy -693923.055807 kJ/mol
# GULP energy per Si atom -12391.483139 kJ/mol
# Density = 1.956826 g / cm^3
# Si number density = 19.612904 Si / 1000 Ang^3
#
#
#
# Elastic Constant Matrix: (Units=GPa)
#
#
# Indices 1 2 3 4 5 6 
#
# 1 86.5482 31.7340 32.8198 0.0000 0.0000 0.0000
# 2 31.7340 118.6402 38.3409 0.0000 0.0000 0.0000
# 3 32.8198 38.3409 84.6789 0.0000 0.0000 0.0000
# 4 0.0000 0.0000 0.0000 28.4651 0.0000 0.0000
# 5 0.0000 0.0000 0.0000 0.0000 12.3198 0.0000
# 6 0.0000 0.0000 0.0000 0.0000 0.0000 27.1777
#
#
#
# Elastic Compliance Matrix: (Units=1/GPa)
#
#
# Indices 1 2 3 4 5 6 
#
# 1 0.014081 -0.002346 -0.004395 0.000000 0.000000 0.000000
# 2 -0.002346 0.010264 -0.003738 0.000000 0.000000 0.000000
# 3 -0.004395 -0.003738 0.015206 0.000000 0.000000 0.000000
# 4 0.000000 0.000000 0.000000 0.035131 0.000000 0.000000
# 5 0.000000 0.000000 0.000000 0.000000 0.081170 0.000000
# 6 0.000000 0.000000 0.000000 0.000000 0.000000 0.036795
#
#
# Mechanical properties :
#
#
# Convention : Reuss Voigt Hill
#
# Bulk Modulus (GPa) = 53.78699 55.07297 54.42998
# Shear Modulus (GPa) = 22.74761 26.05737 24.40249
#
# Velocity S-wave (km/s) = 3.40932 3.64893 3.53116
# Velocity P-wave (km/s) = 6.55605 6.77450 6.66617
#
# Compressibility (1/GPa) = 0.01859186
#
# Stress axis : x y z
#
# Youngs Moduli (GPa) = 71.01668 97.42353 65.76566
#
# Poissons Ratio (x) = 0.22856 0.28906
# Poissons Ratio (y) = 0.16660 0.24585
# Poissons Ratio (z) = 0.31214 0.36420
#
# Static dielectric constant tensor:
#      x y z
#    x 3.536360 0.000000 0.000000 
#    y 0.000000 3.952490 0.000000 
#    z 0.000000 0.000000 3.464470 
# 
# 
# High freq. dielectric constant tensor:
#      x y z
#    x 1.745920 0.000000 0.000000 
#    y 0.000000 1.780610 0.000000 
#    z 0.000000 0.000000 1.745120 
# 
# From -- ./inp_files/25265.got.cif
#   From: 2010.03.12/outbox.cif.g09.slc.cpg/sg50_13_cif.got.tgz:25265.got - 2010.04.16 13:23:21.
