data_PCOD8204118
_publ_section_title
;
Structure prediction by ZEFSAII (Michael W. Deem and Ramdas Pophale) SiO2 
 PCOD8204118
Probable space group: P C C M
;
_chemical_formula_sum "Si O2"
_cell_formula_units_Z 52
_cell_length_a 12.528690
_cell_length_b 15.676382
_cell_length_c 14.485458
_cell_angle_alpha 90.000000
_cell_angle_beta 90.000000
_cell_angle_gamma 90.000000
_cell_volume 2845.009576
_symmetry_space_group_name_H-M "P C C M"
_symmetry_group_IT_number 49
_symmetry_cell_setting 'orthorhombic'
loop_
_space_group_symop_operation_xyz
x,y,z
-x,-y,z
x,-y,1/2-z
-x,y,1/2-z
-x,-y,-z
x,y,-z
-x,y,1/2+z
x,-y,1/2+z
loop_
_atom_site_type_symbol
_atom_site_label
_atom_site_fract_x
_atom_site_fract_y
_atom_site_fract_z
Si Si1 0.863342 0.916363 0.393922
Si Si2 0.905054 0.435466 0.399728
Si Si3 0.619228 0.641565 0.747974
Si Si4 0.000000 0.683772 0.250000
Si Si5 0.108228 0.108246 0.893806
Si Si6 0.198412 0.217726 0.737393
Si Si7 0.324217 0.496563 0.108307
O O1 0.844525 0.893353 0.500000
O O2 0.780804 0.859981 0.333676
O O3 0.984664 0.895712 0.363907
O O4 0.839312 0.015756 0.375282
O O5 0.890935 0.390404 0.500000
O O6 0.802468 0.492420 0.376402
O O7 0.000000 0.500000 0.402595
O O8 0.927345 0.367058 0.322003
O O9 0.500000 0.679926 0.750000
O O10 0.700674 0.720275 0.744095
O O11 0.629088 0.587343 0.842287
O O12 0.634541 0.581936 0.657976
O O13 0.908630 0.736671 0.302819
O O14 0.172103 0.180245 0.838265
O O15 0.118449 0.133708 0.000000
O O16 0.356925 0.498093 0.000000
#
# Coordination Sequence:
#
# PCOD8204118 Si02
#       7
#     8   8   8   4   8   8   8
#     4   9  18  33  54  82 114 144 173 212 260 320
#     4  10  21  34  51  76 108 144 178 216 271 333
#     4  11  25  40  55  81 108 138 188 236 274 319
#     4  12  21  30  51  80 116 138 172 216 275 329
#     4   9  18  33  54  82 114 143 175 212 258 321
#     4  12  21  33  54  81 111 146 172 217 272 323
#     4  10  21  41  62  77 101 144 190 232 275 317
#
# _framework density 18.277618
#
# number of rings (size 3 to 8) (size 9 to 14) (size 15 to 20)
#    0.000    1.692    3.077    3.462    2.154    4.923 
#    0.000    0.000    0.000    1.846    0.000    2.154 
#    0.000    0.000    0.000    0.000    0.000    0.000 
#
# Total GULP energy -644572.518719 kJ/mol
# GULP energy per Si atom -12395.625360 kJ/mol
# Density = 1.823602 g / cm^3
# Si number density = 18.277618 Si / 1000 Ang^3
#
#
#
# Elastic Constant Matrix: (Units=GPa)
#
#
# Indices 1 2 3 4 5 6 
#
# 1 108.9905 42.2994 25.7548 0.0000 0.0000 0.0000
# 2 42.2994 95.6847 46.5665 0.0000 0.0000 0.0000
# 3 25.7548 46.5665 106.8562 0.0000 0.0000 0.0000
# 4 0.0000 0.0000 0.0000 4.6129 0.0000 0.0000
# 5 0.0000 0.0000 0.0000 0.0000 -24.7070 0.0000
# 6 0.0000 0.0000 0.0000 0.0000 0.0000 -2.5752
#
#
#
# Elastic Compliance Matrix: (Units=1/GPa)
#
#
# Indices 1 2 3 4 5 6 
#
# 1 0.011114 -0.004581 -0.000682 0.000000 0.000000 0.000000
# 2 -0.004581 0.015152 -0.005499 0.000000 0.000000 0.000000
# 3 -0.000682 -0.005499 0.011919 0.000000 0.000000 0.000000
# 4 0.000000 0.000000 0.000000 0.216783 0.000000 0.000000
# 5 0.000000 0.000000 0.000000 0.000000 -0.040474 0.000000
# 6 0.000000 0.000000 0.000000 0.000000 0.000000 -0.388324
#
#
# Mechanical properties :
#
#
# Convention : Reuss Voigt Hill
#
# Bulk Modulus (GPa) = 60.02143 60.08586 60.05365
# Shear Modulus (GPa) = -34.07151 8.59353 -12.73899
#
# Velocity S-wave (km/s) = -4.32222 2.17069 -2.64289
# Velocity P-wave (km/s) = 2.82865 6.26322 4.85948
#
# Compressibility (1/GPa) = 0.01666072
#
# Stress axis : x y z
#
# Youngs Moduli (GPa) = 89.97381 65.99603 83.89796
#
# Poissons Ratio (x) = 0.30234 0.05725
# Poissons Ratio (y) = 0.41219 0.46136
# Poissons Ratio (z) = 0.06139 0.36291
#
# Static dielectric constant tensor:
#      x y z
#    x 3.147310 0.000000 0.000000 
#    y 0.000000 3.597920 0.000000 
#    z 0.000000 0.000000 4.063170 
# 
# 
# High freq. dielectric constant tensor:
#      x y z
#    x 1.674210 0.000000 0.000000 
#    y 0.000000 1.705580 0.000000 
#    z 0.000000 0.000000 1.721260 
# 
# From -- ./inp_files/12902.got.cif
#   From: 2010.03.12/outbox.cif.g09.slc.cpg/sg49_7_cif.got.tgz:12902.got - 2010.04.14 03:58:27.
