data_PCOD8204495
_publ_section_title
;
Structure prediction by ZEFSAII (Michael W. Deem and Ramdas Pophale) SiO2 
 PCOD8204495
Probable space group: P C C M
;
_chemical_formula_sum "Si O2"
_cell_formula_units_Z 30
_cell_length_a 5.166882
_cell_length_b 18.793046
_cell_length_c 13.790693
_cell_angle_alpha 90.000000
_cell_angle_beta 90.000000
_cell_angle_gamma 90.000000
_cell_volume 1339.096302
_symmetry_space_group_name_H-M "P C C M"
_symmetry_group_IT_number 49
_symmetry_cell_setting 'orthorhombic'
loop_
_space_group_symop_operation_xyz
x,y,z
-x,-y,z
x,-y,1/2-z
-x,y,1/2-z
-x,-y,-z
x,y,-z
-x,y,1/2+z
x,-y,1/2+z
loop_
_atom_site_type_symbol
_atom_site_label
_atom_site_fract_x
_atom_site_fract_y
_atom_site_fract_z
Si Si1 0.172537 0.294126 0.111870
Si Si2 0.244253 0.859429 0.309460
Si Si3 0.500000 0.500000 0.250000
Si Si4 0.749292 0.951511 0.000000
Si Si5 0.319502 0.614993 0.887809
O O1 0.216369 0.224575 0.175145
O O2 0.405968 0.347998 0.129740
O O3 0.906471 0.331472 0.145009
O O4 0.154243 0.271303 0.000000
O O5 0.500000 0.876933 0.250000
O O6 0.256347 0.900360 0.409039
O O7 0.000000 0.888599 0.250000
O O8 0.688016 0.454043 0.180484
O O9 0.500000 0.000000 0.000000
O O10 0.000000 0.000000 0.000000
O O11 0.281847 0.592002 0.000000
#
# Coordination Sequence:
#
# PCOD8204495 Si02
#       5
#     8   8   2   4   8
#     4  10  22  45  68  98 135 176 230 291 346 401
#     4  12  26  44  75 109 143 184 241 294 347 418
#     4  12  26  42  64  96 140 178 232 278 372 412
#     4  12  28  50  74 108 154 193 229 283 359 428
#     4  10  24  41  65  93 132 178 227 285 345 420
#
# _framework density 22.403168999999998
#
# number of rings (size 3 to 8) (size 9 to 14) (size 15 to 20)
#    0.000    1.067    1.333    3.600    5.600    5.333 
#    0.000    4.000    0.000    0.000    0.000    0.000 
#    0.000    0.000    0.000    0.000    0.000    0.000 
#
# Total GULP energy -372231.291722 kJ/mol
# GULP energy per Si atom -12407.709724 kJ/mol
# Density = 2.235218 g / cm^3
# Si number density = 22.403169 Si / 1000 Ang^3
#
#
#
# Elastic Constant Matrix: (Units=GPa)
#
#
# Indices 1 2 3 4 5 6 
#
# 1 173.3704 47.3100 63.9501 0.0000 0.0000 0.0000
# 2 47.3100 112.9920 80.5984 0.0000 0.0000 0.0000
# 3 63.9501 80.5984 146.3565 0.0000 0.0000 0.0000
# 4 0.0000 0.0000 0.0000 1726.3972 0.0000 0.0000
# 5 0.0000 0.0000 0.0000 0.0000 34.5596 0.0000
# 6 0.0000 0.0000 0.0000 0.0000 0.0000 44.7586
#
#
#
# Elastic Compliance Matrix: (Units=1/GPa)
#
#
# Indices 1 2 3 4 5 6 
#
# 1 0.006979 -0.001230 -0.002372 0.000000 0.000000 0.000000
# 2 -0.001230 0.014793 -0.007609 0.000000 0.000000 0.000000
# 3 -0.002372 -0.007609 0.012059 0.000000 0.000000 0.000000
# 4 0.000000 0.000000 0.000000 0.000579 0.000000 0.000000
# 5 0.000000 0.000000 0.000000 0.000000 0.028935 0.000000
# 6 0.000000 0.000000 0.000000 0.000000 0.000000 0.022342
#
#
# Mechanical properties :
#
#
# Convention : Reuss Voigt Hill
#
# Bulk Modulus (GPa) = 87.65095 90.71510 89.18302
# Shear Modulus (GPa) = 44.67806 377.20043 210.93924
#
# Velocity S-wave (km/s) = 4.47057 12.98979 9.71393
# Velocity P-wave (km/s) = 8.11525 16.29600 12.87278
#
# Compressibility (1/GPa) = 0.01140889
#
# Stress axis : x y z
#
# Youngs Moduli (GPa) = 143.29600 67.60105 82.92427
#
# Poissons Ratio (x) = 0.08315 0.19669
# Poissons Ratio (y) = 0.17626 0.63096
# Poissons Ratio (z) = 0.33988 0.51437
#
# Static dielectric constant tensor:
#      x y z
#    x 4.111240 0.000000 0.000000 
#    y 0.000000 3.963370 0.000000 
#    z 0.000000 0.000000 4.387100 
# 
# 
# High freq. dielectric constant tensor:
#      x y z
#    x 1.894150 0.000000 0.000000 
#    y 0.000000 1.880920 0.000000 
#    z 0.000000 0.000000 1.909780 
# 
# From -- ./inp_files/10547.got.cif
#   From: 2010.03.12/outbox.cif.g09.slc.cpg/sg49_6_cif.got.tgz:10547.got - 2010.04.14 03:58:27.
