data_PCOD8204371
_publ_section_title
;
Structure prediction by ZEFSAII (Michael W. Deem and Ramdas Pophale) SiO2 
 PCOD8204371
Probable space group: P C C M
;
_chemical_formula_sum "Si O2"
_cell_formula_units_Z 64
_cell_length_a 12.482946
_cell_length_b 14.080174
_cell_length_c 17.088493
_cell_angle_alpha 90.000000
_cell_angle_beta 90.000000
_cell_angle_gamma 90.000000
_cell_volume 3003.508590
_symmetry_space_group_name_H-M "P C C M"
_symmetry_group_IT_number 49
_symmetry_cell_setting 'orthorhombic'
loop_
_space_group_symop_operation_xyz
x,y,z
-x,-y,z
x,-y,1/2-z
-x,y,1/2-z
-x,-y,-z
x,y,-z
-x,y,1/2+z
x,-y,1/2+z
loop_
_atom_site_type_symbol
_atom_site_label
_atom_site_fract_x
_atom_site_fract_y
_atom_site_fract_z
Si Si1 0.165580 0.528351 0.591842
Si Si2 0.538945 0.107432 0.410121
Si Si3 0.831058 0.199681 0.836581
Si Si4 0.264119 0.904657 0.699786
Si Si5 0.876876 0.993227 0.414675
Si Si6 0.982173 0.370347 0.836354
Si Si7 0.370395 0.271213 0.410879
Si Si8 0.386112 0.471232 0.660093
O O1 0.165926 0.527747 0.500000
O O2 0.106989 0.434203 0.622010
O O3 0.288486 0.527868 0.619811
O O4 0.097786 0.621024 0.620194
O O5 0.576957 0.122505 0.500000
O O6 0.631872 0.127824 0.348258
O O7 0.445162 0.181884 0.388959
O O8 0.500000 0.000000 0.398402
O O9 0.771524 0.185265 0.752892
O O10 0.866303 0.097493 0.861732
O O11 0.937745 0.263538 0.831689
O O12 0.751969 0.239451 0.902330
O O13 0.288679 0.000000 0.750000
O O14 0.171096 0.920590 0.635527
O O15 0.818130 0.987126 0.500000
O O16 0.000000 0.000000 0.431914
O O17 0.000000 0.410648 0.750000
O O18 0.389614 0.305272 0.500000
O O19 0.382967 0.357965 0.350791
O O20 0.500000 0.500000 0.622256
O O21 0.381786 0.500000 0.750000
#
# Coordination Sequence:
#
# PCOD8204371 Si02
#       8
#     8   8   8   8   8   8   8   8
#     4  11  23  43  71  98 130 170 218 278 342 406
#     4  10  21  40  68  99 137 181 226 284 346 410
#     4  11  24  38  66  94 128 172 218 275 333 405
#     4  10  22  37  59  91 128 175 221 274 332 398
#     4  10  22  40  61  86 125 172 217 268 328 396
#     4  11  23  40  67  97 130 168 219 280 337 404
#     4  11  24  43  68  99 132 173 226 275 333 411
#     4  11  25  45  69  97 135 181 225 278 343 410
#
# _framework density 21.308413999999999
#
# number of rings (size 3 to 8) (size 9 to 14) (size 15 to 20)
#    0.000    1.375    1.250    4.875    1.750    9.000 
#    0.000    0.000    0.000    0.000    0.000    0.000 
#    0.000    0.000    0.000    0.000    0.000    0.000 
#
# Total GULP energy -793333.688191 kJ/mol
# GULP energy per Si atom -12395.838878 kJ/mol
# Density = 2.125992 g / cm^3
# Si number density = 21.308414 Si / 1000 Ang^3
#
#
#
# Elastic Constant Matrix: (Units=GPa)
#
#
# Indices 1 2 3 4 5 6 
#
# 1 145.5762 41.5273 58.8740 0.0000 0.0000 0.0000
# 2 41.5273 96.4094 38.3090 0.0000 0.0000 0.0000
# 3 58.8740 38.3090 138.3214 0.0000 0.0000 0.0000
# 4 0.0000 0.0000 0.0000 37.6520 0.0000 0.0000
# 5 0.0000 0.0000 0.0000 0.0000 29.3834 0.0000
# 6 0.0000 0.0000 0.0000 0.0000 0.0000 43.4966
#
#
#
# Elastic Compliance Matrix: (Units=1/GPa)
#
#
# Indices 1 2 3 4 5 6 
#
# 1 0.008841 -0.002599 -0.003043 0.000000 0.000000 0.000000
# 2 -0.002599 0.012419 -0.002333 0.000000 0.000000 0.000000
# 3 -0.003043 -0.002333 0.009171 0.000000 0.000000 0.000000
# 4 0.000000 0.000000 0.000000 0.026559 0.000000 0.000000
# 5 0.000000 0.000000 0.000000 0.000000 0.034033 0.000000
# 6 0.000000 0.000000 0.000000 0.000000 0.000000 0.022990
#
#
# Mechanical properties :
#
#
# Convention : Reuss Voigt Hill
#
# Bulk Modulus (GPa) = 69.05982 73.08085 71.07033
# Shear Modulus (GPa) = 37.09414 38.21283 37.65348
#
# Velocity S-wave (km/s) = 4.17684 4.23936 4.20821
# Velocity P-wave (km/s) = 7.46601 7.63767 7.55233
#
# Compressibility (1/GPa) = 0.01448020
#
# Stress axis : x y z
#
# Youngs Moduli (GPa) = 113.10328 80.52108 109.03784
#
# Poissons Ratio (x) = 0.20928 0.33184
# Poissons Ratio (y) = 0.29396 0.25442
# Poissons Ratio (z) = 0.34422 0.18788
#
# Static dielectric constant tensor:
#      x y z
#    x 4.002400 0.000000 0.000000 
#    y 0.000000 3.712330 0.000000 
#    z 0.000000 0.000000 4.074980 
# 
# 
# High freq. dielectric constant tensor:
#      x y z
#    x 1.842920 0.000000 0.000000 
#    y 0.000000 1.821390 0.000000 
#    z 0.000000 0.000000 1.850090 
# 
# From -- ./inp_files/17296.got.cif
#   From: 2010.03.12/outbox.cif.g09.slc.cpg/sg49_9_cif.got.tgz:17296.got - 2010.04.14 03:58:27.
