data_PCOD8204115
_publ_section_title
;
Structure prediction by ZEFSAII (Michael W. Deem and Ramdas Pophale) SiO2 
 PCOD8204115
Probable space group: P C C M
;
_chemical_formula_sum "Si O2"
_cell_formula_units_Z 58
_cell_length_a 16.886213
_cell_length_b 11.715988
_cell_length_c 13.858427
_cell_angle_alpha 90.000000
_cell_angle_beta 90.000000
_cell_angle_gamma 90.000000
_cell_volume 2741.732750
_symmetry_space_group_name_H-M "P C C M"
_symmetry_group_IT_number 49
_symmetry_cell_setting 'orthorhombic'
loop_
_space_group_symop_operation_xyz
x,y,z
-x,-y,z
x,-y,1/2-z
-x,y,1/2-z
-x,-y,-z
x,y,-z
-x,y,1/2+z
x,-y,1/2+z
loop_
_atom_site_type_symbol
_atom_site_label
_atom_site_fract_x
_atom_site_fract_y
_atom_site_fract_z
Si Si1 0.847322 0.205290 0.892618
Si Si2 0.211354 0.422275 0.891962
Si Si3 0.385382 0.485493 0.608749
Si Si4 0.872847 0.055961 0.609609
Si Si5 0.929002 0.426084 0.886329
Si Si6 0.749114 0.797487 0.786795
Si Si7 0.000000 0.000000 0.750000
Si Si8 0.584621 0.306858 0.265458
O O1 0.916197 0.293208 0.855225
O O2 0.769348 0.200055 0.826027
O O3 0.882594 0.079744 0.895721
O O4 0.819013 0.243577 0.000000
O O5 0.294539 0.482843 0.885824
O O6 0.150159 0.512520 0.850665
O O7 0.205491 0.310339 0.828783
O O8 0.189970 0.384447 0.000000
O O9 0.416088 0.468218 0.500000
O O10 0.432216 0.592869 0.655560
O O11 0.391679 0.367219 0.665750
O O12 0.882919 0.105587 0.500000
O O13 0.787386 0.094792 0.654949
O O14 0.944675 0.085456 0.683692
O O15 0.000000 0.500000 0.837607
O O16 0.941378 0.429667 0.000000
O O17 0.653149 0.783475 0.798484
O O18 0.500000 0.242374 0.250000
#
# Coordination Sequence:
#
# PCOD8204115 Si02
#       8
#     8   8   8   8   8   8   2   8
#     4  10  21  39  61  83 111 156 206 249 299 367
#     4   9  18  32  52  80 114 157 202 244 304 380
#     4   9  17  32  53  78 119 170 216 264 319 385
#     4  11  24  43  68  95 124 159 207 263 317 373
#     4   9  18  33  52  78 115 155 196 243 298 360
#     4  11  21  39  60  84 123 162 206 254 320 381
#     4  12  22  44  68  98 120 148 198 260 316 356
#     4  10  21  33  53  87 121 161 216 268 320 387
#
# _framework density 21.154506000000001
#
# number of rings (size 3 to 8) (size 9 to 14) (size 15 to 20)
#    0.000    2.069    1.379    2.276    0.000    6.069 
#    0.000    3.448    0.000    1.655    0.000    1.931 
#    0.000    0.000    0.000    0.000    0.000    0.000 
#
# Total GULP energy -718537.750930 kJ/mol
# GULP energy per Si atom -12388.581913 kJ/mol
# Density = 2.110636 g / cm^3
# Si number density = 21.154506 Si / 1000 Ang^3
#
#
#
# Elastic Constant Matrix: (Units=GPa)
#
#
# Indices 1 2 3 4 5 6 
#
# 1 88.6334 42.0937 23.9745 0.0000 0.0000 0.0000
# 2 42.0937 86.9317 21.4852 0.0000 0.0000 0.0000
# 3 23.9745 21.4852 122.8137 0.0000 0.0000 0.0000
# 4 0.0000 0.0000 0.0000 23.5720 0.0000 0.0000
# 5 0.0000 0.0000 0.0000 0.0000 10.5648 0.0000
# 6 0.0000 0.0000 0.0000 0.0000 0.0000 25.4841
#
#
#
# Elastic Compliance Matrix: (Units=1/GPa)
#
#
# Indices 1 2 3 4 5 6 
#
# 1 0.014996 -0.006833 -0.001732 0.000000 0.000000 0.000000
# 2 -0.006833 0.015137 -0.001314 0.000000 0.000000 0.000000
# 3 -0.001732 -0.001314 0.008710 0.000000 0.000000 0.000000
# 4 0.000000 0.000000 0.000000 0.042423 0.000000 0.000000
# 5 0.000000 0.000000 0.000000 0.000000 0.094654 0.000000
# 6 0.000000 0.000000 0.000000 0.000000 0.000000 0.039240
#
#
# Mechanical properties :
#
#
# Convention : Reuss Voigt Hill
#
# Bulk Modulus (GPa) = 52.39827 52.60950 52.50389
# Shear Modulus (GPa) = 20.72271 25.97921 23.35096
#
# Velocity S-wave (km/s) = 3.13323 3.50818 3.32600
# Velocity P-wave (km/s) = 6.15732 6.42907 6.29466
#
# Compressibility (1/GPa) = 0.01908460
#
# Stress axis : x y z
#
# Youngs Moduli (GPa) = 66.68361 66.06383 114.80522
#
# Poissons Ratio (x) = 0.45144 0.19884
# Poissons Ratio (y) = 0.45567 0.15087
# Poissons Ratio (z) = 0.11549 0.08682
#
# Static dielectric constant tensor:
#      x y z
#    x 3.825030 0.000000 0.000000 
#    y 0.000000 3.736340 0.000000 
#    z 0.000000 0.000000 4.316230 
# 
# 
# High freq. dielectric constant tensor:
#      x y z
#    x 1.817640 0.000000 0.000000 
#    y 0.000000 1.795980 0.000000 
#    z 0.000000 0.000000 1.844120 
# 
# From -- ./inp_files/14152.got.cif
#   From: 2010.03.12/outbox.cif.g09.slc.cpg/sg49_8_cif.got.tgz:14152.got - 2010.04.14 03:58:27.
