data_PCOD8204995
_publ_section_title
;
Structure prediction by ZEFSAII (Michael W. Deem and Ramdas Pophale) SiO2 
 PCOD8204995
Probable space group: P B A N
;
_chemical_formula_sum "Si O2"
_cell_formula_units_Z 64
_cell_length_a 33.513205
_cell_length_b 5.107968
_cell_length_c 16.497256
_cell_angle_alpha 90.000000
_cell_angle_beta 90.000000
_cell_angle_gamma 90.000000
_cell_volume 2824.072519
_symmetry_space_group_name_H-M "P B A N"
_symmetry_group_IT_number 50
_space_group.IT_coordinate_system_code '2'
_symmetry_cell_setting 'orthorhombic'
loop_
_space_group_symop_operation_xyz
x,y,z
1/2-x,1/2-y,z
x,1/2-y,-z
1/2-x,y,-z
-x,-y,-z
1/2+x,1/2+y,-z
-x,1/2+y,z
1/2+x,-y,z
loop_
_atom_site_type_symbol
_atom_site_label
_atom_site_fract_x
_atom_site_fract_y
_atom_site_fract_z
Si Si1 0.225330 0.993891 0.629136
Si Si2 0.896204 0.349093 0.090130
Si Si3 0.520091 0.764983 0.272034
Si Si4 0.636540 0.354525 0.411777
Si Si5 0.890492 0.832915 0.676270
Si Si6 0.226059 0.500249 0.178793
Si Si7 0.485720 0.628727 0.095886
Si Si8 0.139936 0.355897 0.160286
O O1 0.250000 0.250000 0.600178
O O2 0.221182 0.986052 0.725158
O O3 0.250000 0.750000 0.595764
O O4 0.181514 0.965831 0.591000
O O5 0.940311 0.455606 0.108942
O O6 0.868043 0.599231 0.105709
O O7 0.890269 0.098328 0.148464
O O8 0.888788 0.250000 0.000000
O O9 0.508276 0.489009 0.312263
O O10 0.565337 0.854644 0.286419
O O11 0.509246 0.754701 0.175944
O O12 0.625618 0.250000 0.500000
O O13 0.609310 0.609957 0.393334
O O14 0.626568 0.115062 0.350816
O O15 0.860702 0.733903 0.746263
O O16 0.250000 0.250000 0.150116
O O17 0.182792 0.477793 0.137986
O O18 0.250000 0.750000 0.145319
O O19 0.512702 0.408382 0.048740
#
# Coordination Sequence:
#
# PCOD8204995 Si02
#       8
#     8   8   8   8   8   8   8   8
#     4  10  21  39  65  93 135 171 212 266 328 402
#     4  12  26  42  65 102 143 177 214 275 349 412
#     4  10  19  36  61  93 123 160 222 283 320 379
#     4  12  26  44  65  99 143 181 223 277 345 400
#     4  12  24  41  70  99 130 180 234 282 331 394
#     4  10  21  37  64  98 129 161 217 285 329 371
#     4  10  20  37  59  90 131 171 212 260 319 397
#     4  12  23  42  70  96 132 178 230 275 330 405
#
# _framework density 22.662307999999999
#
# number of rings (size 3 to 8) (size 9 to 14) (size 15 to 20)
#    0.000    1.000    1.250    7.500    3.500    0.750 
#    0.000    0.625    0.000   13.125    0.000    0.000 
#    0.000    0.000    0.000    0.000    0.000    0.000 
#
# Total GULP energy -793344.109601 kJ/mol
# GULP energy per Si atom -12396.001713 kJ/mol
# Density = 2.261073 g / cm^3
# Si number density = 22.662308 Si / 1000 Ang^3
#
#
#
# Elastic Constant Matrix: (Units=GPa)
#
#
# Indices 1 2 3 4 5 6 
#
# 1 121.6082 56.1675 32.1693 0.0000 0.0000 0.0000
# 2 56.1675 189.3764 25.2063 0.0000 0.0000 0.0000
# 3 32.1693 25.2063 58.1916 0.0000 0.0000 0.0000
# 4 0.0000 0.0000 0.0000 35.4836 0.0000 0.0000
# 5 0.0000 0.0000 0.0000 0.0000 22.4390 0.0000
# 6 0.0000 0.0000 0.0000 0.0000 0.0000 50.9179
#
#
#
# Elastic Compliance Matrix: (Units=1/GPa)
#
#
# Indices 1 2 3 4 5 6 
#
# 1 0.010658 -0.002522 -0.004799 0.000000 0.000000 0.000000
# 2 -0.002522 0.006200 -0.001291 0.000000 0.000000 0.000000
# 3 -0.004799 -0.001291 0.020397 0.000000 0.000000 0.000000
# 4 0.000000 0.000000 0.000000 0.028182 0.000000 0.000000
# 5 0.000000 0.000000 0.000000 0.000000 0.044565 0.000000
# 6 0.000000 0.000000 0.000000 0.000000 0.000000 0.019639
#
#
# Mechanical properties :
#
#
# Convention : Reuss Voigt Hill
#
# Bulk Modulus (GPa) = 49.92651 66.25138 58.08895
# Shear Modulus (GPa) = 32.56391 38.81029 35.68710
#
# Velocity S-wave (km/s) = 3.79478 4.14278 3.97260
# Velocity P-wave (km/s) = 6.42487 7.22365 6.83594
#
# Compressibility (1/GPa) = 0.02002944
#
# Stress axis : x y z
#
# Youngs Moduli (GPa) = 93.82973 161.27869 49.02652
#
# Poissons Ratio (x) = 0.40677 0.23529
# Poissons Ratio (y) = 0.23666 0.06332
# Poissons Ratio (z) = 0.45031 0.20829
#
# Static dielectric constant tensor:
#      x y z
#    x 4.012280 0.000000 0.000000 
#    y 0.000000 4.816480 0.000000 
#    z 0.000000 0.000000 3.809380 
# 
# 
# High freq. dielectric constant tensor:
#      x y z
#    x 1.891750 0.000000 0.000000 
#    y 0.000000 1.935050 0.000000 
#    z 0.000000 0.000000 1.865500 
# 
# From -- ./inp_files/30108.got.cif
#   From: 2010.03.12/outbox.cif.g09.slc.cpg/sg50_16_cif.got.tgz:30108.got - 2010.04.16 13:23:21.
