data_PCOD8204887
_publ_section_title
;
Structure prediction by ZEFSAII (Michael W. Deem and Ramdas Pophale) SiO2 
 PCOD8204887
Probable space group: P B A N
;
_chemical_formula_sum "Si O2"
_cell_formula_units_Z 48
_cell_length_a 19.240777
_cell_length_b 17.967185
_cell_length_c 7.924419
_cell_angle_alpha 90.000000
_cell_angle_beta 90.000000
_cell_angle_gamma 90.000000
_cell_volume 2739.492251
_symmetry_space_group_name_H-M "P B A N"
_symmetry_group_IT_number 50
_space_group.IT_coordinate_system_code '2'
_symmetry_cell_setting 'orthorhombic'
loop_
_space_group_symop_operation_xyz
x,y,z
1/2-x,1/2-y,z
x,1/2-y,-z
1/2-x,y,-z
-x,-y,-z
1/2+x,1/2+y,-z
-x,1/2+y,z
1/2+x,-y,z
loop_
_atom_site_type_symbol
_atom_site_label
_atom_site_fract_x
_atom_site_fract_y
_atom_site_fract_z
Si Si1 0.176163 0.594447 0.407783
Si Si2 0.572451 0.320926 0.618280
Si Si3 0.581503 0.804931 0.658233
Si Si4 0.177406 0.732797 0.190889
Si Si5 0.250000 0.128378 0.000000
Si Si6 0.364361 0.250000 0.000000
Si Si7 0.199440 0.071765 0.656767
O O1 0.250000 0.607021 0.500000
O O2 0.113272 0.609596 0.538036
O O3 0.162240 0.647619 0.245510
O O4 0.167456 0.510338 0.346203
O O5 0.570148 0.250000 0.500000
O O6 0.494011 0.344444 0.663836
O O7 0.616085 0.291520 0.776027
O O8 0.590188 0.750000 0.500000
O O9 0.638581 0.868523 0.644125
O O10 0.588883 0.759422 0.832992
O O11 0.250000 0.750000 0.289864
O O12 0.192308 0.750000 0.000000
O O13 0.317686 0.177864 0.968620
O O14 0.240923 0.078447 0.833040
O O15 0.250000 0.086365 0.500000
#
# Coordination Sequence:
#
# PCOD8204887 Si02
#       7
#     8   8   8   8   4   4   8
#     4  10  19  35  52  76 108 138 175 220 270 318
#     4   9  19  33  53  77 106 139 173 220 263 319
#     4  10  20  35  55  81 108 141 183 217 265 323
#     4  10  19  31  54  79  99 133 178 220 262 311
#     4   9  18  34  52  80 103 136 186 220 265 314
#     4   9  18  32  56  76 105 138 176 234 261 300
#     4  10  21  35  56  79 109 145 175 222 270 317
#
# _framework density 17.521495999999999
#
# number of rings (size 3 to 8) (size 9 to 14) (size 15 to 20)
#    0.000    2.333    1.667    1.000    1.167    3.667 
#    0.000    0.000    0.000    1.000    0.000    0.000 
#    0.000    0.000    0.000    0.000    0.000    0.000 
#
# Total GULP energy -594772.483117 kJ/mol
# GULP energy per Si atom -12391.093398 kJ/mol
# Density = 1.748162 g / cm^3
# Si number density = 17.521496 Si / 1000 Ang^3
#
#
#
# Elastic Constant Matrix: (Units=GPa)
#
#
# Indices 1 2 3 4 5 6 
#
# 1 116.0947 41.4607 55.8324 0.0000 0.0000 0.0000
# 2 41.4607 107.0263 58.6930 0.0000 0.0000 0.0000
# 3 55.8324 58.6930 125.7526 0.0000 0.0000 0.0000
# 4 0.0000 0.0000 0.0000 24.2506 0.0000 0.0000
# 5 0.0000 0.0000 0.0000 0.0000 19.8657 0.0000
# 6 0.0000 0.0000 0.0000 0.0000 0.0000 14.2608
#
#
#
# Elastic Compliance Matrix: (Units=1/GPa)
#
#
# Indices 1 2 3 4 5 6 
#
# 1 0.011322 -0.002190 -0.004005 0.000000 0.000000 0.000000
# 2 -0.002190 0.012981 -0.005087 0.000000 0.000000 0.000000
# 3 -0.004005 -0.005087 0.012104 0.000000 0.000000 0.000000
# 4 0.000000 0.000000 0.000000 0.041236 0.000000 0.000000
# 5 0.000000 0.000000 0.000000 0.000000 0.050338 0.000000
# 6 0.000000 0.000000 0.000000 0.000000 0.000000 0.070123
#
#
# Mechanical properties :
#
#
# Convention : Reuss Voigt Hill
#
# Bulk Modulus (GPa) = 72.22724 73.42731 72.82728
# Shear Modulus (GPa) = 22.19455 24.53457 23.36456
#
# Velocity S-wave (km/s) = 3.56294 3.74606 3.65565
# Velocity P-wave (km/s) = 7.63136 7.79157 7.71188
#
# Compressibility (1/GPa) = 0.01384519
#
# Stress axis : x y z
#
# Youngs Moduli (GPa) = 88.32701 77.03418 82.61597
#
# Poissons Ratio (x) = 0.16868 0.33084
# Poissons Ratio (y) = 0.19341 0.42023
# Poissons Ratio (z) = 0.35371 0.39184
#
# Static dielectric constant tensor:
#      x y z
#    x 3.929400 0.000000 0.000000 
#    y 0.000000 3.116600 0.000000 
#    z 0.000000 0.000000 3.149020 
# 
# 
# High freq. dielectric constant tensor:
#      x y z
#    x 1.682690 0.000000 0.000000 
#    y 0.000000 1.663230 0.000000 
#    z 0.000000 0.000000 1.680570 
# 
# From -- ./inp_files/15428.got.cif
#   From: 2010.03.12/outbox.cif.g09.slc.cpg/sg50_8_cif.got.tgz:15428.got - 2010.04.16 13:23:21.
