data_PCOD8204451
_publ_section_title
;
Structure prediction by ZEFSAII (Michael W. Deem and Ramdas Pophale) SiO2 
 PCOD8204451
Probable space group: P C C M
;
_chemical_formula_sum "Si O2"
_cell_formula_units_Z 32
_cell_length_a 9.085872
_cell_length_b 15.763549
_cell_length_c 10.361881
_cell_angle_alpha 90.000000
_cell_angle_beta 90.000000
_cell_angle_gamma 90.000000
_cell_volume 1484.086504
_symmetry_space_group_name_H-M "P C C M"
_symmetry_group_IT_number 49
_symmetry_cell_setting 'orthorhombic'
loop_
_space_group_symop_operation_xyz
x,y,z
-x,-y,z
x,-y,1/2-z
-x,y,1/2-z
-x,-y,-z
x,y,-z
-x,y,1/2+z
x,-y,1/2+z
loop_
_atom_site_type_symbol
_atom_site_label
_atom_site_fract_x
_atom_site_fract_y
_atom_site_fract_z
Si Si1 0.330335 0.835263 0.260465
Si Si2 0.074296 0.591819 0.365496
Si Si3 0.164976 0.886155 0.000000
Si Si4 0.616496 0.647796 0.147306
Si Si5 0.168165 0.912685 0.500000
O O1 0.500000 0.865033 0.250000
O O2 0.323885 0.737634 0.303299
O O3 0.253662 0.889279 0.370639
O O4 0.245897 0.847653 0.125289
O O5 0.041865 0.640274 0.500000
O O6 0.248784 0.581809 0.348270
O O7 0.000000 0.500000 0.368890
O O8 0.000000 0.645669 0.250000
O O9 0.990331 0.865198 0.000000
O O10 0.166615 0.986811 0.000000
O O11 0.500000 0.611796 0.250000
O O12 0.552938 0.654454 0.000000
#
# Coordination Sequence:
#
# PCOD8204451 Si02
#       5
#     8   8   4   8   4
#     4  11  23  40  62  91 125 167 218 271 319 387
#     4   9  19  38  62  91 125 158 201 250 302 369
#     4  11  25  39  63  89 124 174 213 268 337 375
#     4  10  22  40  63  92 125 165 208 260 316 373
#     4  11  23  43  59  89 130 164 219 270 323 397
#
# _framework density 21.562086999999998
#
# number of rings (size 3 to 8) (size 9 to 14) (size 15 to 20)
#    0.000    1.750    1.250    2.250    5.250    8.000 
#    0.000    2.500    0.000   13.500    0.000    0.000 
#    0.000    0.000    0.000    0.000    0.000    0.000 
#
# Total GULP energy -396460.947596 kJ/mol
# GULP energy per Si atom -12389.404612 kJ/mol
# Density = 2.151301 g / cm^3
# Si number density = 21.562087 Si / 1000 Ang^3
#
#
#
# Elastic Constant Matrix: (Units=GPa)
#
#
# Indices 1 2 3 4 5 6 
#
# 1 168.5202 38.8340 110.4266 0.0000 0.0000 0.0000
# 2 38.8340 42.5384 21.2709 0.0000 0.0000 0.0000
# 3 110.4266 21.2709 254.6188 0.0000 0.0000 0.0000
# 4 0.0000 0.0000 0.0000 -38.7908 0.0000 0.0000
# 5 0.0000 0.0000 0.0000 0.0000 48.2010 0.0000
# 6 0.0000 0.0000 0.0000 0.0000 0.0000 32.3401
#
#
#
# Elastic Compliance Matrix: (Units=1/GPa)
#
#
# Indices 1 2 3 4 5 6 
#
# 1 0.010089 -0.007328 -0.003763 0.000000 0.000000 0.000000
# 2 -0.007328 0.029856 0.000684 0.000000 0.000000 0.000000
# 3 -0.003763 0.000684 0.005502 0.000000 0.000000 0.000000
# 4 0.000000 0.000000 0.000000 -0.025779 0.000000 0.000000
# 5 0.000000 0.000000 0.000000 0.000000 0.020746 0.000000
# 6 0.000000 0.000000 0.000000 0.000000 0.000000 0.030921
#
#
# Mechanical properties :
#
#
# Convention : Reuss Voigt Hill
#
# Bulk Modulus (GPa) = 40.59697 89.63783 65.11740
# Shear Modulus (GPa) = 49.81981 28.02644 38.92313
#
# Velocity S-wave (km/s) = 4.81201 3.60919 4.25333
# Velocity P-wave (km/s) = 7.05285 7.68313 7.37473
#
# Compressibility (1/GPa) = 0.02463238
#
# Stress axis : x y z
#
# Youngs Moduli (GPa) = 99.12101 33.49373 181.74014
#
# Poissons Ratio (x) = 0.24545 0.68392
# Poissons Ratio (y) = 0.72640 -0.12432
# Poissons Ratio (z) = 0.37301 -0.02291
#
# Static dielectric constant tensor:
#      x y z
#    x 4.321050 0.000000 0.000000 
#    y 0.000000 3.531970 0.000000 
#    z 0.000000 0.000000 4.865180 
# 
# 
# High freq. dielectric constant tensor:
#      x y z
#    x 1.856650 0.000000 0.000000 
#    y 0.000000 1.820250 0.000000 
#    z 0.000000 0.000000 1.883410 
# 
# From -- ./inp_files/8097.got.cif
#   From: 2010.03.12/outbox.cif.g09.slc.cpg/sg49_5_cif.got.tgz:8097.got - 2010.04.14 03:58:27.
