data_PCOD8204128
_publ_section_title
;
Structure prediction by ZEFSAII (Michael W. Deem and Ramdas Pophale) SiO2 
 PCOD8204128
Probable space group: P C C M
;
_chemical_formula_sum "Si O2"
_cell_formula_units_Z 64
_cell_length_a 18.170785
_cell_length_b 20.502597
_cell_length_c 9.307273
_cell_angle_alpha 90.000000
_cell_angle_beta 90.000000
_cell_angle_gamma 90.000000
_cell_volume 3467.408567
_symmetry_space_group_name_H-M "P C C M"
_symmetry_group_IT_number 49
_symmetry_cell_setting 'orthorhombic'
loop_
_space_group_symop_operation_xyz
x,y,z
-x,-y,z
x,-y,1/2-z
-x,y,1/2-z
-x,-y,-z
x,y,-z
-x,y,1/2+z
x,-y,1/2+z
loop_
_atom_site_type_symbol
_atom_site_label
_atom_site_fract_x
_atom_site_fract_y
_atom_site_fract_z
Si Si1 0.073859 0.195969 0.668357
Si Si2 0.350930 0.687766 0.166691
Si Si3 0.178433 0.438283 0.837544
Si Si4 0.681603 0.936632 0.332490
Si Si5 0.353737 0.561778 0.662548
Si Si6 0.149385 0.063628 0.668096
Si Si7 0.819444 0.312644 0.834072
Si Si8 0.425574 0.178312 0.668698
O O1 0.057761 0.196194 0.500000
O O2 0.102094 0.125368 0.719692
O O3 0.135738 0.248525 0.708817
O O4 0.000000 0.214815 0.750000
O O5 0.381027 0.627630 0.260377
O O6 0.265602 0.702413 0.198400
O O7 0.396835 0.750685 0.214314
O O8 0.362487 0.670409 0.000000
O O9 0.146703 0.500000 0.750000
O O10 0.266104 0.440642 0.836808
O O11 0.150806 0.372447 0.761177
O O12 0.147914 0.440340 0.000000
O O13 0.672624 0.950598 0.500000
O O14 0.766017 0.922347 0.291282
O O15 0.635035 0.874267 0.283531
O O16 0.651672 0.000000 0.250000
O O17 0.385513 0.500000 0.750000
O O18 0.384266 0.560024 0.500000
O O19 0.140256 0.051040 0.500000
O O20 0.119378 0.000000 0.750000
O O21 0.830734 0.331831 0.000000
O O22 0.500000 0.161584 0.750000
O O23 0.440297 0.174892 0.500000
#
# Coordination Sequence:
#
# PCOD8204128 Si02
#       8
#     8   8   8   8   8   8   8   8
#     4  10  21  35  51  72 100 133 166 202 245 293
#     4   9  17  31  51  72  95 127 166 205 245 290
#     4   9  16  26  43  70 101 129 159 199 246 293
#     4   9  18  34  55  77 100 128 164 204 245 290
#     4   9  16  26  43  70 101 129 159 199 246 293
#     4   9  18  34  55  77 100 128 164 204 245 290
#     4   9  17  31  51  72  95 127 166 205 245 290
#     4  10  21  35  51  72 100 133 166 202 245 293
#
# _framework density 18.457588999999999
#
# number of rings (size 3 to 8) (size 9 to 14) (size 15 to 20)
#    0.000    2.750    0.000    1.500    0.000    8.500 
#    0.000    2.500    0.000    8.250    0.000    5.250 
#    0.000    0.000    0.000    0.000    0.000    0.000 
#
# Total GULP energy -793712.017493 kJ/mol
# GULP energy per Si atom -12401.750273 kJ/mol
# Density = 1.841558 g / cm^3
# Si number density = 18.457589 Si / 1000 Ang^3
#
#
#
# Elastic Constant Matrix: (Units=GPa)
#
#
# Indices 1 2 3 4 5 6 
#
# 1 31.0348 8.7916 15.0587 0.0000 0.0000 0.0000
# 2 8.7916 102.6891 45.7857 0.0000 0.0000 0.0000
# 3 15.0587 45.7857 70.3514 0.0000 0.0000 0.0000
# 4 0.0000 0.0000 0.0000 37.1419 0.0000 0.0000
# 5 0.0000 0.0000 0.0000 0.0000 20.7413 0.0000
# 6 0.0000 0.0000 0.0000 0.0000 0.0000 4.2800
#
#
#
# Elastic Compliance Matrix: (Units=1/GPa)
#
#
# Indices 1 2 3 4 5 6 
#
# 1 0.035974 0.000498 -0.008024 0.000000 0.000000 0.000000
# 2 0.000498 0.013726 -0.009040 0.000000 0.000000 0.000000
# 3 -0.008024 -0.009040 0.021815 0.000000 0.000000 0.000000
# 4 0.000000 0.000000 0.000000 0.026924 0.000000 0.000000
# 5 0.000000 0.000000 0.000000 0.000000 0.048213 0.000000
# 6 0.000000 0.000000 0.000000 0.000000 0.000000 0.233646
#
#
# Mechanical properties :
#
#
# Convention : Reuss Voigt Hill
#
# Bulk Modulus (GPa) = 26.05302 38.14971 32.10137
# Shear Modulus (GPa) = 11.73090 21.39526 16.56308
#
# Velocity S-wave (km/s) = 2.52377 3.40833 2.99884
# Velocity P-wave (km/s) = 4.75797 6.01687 5.42406
#
# Compressibility (1/GPa) = 0.03838326
#
# Stress axis : x y z
#
# Youngs Moduli (GPa) = 27.79757 72.85455 45.83990
#
# Poissons Ratio (x) = -0.03627 0.36783
# Poissons Ratio (y) = -0.01384 0.41438
# Poissons Ratio (z) = 0.22306 0.65858
#
# Static dielectric constant tensor:
#      x y z
#    x 3.045110 0.000000 0.000000 
#    y 0.000000 3.575100 0.000000 
#    z 0.000000 0.000000 3.396420 
# 
# 
# High freq. dielectric constant tensor:
#      x y z
#    x 1.681260 0.000000 0.000000 
#    y 0.000000 1.729680 0.000000 
#    z 0.000000 0.000000 1.712840 
# 
# From -- ./inp_files/5266.got.cif
#   From: 2010.03.12/outbox.cif.g09.slc.cpg/sg49_3_cif.got.tgz:5266.got - 2010.04.14 03:58:27.
