data_PCOD8204330
_publ_section_title
;
Structure prediction by ZEFSAII (Michael W. Deem and Ramdas Pophale) SiO2 
 PCOD8204330
Probable space group: P C C M
;
_chemical_formula_sum "Si O2"
_cell_formula_units_Z 56
_cell_length_a 8.757352
_cell_length_b 19.163143
_cell_length_c 17.034563
_cell_angle_alpha 90.000000
_cell_angle_beta 90.000000
_cell_angle_gamma 90.000000
_cell_volume 2858.712914
_symmetry_space_group_name_H-M "P C C M"
_symmetry_group_IT_number 49
_symmetry_cell_setting 'orthorhombic'
loop_
_space_group_symop_operation_xyz
x,y,z
-x,-y,z
x,-y,1/2-z
-x,y,1/2-z
-x,-y,-z
x,y,-z
-x,y,1/2+z
x,-y,1/2+z
loop_
_atom_site_type_symbol
_atom_site_label
_atom_site_fract_x
_atom_site_fract_y
_atom_site_fract_z
Si Si1 0.307561 0.209236 0.409224
Si Si2 0.897332 0.681389 0.322734
Si Si3 0.186810 0.349104 0.091170
Si Si4 0.350824 0.792808 0.408612
Si Si5 0.176375 0.080211 0.838083
Si Si6 0.674654 0.419391 0.265259
Si Si7 0.829821 0.923554 0.346357
O O1 0.286458 0.230058 0.500000
O O2 0.190233 0.252549 0.356806
O O3 0.478573 0.224904 0.378976
O O4 0.275877 0.127411 0.397012
O O5 0.778867 0.622941 0.295288
O O6 0.000000 0.707803 0.250000
O O7 0.006809 0.647218 0.388901
O O8 0.241677 0.271271 0.113433
O O9 0.281898 0.403305 0.144277
O O10 0.215282 0.367551 0.000000
O O11 0.356748 0.805938 0.500000
O O12 0.292018 0.864024 0.372204
O O13 0.188624 0.088567 0.745515
O O14 0.005013 0.092412 0.869236
O O15 0.222347 0.002388 0.865949
O O16 0.705708 0.500000 0.250000
O O17 0.500000 0.398896 0.250000
#
# Coordination Sequence:
#
# PCOD8204330 Si02
#       7
#     8   8   8   8   8   8   8
#     4  11  23  37  54  84 117 151 193 239 290 347
#     4  10  22  37  61  89 117 153 196 238 287 340
#     4  10  21  39  62  90 121 157 198 247 293 339
#     4  10  22  37  56  81 116 153 190 239 293 342
#     4   9  19  37  55  79 107 148 195 243 289 348
#     4  10  22  42  65  92 123 159 196 234 286 352
#     4   9  20  35  56  78 109 146 196 244 290 342
#
# _framework density 19.589237000000001
#
# number of rings (size 3 to 8) (size 9 to 14) (size 15 to 20)
#    0.000    2.143    0.000    3.000    6.000    6.000 
#    0.000    8.571    0.000    0.000    0.000    0.000 
#    0.000    0.000    0.000    0.000    0.000    0.000 
#
# Total GULP energy -694476.690215 kJ/mol
# GULP energy per Si atom -12401.369468 kJ/mol
# Density = 1.954465 g / cm^3
# Si number density = 19.589237 Si / 1000 Ang^3
#
#
#
# Elastic Constant Matrix: (Units=GPa)
#
#
# Indices 1 2 3 4 5 6 
#
# 1 129.0065 66.8374 58.5045 0.0000 0.0000 0.0000
# 2 66.8374 112.2491 57.7929 0.0000 0.0000 0.0000
# 3 58.5045 57.7929 76.2744 0.0000 0.0000 0.0000
# 4 0.0000 0.0000 0.0000 23.4121 0.0000 0.0000
# 5 0.0000 0.0000 0.0000 0.0000 28.4111 0.0000
# 6 0.0000 0.0000 0.0000 0.0000 0.0000 33.8205
#
#
#
# Elastic Compliance Matrix: (Units=1/GPa)
#
#
# Indices 1 2 3 4 5 6 
#
# 1 0.013032 -0.004285 -0.006750 0.000000 0.000000 0.000000
# 2 -0.004285 0.016016 -0.008849 0.000000 0.000000 0.000000
# 3 -0.006750 -0.008849 0.024992 0.000000 0.000000 0.000000
# 4 0.000000 0.000000 0.000000 0.042713 0.000000 0.000000
# 5 0.000000 0.000000 0.000000 0.000000 0.035197 0.000000
# 6 0.000000 0.000000 0.000000 0.000000 0.000000 0.029568
#
#
# Mechanical properties :
#
#
# Convention : Reuss Voigt Hill
#
# Bulk Modulus (GPa) = 70.05520 75.97773 73.01647
# Shear Modulus (GPa) = 24.26674 26.08844 25.17759
#
# Velocity S-wave (km/s) = 3.52345 3.65331 3.58896
# Velocity P-wave (km/s) = 7.23828 7.52763 7.38437
#
# Compressibility (1/GPa) = 0.01427446
#
# Stress axis : x y z
#
# Youngs Moduli (GPa) = 76.73135 62.43756 40.01242
#
# Poissons Ratio (x) = 0.26754 0.27007
# Poissons Ratio (y) = 0.32879 0.35405
# Poissons Ratio (z) = 0.51790 0.55249
#
# Static dielectric constant tensor:
#      x y z
#    x 3.907420 0.000000 0.000000 
#    y 0.000000 3.539480 0.000000 
#    z 0.000000 0.000000 3.515900 
# 
# 
# High freq. dielectric constant tensor:
#      x y z
#    x 1.771710 0.000000 0.000000 
#    y 0.000000 1.759280 0.000000 
#    z 0.000000 0.000000 1.759380 
# 
# From -- ./inp_files/11973.got.cif
#   From: 2010.03.12/outbox.cif.g09.slc.cpg/sg49_6_cif.got.tgz:11973.got - 2010.04.14 03:58:27.
