data_PCOD8204504
_publ_section_title
;
Structure prediction by ZEFSAII (Michael W. Deem and Ramdas Pophale) SiO2 
 PCOD8204504
Probable space group: P C C M
;
_chemical_formula_sum "Si O2"
_cell_formula_units_Z 64
_cell_length_a 15.365092
_cell_length_b 23.509655
_cell_length_c 8.685262
_cell_angle_alpha 90.000000
_cell_angle_beta 90.000000
_cell_angle_gamma 90.000000
_cell_volume 3137.359926
_symmetry_space_group_name_H-M "P C C M"
_symmetry_group_IT_number 49
_symmetry_cell_setting 'orthorhombic'
loop_
_space_group_symop_operation_xyz
x,y,z
-x,-y,z
x,-y,1/2-z
-x,y,1/2-z
-x,-y,-z
x,y,-z
-x,y,1/2+z
x,-y,1/2+z
loop_
_atom_site_type_symbol
_atom_site_label
_atom_site_fract_x
_atom_site_fract_y
_atom_site_fract_z
Si Si1 0.739164 0.939007 0.818286
Si Si2 0.590969 0.373090 0.316757
Si Si3 0.152568 0.752543 0.318161
Si Si4 0.091064 0.124622 0.181918
Si Si5 0.340002 0.740680 0.177049
Si Si6 0.911753 0.639154 0.680721
Si Si7 0.590777 0.136025 0.823787
Si Si8 0.751240 0.438868 0.817011
O O1 0.833529 0.917872 0.759305
O O2 0.668132 0.893690 0.766807
O O3 0.716883 0.000000 0.750000
O O4 0.737208 0.942890 0.000000
O O5 0.500000 0.395959 0.250000
O O6 0.588454 0.371005 0.500000
O O7 0.606483 0.310432 0.250617
O O8 0.663720 0.416831 0.261021
O O9 0.145873 0.745901 0.500000
O O10 0.112633 0.811943 0.259367
O O11 0.252432 0.749728 0.270771
O O12 0.097354 0.703320 0.239245
O O13 0.000000 0.103156 0.250000
O O14 0.085423 0.123660 0.000000
O O15 0.399434 0.796266 0.189809
O O16 0.316869 0.726032 0.000000
O O17 0.920480 0.639130 0.500000
O O18 0.829203 0.602546 0.734435
O O19 0.000000 0.612307 0.750000
O O20 0.500000 0.117012 0.750000
O O21 0.592984 0.115821 0.000000
O O22 0.774588 0.500000 0.750000
O O23 0.739834 0.441048 0.000000
#
# Coordination Sequence:
#
# PCOD8204504 Si02
#       8
#     8   8   8   8   8   8   8   8
#     4  11  24  44  65  90 123 162 211 262 313 370
#     4  12  25  42  67  96 130 169 210 259 314 375
#     4  11  21  37  63  94 128 168 208 253 316 376
#     4  10  23  40  62  92 126 164 206 256 309 370
#     4  11  22  38  63  96 131 167 207 253 313 377
#     4  11  24  41  64  94 130 167 210 261 314 375
#     4  11  24  41  65  95 127 166 206 255 311 371
#     4  11  25  45  67  93 126 166 215 266 317 373
#
# _framework density 20.399318999999998
#
# number of rings (size 3 to 8) (size 9 to 14) (size 15 to 20)
#    0.000    1.000    2.500    4.125    0.000    8.000 
#    0.000    5.000    0.000    0.000    0.000    0.000 
#    0.000    0.000    0.000    0.000    0.000    0.000 
#
# Total GULP energy -794022.445525 kJ/mol
# GULP energy per Si atom -12406.600711 kJ/mol
# Density = 2.035289 g / cm^3
# Si number density = 20.399319 Si / 1000 Ang^3
#
#
#
# Elastic Constant Matrix: (Units=GPa)
#
#
# Indices 1 2 3 4 5 6 
#
# 1 118.0996 13.5101 17.6450 0.0000 0.0000 0.0000
# 2 13.5101 72.2270 40.3343 0.0000 0.0000 0.0000
# 3 17.6450 40.3343 31.2478 0.0000 0.0000 0.0000
# 4 0.0000 0.0000 0.0000 22.9085 0.0000 0.0000
# 5 0.0000 0.0000 0.0000 0.0000 38.0831 0.0000
# 6 0.0000 0.0000 0.0000 0.0000 0.0000 15.0652
#
#
#
# Elastic Compliance Matrix: (Units=1/GPa)
#
#
# Indices 1 2 3 4 5 6 
#
# 1 0.009627 0.004424 -0.011146 0.000000 0.000000 0.000000
# 2 0.004424 0.051627 -0.069137 0.000000 0.000000 0.000000
# 3 -0.011146 -0.069137 0.127538 0.000000 0.000000 0.000000
# 4 0.000000 0.000000 0.000000 0.043652 0.000000 0.000000
# 5 0.000000 0.000000 0.000000 0.000000 0.026258 0.000000
# 6 0.000000 0.000000 0.000000 0.000000 0.000000 0.066378
#
#
# Mechanical properties :
#
#
# Convention : Reuss Voigt Hill
#
# Bulk Modulus (GPa) = 26.97449 40.50591 33.74020
# Shear Modulus (GPa) = 10.22168 25.21702 17.71935
#
# Velocity S-wave (km/s) = 2.24091 3.51974 2.95044
# Velocity P-wave (km/s) = 4.46626 6.03470 5.30873
#
# Compressibility (1/GPa) = 0.03707206
#
# Stress axis : x y z
#
# Youngs Moduli (GPa) = 103.87781 19.36985 7.84081
#
# Poissons Ratio (x) = -0.08569 0.08740
# Poissons Ratio (y) = -0.45953 0.54209
# Poissons Ratio (z) = 1.15784 1.33918
#
# Static dielectric constant tensor:
#      x y z
#    x 4.016570 0.000000 0.000000 
#    y 0.000000 3.763650 0.000000 
#    z 0.000000 0.000000 3.779590 
# 
# 
# High freq. dielectric constant tensor:
#      x y z
#    x 1.813120 0.000000 0.000000 
#    y 0.000000 1.795140 0.000000 
#    z 0.000000 0.000000 1.808220 
# 
# From -- ./inp_files/4414.got.cif
#   From: 2010.03.12/outbox.cif.g09.slc.cpg/sg49_3_cif.got.tgz:4414.got - 2010.04.14 03:58:27.
