data_PCOD8205765
_publ_section_title
;
Structure prediction by ZEFSAII (Michael W. Deem and Ramdas Pophale) SiO2 
 PCOD8205765
Probable space group: P B A N
;
_chemical_formula_sum "Si O2"
_cell_formula_units_Z 48
_cell_length_a 16.962650
_cell_length_b 15.020294
_cell_length_c 9.744710
_cell_angle_alpha 90.000000
_cell_angle_beta 90.000000
_cell_angle_gamma 90.000000
_cell_volume 2482.796095
_symmetry_space_group_name_H-M "P B A N"
_symmetry_group_IT_number 50
_space_group.IT_coordinate_system_code '2'
_symmetry_cell_setting 'orthorhombic'
loop_
_space_group_symop_operation_xyz
x,y,z
1/2-x,1/2-y,z
x,1/2-y,-z
1/2-x,y,-z
-x,-y,-z
1/2+x,1/2+y,-z
-x,1/2+y,z
1/2+x,-y,z
loop_
_atom_site_type_symbol
_atom_site_label
_atom_site_fract_x
_atom_site_fract_y
_atom_site_fract_z
Si Si1 0.866038 0.750000 0.000000
Si Si2 0.060096 0.560364 0.589673
Si Si3 0.946539 0.825683 0.741266
Si Si4 0.468943 0.750000 0.500000
Si Si5 0.694591 0.571104 0.623264
Si Si6 0.697434 0.930442 0.882432
Si Si7 0.974813 0.498768 0.842330
O O1 0.924522 0.786559 0.886519
O O2 0.814520 0.671617 0.932304
O O3 0.076547 0.656588 0.519522
O O4 0.147766 0.519647 0.590382
O O5 0.000000 0.500000 0.500000
O O6 0.023886 0.567860 0.745295
O O7 0.869614 0.855322 0.658300
O O8 0.982315 0.752264 0.641214
O O9 0.009064 0.903766 0.771731
O O10 0.750000 0.602815 0.500000
O O11 0.751219 0.560882 0.749674
O O12 0.617328 0.980340 0.845352
O O13 0.750000 0.978929 0.000000
O O14 0.000000 0.500000 0.000000
#
# Coordination Sequence:
#
# PCOD8205765 Si02
#       7
#     4   8   8   4   8   8   8
#     4  12  23  42  58 100 137 166 216 268 337 410
#     4  11  22  45  63  94 130 170 230 263 326 396
#     4  11  25  41  64  99 125 175 221 266 336 387
#     4  12  24  42  72  94 128 174 232 288 306 392
#     4  11  24  40  62  92 129 172 208 263 336 395
#     4  12  23  39  63  92 133 169 203 273 332 393
#     4  11  21  42  67  89 128 173 217 262 319 404
#
# _framework density 19.333041999999999
#
# number of rings (size 3 to 8) (size 9 to 14) (size 15 to 20)
#    0.000    0.667    6.667    3.250    2.333    0.000 
#    0.000    0.417    0.000    0.000    0.000    0.000 
#    0.000    0.000    0.000    0.000    0.000    0.000 
#
# Total GULP energy -594747.809890 kJ/mol
# GULP energy per Si atom -12390.579373 kJ/mol
# Density = 1.928904 g / cm^3
# Si number density = 19.333042 Si / 1000 Ang^3
#
#
#
# Elastic Constant Matrix: (Units=GPa)
#
#
# Indices 1 2 3 4 5 6 
#
# 1 104.2192 33.4835 43.6237 0.0000 0.0000 0.0000
# 2 33.4835 81.7614 49.9324 0.0000 0.0000 0.0000
# 3 43.6237 49.9324 130.6067 0.0000 0.0000 0.0000
# 4 0.0000 0.0000 0.0000 36.5913 0.0000 0.0000
# 5 0.0000 0.0000 0.0000 0.0000 261.7139 0.0000
# 6 0.0000 0.0000 0.0000 0.0000 0.0000 21.2061
#
#
#
# Elastic Compliance Matrix: (Units=1/GPa)
#
#
# Indices 1 2 3 4 5 6 
#
# 1 0.011745 -0.003149 -0.002719 0.000000 0.000000 0.000000
# 2 -0.003149 0.016801 -0.005371 0.000000 0.000000 0.000000
# 3 -0.002719 -0.005371 0.010618 0.000000 0.000000 0.000000
# 4 0.000000 0.000000 0.000000 0.027329 0.000000 0.000000
# 5 0.000000 0.000000 0.000000 0.000000 0.003821 0.000000
# 6 0.000000 0.000000 0.000000 0.000000 0.000000 0.047156
#
#
# Mechanical properties :
#
#
# Convention : Reuss Voigt Hill
#
# Bulk Modulus (GPa) = 59.93432 63.40741 61.67086
# Shear Modulus (GPa) = 34.36175 76.53879 55.45027
#
# Velocity S-wave (km/s) = 4.22045 6.29885 5.36133
# Velocity P-wave (km/s) = 7.40391 9.26118 8.38413
#
# Compressibility (1/GPa) = 0.01668493
#
# Stress axis : x y z
#
# Youngs Moduli (GPa) = 85.14196 59.52127 94.17837
#
# Poissons Ratio (x) = 0.18746 0.25606
# Poissons Ratio (y) = 0.26815 0.50585
# Poissons Ratio (z) = 0.23149 0.31970
#
# Static dielectric constant tensor:
#      x y z
#    x 3.066430 0.000000 0.000000 
#    y 0.000000 3.621550 0.000000 
#    z 0.000000 0.000000 4.027640 
# 
# 
# High freq. dielectric constant tensor:
#      x y z
#    x 1.745320 0.000000 0.000000 
#    y 0.000000 1.734290 0.000000 
#    z 0.000000 0.000000 1.786550 
# 
# From -- ./inp_files/13036.got.cif
#   From: 2010.03.12/outbox.cif.g09.slc.cpg/sg50_7_cif.got.tgz:13036.got - 2010.04.16 13:23:21.
