data_PCOD8205952
_publ_section_title
;
Structure prediction by ZEFSAII (Michael W. Deem and Ramdas Pophale) SiO2 
 PCOD8205952
Probable space group: P M M A
;
_chemical_formula_sum "Si O2"
_cell_formula_units_Z 48
_cell_length_a 8.899215
_cell_length_b 30.827604
_cell_length_c 9.441834
_cell_angle_alpha 90.000000
_cell_angle_beta 90.000000
_cell_angle_gamma 90.000000
_cell_volume 2590.286675
_symmetry_space_group_name_H-M "P M M A"
_symmetry_group_IT_number 51
_symmetry_cell_setting 'orthorhombic'
loop_
_space_group_symop_operation_xyz
x,y,z
1/2-x,-y,z
1/2+x,-y,-z
-x,y,-z
-x,-y,-z
1/2+x,y,-z
1/2-x,y,z
x,-y,z
loop_
_atom_site_type_symbol
_atom_site_label
_atom_site_fract_x
_atom_site_fract_y
_atom_site_fract_z
Si Si1 0.926829 0.754074 0.853709
Si Si2 0.424341 0.178212 0.651107
Si Si3 0.575886 0.916859 0.348453
Si Si4 0.072898 0.420099 0.347182
Si Si5 0.426003 0.655563 0.146272
Si Si6 0.072637 0.500000 0.154228
Si Si7 0.071332 0.000000 0.342700
O O1 0.750000 0.759750 0.865732
O O2 0.972476 0.704728 0.815504
O O3 0.990354 0.785184 0.735671
O O4 0.000000 0.768515 0.000000
O O5 0.500000 0.177019 0.500000
O O6 0.250000 0.190613 0.636579
O O7 0.441748 0.130484 0.725469
O O8 0.500000 0.912618 0.500000
O O9 0.750000 0.929306 0.366098
O O10 0.490625 0.956149 0.264910
O O11 0.250000 0.421891 0.369363
O O12 0.020763 0.374879 0.275444
O O13 0.018748 0.458259 0.243006
O O14 0.000000 0.425290 0.500000
O O15 0.250000 0.651033 0.122205
O O16 0.500000 0.640095 0.000000
O O17 0.250000 0.500000 0.132488
O O18 0.000000 0.500000 0.000000
O O19 0.000000 0.000000 0.500000
O O20 0.250000 0.000000 0.344507
#
# Coordination Sequence:
#
# PCOD8205952 Si02
#       7
#     8   8   8   8   8   4   4
#     4  10  20  35  54  75 101 133 170 212 255 304
#     4  10  20  33  50  73 101 133 168 209 257 306
#     4   9  16  26  40  60  89 123 159 199 245 296
#     4  10  21  36  53  78 109 138 172 212 256 305
#     4   9  19  35  54  76 101 131 169 210 252 302
#     4  10  21  36  56  80 106 138 177 218 256 302
#     4  10  16  22  36  58  87 122 159 198 243 294
#
# _framework density 18.530766
#
# number of rings (size 3 to 8) (size 9 to 14) (size 15 to 20)
#    0.000    2.333    0.000    4.000    0.000    4.667 
#    0.000    1.667    0.000    0.000    0.000    0.583 
#    0.000    0.000    0.000    0.000    0.000    0.000 
#
# Total GULP energy -594947.484687 kJ/mol
# GULP energy per Si atom -12394.739264 kJ/mol
# Density = 1.848859 g / cm^3
# Si number density = 18.530766 Si / 1000 Ang^3
#
#
#
# Elastic Constant Matrix: (Units=GPa)
#
#
# Indices 1 2 3 4 5 6 
#
# 1 88.9430 49.5303 38.4100 0.0000 0.0000 0.0000
# 2 49.5303 132.9671 67.8201 0.0000 0.0000 0.0000
# 3 38.4100 67.8201 100.7220 0.0000 0.0000 0.0000
# 4 0.0000 0.0000 0.0000 1.9427 0.0000 0.0000
# 5 0.0000 0.0000 0.0000 0.0000 31.1235 0.0000
# 6 0.0000 0.0000 0.0000 0.0000 0.0000 27.6954
#
#
#
# Elastic Compliance Matrix: (Units=1/GPa)
#
#
# Indices 1 2 3 4 5 6 
#
# 1 0.014732 -0.003994 -0.002929 0.000000 0.000000 0.000000
# 2 -0.003994 0.012537 -0.006919 0.000000 0.000000 0.000000
# 3 -0.002929 -0.006919 0.015704 0.000000 0.000000 0.000000
# 4 0.000000 0.000000 0.000000 0.514749 0.000000 0.000000
# 5 0.000000 0.000000 0.000000 0.000000 0.032130 0.000000
# 6 0.000000 0.000000 0.000000 0.000000 0.000000 0.036107
#
#
# Mechanical properties :
#
#
# Convention : Reuss Voigt Hill
#
# Bulk Modulus (GPa) = 65.40084 70.46145 67.93114
# Shear Modulus (GPa) = 7.59026 23.27710 15.43368
#
# Velocity S-wave (km/s) = 2.02606 3.54804 2.88908
# Velocity P-wave (km/s) = 6.39085 7.40887 6.91861
#
# Compressibility (1/GPa) = 0.01529032
#
# Stress axis : x y z
#
# Youngs Moduli (GPa) = 67.87926 79.76177 63.67832
#
# Poissons Ratio (x) = 0.31856 0.18650
# Poissons Ratio (y) = 0.27110 0.44058
# Poissons Ratio (z) = 0.19880 0.55186
#
# Static dielectric constant tensor:
#      x y z
#    x 3.449660 0.000000 0.000000 
#    y 0.000000 4.250490 0.000000 
#    z 0.000000 0.000000 3.089780 
# 
# 
# High freq. dielectric constant tensor:
#      x y z
#    x 1.726790 0.000000 0.000000 
#    y 0.000000 1.745340 0.000000 
#    z 0.000000 0.000000 1.676140 
# 
# From -- ./inp_files/6274.got.cif
#   From: 2010.03.12/outbox.cif.g09.slc.cpg/sg51_4_cif.got.tgz:6274.got - 2010.04.16 13:43:02.
