data_PCOD8205017
_publ_section_title
;
Structure prediction by ZEFSAII (Michael W. Deem and Ramdas Pophale) SiO2 
 PCOD8205017
Probable space group: P B A N
;
_chemical_formula_sum "Si O2"
_cell_formula_units_Z 26
_cell_length_a 7.456028
_cell_length_b 21.522705
_cell_length_c 7.189976
_cell_angle_alpha 90.000000
_cell_angle_beta 90.000000
_cell_angle_gamma 90.000000
_cell_volume 1153.803426
_symmetry_space_group_name_H-M "P B A N"
_symmetry_group_IT_number 50
_space_group.IT_coordinate_system_code '2'
_symmetry_cell_setting 'orthorhombic'
loop_
_space_group_symop_operation_xyz
x,y,z
1/2-x,1/2-y,z
x,1/2-y,-z
1/2-x,y,-z
-x,-y,-z
1/2+x,1/2+y,-z
-x,1/2+y,z
1/2+x,-y,z
loop_
_atom_site_type_symbol
_atom_site_label
_atom_site_fract_x
_atom_site_fract_y
_atom_site_fract_z
Si Si1 0.585412 0.062037 0.736402
Si Si2 0.298969 0.158586 0.803261
Si Si3 0.250000 0.250000 0.500000
Si Si4 0.984335 0.071982 0.696730
O O1 0.450868 0.107152 0.847400
O O2 0.786922 0.084583 0.780936
O O3 0.531476 0.064657 0.522451
O O4 0.564058 0.989955 0.794562
O O5 0.366433 0.207508 0.644497
O O6 0.115257 0.129147 0.728282
O O7 0.250000 0.191041 0.000000
#
# Coordination Sequence:
#
# PCOD8205017 Si02
#       4
#     8   8   2   8
#     4  10  19  37  67  99 136 171 204 259 332 392
#     4  12  25  43  69  96 129 173 218 271 323 381
#     4  12  26  52  66  86 128 178 234 270 306 386
#     4  10  19  37  67  99 136 171 204 259 332 392
#
# _framework density 22.534168999999999
#
# number of rings (size 3 to 8) (size 9 to 14) (size 15 to 20)
#    0.000    1.231    6.154    0.462    0.000    2.462 
#    0.000    3.077    0.000    3.692    0.000    0.000 
#    0.000    0.000    0.000    0.000    0.000    0.000 
#
# Total GULP energy -322250.223125 kJ/mol
# GULP energy per Si atom -12394.239351 kJ/mol
# Density = 2.248288 g / cm^3
# Si number density = 22.534169 Si / 1000 Ang^3
#
#
#
# Elastic Constant Matrix: (Units=GPa)
#
#
# Indices 1 2 3 4 5 6 
#
# 1 133.3235 30.8943 19.8721 0.0000 0.0000 0.0000
# 2 30.8943 100.3607 32.8151 0.0000 0.0000 0.0000
# 3 19.8721 32.8151 74.2955 0.0000 0.0000 0.0000
# 4 0.0000 0.0000 0.0000 12.2659 0.0000 0.0000
# 5 0.0000 0.0000 0.0000 0.0000 19.6697 0.0000
# 6 0.0000 0.0000 0.0000 0.0000 0.0000 7.5917
#
#
#
# Elastic Compliance Matrix: (Units=1/GPa)
#
#
# Indices 1 2 3 4 5 6 
#
# 1 0.008176 -0.002106 -0.001257 0.000000 0.000000 0.000000
# 2 -0.002106 0.012188 -0.004820 0.000000 0.000000 0.000000
# 3 -0.001257 -0.004820 0.015925 0.000000 0.000000 0.000000
# 4 0.000000 0.000000 0.000000 0.081527 0.000000 0.000000
# 5 0.000000 0.000000 0.000000 0.000000 0.050840 0.000000
# 6 0.000000 0.000000 0.000000 0.000000 0.000000 0.131723
#
#
# Mechanical properties :
#
#
# Convention : Reuss Voigt Hill
#
# Bulk Modulus (GPa) = 50.19159 52.79366 51.49263
# Shear Modulus (GPa) = 15.46145 22.86533 19.16339
#
# Velocity S-wave (km/s) = 2.62226 3.18889 2.91935
# Velocity P-wave (km/s) = 5.61161 6.08587 5.85355
#
# Compressibility (1/GPa) = 0.01992365
#
# Stress axis : x y z
#
# Youngs Moduli (GPa) = 122.31144 82.04542 62.79486
#
# Poissons Ratio (x) = 0.17278 0.07891
# Poissons Ratio (y) = 0.25757 0.30268
# Poissons Ratio (z) = 0.15371 0.39547
#
# Static dielectric constant tensor:
#      x y z
#    x 4.018240 0.000000 0.000000 
#    y 0.000000 4.032600 0.000000 
#    z 0.000000 0.000000 4.102910 
# 
# 
# High freq. dielectric constant tensor:
#      x y z
#    x 1.869830 0.000000 0.000000 
#    y 0.000000 1.869650 0.000000 
#    z 0.000000 0.000000 1.901850 
# 
# From -- ./inp_files/8735.got.cif
#   From: 2010.03.12/outbox.cif.g09.slc.cpg/sg50_5_cif.got.tgz:8735.got - 2010.04.16 13:23:21.
