data_PCOD8205388
_publ_section_title
;
Structure prediction by ZEFSAII (Michael W. Deem and Ramdas Pophale) SiO2 
 PCOD8205388
Probable space group: P B A N
;
_chemical_formula_sum "Si O2"
_cell_formula_units_Z 56
_cell_length_a 14.282470
_cell_length_b 14.289772
_cell_length_c 13.601661
_cell_angle_alpha 90.000000
_cell_angle_beta 90.000000
_cell_angle_gamma 90.000000
_cell_volume 2776.007061
_symmetry_space_group_name_H-M "P B A N"
_symmetry_group_IT_number 50
_space_group.IT_coordinate_system_code '2'
_symmetry_cell_setting 'orthorhombic'
loop_
_space_group_symop_operation_xyz
x,y,z
1/2-x,1/2-y,z
x,1/2-y,-z
1/2-x,y,-z
-x,-y,-z
1/2+x,1/2+y,-z
-x,1/2+y,z
1/2+x,-y,z
loop_
_atom_site_type_symbol
_atom_site_label
_atom_site_fract_x
_atom_site_fract_y
_atom_site_fract_z
Si Si1 0.868281 0.000187 0.764030
Si Si2 0.967257 0.377966 0.848016
Si Si3 0.515186 0.648680 0.450388
Si Si4 0.480338 0.677443 0.227986
Si Si5 0.353090 0.997548 0.538972
Si Si6 0.411585 0.152398 0.033108
Si Si7 0.793185 0.013566 0.091456
O O1 0.890576 0.109787 0.781091
O O2 0.842114 0.977656 0.652912
O O3 0.781470 0.972621 0.831952
O O4 0.958511 0.938766 0.788892
O O5 0.947487 0.283301 0.788554
O O6 0.868380 0.429398 0.846998
O O7 0.000105 0.363862 0.960454
O O8 0.512195 0.750000 0.500000
O O9 0.527338 0.663242 0.333968
O O10 0.419949 0.592635 0.477224
O O11 0.604625 0.588764 0.485254
O O12 0.556359 0.652429 0.145883
O O13 0.250000 0.973130 0.500000
O O14 0.337268 0.070465 0.026426
O O15 0.363925 0.250000 0.000000
O O16 0.750000 0.074378 0.000000
#
# Coordination Sequence:
#
# PCOD8205388 Si02
#       7
#     8   8   8   8   8   8   8
#     4  11  23  40  62  95 123 164 215 255 324 378
#     4  11  22  42  63  88 132 165 208 259 311 370
#     4  10  22  43  67  91 127 169 218 261 333 388
#     4  10  22  40  65  91 121 168 208 259 312 378
#     4  10  24  41  65  96 128 165 214 276 329 387
#     4  10  21  39  61  90 125 164 206 253 303 369
#     4  12  23  37  65  90 128 170 205 258 312 376
#
# _framework density 20.172858000000002
#
# number of rings (size 3 to 8) (size 9 to 14) (size 15 to 20)
#    0.000    1.429    2.857    2.143    2.000    3.714 
#    0.000    3.571    0.000    0.000    0.000    0.000 
#    0.000    0.000    0.000    0.000    0.000    0.000 
#
# Total GULP energy -694407.973301 kJ/mol
# GULP energy per Si atom -12400.142380 kJ/mol
# Density = 2.012694 g / cm^3
# Si number density = 20.172858 Si / 1000 Ang^3
#
#
#
# Elastic Constant Matrix: (Units=GPa)
#
#
# Indices 1 2 3 4 5 6 
#
# 1 101.8107 40.8965 44.0981 0.0000 0.0000 0.0000
# 2 40.8965 115.7965 49.4948 0.0000 0.0000 0.0000
# 3 44.0981 49.4948 146.5220 0.0000 0.0000 0.0000
# 4 0.0000 0.0000 0.0000 32.7061 0.0000 0.0000
# 5 0.0000 0.0000 0.0000 0.0000 29.6313 0.0000
# 6 0.0000 0.0000 0.0000 0.0000 0.0000 -21.4708
#
#
#
# Elastic Compliance Matrix: (Units=1/GPa)
#
#
# Indices 1 2 3 4 5 6 
#
# 1 0.012238 -0.003211 -0.002598 0.000000 0.000000 0.000000
# 2 -0.003211 0.010936 -0.002728 0.000000 0.000000 0.000000
# 3 -0.002598 -0.002728 0.008528 0.000000 0.000000 0.000000
# 4 0.000000 0.000000 0.000000 0.030575 0.000000 0.000000
# 5 0.000000 0.000000 0.000000 0.000000 0.033748 0.000000
# 6 0.000000 0.000000 0.000000 0.000000 0.000000 -0.046575
#
#
# Mechanical properties :
#
#
# Convention : Reuss Voigt Hill
#
# Bulk Modulus (GPa) = 68.36603 70.34534 69.35568
# Shear Modulus (GPa) = 70.02746 23.48264 46.75505
#
# Velocity S-wave (km/s) = 5.89823 3.41555 4.81949
# Velocity P-wave (km/s) = 8.96377 7.10645 8.08859
#
# Compressibility (1/GPa) = 0.01462715
#
# Stress axis : x y z
#
# Youngs Moduli (GPa) = 81.71556 91.44201 117.25698
#
# Poissons Ratio (x) = 0.29366 0.30467
# Poissons Ratio (y) = 0.26242 0.31983
# Poissons Ratio (z) = 0.21232 0.24942
#
# Static dielectric constant tensor:
#      x y z
#    x 3.460610 0.000000 0.000000 
#    y 0.000000 3.843910 0.000000 
#    z 0.000000 0.000000 3.853660 
# 
# 
# High freq. dielectric constant tensor:
#      x y z
#    x 1.777000 0.000000 0.000000 
#    y 0.000000 1.790310 0.000000 
#    z 0.000000 0.000000 1.805910 
# 
# From -- ./inp_files/21168.got.cif
#   From: 2010.03.12/outbox.cif.g09.slc.cpg/sg50_11_cif.got.tgz:21168.got - 2010.04.16 13:23:21.
