data_PCOD8205398
_publ_section_title
;
Structure prediction by ZEFSAII (Michael W. Deem and Ramdas Pophale) SiO2 
 PCOD8205398
Probable space group: P B A N
;
_chemical_formula_sum "Si O2"
_cell_formula_units_Z 64
_cell_length_a 17.285210
_cell_length_b 16.554919
_cell_length_c 10.203785
_cell_angle_alpha 90.000000
_cell_angle_beta 90.000000
_cell_angle_gamma 90.000000
_cell_volume 2919.866662
_symmetry_space_group_name_H-M "P B A N"
_symmetry_group_IT_number 50
_space_group.IT_coordinate_system_code '2'
_symmetry_cell_setting 'orthorhombic'
loop_
_space_group_symop_operation_xyz
x,y,z
1/2-x,1/2-y,z
x,1/2-y,-z
1/2-x,y,-z
-x,-y,-z
1/2+x,1/2+y,-z
-x,1/2+y,z
1/2+x,-y,z
loop_
_atom_site_type_symbol
_atom_site_label
_atom_site_fract_x
_atom_site_fract_y
_atom_site_fract_z
Si Si1 0.333605 0.635454 0.047560
Si Si2 0.323918 0.008675 0.791844
Si Si3 0.936925 0.142150 0.194211
Si Si4 0.078497 0.961256 0.442543
Si Si5 0.927899 0.186770 0.718404
Si Si6 0.343067 0.004264 0.307380
Si Si7 0.109046 0.338381 0.865801
Si Si8 0.406111 0.162014 0.173295
O O1 0.333771 0.537900 0.068570
O O2 0.352187 0.668666 0.193130
O O3 0.250000 0.666454 0.000000
O O4 0.396499 0.666380 0.943088
O O5 0.321978 0.104241 0.816718
O O6 0.398844 0.992599 0.700910
O O7 0.244119 0.980642 0.726420
O O8 0.928139 0.215836 0.299517
O O9 0.901085 0.059287 0.242952
O O10 0.026537 0.125041 0.173890
O O11 0.072989 0.862828 0.420707
O O12 0.147127 0.991278 0.537436
O O13 0.000000 0.000000 0.500000
O O14 0.002634 0.157022 0.800089
O O15 0.362723 0.094928 0.260110
O O16 0.123387 0.252767 0.794006
O O17 0.112317 0.343338 0.021338
#
# Coordination Sequence:
#
# PCOD8205398 Si02
#       8
#     8   8   8   8   8   8   8   8
#     4  11  21  38  61  96 137 172 207 265 340 405
#     4  11  25  41  61  96 129 170 222 265 326 404
#     4  11  22  37  64  98 129 172 211 271 322 398
#     4  11  23  44  68  89 122 175 222 277 319 376
#     4  10  22  40  62  97 133 167 221 265 328 398
#     4  12  24  41  64  89 131 175 222 269 330 383
#     4  10  22  39  63  97 132 163 217 270 328 396
#     4  10  21  39  65  95 129 170 209 273 334 392
#
# _framework density 21.918810000000001
#
# number of rings (size 3 to 8) (size 9 to 14) (size 15 to 20)
#    0.000    1.250    3.750    2.250    1.750    3.000 
#    0.000    1.875    0.000    3.000    0.000    0.000 
#    0.000    0.000    0.000    0.000    0.000    0.000 
#
# Total GULP energy -793057.904257 kJ/mol
# GULP energy per Si atom -12391.529754 kJ/mol
# Density = 2.186892 g / cm^3
# Si number density = 21.918810 Si / 1000 Ang^3
#
#
#
# Elastic Constant Matrix: (Units=GPa)
#
#
# Indices 1 2 3 4 5 6 
#
# 1 59.0136 23.0138 15.8292 0.0000 0.0000 0.0000
# 2 23.0138 116.0612 40.9223 0.0000 0.0000 0.0000
# 3 15.8292 40.9223 72.7006 0.0000 0.0000 0.0000
# 4 0.0000 0.0000 0.0000 39.8954 0.0000 0.0000
# 5 0.0000 0.0000 0.0000 0.0000 31.2507 0.0000
# 6 0.0000 0.0000 0.0000 0.0000 0.0000 16.3764
#
#
#
# Elastic Compliance Matrix: (Units=1/GPa)
#
#
# Indices 1 2 3 4 5 6 
#
# 1 0.018716 -0.002838 -0.002478 0.000000 0.000000 0.000000
# 2 -0.002838 0.011180 -0.005675 0.000000 0.000000 0.000000
# 3 -0.002478 -0.005675 0.017489 0.000000 0.000000 0.000000
# 4 0.000000 0.000000 0.000000 0.025066 0.000000 0.000000
# 5 0.000000 0.000000 0.000000 0.000000 0.031999 0.000000
# 6 0.000000 0.000000 0.000000 0.000000 0.000000 0.061063
#
#
# Mechanical properties :
#
#
# Convention : Reuss Voigt Hill
#
# Bulk Modulus (GPa) = 39.36387 45.25623 42.31005
# Shear Modulus (GPa) = 25.51503 28.70518 27.11010
#
# Velocity S-wave (km/s) = 3.41555 3.62278 3.52069
# Velocity P-wave (km/s) = 5.79246 6.17992 5.98932
#
# Compressibility (1/GPa) = 0.02540401
#
# Stress axis : x y z
#
# Youngs Moduli (GPa) = 53.42881 89.44683 57.17867
#
# Poissons Ratio (x) = 0.25381 0.14168
# Poissons Ratio (y) = 0.15161 0.32450
# Poissons Ratio (z) = 0.13239 0.50762
#
# Static dielectric constant tensor:
#      x y z
#    x 3.827730 0.000000 0.000000 
#    y 0.000000 4.283530 0.000000 
#    z 0.000000 0.000000 4.030850 
# 
# 
# High freq. dielectric constant tensor:
#      x y z
#    x 1.857030 0.000000 0.000000 
#    y 0.000000 1.873780 0.000000 
#    z 0.000000 0.000000 1.843220 
# 
# From -- ./inp_files/22000.got.cif
#   From: 2010.03.12/outbox.cif.g09.slc.cpg/sg50_11_cif.got.tgz:22000.got - 2010.04.16 13:23:21.
