data_PCOD8205335
_publ_section_title
;
Structure prediction by ZEFSAII (Michael W. Deem and Ramdas Pophale) SiO2 
 PCOD8205335
Probable space group: P B A N
;
_chemical_formula_sum "Si O2"
_cell_formula_units_Z 64
_cell_length_a 20.572404
_cell_length_b 17.260179
_cell_length_c 9.278720
_cell_angle_alpha 90.000000
_cell_angle_beta 90.000000
_cell_angle_gamma 90.000000
_cell_volume 3294.719218
_symmetry_space_group_name_H-M "P B A N"
_symmetry_group_IT_number 50
_space_group.IT_coordinate_system_code '2'
_symmetry_cell_setting 'orthorhombic'
loop_
_space_group_symop_operation_xyz
x,y,z
1/2-x,1/2-y,z
x,1/2-y,-z
1/2-x,y,-z
-x,-y,-z
1/2+x,1/2+y,-z
-x,1/2+y,z
1/2+x,-y,z
loop_
_atom_site_type_symbol
_atom_site_label
_atom_site_fract_x
_atom_site_fract_y
_atom_site_fract_z
Si Si1 0.674766 0.597725 0.331731
Si Si2 0.875472 0.161076 0.831987
Si Si3 0.124528 0.661076 0.168013
Si Si4 0.673151 0.750000 0.838097
Si Si5 0.071639 0.967556 0.337249
Si Si6 0.571639 0.467556 0.337249
Si Si7 0.825234 0.597725 0.331731
Si Si8 0.750000 0.341491 0.340153
O O1 0.650215 0.673160 0.245382
O O2 0.626593 0.528488 0.285780
O O3 0.750000 0.575916 0.294778
O O4 0.667472 0.616931 0.500000
O O5 0.892724 0.250000 0.797789
O O6 0.931475 0.106271 0.769653
O O7 0.812101 0.131074 0.748103
O O8 0.864160 0.148310 0.000000
O O9 0.068525 0.606271 0.230347
O O10 0.187899 0.631074 0.251897
O O11 0.750000 0.750000 0.844483
O O12 0.650215 0.673160 0.754618
O O13 0.643687 0.750000 0.000000
O O14 0.000000 0.000000 0.327781
O O15 0.087441 0.940458 0.500000
O O16 0.126593 0.028488 0.285780
O O17 0.750000 0.250000 0.353709
O O18 0.750000 0.379724 0.500000
#
# Coordination Sequence:
#
# PCOD8205335 Si02
#       8
#     8   8   8   8   8   8   8   8
#     4   9  18  34  57  82 109 143 182 229 281 333
#     4  10  21  37  57  83 116 152 189 231 285 345
#     4  10  21  37  57  83 116 152 189 231 285 345
#     4   9  17  31  53  83 113 139 176 225 276 336
#     4  10  22  39  57  82 114 148 191 239 285 336
#     4  10  22  39  57  82 114 148 191 239 285 336
#     4   9  18  34  57  82 109 143 182 229 281 333
#     4   9  17  31  55  85 113 144 185 232 277 325
#
# _framework density 19.425022999999999
#
# number of rings (size 3 to 8) (size 9 to 14) (size 15 to 20)
#    0.000    2.500    0.000    1.500    1.750    6.000 
#    2.250    0.000    0.000    0.000    0.000    0.000 
#    0.000    0.000    0.000    0.000    0.000    0.000 
#
# Total GULP energy -793485.941388 kJ/mol
# GULP energy per Si atom -12398.217834 kJ/mol
# Density = 1.938081 g / cm^3
# Si number density = 19.425023 Si / 1000 Ang^3
#
#
#
# Elastic Constant Matrix: (Units=GPa)
#
#
# Indices 1 2 3 4 5 6 
#
# 1 72.2916 48.8425 37.6161 0.0000 0.0000 0.0000
# 2 48.8425 118.6195 75.3739 0.0000 0.0000 0.0000
# 3 37.6161 75.3739 116.9544 0.0000 0.0000 0.0000
# 4 0.0000 0.0000 0.0000 34.5206 0.0000 0.0000
# 5 0.0000 0.0000 0.0000 0.0000 16.6963 0.0000
# 6 0.0000 0.0000 0.0000 0.0000 0.0000 17.6950
#
#
#
# Elastic Compliance Matrix: (Units=1/GPa)
#
#
# Indices 1 2 3 4 5 6 
#
# 1 0.019397 -0.006813 -0.001848 0.000000 0.000000 0.000000
# 2 -0.006813 0.016670 -0.008552 0.000000 0.000000 0.000000
# 3 -0.001848 -0.008552 0.014656 0.000000 0.000000 0.000000
# 4 0.000000 0.000000 0.000000 0.028968 0.000000 0.000000
# 5 0.000000 0.000000 0.000000 0.000000 0.059894 0.000000
# 6 0.000000 0.000000 0.000000 0.000000 0.000000 0.056513
#
#
# Mechanical properties :
#
#
# Convention : Reuss Voigt Hill
#
# Bulk Modulus (GPa) = 61.35850 70.17005 65.76428
# Shear Modulus (GPa) = 21.19034 23.51789 22.35412
#
# Velocity S-wave (km/s) = 3.30643 3.48329 3.39601
# Velocity P-wave (km/s) = 6.79945 7.23738 7.02183
#
# Compressibility (1/GPa) = 0.01629766
#
# Stress axis : x y z
#
# Youngs Moduli (GPa) = 51.55336 59.98948 68.22998
#
# Poissons Ratio (x) = 0.40868 0.12611
# Poissons Ratio (y) = 0.35121 0.58350
# Poissons Ratio (z) = 0.09528 0.51303
#
# Static dielectric constant tensor:
#      x y z
#    x 3.413290 0.000000 0.000000 
#    y 0.000000 3.505830 0.000000 
#    z 0.000000 0.000000 3.682020 
# 
# 
# High freq. dielectric constant tensor:
#      x y z
#    x 1.734930 0.000000 0.000000 
#    y 0.000000 1.757520 0.000000 
#    z 0.000000 0.000000 1.758580 
# 
# From -- ./inp_files/15511.got.cif
#   From: 2010.03.12/outbox.cif.g09.slc.cpg/sg50_8_cif.got.tgz:15511.got - 2010.04.16 13:23:21.
