data_PCOD8205818
_publ_section_title
;
Structure prediction by ZEFSAII (Michael W. Deem and Ramdas Pophale) SiO2 
 PCOD8205818
Probable space group: P B A N
;
_chemical_formula_sum "Si O2"
_cell_formula_units_Z 56
_cell_length_a 9.069350
_cell_length_b 15.441817
_cell_length_c 17.684049
_cell_angle_alpha 90.000000
_cell_angle_beta 90.000000
_cell_angle_gamma 90.000000
_cell_volume 2476.602308
_symmetry_space_group_name_H-M "P B A N"
_symmetry_group_IT_number 50
_space_group.IT_coordinate_system_code '2'
_symmetry_cell_setting 'orthorhombic'
loop_
_space_group_symop_operation_xyz
x,y,z
1/2-x,1/2-y,z
x,1/2-y,-z
1/2-x,y,-z
-x,-y,-z
1/2+x,1/2+y,-z
-x,1/2+y,z
1/2+x,-y,z
loop_
_atom_site_type_symbol
_atom_site_label
_atom_site_fract_x
_atom_site_fract_y
_atom_site_fract_z
Si Si1 0.428707 0.906443 0.333597
Si Si2 0.576636 0.083074 0.337394
Si Si3 0.282950 0.623626 0.918031
Si Si4 0.476418 0.848992 0.823432
Si Si5 0.543156 0.658054 0.822226
Si Si6 0.919131 0.754768 0.410618
Si Si7 0.783831 0.577839 0.916495
O O1 0.253334 0.914464 0.346010
O O2 0.469342 0.895362 0.245613
O O3 0.486932 0.824662 0.379290
O O4 0.511542 0.991419 0.365543
O O5 0.530128 0.092043 0.250332
O O6 0.499388 0.157136 0.386491
O O7 0.451821 0.642054 0.898976
O O8 0.245373 0.522316 0.916259
O O9 0.186596 0.672595 0.854330
O O10 0.250000 0.663052 0.000000
O O11 0.555424 0.759121 0.801306
O O12 0.548126 0.902082 0.893563
O O13 0.702673 0.623408 0.845432
O O14 0.750000 0.750000 0.380145
O O15 0.920021 0.750000 0.500000
O O16 0.750000 0.617031 0.000000
#
# Coordination Sequence:
#
# PCOD8205818 Si02
#       7
#     8   8   8   8   8   8   8
#     4  12  26  46  75 110 150 196 245 298 359 427
#     4  12  26  46  75 110 150 196 245 298 359 427
#     4  11  23  41  63  89 131 180 233 295 357 423
#     4  12  25  40  64  96 133 178 238 297 356 430
#     4  12  25  40  64  96 133 178 238 297 356 430
#     4  11  27  51  81 117 152 189 234 285 354 435
#     4  11  25  43  61  91 131 182 239 299 369 431
#
# _framework density 22.611623000000002
#
# number of rings (size 3 to 8) (size 9 to 14) (size 15 to 20)
#    0.000    0.429    2.857    5.571    4.000    7.429 
#    0.000    0.000    0.000    0.000    0.000    0.000 
#    0.000    0.000    0.000    0.000    0.000    0.000 
#
# Total GULP energy -694591.901901 kJ/mol
# GULP energy per Si atom -12403.426820 kJ/mol
# Density = 2.256016 g / cm^3
# Si number density = 22.611623 Si / 1000 Ang^3
#
#
#
# Elastic Constant Matrix: (Units=GPa)
#
#
# Indices 1 2 3 4 5 6 
#
# 1 124.2944 44.8439 33.8972 0.0000 0.0000 0.0000
# 2 44.8439 135.0407 22.6152 0.0000 0.0000 0.0000
# 3 33.8972 22.6152 82.1085 0.0000 0.0000 0.0000
# 4 0.0000 0.0000 0.0000 59.0267 0.0000 0.0000
# 5 0.0000 0.0000 0.0000 0.0000 38.9217 0.0000
# 6 0.0000 0.0000 0.0000 0.0000 0.0000 41.6650
#
#
#
# Elastic Compliance Matrix: (Units=1/GPa)
#
#
# Indices 1 2 3 4 5 6 
#
# 1 0.009949 -0.002742 -0.003352 0.000000 0.000000 0.000000
# 2 -0.002742 0.008519 -0.001214 0.000000 0.000000 0.000000
# 3 -0.003352 -0.001214 0.013897 0.000000 0.000000 0.000000
# 4 0.000000 0.000000 0.000000 0.016941 0.000000 0.000000
# 5 0.000000 0.000000 0.000000 0.000000 0.025693 0.000000
# 6 0.000000 0.000000 0.000000 0.000000 0.000000 0.024001
#
#
# Mechanical properties :
#
#
# Convention : Reuss Voigt Hill
#
# Bulk Modulus (GPa) = 56.34398 60.46181 58.40289
# Shear Modulus (GPa) = 41.82913 43.92850 42.87882
#
# Velocity S-wave (km/s) = 4.30571 4.41243 4.35940
# Velocity P-wave (km/s) = 7.04919 7.26338 7.15709
#
# Compressibility (1/GPa) = 0.01774813
#
# Stress axis : x y z
#
# Youngs Moduli (GPa) = 100.51263 117.38130 71.95674
#
# Poissons Ratio (x) = 0.32192 0.24119
# Poissons Ratio (y) = 0.27565 0.08737
# Poissons Ratio (z) = 0.33691 0.14253
#
# Static dielectric constant tensor:
#      x y z
#    x 4.169750 0.000000 0.000000 
#    y 0.000000 4.063130 0.000000 
#    z 0.000000 0.000000 4.007540 
# 
# 
# High freq. dielectric constant tensor:
#      x y z
#    x 1.907730 0.000000 0.000000 
#    y 0.000000 1.903820 0.000000 
#    z 0.000000 0.000000 1.880490 
# 
# From -- ./inp_files/30639.got.cif
#   From: 2010.03.12/outbox.cif.g09.slc.cpg/sg50_16_cif.got.tgz:30639.got - 2010.04.16 13:23:21.
