data_PCOD8205037
_publ_section_title
;
Structure prediction by ZEFSAII (Michael W. Deem and Ramdas Pophale) SiO2 
 PCOD8205037
Probable space group: P B A N
;
_chemical_formula_sum "Si O2"
_cell_formula_units_Z 28
_cell_length_a 9.589578
_cell_length_b 14.827662
_cell_length_c 9.123165
_cell_angle_alpha 90.000000
_cell_angle_beta 90.000000
_cell_angle_gamma 90.000000
_cell_volume 1297.232149
_symmetry_space_group_name_H-M "P B A N"
_symmetry_group_IT_number 50
_space_group.IT_coordinate_system_code '2'
_symmetry_cell_setting 'orthorhombic'
loop_
_space_group_symop_operation_xyz
x,y,z
1/2-x,1/2-y,z
x,1/2-y,-z
1/2-x,y,-z
-x,-y,-z
1/2+x,1/2+y,-z
-x,1/2+y,z
1/2+x,-y,z
loop_
_atom_site_type_symbol
_atom_site_label
_atom_site_fract_x
_atom_site_fract_y
_atom_site_fract_z
Si Si1 0.250000 0.750000 0.500000
Si Si2 0.750000 0.250000 0.000000
Si Si3 0.633247 0.563270 0.827035
Si Si4 0.442787 0.792387 0.248768
Si Si5 0.938602 0.898470 0.153746
O O1 0.349111 0.806130 0.392499
O O2 0.653650 0.187408 0.895510
O O3 0.556397 0.631437 0.718215
O O4 0.795315 0.560531 0.778734
O O5 0.570101 0.463410 0.818497
O O6 0.600084 0.610343 0.983305
O O7 0.518283 0.695773 0.227626
#
# Coordination Sequence:
#
# PCOD8205037 Si02
#       5
#     2   2   8   8   8
#     4  10  28  38  66  86 128 160 230 238 320 350
#     4  10  20  30  70  86 112 164 210 250 324 330
#     4  10  21  35  63  99 127 155 202 257 313 367
#     4  11  21  41  60  89 125 166 203 265 298 373
#     4  10  21  35  63  99 127 155 202 257 313 367
#
# _framework density 21.584416999999998
#
# number of rings (size 3 to 8) (size 9 to 14) (size 15 to 20)
#    0.000    1.714    2.857    0.857    8.000    2.286 
#    0.000    4.286    0.000    0.000    0.000    0.000 
#    0.000    0.000    0.000    0.000    0.000    0.000 
#
# Total GULP energy -346888.420601 kJ/mol
# GULP energy per Si atom -12388.872164 kJ/mol
# Density = 2.153529 g / cm^3
# Si number density = 21.584417 Si / 1000 Ang^3
#
#
#
# Elastic Constant Matrix: (Units=GPa)
#
#
# Indices 1 2 3 4 5 6 
#
# 1 154.3981 26.3115 23.9903 0.0000 0.0000 0.0000
# 2 26.3115 67.3696 4.7921 0.0000 0.0000 0.0000
# 3 23.9903 4.7921 76.6621 0.0000 0.0000 0.0000
# 4 0.0000 0.0000 0.0000 6.2676 0.0000 0.0000
# 5 0.0000 0.0000 0.0000 0.0000 10.4699 0.0000
# 6 0.0000 0.0000 0.0000 0.0000 0.0000 0.3981
#
#
#
# Elastic Compliance Matrix: (Units=1/GPa)
#
#
# Indices 1 2 3 4 5 6 
#
# 1 0.007262 -0.002686 -0.002104 0.000000 0.000000 0.000000
# 2 -0.002686 0.015904 -0.000153 0.000000 0.000000 0.000000
# 3 -0.002104 -0.000153 0.013712 0.000000 0.000000 0.000000
# 4 0.000000 0.000000 0.000000 0.159551 0.000000 0.000000
# 5 0.000000 0.000000 0.000000 0.000000 0.095512 0.000000
# 6 0.000000 0.000000 0.000000 0.000000 0.000000 2.511690
#
#
# Mechanical properties :
#
#
# Convention : Reuss Voigt Hill
#
# Bulk Modulus (GPa) = 37.05218 45.40195 41.22706
# Shear Modulus (GPa) = 1.77147 19.64952 10.71050
#
# Velocity S-wave (km/s) = 0.90692 3.02049 2.23000
# Velocity P-wave (km/s) = 4.27786 5.76582 5.07665
#
# Compressibility (1/GPa) = 0.02698897
#
# Stress axis : x y z
#
# Youngs Moduli (GPa) = 137.71175 62.87895 72.92658
#
# Poissons Ratio (x) = 0.16891 0.15347
# Poissons Ratio (y) = 0.36994 0.01119
# Poissons Ratio (z) = 0.28981 0.00965
#
# Static dielectric constant tensor:
#      x y z
#    x 4.531560 0.000000 0.000000 
#    y 0.000000 3.475340 0.000000 
#    z 0.000000 0.000000 3.666280 
# 
# 
# High freq. dielectric constant tensor:
#      x y z
#    x 1.880910 0.000000 0.000000 
#    y 0.000000 1.829520 0.000000 
#    z 0.000000 0.000000 1.795830 
# 
# From -- ./inp_files/8832.got.cif
#   From: 2010.03.12/outbox.cif.g09.slc.cpg/sg50_5_cif.got.tgz:8832.got - 2010.04.16 13:23:21.
