data_PCOD8205828
_publ_section_title
;
Structure prediction by ZEFSAII (Michael W. Deem and Ramdas Pophale) SiO2 
 PCOD8205828
Probable space group: P B A N
;
_chemical_formula_sum "Si O2"
_cell_formula_units_Z 34
_cell_length_a 11.937159
_cell_length_b 8.658797
_cell_length_c 14.756856
_cell_angle_alpha 90.000000
_cell_angle_beta 90.000000
_cell_angle_gamma 90.000000
_cell_volume 1525.289835
_symmetry_space_group_name_H-M "P B A N"
_symmetry_group_IT_number 50
_space_group.IT_coordinate_system_code '2'
_symmetry_cell_setting 'orthorhombic'
loop_
_space_group_symop_operation_xyz
x,y,z
1/2-x,1/2-y,z
x,1/2-y,-z
1/2-x,y,-z
-x,-y,-z
1/2+x,1/2+y,-z
-x,1/2+y,z
1/2+x,-y,z
loop_
_atom_site_type_symbol
_atom_site_label
_atom_site_fract_x
_atom_site_fract_y
_atom_site_fract_z
Si Si1 0.090194 0.102807 0.646366
Si Si2 0.372853 0.733974 0.606690
Si Si3 0.942957 0.123062 0.063944
Si Si4 0.750000 0.750000 0.500000
Si Si5 0.863531 0.828409 0.154535
O O1 0.168257 0.147100 0.561251
O O2 0.140990 0.175142 0.736953
O O3 0.959090 0.139159 0.640230
O O4 0.078587 0.921604 0.646166
O O5 0.250000 0.750000 0.650592
O O6 0.364797 0.750000 0.500000
O O7 0.033209 0.223605 0.120542
O O8 0.866115 0.012114 0.126766
O O9 0.877733 0.250000 0.000000
O O10 0.000000 0.000000 0.000000
O O11 0.750000 0.750000 0.116706
#
# Coordination Sequence:
#
# PCOD8205828 Si02
#       5
#     8   8   8   2   8
#     4  12  25  42  67  98 141 184 242 288 341 409
#     4  11  25  42  64  92 130 182 241 293 348 403
#     4   9  21  43  69  99 134 169 221 281 355 432
#     4  12  24  40  68  96 142 200 234 278 348 392
#     4  11  23  43  69 103 138 182 225 290 348 420
#
# _framework density 22.290846999999999
#
# number of rings (size 3 to 8) (size 9 to 14) (size 15 to 20)
#    0.000    1.176    2.353    3.529    3.294    6.118 
#    0.000    8.235    0.000    0.000    0.000    0.000 
#    0.000    0.000    0.000    0.000    0.000    0.000 
#
# Total GULP energy -421214.283444 kJ/mol
# GULP energy per Si atom -12388.655395 kJ/mol
# Density = 2.224011 g / cm^3
# Si number density = 22.290847 Si / 1000 Ang^3
#
#
#
# Elastic Constant Matrix: (Units=GPa)
#
#
# Indices 1 2 3 4 5 6 
#
# 1 155.8192 76.0112 30.2771 0.0000 0.0000 0.0000
# 2 76.0112 162.9170 42.6271 0.0000 0.0000 0.0000
# 3 30.2771 42.6271 107.1784 0.0000 0.0000 0.0000
# 4 0.0000 0.0000 0.0000 21.8633 0.0000 0.0000
# 5 0.0000 0.0000 0.0000 0.0000 17.6441 0.0000
# 6 0.0000 0.0000 0.0000 0.0000 0.0000 18.5527
#
#
#
# Elastic Compliance Matrix: (Units=1/GPa)
#
#
# Indices 1 2 3 4 5 6 
#
# 1 0.008387 -0.003676 -0.000907 0.000000 0.000000 0.000000
# 2 -0.003676 0.008462 -0.002327 0.000000 0.000000 0.000000
# 3 -0.000907 -0.002327 0.010512 0.000000 0.000000 0.000000
# 4 0.000000 0.000000 0.000000 0.045739 0.000000 0.000000
# 5 0.000000 0.000000 0.000000 0.000000 0.056676 0.000000
# 6 0.000000 0.000000 0.000000 0.000000 0.000000 0.053900
#
#
# Mechanical properties :
#
#
# Convention : Reuss Voigt Hill
#
# Bulk Modulus (GPa) = 73.85141 80.41615 77.13378
# Shear Modulus (GPa) = 24.75120 30.07864 27.41492
#
# Velocity S-wave (km/s) = 3.33584 3.67736 3.51076
# Velocity P-wave (km/s) = 6.93108 7.36104 7.14929
#
# Compressibility (1/GPa) = 0.01354070
#
# Stress axis : x y z
#
# Youngs Moduli (GPa) = 119.23113 118.17628 95.12834
#
# Poissons Ratio (x) = 0.43438 0.08632
# Poissons Ratio (y) = 0.43826 0.22138
# Poissons Ratio (z) = 0.10819 0.27501
#
# Static dielectric constant tensor:
#      x y z
#    x 4.137250 0.000000 0.000000 
#    y 0.000000 4.775790 0.000000 
#    z 0.000000 0.000000 4.240010 
# 
# 
# High freq. dielectric constant tensor:
#      x y z
#    x 1.868070 0.000000 0.000000 
#    y 0.000000 1.895700 0.000000 
#    z 0.000000 0.000000 1.880810 
# 
# From -- ./inp_files/24461.got.cif
#   From: 2010.03.12/outbox.cif.g09.slc.cpg/sg50_13_cif.got.tgz:24461.got - 2010.04.16 13:23:21.
