data_PCOD8205532
_publ_section_title
;
Structure prediction by ZEFSAII (Michael W. Deem and Ramdas Pophale) SiO2 
 PCOD8205532
Probable space group: P B A N
;
_chemical_formula_sum "Si O2"
_cell_formula_units_Z 40
_cell_length_a 15.043117
_cell_length_b 14.769069
_cell_length_c 9.209077
_cell_angle_alpha 90.000000
_cell_angle_beta 90.000000
_cell_angle_gamma 90.000000
_cell_volume 2046.006726
_symmetry_space_group_name_H-M "P B A N"
_symmetry_group_IT_number 50
_space_group.IT_coordinate_system_code '2'
_symmetry_cell_setting 'orthorhombic'
loop_
_space_group_symop_operation_xyz
x,y,z
1/2-x,1/2-y,z
x,1/2-y,-z
1/2-x,y,-z
-x,-y,-z
1/2+x,1/2+y,-z
-x,1/2+y,z
1/2+x,-y,z
loop_
_atom_site_type_symbol
_atom_site_label
_atom_site_fract_x
_atom_site_fract_y
_atom_site_fract_z
Si Si1 0.003516 0.739845 0.333035
Si Si2 0.263667 0.503183 0.158815
Si Si3 0.428131 0.935218 0.673515
Si Si4 0.331110 0.300121 0.153294
Si Si5 0.908867 0.057830 0.335186
O O1 0.976272 0.750000 0.500000
O O2 0.035917 0.836991 0.282119
O O3 0.081030 0.665415 0.305241
O O4 0.918000 0.705228 0.248969
O O5 0.339450 0.559831 0.235103
O O6 0.299354 0.402314 0.134477
O O7 0.174286 0.512380 0.254329
O O8 0.250000 0.546410 0.000000
O O9 0.399945 0.953814 0.507837
O O10 0.502640 0.007233 0.721158
O O11 0.250000 0.250000 0.235542
O O12 0.348331 0.250000 0.000000
#
# Coordination Sequence:
#
# PCOD8205532 Si02
#       5
#     8   8   8   8   8
#     4  10  22  42  66  94 124 164 209 265 318 370
#     4  12  24  40  63  92 128 170 210 257 315 377
#     4  10  22  41  66  94 126 168 212 263 316 373
#     4  11  22  40  59  91 128 162 209 259 317 376
#     4  10  22  42  65  93 130 164 215 261 315 378
#
# _framework density 19.550277000000001
#
# number of rings (size 3 to 8) (size 9 to 14) (size 15 to 20)
#    0.000    1.400    4.000    1.800    0.000    3.600 
#    3.600    4.000    0.000    0.000    0.000    0.000 
#    0.000    0.000    0.000    0.000    0.000    0.000 
#
# Total GULP energy -495839.775165 kJ/mol
# GULP energy per Si atom -12395.994379 kJ/mol
# Density = 1.950578 g / cm^3
# Si number density = 19.550277 Si / 1000 Ang^3
#
#
#
# Elastic Constant Matrix: (Units=GPa)
#
#
# Indices 1 2 3 4 5 6 
#
# 1 131.7987 30.6324 67.2770 0.0000 0.0000 0.0000
# 2 30.6324 96.8217 34.9804 0.0000 0.0000 0.0000
# 3 67.2770 34.9804 77.9858 0.0000 0.0000 0.0000
# 4 0.0000 0.0000 0.0000 20.4317 0.0000 0.0000
# 5 0.0000 0.0000 0.0000 0.0000 64.9172 0.0000
# 6 0.0000 0.0000 0.0000 0.0000 0.0000 19.8592
#
#
#
# Elastic Compliance Matrix: (Units=1/GPa)
#
#
# Indices 1 2 3 4 5 6 
#
# 1 0.013558 -0.000076 -0.011662 0.000000 0.000000 0.000000
# 2 -0.000076 0.012326 -0.005463 0.000000 0.000000 0.000000
# 3 -0.011662 -0.005463 0.025334 0.000000 0.000000 0.000000
# 4 0.000000 0.000000 0.000000 0.048944 0.000000 0.000000
# 5 0.000000 0.000000 0.000000 0.000000 0.015404 0.000000
# 6 0.000000 0.000000 0.000000 0.000000 0.000000 0.050354
#
#
# Mechanical properties :
#
#
# Convention : Reuss Voigt Hill
#
# Bulk Modulus (GPa) = 59.46954 63.59844 61.53399
# Shear Modulus (GPa) = 24.28030 32.62271 28.45150
#
# Velocity S-wave (km/s) = 3.52794 4.08935 3.81898
# Velocity P-wave (km/s) = 6.86149 7.40934 7.14067
#
# Compressibility (1/GPa) = 0.01681533
#
# Stress axis : x y z
#
# Youngs Moduli (GPa) = 73.75748 81.12848 39.47264
#
# Poissons Ratio (x) = 0.00617 0.46033
# Poissons Ratio (y) = 0.00561 0.21565
# Poissons Ratio (z) = 0.86016 0.44322
#
# Static dielectric constant tensor:
#      x y z
#    x 3.668770 0.000000 0.000000 
#    y 0.000000 3.793250 0.000000 
#    z 0.000000 0.000000 3.643900 
# 
# 
# High freq. dielectric constant tensor:
#      x y z
#    x 1.766630 0.000000 0.000000 
#    y 0.000000 1.774790 0.000000 
#    z 0.000000 0.000000 1.753930 
# 
# From -- ./inp_files/12549.got.cif
#   From: 2010.03.12/outbox.cif.g09.slc.cpg/sg50_7_cif.got.tgz:12549.got - 2010.04.16 13:23:21.
