data_PCOD8205514
_publ_section_title
;
Structure prediction by ZEFSAII (Michael W. Deem and Ramdas Pophale) SiO2 
 PCOD8205514
Probable space group: P B A N
;
_chemical_formula_sum "Si O2"
_cell_formula_units_Z 58
_cell_length_a 15.876638
_cell_length_b 8.529309
_cell_length_c 19.122378
_cell_angle_alpha 90.000000
_cell_angle_beta 90.000000
_cell_angle_gamma 90.000000
_cell_volume 2589.490307
_symmetry_space_group_name_H-M "P B A N"
_symmetry_group_IT_number 50
_space_group.IT_coordinate_system_code '2'
_symmetry_cell_setting 'orthorhombic'
loop_
_space_group_symop_operation_xyz
x,y,z
1/2-x,1/2-y,z
x,1/2-y,-z
1/2-x,y,-z
-x,-y,-z
1/2+x,1/2+y,-z
-x,1/2+y,z
1/2+x,-y,z
loop_
_atom_site_type_symbol
_atom_site_label
_atom_site_fract_x
_atom_site_fract_y
_atom_site_fract_z
Si Si1 0.343690 0.564290 0.502627
Si Si2 0.424962 0.918303 0.353243
Si Si3 0.884256 0.405450 0.097138
Si Si4 0.750000 0.250000 0.000000
Si Si5 0.218270 0.582013 0.768018
Si Si6 0.111381 0.455096 0.212313
Si Si7 0.019549 0.184091 0.138086
Si Si8 0.102340 0.951987 0.352988
O O1 0.340294 0.750000 0.500000
O O2 0.250000 0.494410 0.500000
O O3 0.396117 0.512960 0.571356
O O4 0.385107 0.495988 0.432979
O O5 0.374483 0.017586 0.295339
O O6 0.409385 0.734330 0.346388
O O7 0.520704 0.951691 0.332272
O O8 0.808071 0.365240 0.045440
O O9 0.856701 0.387701 0.177512
O O10 0.919281 0.582088 0.087666
O O11 0.963598 0.289652 0.086084
O O12 0.250000 0.750000 0.741253
O O13 0.291172 0.485573 0.810653
O O14 0.178271 0.497473 0.699289
O O15 0.080019 0.282818 0.190494
O O16 0.044147 0.577975 0.182557
#
# Coordination Sequence:
#
# PCOD8205514 Si02
#       8
#     8   8   8   2   8   8   8   8
#     4   9  19  33  53  81 112 156 213 267 326 400
#     4  11  20  34  54  84 118 161 212 266 332 398
#     4  11  23  43  68 100 134 177 218 266 329 395
#     4  12  24  44  76 102 144 186 216 264 340 396
#     4  12  21  37  62  93 123 165 217 277 336 396
#     4  11  20  36  62  91 127 169 215 275 333 388
#     4  10  22  40  65  97 133 172 224 273 324 401
#     4  11  22  35  58  83 118 162 213 271 330 400
#
# _framework density 22.398230999999999
#
# number of rings (size 3 to 8) (size 9 to 14) (size 15 to 20)
#    0.000    1.241    3.448    3.724    1.931    1.103 
#    0.000    0.000    0.000   10.759    0.000    0.000 
#    0.000    0.000    0.000    0.000    0.000    0.000 
#
# Total GULP energy -718868.984228 kJ/mol
# GULP energy per Si atom -12394.292832 kJ/mol
# Density = 2.234725 g / cm^3
# Si number density = 22.398231 Si / 1000 Ang^3
#
#
#
# Elastic Constant Matrix: (Units=GPa)
#
#
# Indices 1 2 3 4 5 6 
#
# 1 135.0553 52.2361 32.4835 0.0000 0.0000 0.0000
# 2 52.2361 90.4934 37.6796 0.0000 0.0000 0.0000
# 3 32.4835 37.6796 88.9674 0.0000 0.0000 0.0000
# 4 0.0000 0.0000 0.0000 15.4734 0.0000 0.0000
# 5 0.0000 0.0000 0.0000 0.0000 38.0324 0.0000
# 6 0.0000 0.0000 0.0000 0.0000 0.0000 27.3309
#
#
#
# Elastic Compliance Matrix: (Units=1/GPa)
#
#
# Indices 1 2 3 4 5 6 
#
# 1 0.009678 -0.004996 -0.001418 0.000000 0.000000 0.000000
# 2 -0.004996 0.015996 -0.004950 0.000000 0.000000 0.000000
# 3 -0.001418 -0.004950 0.013854 0.000000 0.000000 0.000000
# 4 0.000000 0.000000 0.000000 0.064627 0.000000 0.000000
# 5 0.000000 0.000000 0.000000 0.000000 0.026293 0.000000
# 6 0.000000 0.000000 0.000000 0.000000 0.000000 0.036589
#
#
# Mechanical properties :
#
#
# Convention : Reuss Voigt Hill
#
# Bulk Modulus (GPa) = 59.52511 62.14604 60.83557
# Shear Modulus (GPa) = 25.59320 28.97513 27.28416
#
# Velocity S-wave (km/s) = 3.38397 3.60062 3.49397
# Velocity P-wave (km/s) = 6.47316 6.71507 6.59522
#
# Compressibility (1/GPa) = 0.01679963
#
# Stress axis : x y z
#
# Youngs Moduli (GPa) = 103.33054 62.51692 72.18019
#
# Poissons Ratio (x) = 0.31234 0.10232
# Poissons Ratio (y) = 0.51625 0.35732
# Poissons Ratio (z) = 0.14648 0.30948
#
# Static dielectric constant tensor:
#      x y z
#    x 4.570730 0.000000 0.000000 
#    y 0.000000 3.814690 0.000000 
#    z 0.000000 0.000000 3.947700 
# 
# 
# High freq. dielectric constant tensor:
#      x y z
#    x 1.902690 0.000000 0.000000 
#    y 0.000000 1.852200 0.000000 
#    z 0.000000 0.000000 1.871500 
# 
# From -- ./inp_files/29712.got.cif
#   From: 2010.03.12/outbox.cif.g09.slc.cpg/sg50_15_cif.got.tgz:29712.got - 2010.04.16 13:23:21.
