data_PCOD8205090
_publ_section_title
;
Structure prediction by ZEFSAII (Michael W. Deem and Ramdas Pophale) SiO2 
 PCOD8205090
Probable space group: P B A N
;
_chemical_formula_sum "Si O2"
_cell_formula_units_Z 34
_cell_length_a 23.740517
_cell_length_b 9.006718
_cell_length_c 8.520673
_cell_angle_alpha 90.000000
_cell_angle_beta 90.000000
_cell_angle_gamma 90.000000
_cell_volume 1821.925592
_symmetry_space_group_name_H-M "P B A N"
_symmetry_group_IT_number 50
_space_group.IT_coordinate_system_code '2'
_symmetry_cell_setting 'orthorhombic'
loop_
_space_group_symop_operation_xyz
x,y,z
1/2-x,1/2-y,z
x,1/2-y,-z
1/2-x,y,-z
-x,-y,-z
1/2+x,1/2+y,-z
-x,1/2+y,z
1/2+x,-y,z
loop_
_atom_site_type_symbol
_atom_site_label
_atom_site_fract_x
_atom_site_fract_y
_atom_site_fract_z
Si Si1 0.054676 0.414744 0.948533
Si Si2 0.184471 0.579426 0.469370
Si Si3 0.656140 0.916917 0.831680
Si Si4 0.894988 0.651585 0.358854
Si Si5 0.750000 0.750000 0.000000
O O1 0.060210 0.427635 0.757714
O O2 0.042291 0.250000 0.000000
O O3 0.110837 0.473025 0.038740
O O4 0.000000 0.500000 0.000000
O O5 0.169257 0.750000 0.500000
O O6 0.250000 0.545457 0.500000
O O7 0.167733 0.549833 0.289199
O O8 0.147781 0.472472 0.579193
O O9 0.637521 0.765868 0.749619
O O10 0.714577 0.869500 0.904703
O O11 0.923070 0.750000 0.500000
#
# Coordination Sequence:
#
# PCOD8205090 Si02
#       5
#     8   8   8   8   2
#     4  10  21  39  57  84 117 150 199 245 293 356
#     4  10  21  35  53  82 123 152 187 238 305 366
#     4  10  20  34  60  87 111 151 195 243 294 346
#     4   9  18  37  58  83 110 147 204 238 290 351
#     4  12  16  32  66  90 116 136 214 248 292 348
#
# _framework density 18.661572
#
# number of rings (size 3 to 8) (size 9 to 14) (size 15 to 20)
#    0.000    2.118    3.529    1.412    0.000    5.176 
#    0.000   11.765    0.000    0.000    0.000    0.000 
#    0.000    0.000    0.000    0.000    0.000    0.000 
#
# Total GULP energy -421306.891403 kJ/mol
# GULP energy per Si atom -12391.379159 kJ/mol
# Density = 1.861910 g / cm^3
# Si number density = 18.661572 Si / 1000 Ang^3
#
#
#
# Elastic Constant Matrix: (Units=GPa)
#
#
# Indices 1 2 3 4 5 6 
#
# 1 115.2806 39.4825 71.8593 0.0000 0.0000 0.0000
# 2 39.4825 79.2469 48.8130 0.0000 0.0000 0.0000
# 3 71.8593 48.8130 151.8464 0.0000 0.0000 0.0000
# 4 0.0000 0.0000 0.0000 27.3475 0.0000 0.0000
# 5 0.0000 0.0000 0.0000 0.0000 19.3434 0.0000
# 6 0.0000 0.0000 0.0000 0.0000 0.0000 20.9014
#
#
#
# Elastic Compliance Matrix: (Units=1/GPa)
#
#
# Indices 1 2 3 4 5 6 
#
# 1 0.012978 -0.003345 -0.005066 0.000000 0.000000 0.000000
# 2 -0.003345 0.016597 -0.003752 0.000000 0.000000 0.000000
# 3 -0.005066 -0.003752 0.010189 0.000000 0.000000 0.000000
# 4 0.000000 0.000000 0.000000 0.036566 0.000000 0.000000
# 5 0.000000 0.000000 0.000000 0.000000 0.051697 0.000000
# 6 0.000000 0.000000 0.000000 0.000000 0.000000 0.047844
#
#
# Mechanical properties :
#
#
# Convention : Reuss Voigt Hill
#
# Bulk Modulus (GPa) = 64.78084 74.07594 69.42839
# Shear Modulus (GPa) = 24.34927 25.93306 25.14117
#
# Velocity S-wave (km/s) = 3.61609 3.73185 3.67443
# Velocity P-wave (km/s) = 7.22660 7.63868 7.43549
#
# Compressibility (1/GPa) = 0.01543666
#
# Stress axis : x y z
#
# Youngs Moduli (GPa) = 77.05124 60.25318 98.14152
#
# Poissons Ratio (x) = 0.20157 0.49723
# Poissons Ratio (y) = 0.25777 0.36823
# Poissons Ratio (z) = 0.39037 0.22607
#
# Static dielectric constant tensor:
#      x y z
#    x 3.385990 0.000000 0.000000 
#    y 0.000000 3.332680 0.000000 
#    z 0.000000 0.000000 4.153690 
# 
# 
# High freq. dielectric constant tensor:
#      x y z
#    x 1.712440 0.000000 0.000000 
#    y 0.000000 1.713370 0.000000 
#    z 0.000000 0.000000 1.743570 
# 
# From -- ./inp_files/9207.got.cif
#   From: 2010.03.12/outbox.cif.g09.slc.cpg/sg50_5_cif.got.tgz:9207.got - 2010.04.16 13:23:21.
