data_PCOD8205421
_publ_section_title
;
Structure prediction by ZEFSAII (Michael W. Deem and Ramdas Pophale) SiO2 
 PCOD8205421
Probable space group: P B A N
;
_chemical_formula_sum "Si O2"
_cell_formula_units_Z 44
_cell_length_a 12.841292
_cell_length_b 9.061198
_cell_length_c 18.209234
_cell_angle_alpha 90.000000
_cell_angle_beta 90.000000
_cell_angle_gamma 90.000000
_cell_volume 2118.780752
_symmetry_space_group_name_H-M "P B A N"
_symmetry_group_IT_number 50
_space_group.IT_coordinate_system_code '2'
_symmetry_cell_setting 'orthorhombic'
loop_
_space_group_symop_operation_xyz
x,y,z
1/2-x,1/2-y,z
x,1/2-y,-z
1/2-x,y,-z
-x,-y,-z
1/2+x,1/2+y,-z
-x,1/2+y,z
1/2+x,-y,z
loop_
_atom_site_type_symbol
_atom_site_label
_atom_site_fract_x
_atom_site_fract_y
_atom_site_fract_z
Si Si1 0.369693 0.760078 0.913366
Si Si2 0.516719 0.250000 0.500000
Si Si3 0.846671 0.663922 0.399369
Si Si4 0.543627 0.768343 0.734609
Si Si5 0.501108 0.988650 0.164268
Si Si6 0.146122 0.658021 0.637579
O O1 0.250000 0.750000 0.887666
O O2 0.430508 0.616643 0.885053
O O3 0.417736 0.914644 0.884077
O O4 0.379504 0.750000 0.000000
O O5 0.438818 0.135535 0.541455
O O6 0.588617 0.173656 0.440193
O O7 0.750000 0.750000 0.436469
O O8 0.882984 0.777388 0.335773
O O9 0.818166 0.511535 0.360055
O O10 0.559102 0.611822 0.775202
O O11 0.424117 0.793434 0.706985
O O12 0.573072 0.897821 0.791455
O O13 0.250000 0.750000 0.640281
#
# Coordination Sequence:
#
# PCOD8205421 Si02
#       6
#     8   4   8   8   8   8
#     4  10  22  41  68  99 132 171 215 259 308 373
#     4  10  24  42  62  82 118 156 210 258 314 376
#     4  11  24  39  60  88 119 157 205 259 316 372
#     4  10  22  40  59  88 125 159 205 256 309 373
#     4  10  21  40  66  92 131 171 207 258 318 370
#     4  11  24  40  63  87 118 160 207 259 317 378
#
# _framework density 20.766662
#
# number of rings (size 3 to 8) (size 9 to 14) (size 15 to 20)
#    0.000    1.636    1.818    1.636    2.545    8.727 
#    0.000    2.727    0.000    9.818    0.000    0.000 
#    0.000    0.000    0.000    0.000    0.000    0.000 
#
# Total GULP energy -545328.279749 kJ/mol
# GULP energy per Si atom -12393.824540 kJ/mol
# Density = 2.071940 g / cm^3
# Si number density = 20.766662 Si / 1000 Ang^3
#
#
#
# Elastic Constant Matrix: (Units=GPa)
#
#
# Indices 1 2 3 4 5 6 
#
# 1 121.5023 53.1490 37.0896 0.0000 0.0000 0.0000
# 2 53.1490 128.8259 30.2786 0.0000 0.0000 0.0000
# 3 37.0896 30.2786 83.6770 0.0000 0.0000 0.0000
# 4 0.0000 0.0000 0.0000 28.2801 0.0000 0.0000
# 5 0.0000 0.0000 0.0000 0.0000 17.1568 0.0000
# 6 0.0000 0.0000 0.0000 0.0000 0.0000 27.4659
#
#
#
# Elastic Compliance Matrix: (Units=1/GPa)
#
#
# Indices 1 2 3 4 5 6 
#
# 1 0.010908 -0.003677 -0.003505 0.000000 0.000000 0.000000
# 2 -0.003677 0.009723 -0.001889 0.000000 0.000000 0.000000
# 3 -0.003505 -0.001889 0.014188 0.000000 0.000000 0.000000
# 4 0.000000 0.000000 0.000000 0.035360 0.000000 0.000000
# 5 0.000000 0.000000 0.000000 0.000000 0.058286 0.000000
# 6 0.000000 0.000000 0.000000 0.000000 0.000000 0.036409
#
#
# Mechanical properties :
#
#
# Convention : Reuss Voigt Hill
#
# Bulk Modulus (GPa) = 59.95541 63.89329 61.92435
# Shear Modulus (GPa) = 26.51473 28.81309 27.66391
#
# Velocity S-wave (km/s) = 3.57710 3.72891 3.65380
# Velocity P-wave (km/s) = 6.78193 7.02665 6.90537
#
# Compressibility (1/GPa) = 0.01667906
#
# Stress axis : x y z
#
# Youngs Moduli (GPa) = 91.67202 102.84683 70.48416
#
# Poissons Ratio (x) = 0.37814 0.24703
# Poissons Ratio (y) = 0.33705 0.13312
# Poissons Ratio (z) = 0.32128 0.19424
#
# Static dielectric constant tensor:
#      x y z
#    x 3.630450 0.000000 0.000000 
#    y 0.000000 3.789570 0.000000 
#    z 0.000000 0.000000 3.934720 
# 
# 
# High freq. dielectric constant tensor:
#      x y z
#    x 1.797960 0.000000 0.000000 
#    y 0.000000 1.819570 0.000000 
#    z 0.000000 0.000000 1.826340 
# 
# From -- ./inp_files/29408.got.cif
#   From: 2010.03.12/outbox.cif.g09.slc.cpg/sg50_15_cif.got.tgz:29408.got - 2010.04.16 13:23:21.
