data_PCOD8205171
_publ_section_title
;
Structure prediction by ZEFSAII (Michael W. Deem and Ramdas Pophale) SiO2 
 PCOD8205171
Probable space group: P B A N
;
_chemical_formula_sum "Si O2"
_cell_formula_units_Z 64
_cell_length_a 12.584503
_cell_length_b 8.631379
_cell_length_c 28.552846
_cell_angle_alpha 90.000000
_cell_angle_beta 90.000000
_cell_angle_gamma 90.000000
_cell_volume 3101.456243
_symmetry_space_group_name_H-M "P B A N"
_symmetry_group_IT_number 50
_space_group.IT_coordinate_system_code '2'
_symmetry_cell_setting 'orthorhombic'
loop_
_space_group_symop_operation_xyz
x,y,z
1/2-x,1/2-y,z
x,1/2-y,-z
1/2-x,y,-z
-x,-y,-z
1/2+x,1/2+y,-z
-x,1/2+y,z
1/2+x,-y,z
loop_
_atom_site_type_symbol
_atom_site_label
_atom_site_fract_x
_atom_site_fract_y
_atom_site_fract_z
Si Si1 0.126586 0.264010 0.945332
Si Si2 0.945262 0.360180 0.733115
Si Si3 0.692908 0.900191 0.682769
Si Si4 0.042338 0.427197 0.396856
Si Si5 0.503902 0.010185 0.109151
Si Si6 0.130447 0.713785 0.445577
Si Si7 0.877138 0.258925 0.835319
Si Si8 0.402422 0.956306 0.685420
O O1 0.250000 0.250000 0.933569
O O2 0.064503 0.128753 0.920113
O O3 0.085904 0.428313 0.926114
O O4 0.103525 0.250000 0.000000
O O5 0.882977 0.520370 0.721161
O O6 0.916527 0.297220 0.783599
O O7 0.924476 0.223714 0.696080
O O8 0.066938 0.422556 0.727855
O O9 0.750000 0.750000 0.704651
O O10 0.635399 0.847977 0.634435
O O11 0.779832 0.032158 0.672169
O O12 0.099844 0.535904 0.435183
O O13 0.963298 0.309900 0.421800
O O14 0.971920 0.518759 0.358543
O O15 0.572291 0.094678 0.149629
O O16 0.419312 0.891631 0.130594
O O17 0.250000 0.750000 0.426421
O O18 0.127333 0.750000 0.500000
O O19 0.750000 0.250000 0.837283
#
# Coordination Sequence:
#
# PCOD8205171 Si02
#       8
#     8   8   8   8   8   8   8   8
#     4  10  20  37  60  86 117 153 198 255 314 371
#     4  11  23  38  59  86 120 161 204 252 302 362
#     4  11  22  37  59  87 118 153 200 251 302 359
#     4  11  22  39  62  87 118 153 194 244 296 354
#     4  10  22  37  58  87 118 157 204 251 307 374
#     4  11  24  42  64  90 122 159 197 242 300 365
#     4  11  22  39  59  84 122 164 205 251 305 366
#     4  11  21  37  58  85 115 151 198 249 303 355
#
# _framework density 20.635469000000001
#
# number of rings (size 3 to 8) (size 9 to 14) (size 15 to 20)
#    0.000    1.250    0.000    7.875    0.000    0.000 
#    0.000    1.875    0.000    9.000    0.000    0.000 
#    0.000    0.000    0.000    0.000    0.000    0.000 
#
# Total GULP energy -793186.766737 kJ/mol
# GULP energy per Si atom -12393.543230 kJ/mol
# Density = 2.058850 g / cm^3
# Si number density = 20.635469 Si / 1000 Ang^3
#
#
#
# Elastic Constant Matrix: (Units=GPa)
#
#
# Indices 1 2 3 4 5 6 
#
# 1 115.1876 26.9069 45.4311 0.0000 0.0000 0.0000
# 2 26.9069 88.6007 35.4467 0.0000 0.0000 0.0000
# 3 45.4311 35.4467 103.1311 0.0000 0.0000 0.0000
# 4 0.0000 0.0000 0.0000 31.5043 0.0000 0.0000
# 5 0.0000 0.0000 0.0000 0.0000 20.0126 0.0000
# 6 0.0000 0.0000 0.0000 0.0000 0.0000 32.3450
#
#
#
# Elastic Compliance Matrix: (Units=1/GPa)
#
#
# Indices 1 2 3 4 5 6 
#
# 1 0.010695 -0.001580 -0.004168 0.000000 0.000000 0.000000
# 2 -0.001580 0.013320 -0.003882 0.000000 0.000000 0.000000
# 3 -0.004168 -0.003882 0.012867 0.000000 0.000000 0.000000
# 4 0.000000 0.000000 0.000000 0.031742 0.000000 0.000000
# 5 0.000000 0.000000 0.000000 0.000000 0.049969 0.000000
# 6 0.000000 0.000000 0.000000 0.000000 0.000000 0.030917
#
#
# Mechanical properties :
#
#
# Convention : Reuss Voigt Hill
#
# Bulk Modulus (GPa) = 56.75209 58.05432 57.40320
# Shear Modulus (GPa) = 28.63008 30.04801 29.33904
#
# Velocity S-wave (km/s) = 3.72885 3.82007 3.77474
# Velocity P-wave (km/s) = 6.78977 6.90301 6.84663
#
# Compressibility (1/GPa) = 0.01762050
#
# Stress axis : x y z
#
# Youngs Moduli (GPa) = 93.50572 75.07772 77.72017
#
# Poissons Ratio (x) = 0.11865 0.32394
# Poissons Ratio (y) = 0.14777 0.30170
# Poissons Ratio (z) = 0.38973 0.29144
#
# Static dielectric constant tensor:
#      x y z
#    x 4.213220 0.000000 0.000000 
#    y 0.000000 3.801020 0.000000 
#    z 0.000000 0.000000 3.781760 
# 
# 
# High freq. dielectric constant tensor:
#      x y z
#    x 1.828990 0.000000 0.000000 
#    y 0.000000 1.816600 0.000000 
#    z 0.000000 0.000000 1.794720 
# 
# From -- ./inp_files/32477.got.cif
#   From: 2010.03.12/outbox.cif.g09.slc.cpg/sg50_17_cif.got.tgz:32477.got - 2010.04.16 13:23:21.
