data_PCOD8205382
_publ_section_title
;
Structure prediction by ZEFSAII (Michael W. Deem and Ramdas Pophale) SiO2 
 PCOD8205382
Probable space group: P B A N
;
_chemical_formula_sum "Si O2"
_cell_formula_units_Z 54
_cell_length_a 18.137823
_cell_length_b 24.334835
_cell_length_c 6.589210
_cell_angle_alpha 90.000000
_cell_angle_beta 90.000000
_cell_angle_gamma 90.000000
_cell_volume 2908.351638
_symmetry_space_group_name_H-M "P B A N"
_symmetry_group_IT_number 50
_space_group.IT_coordinate_system_code '2'
_symmetry_cell_setting 'orthorhombic'
loop_
_space_group_symop_operation_xyz
x,y,z
1/2-x,1/2-y,z
x,1/2-y,-z
1/2-x,y,-z
-x,-y,-z
1/2+x,1/2+y,-z
-x,1/2+y,z
1/2+x,-y,z
loop_
_atom_site_type_symbol
_atom_site_label
_atom_site_fract_x
_atom_site_fract_y
_atom_site_fract_z
Si Si1 0.940074 0.575355 0.372226
Si Si2 0.015204 0.301353 0.615040
Si Si3 0.078337 0.508775 0.289949
Si Si4 0.822536 0.071573 0.606039
Si Si5 0.880054 0.314804 0.331286
Si Si6 0.463124 0.750000 0.000000
Si Si7 0.250000 0.750000 0.500000
Si Si8 0.826019 0.522974 0.090661
O O1 0.942715 0.547720 0.594899
O O2 0.864489 0.565305 0.247281
O O3 0.944594 0.640597 0.411280
O O4 0.007603 0.547899 0.246149
O O5 0.056111 0.250000 0.500000
O O6 0.931758 0.304129 0.527228
O O7 0.013439 0.286956 0.852885
O O8 0.133576 0.540795 0.432643
O O9 0.115180 0.493027 0.079250
O O10 0.750000 0.096015 0.500000
O O11 0.871292 0.120229 0.698149
O O12 0.801509 0.031372 0.789076
O O13 0.914380 0.292545 0.125267
O O14 0.800490 0.287723 0.358346
O O15 0.750000 0.548815 0.000000
#
# Coordination Sequence:
#
# PCOD8205382 Si02
#       8
#     8   8   8   8   8   4   2   8
#     4  10  22  37  62  85 118 156 191 248 300 351
#     4  10  21  40  57  83 110 147 195 249 293 344
#     4  10  21  39  57  87 117 153 198 240 291 358
#     4  11  21  35  57  77 116 161 195 240 290 344
#     4  11  22  36  51  75 112 155 203 247 278 331
#     4  10  22  37  56  78 111 152 204 252 282 336
#     4  12  20  38  48  72 114 164 204 232 282 324
#     4  11  23  37  57  90 119 152 197 240 303 370
#
# _framework density 18.567219999999999
#
# number of rings (size 3 to 8) (size 9 to 14) (size 15 to 20)
#    0.000    1.481    5.926    0.444    2.074    2.667 
#    2.667    0.000    0.000    0.000    0.000    7.778 
#    0.000    0.000    0.000    0.000    0.000    0.000 
#
# Total GULP energy -669510.314417 kJ/mol
# GULP energy per Si atom -12398.339156 kJ/mol
# Density = 1.852496 g / cm^3
# Si number density = 18.567220 Si / 1000 Ang^3
#
#
#
# Elastic Constant Matrix: (Units=GPa)
#
#
# Indices 1 2 3 4 5 6 
#
# 1 53.7218 23.8912 19.5606 0.0000 0.0000 0.0000
# 2 23.8912 141.6907 37.6207 0.0000 0.0000 0.0000
# 3 19.5606 37.6207 92.2596 0.0000 0.0000 0.0000
# 4 0.0000 0.0000 0.0000 17.8886 0.0000 0.0000
# 5 0.0000 0.0000 0.0000 0.0000 20.6805 0.0000
# 6 0.0000 0.0000 0.0000 0.0000 0.0000 19.6399
#
#
#
# Elastic Compliance Matrix: (Units=1/GPa)
#
#
# Indices 1 2 3 4 5 6 
#
# 1 0.021022 -0.002648 -0.003377 0.000000 0.000000 0.000000
# 2 -0.002648 0.008248 -0.002802 0.000000 0.000000 0.000000
# 3 -0.003377 -0.002802 0.012698 0.000000 0.000000 0.000000
# 4 0.000000 0.000000 0.000000 0.055902 0.000000 0.000000
# 5 0.000000 0.000000 0.000000 0.000000 0.048355 0.000000
# 6 0.000000 0.000000 0.000000 0.000000 0.000000 0.050917
#
#
# Mechanical properties :
#
#
# Convention : Reuss Voigt Hill
#
# Bulk Modulus (GPa) = 41.12990 49.97969 45.55480
# Shear Modulus (GPa) = 22.43170 25.41509 23.92340
#
# Velocity S-wave (km/s) = 3.47959 3.70376 3.59343
# Velocity P-wave (km/s) = 6.19221 6.72809 6.46570
#
# Compressibility (1/GPa) = 0.02431321
#
# Stress axis : x y z
#
# Youngs Moduli (GPa) = 47.57001 121.24093 78.75529
#
# Poissons Ratio (x) = 0.32103 0.26598
# Poissons Ratio (y) = 0.12596 0.22067
# Poissons Ratio (z) = 0.16066 0.33971
#
# Static dielectric constant tensor:
#      x y z
#    x 3.335950 0.000000 0.000000 
#    y 0.000000 3.489250 0.000000 
#    z 0.000000 0.000000 3.522950 
# 
# 
# High freq. dielectric constant tensor:
#      x y z
#    x 1.698710 0.000000 0.000000 
#    y 0.000000 1.718630 0.000000 
#    z 0.000000 0.000000 1.723910 
# 
# From -- ./inp_files/5454.got.cif
#   From: 2010.03.12/outbox.cif.g09.slc.cpg/sg50_3_cif.got.tgz:5454.got - 2010.04.16 13:23:21.
