data_PCOD8205344
_publ_section_title
;
Structure prediction by ZEFSAII (Michael W. Deem and Ramdas Pophale) SiO2 
 PCOD8205344
Probable space group: P B A N
;
_chemical_formula_sum "Si O2"
_cell_formula_units_Z 32
_cell_length_a 4.885116
_cell_length_b 35.066300
_cell_length_c 8.241351
_cell_angle_alpha 90.000000
_cell_angle_beta 90.000000
_cell_angle_gamma 90.000000
_cell_volume 1411.767682
_symmetry_space_group_name_H-M "P B A N"
_symmetry_group_IT_number 50
_space_group.IT_coordinate_system_code '2'
_symmetry_cell_setting 'orthorhombic'
loop_
_space_group_symop_operation_xyz
x,y,z
1/2-x,1/2-y,z
x,1/2-y,-z
1/2-x,y,-z
-x,-y,-z
1/2+x,1/2+y,-z
-x,1/2+y,z
1/2+x,-y,z
loop_
_atom_site_type_symbol
_atom_site_label
_atom_site_fract_x
_atom_site_fract_y
_atom_site_fract_z
Si Si1 0.229095 0.791848 0.809192
Si Si2 0.762316 0.659100 0.809922
Si Si3 0.246004 0.975274 0.812517
Si Si4 0.001797 0.407999 0.603969
O O1 0.250000 0.750000 0.726061
O O2 0.442671 0.824840 0.753618
O O3 0.930296 0.805869 0.763535
O O4 0.250000 0.786709 0.000000
O O5 0.664588 0.622524 0.711496
O O6 0.750000 0.648301 0.000000
O O7 0.153037 0.939187 0.710968
O O8 0.552492 0.988616 0.770891
O O9 0.250000 0.963133 0.000000
O O10 0.250000 0.426710 0.500000
O O11 0.750000 0.389740 0.500000
#
# Coordination Sequence:
#
# PCOD8205344 Si02
#       4
#     8   8   8   8
#     4   9  17  32  58  91 120 151 203 266 314 357
#     4  10  21  37  60  88 122 164 207 254 310 373
#     4  10  23  43  67  93 122 161 210 261 312 372
#     4  12  26  41  62  93 132 170 206 257 314 375
#
# _framework density 22.666620000000002
#
# number of rings (size 3 to 8) (size 9 to 14) (size 15 to 20)
#    0.000    1.750    0.000    3.750    0.000   14.000 
#    0.000    0.000    0.000   11.250    0.000    0.000 
#    0.000    0.000    0.000    0.000    0.000    0.000 
#
# Total GULP energy -396521.138341 kJ/mol
# GULP energy per Si atom -12391.285573 kJ/mol
# Density = 2.261503 g / cm^3
# Si number density = 22.666620 Si / 1000 Ang^3
#
#
#
# Elastic Constant Matrix: (Units=GPa)
#
#
# Indices 1 2 3 4 5 6 
#
# 1 113.2442 16.9157 43.3702 0.0000 0.0000 0.0000
# 2 16.9157 109.5282 57.4973 0.0000 0.0000 0.0000
# 3 43.3702 57.4973 79.7197 0.0000 0.0000 0.0000
# 4 0.0000 0.0000 0.0000 1.1969 0.0000 0.0000
# 5 0.0000 0.0000 0.0000 0.0000 33.1009 0.0000
# 6 0.0000 0.0000 0.0000 0.0000 0.0000 38.0348
#
#
#
# Elastic Compliance Matrix: (Units=1/GPa)
#
#
# Indices 1 2 3 4 5 6 
#
# 1 0.011545 0.002437 -0.008038 0.000000 0.000000 0.000000
# 2 0.002437 0.015208 -0.012294 0.000000 0.000000 0.000000
# 3 -0.008038 -0.012294 0.025784 0.000000 0.000000 0.000000
# 4 0.000000 0.000000 0.000000 0.835514 0.000000 0.000000
# 5 0.000000 0.000000 0.000000 0.000000 0.030211 0.000000
# 6 0.000000 0.000000 0.000000 0.000000 0.000000 0.026292
#
#
# Mechanical properties :
#
#
# Convention : Reuss Voigt Hill
#
# Bulk Modulus (GPa) = 59.71802 59.78428 59.75115
# Shear Modulus (GPa) = 5.07137 26.78044 15.92590
#
# Velocity S-wave (km/s) = 1.49741 3.44101 2.65356
# Velocity P-wave (km/s) = 5.42154 6.49770 5.98386
#
# Compressibility (1/GPa) = 0.01674536
#
# Stress axis : x y z
#
# Youngs Moduli (GPa) = 86.61739 65.75693 38.78361
#
# Poissons Ratio (x) = -0.16023 0.31176
# Poissons Ratio (y) = -0.21107 0.47681
# Poissons Ratio (z) = 0.69626 0.80842
#
# Static dielectric constant tensor:
#      x y z
#    x 10.043060 0.000000 0.000000 
#    y 0.000000 3.918610 0.000000 
#    z 0.000000 0.000000 3.916540 
# 
# 
# High freq. dielectric constant tensor:
#      x y z
#    x 1.920290 0.000000 0.000000 
#    y 0.000000 1.889640 0.000000 
#    z 0.000000 0.000000 1.871160 
# 
# From -- ./inp_files/8007.got.cif
#   From: 2010.03.12/outbox.cif.g09.slc.cpg/sg50_5_cif.got.tgz:8007.got - 2010.04.16 13:23:21.
