data_PCOD8205225
_publ_section_title
;
Structure prediction by ZEFSAII (Michael W. Deem and Ramdas Pophale) SiO2 
 PCOD8205225
Probable space group: P B A N
;
_chemical_formula_sum "Si O2"
_cell_formula_units_Z 64
_cell_length_a 31.158833
_cell_length_b 11.381480
_cell_length_c 9.360105
_cell_angle_alpha 90.000000
_cell_angle_beta 90.000000
_cell_angle_gamma 90.000000
_cell_volume 3319.408057
_symmetry_space_group_name_H-M "P B A N"
_symmetry_group_IT_number 50
_space_group.IT_coordinate_system_code '2'
_symmetry_cell_setting 'orthorhombic'
loop_
_space_group_symop_operation_xyz
x,y,z
1/2-x,1/2-y,z
x,1/2-y,-z
1/2-x,y,-z
-x,-y,-z
1/2+x,1/2+y,-z
-x,1/2+y,z
1/2+x,-y,z
loop_
_atom_site_type_symbol
_atom_site_label
_atom_site_fract_x
_atom_site_fract_y
_atom_site_fract_z
Si Si1 0.299939 0.009153 0.794128
Si Si2 0.937984 0.516324 0.871056
Si Si3 0.700659 0.373881 0.522703
Si Si4 0.069630 0.225448 0.664020
Si Si5 0.485112 0.347233 0.101910
Si Si6 0.832474 0.745244 0.333138
Si Si7 0.799091 0.988673 0.253273
Si Si8 0.852528 0.112998 0.040573
O O1 0.314060 0.914828 0.677265
O O2 0.308977 0.140393 0.745730
O O3 0.248564 0.003871 0.812463
O O4 0.327997 0.972670 0.929812
O O5 0.929343 0.590006 0.723858
O O6 0.899773 0.432125 0.921095
O O7 0.980452 0.440358 0.843308
O O8 0.946625 0.600388 0.005934
O O9 0.675525 0.250000 0.500000
O O10 0.750000 0.345223 0.500000
O O11 0.692308 0.482598 0.418421
O O12 0.055440 0.250000 0.500000
O O13 0.035260 0.295945 0.755507
O O14 0.117044 0.277058 0.681487
O O15 0.508012 0.250000 0.000000
O O16 0.818340 0.750000 0.500000
O O17 0.818435 0.858446 0.239761
O O18 0.824678 0.095310 0.181157
O O19 0.853630 0.250000 0.000000
#
# Coordination Sequence:
#
# PCOD8205225 Si02
#       8
#     8   8   8   8   8   8   8   8
#     4  11  23  36  58  85 114 160 211 253 300 357
#     4  10  20  39  62  86 118 158 203 247 302 377
#     4   9  18  34  55  78 108 153 207 248 292 355
#     4  10  21  37  61  92 124 156 193 254 322 371
#     4   9  19  37  64  91 118 156 201 241 302 386
#     4  11  21  38  62  89 123 157 203 255 310 368
#     4  11  22  38  58  83 118 162 202 253 309 356
#     4  12  25  40  58  84 122 160 203 258 311 361
#
# _framework density 19.280546000000001
#
# number of rings (size 3 to 8) (size 9 to 14) (size 15 to 20)
#    0.000    1.625    2.500    2.625    0.000    3.500 
#    0.000    1.250    0.000    2.250    0.000    0.000 
#    0.000    0.000    0.000    0.000    0.000    0.000 
#
# Total GULP energy -792952.322236 kJ/mol
# GULP energy per Si atom -12389.880035 kJ/mol
# Density = 1.923666 g / cm^3
# Si number density = 19.280546 Si / 1000 Ang^3
#
#
#
# Elastic Constant Matrix: (Units=GPa)
#
#
# Indices 1 2 3 4 5 6 
#
# 1 74.5138 26.0598 32.5296 0.0000 0.0000 0.0000
# 2 26.0598 113.9469 21.7075 0.0000 0.0000 0.0000
# 3 32.5296 21.7075 72.8974 0.0000 0.0000 0.0000
# 4 0.0000 0.0000 0.0000 37.1133 0.0000 0.0000
# 5 0.0000 0.0000 0.0000 0.0000 16.6877 0.0000
# 6 0.0000 0.0000 0.0000 0.0000 0.0000 22.8930
#
#
#
# Elastic Compliance Matrix: (Units=1/GPa)
#
#
# Indices 1 2 3 4 5 6 
#
# 1 0.017390 -0.002649 -0.006971 0.000000 0.000000 0.000000
# 2 -0.002649 0.009707 -0.001709 0.000000 0.000000 0.000000
# 3 -0.006971 -0.001709 0.017338 0.000000 0.000000 0.000000
# 4 0.000000 0.000000 0.000000 0.026944 0.000000 0.000000
# 5 0.000000 0.000000 0.000000 0.000000 0.059924 0.000000
# 6 0.000000 0.000000 0.000000 0.000000 0.000000 0.043681
#
#
# Mechanical properties :
#
#
# Convention : Reuss Voigt Hill
#
# Bulk Modulus (GPa) = 45.91959 46.88354 46.40156
# Shear Modulus (GPa) = 24.40188 27.40956 25.90572
#
# Velocity S-wave (km/s) = 3.56142 3.77452 3.66952
# Velocity P-wave (km/s) = 6.38591 6.58524 6.48634
#
# Compressibility (1/GPa) = 0.02177720
#
# Stress axis : x y z
#
# Youngs Moduli (GPa) = 57.50367 103.01469 57.67826
#
# Poissons Ratio (x) = 0.27289 0.40209
# Poissons Ratio (y) = 0.15233 0.09855
# Poissons Ratio (z) = 0.40088 0.17601
#
# Static dielectric constant tensor:
#      x y z
#    x 3.349510 0.000000 0.000000 
#    y 0.000000 3.772340 0.000000 
#    z 0.000000 0.000000 3.482130 
# 
# 
# High freq. dielectric constant tensor:
#      x y z
#    x 1.737790 0.000000 0.000000 
#    y 0.000000 1.765570 0.000000 
#    z 0.000000 0.000000 1.749880 
# 
# From -- ./inp_files/17123.got.cif
#   From: 2010.03.12/outbox.cif.g09.slc.cpg/sg50_9_cif.got.tgz:17123.got - 2010.04.16 13:23:21.
