data_PCOD8205554
_publ_section_title
;
Structure prediction by ZEFSAII (Michael W. Deem and Ramdas Pophale) SiO2 
 PCOD8205554
Probable space group: P B A N
;
_chemical_formula_sum "Si O2"
_cell_formula_units_Z 32
_cell_length_a 8.580036
_cell_length_b 10.683782
_cell_length_c 14.050695
_cell_angle_alpha 90.000000
_cell_angle_beta 90.000000
_cell_angle_gamma 90.000000
_cell_volume 1287.988349
_symmetry_space_group_name_H-M "P B A N"
_symmetry_group_IT_number 50
_space_group.IT_coordinate_system_code '2'
_symmetry_cell_setting 'orthorhombic'
loop_
_space_group_symop_operation_xyz
x,y,z
1/2-x,1/2-y,z
x,1/2-y,-z
1/2-x,y,-z
-x,-y,-z
1/2+x,1/2+y,-z
-x,1/2+y,z
1/2+x,-y,z
loop_
_atom_site_type_symbol
_atom_site_label
_atom_site_fract_x
_atom_site_fract_y
_atom_site_fract_z
Si Si1 0.923807 0.122266 0.461285
Si Si2 0.115161 0.658246 0.249961
Si Si3 0.075570 0.193035 0.899054
Si Si4 0.197143 0.989085 0.101325
O O1 0.005859 0.250000 0.500000
O O2 0.750000 0.123856 0.500000
O O3 0.951312 0.106136 0.348129
O O4 0.000000 0.000000 0.500000
O O5 0.250000 0.750000 0.283043
O O6 0.975964 0.719621 0.188638
O O7 0.198707 0.553464 0.188362
O O8 0.980637 0.058210 0.887014
O O9 0.022971 0.250000 0.000000
O O10 0.261638 0.142845 0.899134
O O11 0.250000 0.933679 0.000000
#
# Coordination Sequence:
#
# PCOD8205554 Si02
#       4
#     8   8   8   8
#     4  11  25  48  76 104 144 188 241 303 368 428
#     4  10  22  42  71  96 134 184 230 282 359 419
#     4  11  24  44  65  98 140 181 230 281 346 423
#     4  11  23  41  66  94 137 179 223 281 339 417
#
# _framework density 24.844944999999999
#
# number of rings (size 3 to 8) (size 9 to 14) (size 15 to 20)
#    0.000    1.250    5.000    0.750    3.500    1.000 
#    0.000    0.000    5.500    0.000    0.000    0.000 
#    0.000    0.000    0.000    0.000    0.000    0.000 
#
# Total GULP energy -396420.643437 kJ/mol
# GULP energy per Si atom -12388.145107 kJ/mol
# Density = 2.478840 g / cm^3
# Si number density = 24.844945 Si / 1000 Ang^3
#
#
#
# Elastic Constant Matrix: (Units=GPa)
#
#
# Indices 1 2 3 4 5 6 
#
# 1 106.3633 40.7605 48.8093 0.0000 0.0000 0.0000
# 2 40.7605 154.5901 67.3438 0.0000 0.0000 0.0000
# 3 48.8093 67.3438 239.5706 0.0000 0.0000 0.0000
# 4 0.0000 0.0000 0.0000 -38.9390 0.0000 0.0000
# 5 0.0000 0.0000 0.0000 0.0000 30.3811 0.0000
# 6 0.0000 0.0000 0.0000 0.0000 0.0000 29.2901
#
#
#
# Elastic Compliance Matrix: (Units=1/GPa)
#
#
# Indices 1 2 3 4 5 6 
#
# 1 0.010985 -0.002190 -0.001623 0.000000 0.000000 0.000000
# 2 -0.002190 0.007808 -0.001749 0.000000 0.000000 0.000000
# 3 -0.001623 -0.001749 0.004996 0.000000 0.000000 0.000000
# 4 0.000000 0.000000 0.000000 -0.025681 0.000000 0.000000
# 5 0.000000 0.000000 0.000000 0.000000 0.032915 0.000000
# 6 0.000000 0.000000 0.000000 0.000000 0.000000 0.034141
#
#
# Mechanical properties :
#
#
# Convention : Reuss Voigt Hill
#
# Bulk Modulus (GPa) = 78.94125 90.48349 84.71237
# Shear Modulus (GPa) = 62.10459 27.05379 44.57919
#
# Velocity S-wave (km/s) = 5.00511 3.30344 4.24051
# Velocity P-wave (km/s) = 8.07738 7.14483 7.62537
#
# Compressibility (1/GPa) = 0.01266765
#
# Stress axis : x y z
#
# Youngs Moduli (GPa) = 91.02935 128.07638 200.14879
#
# Poissons Ratio (x) = 0.28044 0.32477
# Poissons Ratio (y) = 0.19932 0.35000
# Poissons Ratio (z) = 0.14771 0.22397
#
# Static dielectric constant tensor:
#      x y z
#    x 6.293790 0.000000 0.000000 
#    y 0.000000 4.921950 0.000000 
#    z 0.000000 0.000000 4.771680 
# 
# 
# High freq. dielectric constant tensor:
#      x y z
#    x 1.996070 0.000000 0.000000 
#    y 0.000000 2.023870 0.000000 
#    z 0.000000 0.000000 1.989370 
# 
# From -- ./inp_files/24336.got.cif
#   From: 2010.03.12/outbox.cif.g09.slc.cpg/sg50_13_cif.got.tgz:24336.got - 2010.04.16 13:23:21.
