data_PCOD8205898
_publ_section_title
;
Structure prediction by ZEFSAII (Michael W. Deem and Ramdas Pophale) SiO2 
 PCOD8205898
Probable space group: P B A N
;
_chemical_formula_sum "Si O2"
_cell_formula_units_Z 20
_cell_length_a 8.780132
_cell_length_b 15.898605
_cell_length_c 4.784354
_cell_angle_alpha 90.000000
_cell_angle_beta 90.000000
_cell_angle_gamma 90.000000
_cell_volume 667.856828
_symmetry_space_group_name_H-M "P B A N"
_symmetry_group_IT_number 50
_space_group.IT_coordinate_system_code '2'
_symmetry_cell_setting 'orthorhombic'
loop_
_space_group_symop_operation_xyz
x,y,z
1/2-x,1/2-y,z
x,1/2-y,-z
1/2-x,y,-z
-x,-y,-z
1/2+x,1/2+y,-z
-x,1/2+y,z
1/2+x,-y,z
loop_
_atom_site_type_symbol
_atom_site_label
_atom_site_fract_x
_atom_site_fract_y
_atom_site_fract_z
Si Si1 0.641873 0.973518 0.746750
Si Si2 0.750000 0.250000 0.000000
Si Si3 0.250000 0.250000 0.500000
Si Si4 0.490773 0.361078 0.177834
O O1 0.750000 0.942267 0.500000
O O2 0.948347 0.890444 0.140547
O O3 0.527957 0.050946 0.656523
O O4 0.750000 0.007151 0.000000
O O5 0.642628 0.193722 0.805514
O O6 0.352564 0.308642 0.302149
#
# Coordination Sequence:
#
# PCOD8205898 Si02
#       4
#     8   2   2   8
#     4  11  28  58  93 132 182 248 310 381 451 577
#     4  12  28  56  84 136 182 248 290 408 450 554
#     4  12  32  56  98 140 190 240 302 408 458 558
#     4  11  30  55  92 138 184 244 316 374 481 545
#
# _framework density 29.946538
#
# number of rings (size 3 to 8) (size 9 to 14) (size 15 to 20)
#    0.000    0.800    2.000    0.000   14.000    6.400 
#    0.000    1.000    0.000    0.000    0.000    0.000 
#    0.000    0.000    0.000    0.000    0.000    0.000 
#
# Total GULP energy -248032.561215 kJ/mol
# GULP energy per Si atom -12401.628061 kJ/mol
# Density = 2.987838 g / cm^3
# Si number density = 29.946538 Si / 1000 Ang^3
#
#
#
# Elastic Constant Matrix: (Units=GPa)
#
#
# Indices 1 2 3 4 5 6 
#
# 1 244.5798 131.3929 70.1468 0.0000 0.0000 0.0000
# 2 131.3929 249.9561 91.8875 0.0000 0.0000 0.0000
# 3 70.1468 91.8875 148.9040 0.0000 0.0000 0.0000
# 4 0.0000 0.0000 0.0000 23.3407 0.0000 0.0000
# 5 0.0000 0.0000 0.0000 0.0000 51.1613 0.0000
# 6 0.0000 0.0000 0.0000 0.0000 0.0000 67.9316
#
#
#
# Elastic Compliance Matrix: (Units=1/GPa)
#
#
# Indices 1 2 3 4 5 6 
#
# 1 0.005835 -0.002660 -0.001107 0.000000 0.000000 0.000000
# 2 -0.002660 0.006387 -0.002688 0.000000 0.000000 0.000000
# 3 -0.001107 -0.002688 0.008896 0.000000 0.000000 0.000000
# 4 0.000000 0.000000 0.000000 0.042844 0.000000 0.000000
# 5 0.000000 0.000000 0.000000 0.000000 0.019546 0.000000
# 6 0.000000 0.000000 0.000000 0.000000 0.000000 0.014721
#
#
# Mechanical properties :
#
#
# Convention : Reuss Voigt Hill
#
# Bulk Modulus (GPa) = 121.84555 136.69936 129.27246
# Shear Modulus (GPa) = 43.90681 51.82089 47.86385
#
# Velocity S-wave (km/s) = 3.83322 4.16438 4.00222
# Velocity P-wave (km/s) = 7.76965 8.29877 8.03856
#
# Compressibility (1/GPa) = 0.00820711
#
# Stress axis : x y z
#
# Youngs Moduli (GPa) = 171.36631 156.55627 112.40591
#
# Poissons Ratio (x) = 0.41651 0.12446
# Poissons Ratio (y) = 0.45591 0.30219
# Poissons Ratio (z) = 0.18975 0.42088
#
# Static dielectric constant tensor:
#      x y z
#    x 6.899640 0.000000 0.000000 
#    y 0.000000 6.035860 0.000000 
#    z 0.000000 0.000000 6.101850 
# 
# 
# High freq. dielectric constant tensor:
#      x y z
#    x 2.265380 0.000000 0.000000 
#    y 0.000000 2.248310 0.000000 
#    z 0.000000 0.000000 2.225180 
# 
# From -- ./inp_files/696.got.cif
#   From: 2010.03.12/outbox.cif.g09.slc.cpg/sg50_1_cif.got.tgz:696.got - 2010.04.16 13:23:21.
